data_PCOD9159205
_publ_section_title
;
Structure prediction by ZEFSAII (Michael W. Deem and Ramdas Pophale) SiO2 
 PCOD9159205
Probable space group: P 21/M
;
_chemical_formula_sum "Si O2"
_cell_formula_units_Z 28
_cell_length_a 14.422254
_cell_length_b 16.152561
_cell_length_c 7.871783
_cell_angle_alpha 90.000000
_cell_angle_beta 53.630965
_cell_angle_gamma 90.000000
_cell_volume 1476.587439
_symmetry_space_group_name_H-M "P 21/M"
_symmetry_group_IT_number 11
_symmetry_cell_setting 'monoclinic'
loop_
_space_group_symop_operation_xyz
x,y,z
-x,1/2+y,-z
-x,-y,-z
x,1/2-y,z
loop_
_atom_site_type_symbol
_atom_site_label
_atom_site_fract_x
_atom_site_fract_y
_atom_site_fract_z
Si Si1 0.048525 0.957660 0.163706
Si Si2 0.154563 0.985696 0.392800
Si Si3 0.196849 0.340457 0.173746
Si Si4 0.885213 0.886439 0.093615
Si Si5 0.645546 0.658878 0.517107
Si Si6 0.455155 0.157999 0.747100
Si Si7 0.594101 0.012600 0.753413
O O1 0.994532 0.888059 0.100514
O O2 0.114625 0.937049 0.266386
O O3 0.940609 0.012195 0.355287
O O4 0.123860 0.018000 0.962357
O O5 0.161628 0.082034 0.325238
O O6 0.280376 0.960847 0.316663
O O7 0.184433 0.250000 0.267604
O O8 0.123485 0.341246 0.078215
O O9 0.330682 0.353128 0.974573
O O10 0.777628 0.855078 0.318408
O O11 0.631603 0.750000 0.613192
O O12 0.574702 0.658766 0.419043
O O13 0.609637 0.578288 0.657777
O O14 0.497968 0.250000 0.749133
O O15 0.541263 0.083966 0.693127
O O16 0.500000 0.000000 0.000000
#
# Coordination Sequence:
#
# PCOD9159205 Si02
#       7
#     4   4   4   4   4   4   4
#     4   9  18  32  53  77 107 143 178 227 284 333
#     4  10  19  33  50  80 116 146 185 220 284 344
#     4   9  17  31  52  79 112 144 182 238 284 320
#     4   9  16  32  55  79 103 137 184 228 283 325
#     4  10  21  37  58  87 114 142 191 249 286 324
#     4   9  19  36  55  77 113 153 191 236 283 330
#     4  12  22  34  55  87 118 153 190 230 285 349
#
# _framework density 18.962643
#
# number of rings (size 3 to 8) (size 9 to 14) (size 15 to 20)
#    0.000    2.286    2.857    1.714    0.000    1.143 
#    0.000    0.000    0.000   10.286    0.000    1.000 
#    0.000    0.000    0.000    0.000    0.000    0.000 
#
# Total GULP energy -156016.595421 kJ/mol
# GULP energy per Si atom -5572.021265 kJ/mol
# Density = 1.891948 g / cm^3
# Si number density = 18.962643 Si / 1000 Ang^3
#
#
#
# Elastic Constant Matrix: (Units=GPa)
#
#
# Indices 1 2 3 4 5 6 
#
# 1 117.8790 50.3138 6.8898 0.0000 -3.9320 0.0000
# 2 50.3138 92.7547 16.2789 0.0000 -0.0889 0.0000
# 3 6.8898 16.2789 35.9986 0.0000 0.9941 0.0000
# 4 0.0000 0.0000 0.0000 20.8780 0.0000 -4.0619
# 5 -3.9320 -0.0889 0.9941 0.0000 22.9547 0.0000
# 6 0.0000 0.0000 0.0000 -4.0619 0.0000 7.5217
#
#
#
# Elastic Compliance Matrix: (Units=1/GPa)
#
#
# Indices 1 2 3 4 5 6 
#
# 1 0.011132 -0.006141 0.000595 0.000000 0.001857 0.000000
# 2 -0.006141 0.015100 -0.005632 0.000000 -0.000749 0.000000
# 3 0.000595 -0.005632 0.030246 0.000000 -0.001230 0.000000
# 4 0.000000 0.000000 0.000000 0.053520 0.000000 0.028902
# 5 0.001857 -0.000749 -0.001230 0.000000 0.043932 0.000000
# 6 0.000000 0.000000 0.000000 0.028902 0.000000 0.148556
#
#
# Mechanical properties :
#
#
# Convention : Reuss Voigt Hill
#
# Bulk Modulus (GPa) = 29.30716 43.73303 36.52010
# Shear Modulus (GPa) = 14.87140 21.81422 18.34281
#
# Velocity S-wave (km/s) = 2.80348 3.39540 3.11354
# Velocity P-wave (km/s) = 5.09589 6.20359 5.67682
#
# Compressibility (1/GPa) = 0.03412135
#
# Stress axis : x y z
#
# Youngs Moduli (GPa) = 89.83512 66.22538 33.06235
#
# Poissons Ratio (x) = 0.40668 -0.01968
# Poissons Ratio (y) = 0.55166 0.18622
# Poissons Ratio (z) = -0.05347 0.37300
#
# Static dielectric constant tensor:
#      x y z
#    x 1.708260 0.000000 0.029100 
#    y 0.000000 1.672310 0.000000 
#    z 0.029100 0.000000 1.662880 
# 
# From -- ./inp_files/22132.got.cif
#   From: 2010.05.17/outbox.cif.g08.bks.cpg/sg11_12_cif.got.tgz:22132.got - 2010.06.03 12:22:45.
