data_PCOD9159332
_publ_section_title
;
Structure prediction by ZEFSAII (Michael W. Deem and Ramdas Pophale) SiO2 
 PCOD9159332
Probable space group: P 21/M
;
_chemical_formula_sum "Si O2"
_cell_formula_units_Z 32
_cell_length_a 12.482135
_cell_length_b 14.709809
_cell_length_c 10.418980
_cell_angle_alpha 90.000000
_cell_angle_beta 125.733537
_cell_angle_gamma 90.000000
_cell_volume 1552.884074
_symmetry_space_group_name_H-M "P 21/M"
_symmetry_group_IT_number 11
_symmetry_cell_setting 'monoclinic'
loop_
_space_group_symop_operation_xyz
x,y,z
-x,1/2+y,-z
-x,-y,-z
x,1/2-y,z
loop_
_atom_site_type_symbol
_atom_site_label
_atom_site_fract_x
_atom_site_fract_y
_atom_site_fract_z
Si Si1 0.930887 0.398235 0.306930
Si Si2 0.369375 0.859995 0.547681
Si Si3 0.645500 0.396323 0.161476
Si Si4 0.075573 0.116168 0.664417
Si Si5 0.941547 0.859999 0.874952
Si Si6 0.642256 0.896277 0.066880
Si Si7 0.338970 0.360623 0.217976
Si Si8 0.115270 0.645013 0.229600
O O1 0.781411 0.361196 0.196314
O O2 0.920422 0.506359 0.324134
O O3 0.007423 0.358704 0.483103
O O4 0.007910 0.384801 0.229539
O O5 0.363868 0.750000 0.540338
O O6 0.342578 0.886409 0.676671
O O7 0.519986 0.887007 0.622861
O O8 0.252932 0.896209 0.375503
O O9 0.637130 0.502563 0.120488
O O10 0.504585 0.355608 0.020136
O O11 0.226545 0.147911 0.782983
O O12 0.986203 0.145174 0.722018
O O13 0.940391 0.750000 0.883650
O O14 0.791973 0.889339 0.799334
O O15 0.040652 0.895338 0.054864
O O16 0.665199 0.898554 0.929613
O O17 0.338408 0.250000 0.206180
O O18 0.144076 0.750000 0.216735
#
# Coordination Sequence:
#
# PCOD9159332 Si02
#       8
#     4   4   4   4   4   4   4   4
#     4  10  21  34  51  76 107 138 168 212 264 302
#     4   9  17  30  53  77  99 134 177 216 254 306
#     4   9  17  31  49  76 105 136 169 212 261 300
#     4  10  19  34  53  77 101 137 176 213 248 302
#     4  10  21  36  53  76 107 136 166 211 261 307
#     4   9  17  30  52  75 104 135 172 214 253 299
#     4   9  17  32  52  75 102 136 176 212 254 309
#     4  10  19  33  53  77 101 131 173 215 252 304
#
# _framework density 20.606819000000002
#
# number of rings (size 3 to 8) (size 9 to 14) (size 15 to 20)
#    0.000    2.500    2.500    0.000    0.000    1.500 
#    0.000    1.250    0.000    0.750    0.000    0.000 
#    0.000    0.000    0.000    0.000    0.000    0.000 
#
# Total GULP energy -178512.471913 kJ/mol
# GULP energy per Si atom -5578.514747 kJ/mol
# Density = 2.055992 g / cm^3
# Si number density = 20.606819 Si / 1000 Ang^3
#
#
#
# Elastic Constant Matrix: (Units=GPa)
#
#
# Indices 1 2 3 4 5 6 
#
# 1 155.6974 9.8461 83.2835 0.0000 25.9210 0.0000
# 2 9.8461 52.5333 20.2470 0.0000 9.4137 0.0000
# 3 83.2835 20.2470 124.5868 0.0000 18.4255 0.0000
# 4 0.0000 0.0000 0.0000 15.4006 0.0000 -7.3804
# 5 25.9210 9.4137 18.4255 0.0000 39.8698 0.0000
# 6 0.0000 0.0000 0.0000 -7.3804 0.0000 17.0511
#
#
#
# Elastic Compliance Matrix: (Units=1/GPa)
#
#
# Indices 1 2 3 4 5 6 
#
# 1 0.010606 0.001331 -0.006698 0.000000 -0.004114 0.000000
# 2 0.001331 0.020943 -0.003686 0.000000 -0.004107 0.000000
# 3 -0.006698 -0.003686 0.013235 0.000000 -0.000892 0.000000
# 4 0.000000 0.000000 0.000000 0.081927 0.000000 0.035461
# 5 -0.004114 -0.004107 -0.000892 0.000000 0.029138 0.000000
# 6 0.000000 0.000000 0.000000 0.035461 0.000000 0.073996
#
#
# Mechanical properties :
#
#
# Convention : Reuss Voigt Hill
#
# Bulk Modulus (GPa) = 37.48398 62.17452 49.82925
# Shear Modulus (GPa) = 19.46717 29.09367 24.28042
#
# Velocity S-wave (km/s) = 3.07692 3.76153 3.43632
# Velocity P-wave (km/s) = 5.55453 7.00734 6.32280
#
# Compressibility (1/GPa) = 0.02667807
#
# Stress axis : x y z
#
# Youngs Moduli (GPa) = 94.28406 47.74970 75.55891
#
# Poissons Ratio (x) = -0.06355 0.50608
# Poissons Ratio (y) = -0.12548 0.27849
# Poissons Ratio (z) = 0.63150 0.17599
#
# Static dielectric constant tensor:
#      x y z
#    x 1.735910 0.000000 0.062220 
#    y 0.000000 1.758210 0.000000 
#    z 0.062220 0.000000 1.731630 
# 
# From -- ./inp_files/19222.got.cif
#   From: 2010.05.17/outbox.cif.g08.bks.cpg/sg11_10_cif.got.tgz:19222.got - 2010.06.03 12:22:45.
