data_PCOD9159744
_publ_section_title
;
Structure prediction by ZEFSAII (Michael W. Deem and Ramdas Pophale) SiO2 
 PCOD9159744
Probable space group: P 21/M
;
_chemical_formula_sum "Si O2"
_cell_formula_units_Z 32
_cell_length_a 15.505717
_cell_length_b 21.772118
_cell_length_c 5.140548
_cell_angle_alpha 90.000000
_cell_angle_beta 121.751743
_cell_angle_gamma 90.000000
_cell_volume 1475.681484
_symmetry_space_group_name_H-M "P 21/M"
_symmetry_group_IT_number 11
_symmetry_cell_setting 'monoclinic'
loop_
_space_group_symop_operation_xyz
x,y,z
-x,1/2+y,-z
-x,-y,-z
x,1/2-y,z
loop_
_atom_site_type_symbol
_atom_site_label
_atom_site_fract_x
_atom_site_fract_y
_atom_site_fract_z
Si Si1 0.639120 0.320766 0.560926
Si Si2 0.028806 0.055147 0.341616
Si Si3 0.712386 0.112221 0.157810
Si Si4 0.698442 0.538331 0.738329
Si Si5 0.504688 0.442060 0.815896
Si Si6 0.767342 0.892288 0.333456
Si Si7 0.152112 0.952300 0.269543
Si Si8 0.569128 0.677965 0.982645
O O1 0.655756 0.250000 0.538691
O O2 0.676084 0.356220 0.366678
O O3 0.515732 0.328426 0.382818
O O4 0.704844 0.340670 0.911397
O O5 0.111290 0.108801 0.531354
O O6 0.094317 0.015357 0.241164
O O7 0.000000 0.000000 0.500000
O O8 0.927470 0.080587 0.045274
O O9 0.816317 0.081315 0.415936
O O10 0.621888 0.066064 0.938045
O O11 0.578075 0.544071 0.533799
O O12 0.739271 0.588154 0.585580
O O13 0.746413 0.474930 0.712223
O O14 0.735882 0.553812 0.083860
O O15 0.500000 0.500000 0.000000
O O16 0.468215 0.377388 0.888247
O O17 0.687955 0.838355 0.127501
O O18 0.561172 0.750000 0.056427
#
# Coordination Sequence:
#
# PCOD9159744 Si02
#       8
#     4   4   4   4   4   4   4   4
#     4  10  22  40  60  85 118 157 202 241 293 364
#     4  10  20  35  56  80 119 157 195 246 309 361
#     4  11  22  36  59  89 119 157 197 247 302 362
#     4  10  19  34  52  83 119 152 187 236 299 360
#     4  10  19  35  55  90 126 160 192 249 302 364
#     4  10  20  35  57  81 112 153 199 244 297 350
#     4  10  21  34  53  87 116 155 193 243 303 373
#     4   9  20  39  60  86 120 166 208 247 299 375
#
# _framework density 21.684898
#
# number of rings (size 3 to 8) (size 9 to 14) (size 15 to 20)
#    0.000    2.000    2.500    1.125    1.750    0.500 
#    0.000    7.500    0.000    1.500    0.000    0.000 
#    0.000    0.000    0.000    0.000    0.000    0.000 
#
# Total GULP energy -178316.967761 kJ/mol
# GULP energy per Si atom -5572.405243 kJ/mol
# Density = 2.163554 g / cm^3
# Si number density = 21.684898 Si / 1000 Ang^3
#
#
#
# Elastic Constant Matrix: (Units=GPa)
#
#
# Indices 1 2 3 4 5 6 
#
# 1 63.6994 22.4881 29.2640 0.0000 2.5382 0.0000
# 2 22.4881 90.1929 22.3656 0.0000 11.3839 0.0000
# 3 29.2640 22.3656 109.0750 0.0000 39.9353 0.0000
# 4 0.0000 0.0000 0.0000 0.5101 0.0000 38.1268
# 5 2.5382 11.3839 39.9353 0.0000 35.6497 0.0000
# 6 0.0000 0.0000 0.0000 38.1268 0.0000 -13.0707
#
#
#
# Elastic Compliance Matrix: (Units=1/GPa)
#
#
# Indices 1 2 3 4 5 6 
#
# 1 0.020418 -0.004253 -0.007749 0.000000 0.008585 0.000000
# 2 -0.004253 0.012634 -0.000141 0.000000 -0.003573 0.000000
# 3 -0.007749 -0.000141 0.018746 0.000000 -0.020403 0.000000
# 4 0.000000 0.000000 0.000000 0.008951 0.000000 0.026109
# 5 0.008585 -0.003573 -0.020403 0.000000 0.051436 0.000000
# 6 0.000000 0.000000 0.000000 0.026109 0.000000 -0.000349
#
#
# Mechanical properties :
#
#
# Convention : Reuss Voigt Hill
#
# Bulk Modulus (GPa) = 36.34882 45.68919 41.01900
# Shear Modulus (GPa) = 34.41333 17.20778 25.81055
#
# Velocity S-wave (km/s) = 3.98800 2.82004 3.45375
# Velocity P-wave (km/s) = 6.16476 5.63194 5.90436
#
# Compressibility (1/GPa) = 0.02751121
#
# Stress axis : x y z
#
# Youngs Moduli (GPa) = 48.97604 79.15298 53.34453
#
# Poissons Ratio (x) = 0.33663 0.41338
# Poissons Ratio (y) = 0.20829 0.00753
# Poissons Ratio (z) = 0.37953 0.01118
#
# Static dielectric constant tensor:
#      x y z
#    x 1.933290 0.000000 0.050160 
#    y 0.000000 1.815920 0.000000 
#    z 0.050160 0.000000 1.881550 
# 
# From -- ./inp_files/8348.got.cif
#   From: 2010.05.17/outbox.cif.g08.bks.cpg/sg11_5_cif.got.tgz:8348.got - 2010.06.03 12:22:45.
