data_PCOD9159904
_publ_section_title
;
Structure prediction by ZEFSAII (Michael W. Deem and Ramdas Pophale) SiO2 
 PCOD9159904
Probable space group: P 21/M
;
_chemical_formula_sum "Si O2"
_cell_formula_units_Z 28
_cell_length_a 29.494319
_cell_length_b 7.499535
_cell_length_c 9.254888
_cell_angle_alpha 90.000000
_cell_angle_beta 39.025255
_cell_angle_gamma 90.000000
_cell_volume 1288.997188
_symmetry_space_group_name_H-M "P 21/M"
_symmetry_group_IT_number 11
_symmetry_cell_setting 'monoclinic'
loop_
_space_group_symop_operation_xyz
x,y,z
-x,1/2+y,-z
-x,-y,-z
x,1/2-y,z
loop_
_atom_site_type_symbol
_atom_site_label
_atom_site_fract_x
_atom_site_fract_y
_atom_site_fract_z
Si Si1 0.073300 0.963768 0.404074
Si Si2 0.784891 0.467879 0.116117
Si Si3 0.638607 0.468461 0.317858
Si Si4 0.351273 0.542368 0.034292
Si Si5 0.785470 0.468791 0.447744
Si Si6 0.072892 0.536492 0.733300
Si Si7 0.496833 0.461894 0.837839
O O1 0.080496 0.750000 0.394384
O O2 0.070102 0.032524 0.576163
O O3 0.143494 0.028997 0.144271
O O4 0.000000 0.000000 0.500000
O O5 0.785625 0.250000 0.114087
O O6 0.712210 0.522359 0.214324
O O7 0.784547 0.525353 0.283462
O O8 0.636896 0.250000 0.323456
O O9 0.568159 0.528955 0.579440
O O10 0.638225 0.531022 0.152864
O O11 0.333274 0.750000 0.056522
O O12 0.284708 0.468666 0.291076
O O13 0.424361 0.532299 0.944186
O O14 0.784875 0.250000 0.446938
O O15 0.857601 0.527748 0.350817
O O16 0.080271 0.750000 0.706091
O O17 0.000000 0.500000 0.000000
O O18 0.494856 0.250000 0.824310
O O19 0.500000 0.500000 0.000000
#
# Coordination Sequence:
#
# PCOD9159904 Si02
#       7
#     4   4   4   4   4   4   4
#     4  10  20  33  52  76 104 135 171 213 258 306
#     4   9  16  29  50  76 102 132 170 211 250 299
#     4   9  18  32  53  79 105 133 170 212 255 303
#     4  10  19  34  56  80 105 135 170 212 258 308
#     4   9  17  30  52  78 104 135 173 212 255 307
#     4  10  20  34  52  77 105 137 175 216 260 308
#     4  11  22  36  54  78 107 139 174 214 257 305
#
# _framework density 21.722311999999999
#
# number of rings (size 3 to 8) (size 9 to 14) (size 15 to 20)
#    0.000    2.286    0.000    3.429    0.000    7.429 
#    0.000    1.429    0.000    8.571    0.000    0.000 
#    0.000    0.000    0.000    0.000    0.000    0.000 
#
# Total GULP energy -156520.973617 kJ/mol
# GULP energy per Si atom -5590.034772 kJ/mol
# Density = 2.167287 g / cm^3
# Si number density = 21.722312 Si / 1000 Ang^3
#
#
#
# Elastic Constant Matrix: (Units=GPa)
#
#
# Indices 1 2 3 4 5 6 
#
# 1 223.3500 -12.6209 148.8582 0.0000 9.1680 0.0000
# 2 -12.6209 56.0645 -1.3336 0.0000 4.0060 0.0000
# 3 148.8582 -1.3336 266.3682 0.0000 4.6290 0.0000
# 4 0.0000 0.0000 0.0000 12.7239 0.0000 -6.0251
# 5 9.1680 4.0060 4.6290 0.0000 49.9251 0.0000
# 6 0.0000 0.0000 0.0000 -6.0251 0.0000 16.5385
#
#
#
# Elastic Compliance Matrix: (Units=1/GPa)
#
#
# Indices 1 2 3 4 5 6 
#
# 1 0.007324 0.001631 -0.004066 0.000000 -0.001099 0.000000
# 2 0.001631 0.018306 -0.000790 0.000000 -0.001695 0.000000
# 3 -0.004066 -0.000790 0.006018 0.000000 0.000252 0.000000
# 4 0.000000 0.000000 0.000000 0.094976 0.000000 0.034600
# 5 -0.001099 -0.001695 0.000252 0.000000 0.020344 0.000000
# 6 0.000000 0.000000 0.000000 0.034600 0.000000 0.073070
#
#
# Mechanical properties :
#
#
# Convention : Reuss Voigt Hill
#
# Bulk Modulus (GPa) = 39.68640 90.62111 65.15376
# Shear Modulus (GPa) = 21.28668 43.22947 32.25807
#
# Velocity S-wave (km/s) = 3.13380 4.46589 3.85778
# Velocity P-wave (km/s) = 5.60391 8.27048 7.06416
#
# Compressibility (1/GPa) = 0.02519755
#
# Stress axis : x y z
#
# Youngs Moduli (GPa) = 136.53039 54.62690 166.16601
#
# Poissons Ratio (x) = -0.08908 0.67562
# Poissons Ratio (y) = -0.22263 0.13130
# Poissons Ratio (z) = 0.55512 0.04316
#
# Static dielectric constant tensor:
#      x y z
#    x 1.717960 0.000000 0.012980 
#    y 0.000000 1.863710 0.000000 
#    z 0.012980 0.000000 1.754530 
# 
# From -- ./inp_files/26435.got.cif
#   From: 2010.05.17/outbox.cif.g08.bks.cpg/sg11_14_cif.got.tgz:26435.got - 2010.06.03 12:22:45.
