data_PCOD9159657
_publ_section_title
;
Structure prediction by ZEFSAII (Michael W. Deem and Ramdas Pophale) SiO2 
 PCOD9159657
Probable space group: P 21/M
;
_chemical_formula_sum "Si O2"
_cell_formula_units_Z 32
_cell_length_a 11.486711
_cell_length_b 8.915986
_cell_length_c 21.669726
_cell_angle_alpha 90.000000
_cell_angle_beta 127.693715
_cell_angle_gamma 90.000000
_cell_volume 1756.121274
_symmetry_space_group_name_H-M "P 21/M"
_symmetry_group_IT_number 11
_symmetry_cell_setting 'monoclinic'
loop_
_space_group_symop_operation_xyz
x,y,z
-x,1/2+y,-z
-x,-y,-z
x,1/2-y,z
loop_
_atom_site_type_symbol
_atom_site_label
_atom_site_fract_x
_atom_site_fract_y
_atom_site_fract_z
Si Si1 0.316593 0.928358 0.737692
Si Si2 0.661138 0.575459 0.128364
Si Si3 0.571035 0.430423 0.616107
Si Si4 0.016511 0.930854 0.572623
Si Si5 0.153433 0.424345 0.066481
Si Si6 0.273930 0.069368 0.448309
Si Si7 0.393868 0.930195 0.229563
Si Si8 0.646392 0.923407 0.989353
O O1 0.338828 0.750000 0.741508
O O2 0.174734 0.971696 0.651760
O O3 0.285582 0.975972 0.797945
O O4 0.463749 0.007628 0.760651
O O5 0.680862 0.750000 0.149768
O O6 0.723343 0.545439 0.080011
O O7 0.488841 0.535063 0.064381
O O8 0.581882 0.250000 0.616747
O O9 0.685577 0.500016 0.604689
O O10 0.408216 0.472070 0.538119
O O11 0.594097 0.475572 0.694535
O O12 0.010097 0.750000 0.566281
O O13 0.881188 0.978386 0.572761
O O14 0.000000 0.000000 0.500000
O O15 0.133149 0.250000 0.076291
O O16 0.248022 0.505996 0.149887
O O17 0.249287 0.431979 0.035124
O O18 0.000000 0.500000 0.000000
O O19 0.273466 0.250000 0.442654
O O20 0.394088 0.750000 0.226212
O O21 0.590612 0.750000 0.975287
#
# Coordination Sequence:
#
# PCOD9159657 Si02
#       8
#     4   4   4   4   4   4   4   4
#     4  11  22  36  55  83 117 149 186 235 287 339
#     4  10  19  33  57  84 108 143 186 229 280 334
#     4   9  19  35  58  85 111 146 188 235 280 326
#     4  10  22  38  57  83 117 153 188 232 282 335
#     4  11  23  40  60  83 115 150 187 235 286 337
#     4   9  18  36  58  81 114 150 188 230 278 334
#     4  11  22  38  60  85 113 146 191 237 281 337
#     4   9  19  36  57  81 111 143 181 231 280 332
#
# _framework density 18.221976999999999
#
# number of rings (size 3 to 8) (size 9 to 14) (size 15 to 20)
#    0.000    2.000    1.250    2.250    0.000    4.500 
#    2.250    2.500    0.000    0.000    0.000    0.000 
#    0.000    0.000    0.000    0.000    0.000    0.000 
#
# Total GULP energy -178592.414090 kJ/mol
# GULP energy per Si atom -5581.012940 kJ/mol
# Density = 1.818050 g / cm^3
# Si number density = 18.221977 Si / 1000 Ang^3
#
#
#
# Elastic Constant Matrix: (Units=GPa)
#
#
# Indices 1 2 3 4 5 6 
#
# 1 50.9953 21.3891 38.5134 0.0000 -0.8779 0.0000
# 2 21.3891 41.5954 41.4479 0.0000 -0.7728 0.0000
# 3 38.5134 41.4479 137.9516 0.0000 -11.0723 0.0000
# 4 0.0000 0.0000 0.0000 29.8966 0.0000 -5.5527
# 5 -0.8779 -0.7728 -11.0723 0.0000 30.8852 0.0000
# 6 0.0000 0.0000 0.0000 -5.5527 0.0000 26.8581
#
#
#
# Elastic Compliance Matrix: (Units=1/GPa)
#
#
# Indices 1 2 3 4 5 6 
#
# 1 0.027119 -0.009028 -0.004958 0.000000 -0.001232 0.000000
# 2 -0.009028 0.037578 -0.008973 0.000000 -0.002533 0.000000
# 3 -0.004958 -0.008973 0.011634 0.000000 0.003806 0.000000
# 4 0.000000 0.000000 0.000000 0.034784 0.000000 0.007191
# 5 -0.001232 -0.002533 0.003806 0.000000 0.033644 0.000000
# 6 0.000000 0.000000 0.000000 0.007191 0.000000 0.038720
#
#
# Mechanical properties :
#
#
# Convention : Reuss Voigt Hill
#
# Bulk Modulus (GPa) = 32.87985 48.13813 40.50899
# Shear Modulus (GPa) = 20.87379 26.14077 23.50728
#
# Velocity S-wave (km/s) = 3.38824 3.79169 3.59562
# Velocity P-wave (km/s) = 5.77842 6.75605 6.28626
#
# Compressibility (1/GPa) = 0.03041376
#
# Stress axis : x y z
#
# Youngs Moduli (GPa) = 36.87418 26.61142 85.95178
#
# Poissons Ratio (x) = 0.24025 0.42611
# Poissons Ratio (y) = 0.33290 0.77126
# Poissons Ratio (z) = 0.18281 0.23879
#
# Static dielectric constant tensor:
#      x y z
#    x 1.611610 0.000000 -0.013580 
#    y 0.000000 1.600490 0.000000 
#    z -0.013580 0.000000 1.631480 
# 
# From -- ./inp_files/64415.got.cif
#   From: 2010.05.17/outbox.cif.g08.bks.cpg/sg11_33_cif.got.tgz:64415.got - 2010.06.03 12:22:45.
