data_PCOD9159217
_publ_section_title
;
Structure prediction by ZEFSAII (Michael W. Deem and Ramdas Pophale) SiO2 
 PCOD9159217
Probable space group: P 21/M
;
_chemical_formula_sum "Si O2"
_cell_formula_units_Z 20
_cell_length_a 20.358746
_cell_length_b 9.783039
_cell_length_c 5.566981
_cell_angle_alpha 90.000000
_cell_angle_beta 123.134988
_cell_angle_gamma 90.000000
_cell_volume 928.474043
_symmetry_space_group_name_H-M "P 21/M"
_symmetry_group_IT_number 11
_symmetry_cell_setting 'monoclinic'
loop_
_space_group_symop_operation_xyz
x,y,z
-x,1/2+y,-z
-x,-y,-z
x,1/2-y,z
loop_
_atom_site_type_symbol
_atom_site_label
_atom_site_fract_x
_atom_site_fract_y
_atom_site_fract_z
Si Si1 0.350378 0.046628 0.705326
Si Si2 0.691193 0.250000 0.375697
Si Si3 0.835722 0.587453 0.673617
Si Si4 0.591889 0.973180 0.679209
Si Si5 0.081139 0.417739 0.660236
Si Si6 0.695879 0.250000 0.885052
O O1 0.256846 0.060244 0.513989
O O2 0.363556 0.882738 0.733653
O O3 0.385605 0.097835 0.526495
O O4 0.383611 0.098309 0.023275
O O5 0.739699 0.250000 0.718975
O O6 0.739684 0.250000 0.226321
O O7 0.846018 0.750000 0.694348
O O8 0.873895 0.541941 0.497118
O O9 0.872910 0.542087 0.002212
O O10 0.642194 0.114521 0.777829
O O11 0.500000 0.000000 0.500000
O O12 0.071770 0.250000 0.641554
O O13 0.000000 0.500000 0.500000
#
# Coordination Sequence:
#
# PCOD9159217 Si02
#       6
#     4   2   4   4   4   2
#     4  10  19  35  52  76 106 139 185 219 280 330
#     4   8  16  30  50  66  96 134 162 222 262 316
#     4  10  21  38  59  83 119 152 179 228 283 329
#     4  10  19  33  51  73 103 139 181 233 272 323
#     4  10  21  40  62  87 120 152 184 226 278 337
#     4   8  16  30  46  64  94 130 164 210 288 310
#
# _framework density 21.540721999999999
#
# number of rings (size 3 to 8) (size 9 to 14) (size 15 to 20)
#    0.000    2.400    0.000    2.400    0.000    0.000 
#    7.200    0.000    0.000    0.000    0.000    0.000 
#    0.000    0.000    0.000    0.000    0.000    0.000 
#
# Total GULP energy -111446.561431 kJ/mol
# GULP energy per Si atom -5572.328072 kJ/mol
# Density = 2.149169 g / cm^3
# Si number density = 21.540722 Si / 1000 Ang^3
#
#
#
# Elastic Constant Matrix: (Units=GPa)
#
#
# Indices 1 2 3 4 5 6 
#
# 1 68.5318 -11.1418 71.1960 0.0000 -31.4680 0.0000
# 2 -11.1418 53.6847 4.1214 0.0000 -13.8226 0.0000
# 3 71.1960 4.1214 195.9052 0.0000 -38.7674 0.0000
# 4 0.0000 0.0000 0.0000 -15.1291 0.0000 21.0184
# 5 -31.4680 -13.8226 -38.7674 0.0000 61.8174 0.0000
# 6 0.0000 0.0000 0.0000 21.0184 0.0000 -13.7909
#
#
#
# Elastic Compliance Matrix: (Units=1/GPa)
#
#
# Indices 1 2 3 4 5 6 
#
# 1 0.031768 0.010583 -0.009247 0.000000 0.012739 0.000000
# 2 0.010583 0.023338 -0.002555 0.000000 0.009003 0.000000
# 3 -0.009247 -0.002555 0.008533 0.000000 0.000073 0.000000
# 4 0.000000 0.000000 0.000000 0.059156 0.000000 0.090158
# 5 0.012739 0.009003 0.000073 0.000000 0.024720 0.000000
# 6 0.000000 0.000000 0.000000 0.090158 0.000000 0.064895
#
#
# Mechanical properties :
#
#
# Convention : Reuss Voigt Hill
#
# Bulk Modulus (GPa) = 16.33966 49.60807 32.97387
# Shear Modulus (GPa) = 21.25403 23.50923 22.38163
#
# Velocity S-wave (km/s) = 3.14457 3.30720 3.22691
# Velocity P-wave (km/s) = 4.55921 6.13704 5.40600
#
# Compressibility (1/GPa) = 0.06120078
#
# Stress axis : x y z
#
# Youngs Moduli (GPa) = 31.47807 42.84851 117.18905
#
# Poissons Ratio (x) = -0.45347 1.08364
# Poissons Ratio (y) = -0.33314 0.29947
# Poissons Ratio (z) = 0.29108 0.10950
#
# Static dielectric constant tensor:
#      x y z
#    x 1.828180 0.000000 -0.123910 
#    y 0.000000 1.810800 0.000000 
#    z -0.123910 0.000000 1.839780 
# 
# From -- ./inp_files/6043.got.cif
#   From: 2010.05.17/outbox.cif.g08.bks.cpg/sg11_4_cif.got.tgz:6043.got - 2010.06.03 12:22:45.
