data_PCOD9159522
_publ_section_title
;
Structure prediction by ZEFSAII (Michael W. Deem and Ramdas Pophale) SiO2 
 PCOD9159522
Probable space group: P 21/M
;
_chemical_formula_sum "Si O2"
_cell_formula_units_Z 32
_cell_length_a 20.916812
_cell_length_b 8.992146
_cell_length_c 25.758528
_cell_angle_alpha 90.000000
_cell_angle_beta 22.519071
_cell_angle_gamma 90.000000
_cell_volume 1855.531658
_symmetry_space_group_name_H-M "P 21/M"
_symmetry_group_IT_number 11
_symmetry_cell_setting 'monoclinic'
loop_
_space_group_symop_operation_xyz
x,y,z
-x,1/2+y,-z
-x,-y,-z
x,1/2-y,z
loop_
_atom_site_type_symbol
_atom_site_label
_atom_site_fract_x
_atom_site_fract_y
_atom_site_fract_z
Si Si1 0.658697 0.928098 0.409611
Si Si2 0.380575 0.071227 0.439446
Si Si3 0.749544 0.073345 0.844780
Si Si4 0.567886 0.072487 0.871668
Si Si5 0.920854 0.073391 0.139685
Si Si6 0.106072 0.928185 0.571636
Si Si7 0.763842 0.427495 0.144028
Si Si8 0.152694 0.570982 0.416792
O O1 0.650585 0.750000 0.410256
O O2 0.650408 0.964322 0.476807
O O3 0.500000 0.000000 0.500000
O O4 0.823731 0.991059 0.258332
O O5 0.366613 0.250000 0.444416
O O6 0.571108 0.029566 0.282567
O O7 0.246883 0.992294 0.503547
O O8 0.768282 0.250000 0.835943
O O9 0.682051 0.041843 0.836932
O O10 0.925040 0.993585 0.721165
O O11 0.604732 0.012761 0.990892
O O12 0.536691 0.250000 0.894261
O O13 0.675504 0.029351 0.740853
O O14 0.921547 0.250000 0.147830
O O15 0.819548 0.044406 0.161929
O O16 0.106130 0.012755 0.989946
O O17 0.101890 0.750000 0.577708
O O18 0.144851 0.971544 0.482849
O O19 0.780008 0.250000 0.123537
O O20 0.138042 0.750000 0.424222
O O21 0.000000 0.500000 0.500000
#
# Coordination Sequence:
#
# PCOD9159522 Si02
#       8
#     4   4   4   4   4   4   4   4
#     4  11  21  36  58  85 113 145 186 234 280 330
#     4  10  22  40  58  79 113 151 188 226 274 336
#     4  10  19  33  55  81 110 147 185 223 276 331
#     4   9  18  33  54  81 111 142 181 231 276 320
#     4  10  19  33  55  86 115 143 184 232 280 328
#     4  11  23  37  56  83 114 147 185 228 278 332
#     4   9  18  35  55  80 112 148 187 228 276 328
#     4  10  20  35  56  83 112 142 182 229 275 325
#
# _framework density 17.245732
#
# number of rings (size 3 to 8) (size 9 to 14) (size 15 to 20)
#    0.000    2.000    2.500    1.500    0.000    3.500 
#    0.000    1.250    0.000    3.000    0.000    0.000 
#    0.000    0.000    0.000    0.000    0.000    0.000 
#
# Total GULP energy -178648.674102 kJ/mol
# GULP energy per Si atom -5582.771066 kJ/mol
# Density = 1.720648 g / cm^3
# Si number density = 17.245732 Si / 1000 Ang^3
#
#
#
# Elastic Constant Matrix: (Units=GPa)
#
#
# Indices 1 2 3 4 5 6 
#
# 1 107.3901 55.8879 88.0955 0.0000 -4.7135 0.0000
# 2 55.8879 48.0671 66.9525 0.0000 -2.9537 0.0000
# 3 88.0955 66.9525 182.6864 0.0000 -1.0120 0.0000
# 4 0.0000 0.0000 0.0000 34.5740 0.0000 -3.0483
# 5 -4.7135 -2.9537 -1.0120 0.0000 25.8060 0.0000
# 6 0.0000 0.0000 0.0000 -3.0483 0.0000 24.5836
#
#
#
# Elastic Compliance Matrix: (Units=1/GPa)
#
#
# Indices 1 2 3 4 5 6 
#
# 1 0.024313 -0.024217 -0.002841 0.000000 0.001558 0.000000
# 2 -0.024217 0.067092 -0.012895 0.000000 0.002750 0.000000
# 3 -0.002841 -0.012895 0.011561 0.000000 -0.001541 0.000000
# 4 0.000000 0.000000 0.000000 0.029243 0.000000 0.003626
# 5 0.001558 0.002750 -0.001541 0.000000 0.039290 0.000000
# 6 0.000000 0.000000 0.000000 0.003626 0.000000 0.041127
#
#
# Mechanical properties :
#
#
# Convention : Reuss Voigt Hill
#
# Bulk Modulus (GPa) = 43.36319 84.44614 63.90467
# Shear Modulus (GPa) = 16.65445 25.47323 21.06384
#
# Velocity S-wave (km/s) = 3.11097 3.84744 3.49864
# Velocity P-wave (km/s) = 6.17277 8.29517 7.31139
#
# Compressibility (1/GPa) = 0.02306103
#
# Stress axis : x y z
#
# Youngs Moduli (GPa) = 41.12951 14.90480 86.49658
#
# Poissons Ratio (x) = 0.36095 0.24570
# Poissons Ratio (y) = 0.99603 1.11541
# Poissons Ratio (z) = 0.11683 0.19220
#
# Static dielectric constant tensor:
#      x y z
#    x 1.561370 0.000000 0.013510 
#    y 0.000000 1.574370 0.000000 
#    z 0.013510 0.000000 1.575040 
# 
# From -- ./inp_files/71989.got.cif
#   From: 2010.05.17/outbox.cif.g08.bks.cpg/sg11_36_cif.got.tgz:71989.got - 2010.06.03 12:22:45.
