data_PCOD9159018
_publ_section_title
;
Structure prediction by ZEFSAII (Michael W. Deem and Ramdas Pophale) SiO2 
 PCOD9159018
Probable space group: P 21/M
;
_chemical_formula_sum "Si O2"
_cell_formula_units_Z 32
_cell_length_a 10.537359
_cell_length_b 9.556498
_cell_length_c 22.737575
_cell_angle_alpha 90.000000
_cell_angle_beta 38.097898
_cell_angle_gamma 90.000000
_cell_volume 1412.748285
_symmetry_space_group_name_H-M "P 21/M"
_symmetry_group_IT_number 11
_symmetry_cell_setting 'monoclinic'
loop_
_space_group_symop_operation_xyz
x,y,z
-x,1/2+y,-z
-x,-y,-z
x,1/2-y,z
loop_
_atom_site_type_symbol
_atom_site_label
_atom_site_fract_x
_atom_site_fract_y
_atom_site_fract_z
Si Si1 0.171136 0.589074 0.151781
Si Si2 0.724724 0.409331 0.187974
Si Si3 0.885868 0.089154 0.968657
Si Si4 0.224723 0.590669 0.687974
Si Si5 0.671135 0.089074 0.651781
Si Si6 0.432558 0.412749 0.136290
Si Si7 0.385868 0.589154 0.468657
Si Si8 0.067442 0.087251 0.363710
O O1 0.166645 0.750000 0.172077
O O2 0.156327 0.585434 0.086579
O O3 0.368020 0.512506 0.106723
O O4 0.973053 0.506104 0.247704
O O5 0.693061 0.250000 0.178957
O O6 0.750000 0.403200 0.250000
O O7 0.526947 0.506104 0.252296
O O8 0.930874 0.480493 0.087876
O O9 0.945314 0.250000 0.961257
O O10 0.661090 0.055501 0.076442
O O11 0.193061 0.750000 0.678956
O O12 0.430874 0.519507 0.587876
O O13 0.666645 0.250000 0.672077
O O14 0.656327 0.085434 0.586579
O O15 0.868019 0.012506 0.606723
O O16 0.437622 0.250000 0.115257
O O17 0.250000 0.426341 0.250000
O O18 0.445314 0.750000 0.461258
O O19 0.161090 0.555500 0.576442
O O20 0.062378 0.250000 0.384744
#
# Coordination Sequence:
#
# PCOD9159018 Si02
#       8
#     4   4   4   4   4   4   4   4
#     4  10  19  32  53  78 103 131 165 207 251 297
#     4   9  17  30  51  78 104 129 162 206 252 298
#     4   9  18  33  53  77 103 131 165 206 251 296
#     4   9  17  30  51  78 104 129 162 206 252 298
#     4  10  19  32  53  78 103 131 165 207 251 297
#     4  10  21  36  52  72 102 137 170 206 248 295
#     4   9  18  33  53  77 103 131 165 206 251 296
#     4  10  21  36  52  72 102 137 170 206 248 295
#
# _framework density 22.650884999999999
#
# number of rings (size 3 to 8) (size 9 to 14) (size 15 to 20)
#    0.000    2.500    0.000    2.250    0.000    5.500 
#    0.000    1.250    0.000    0.000    0.000    0.000 
#    0.000    0.000    0.000    0.000    0.000    0.000 
#
# Total GULP energy -179016.147081 kJ/mol
# GULP energy per Si atom -5594.254596 kJ/mol
# Density = 2.259933 g / cm^3
# Si number density = 22.650885 Si / 1000 Ang^3
#
#
#
# Elastic Constant Matrix: (Units=GPa)
#
#
# Indices 1 2 3 4 5 6 
#
# 1 60.3148 44.3677 17.8396 0.0000 -10.5026 0.0000
# 2 44.3677 124.5713 75.1832 0.0000 -19.1002 0.0000
# 3 17.8396 75.1832 166.7849 0.0000 -14.6364 0.0000
# 4 0.0000 0.0000 0.0000 31.6465 0.0000 -11.8956
# 5 -10.5026 -19.1002 -14.6364 0.0000 43.0111 0.0000
# 6 0.0000 0.0000 0.0000 -11.8956 0.0000 31.9078
#
#
#
# Elastic Compliance Matrix: (Units=1/GPa)
#
#
# Indices 1 2 3 4 5 6 
#
# 1 0.023005 -0.008904 0.001751 0.000000 0.002259 0.000000
# 2 -0.008904 0.014949 -0.005561 0.000000 0.002572 0.000000
# 3 0.001751 -0.005561 0.008386 0.000000 0.000812 0.000000
# 4 0.000000 0.000000 0.000000 0.036749 0.000000 0.013700
# 5 0.002259 0.002572 0.000812 0.000000 0.025220 0.000000
# 6 0.000000 0.000000 0.000000 0.013700 0.000000 0.036448
#
#
# Mechanical properties :
#
#
# Convention : Reuss Voigt Hill
#
# Bulk Modulus (GPa) = 47.81548 69.60578 58.71063
# Shear Modulus (GPa) = 28.22376 35.59847 31.91111
#
# Velocity S-wave (km/s) = 3.53375 3.96866 3.75750
# Velocity P-wave (km/s) = 6.14861 7.19701 6.69337
#
# Compressibility (1/GPa) = 0.02091373
#
# Stress axis : x y z
#
# Youngs Moduli (GPa) = 43.46889 66.89261 119.24152
#
# Poissons Ratio (x) = 0.59562 -0.20884
# Poissons Ratio (y) = 0.38705 0.66307
# Poissons Ratio (z) = -0.07613 0.37197
#
# Static dielectric constant tensor:
#      x y z
#    x 1.881040 0.000000 0.073060 
#    y 0.000000 1.755230 0.000000 
#    z 0.073060 0.000000 1.859640 
# 
# From -- ./inp_files/65207.got.cif
#   From: 2010.05.17/outbox.cif.g08.bks.cpg/sg11_33_cif.got.tgz:65207.got - 2010.06.03 12:22:45.
