data_PCOD9159717
_publ_section_title
;
Structure prediction by ZEFSAII (Michael W. Deem and Ramdas Pophale) SiO2 
 PCOD9159717
Probable space group: P 21/M
;
_chemical_formula_sum "Si O2"
_cell_formula_units_Z 24
_cell_length_a 8.706299
_cell_length_b 15.852899
_cell_length_c 11.945002
_cell_angle_alpha 90.000000
_cell_angle_beta 47.862405
_cell_angle_gamma 90.000000
_cell_volume 1222.533044
_symmetry_space_group_name_H-M "P 21/M"
_symmetry_group_IT_number 11
_symmetry_cell_setting 'monoclinic'
loop_
_space_group_symop_operation_xyz
x,y,z
-x,1/2+y,-z
-x,-y,-z
x,1/2-y,z
loop_
_atom_site_type_symbol
_atom_site_label
_atom_site_fract_x
_atom_site_fract_y
_atom_site_fract_z
Si Si1 0.963030 0.421886 0.284166
Si Si2 0.610302 0.489123 0.621107
Si Si3 0.165743 0.343921 0.396908
Si Si4 0.715354 0.341106 0.728332
Si Si5 0.692635 0.058389 0.945290
Si Si6 0.810170 0.056243 0.136435
O O1 0.093535 0.363258 0.304839
O O2 0.106839 0.502815 0.187322
O O3 0.763015 0.451799 0.452776
O O4 0.898341 0.385836 0.193879
O O5 0.705360 0.577139 0.619470
O O6 0.610765 0.419097 0.717751
O O7 0.370928 0.504479 0.711903
O O8 0.259450 0.250000 0.359490
O O9 0.954060 0.343579 0.572886
O O10 0.629821 0.250000 0.737374
O O11 0.693421 0.358609 0.869579
O O12 0.706048 0.082643 0.069488
O O13 0.500000 0.000000 0.000000
O O14 0.000000 0.000000 0.000000
#
# Coordination Sequence:
#
# PCOD9159717 Si02
#       6
#     4   4   4   4   4   4
#     4  10  19  35  56  86 113 151 188 237 294 344
#     4  11  18  38  61  85 114 152 198 244 282 343
#     4  10  19  34  61  90 113 147 198 247 288 339
#     4  10  19  33  60  89 112 146 196 240 286 343
#     4  11  18  35  56  82 118 148 191 236 283 345
#     4  10  22  33  58  84 116 157 189 233 301 353
#
# _framework density 19.631371000000001
#
# number of rings (size 3 to 8) (size 9 to 14) (size 15 to 20)
#    0.000    1.667    5.000    1.500    0.000    0.000 
#    0.000    5.000    0.000    8.000    0.000    0.000 
#    0.000    0.000    0.000    0.000    0.000    0.000 
#
# Total GULP energy -133645.076602 kJ/mol
# GULP energy per Si atom -5568.544858 kJ/mol
# Density = 1.958669 g / cm^3
# Si number density = 19.631371 Si / 1000 Ang^3
#
#
#
# Elastic Constant Matrix: (Units=GPa)
#
#
# Indices 1 2 3 4 5 6 
#
# 1 70.9779 13.9466 24.0070 0.0000 20.8344 0.0000
# 2 13.9466 92.9105 -4.9596 0.0000 12.7711 0.0000
# 3 24.0070 -4.9596 59.7384 0.0000 19.4738 0.0000
# 4 0.0000 0.0000 0.0000 9.0933 0.0000 -1.3473
# 5 20.8344 12.7711 19.4738 0.0000 44.5599 0.0000
# 6 0.0000 0.0000 0.0000 -1.3473 0.0000 -3.0976
#
#
#
# Elastic Compliance Matrix: (Units=1/GPa)
#
#
# Indices 1 2 3 4 5 6 
#
# 1 0.018017 -0.002285 -0.005711 0.000000 -0.005274 0.000000
# 2 -0.002285 0.011773 0.003087 0.000000 -0.003655 0.000000
# 3 -0.005711 0.003087 0.021817 0.000000 -0.007749 0.000000
# 4 0.000000 0.000000 0.000000 0.103313 0.000000 -0.044936
# 5 -0.005274 -0.003655 -0.007749 0.000000 0.029342 0.000000
# 6 0.000000 0.000000 0.000000 -0.044936 0.000000 -0.303289
#
#
# Mechanical properties :
#
#
# Convention : Reuss Voigt Hill
#
# Bulk Modulus (GPa) = 23.92891 32.17940 28.05415
# Shear Modulus (GPa) = -52.47762 22.81999 -14.82881
#
# Velocity S-wave (km/s) = -5.17586 3.41313 -2.75137
# Velocity P-wave (km/s) = 4.84807 5.65332 2.05624
#
# Compressibility (1/GPa) = 0.04179045
#
# Stress axis : x y z
#
# Youngs Moduli (GPa) = 55.50169 84.93865 45.83544
#
# Poissons Ratio (x) = 0.19405 0.26178
# Poissons Ratio (y) = 0.12680 -0.14150
# Poissons Ratio (z) = 0.31698 -0.26221
#
# Static dielectric constant tensor:
#      x y z
#    x 1.762790 0.000000 0.028650 
#    y 0.000000 1.728780 0.000000 
#    z 0.028650 0.000000 1.715140 
# 
# From -- ./inp_files/18712.got.cif
#   From: 2010.05.17/outbox.cif.g08.bks.cpg/sg11_10_cif.got.tgz:18712.got - 2010.06.03 12:22:45.
