data_PCOD9159667
_publ_section_title
;
Structure prediction by ZEFSAII (Michael W. Deem and Ramdas Pophale) SiO2 
 PCOD9159667
Probable space group: P 21/M
;
_chemical_formula_sum "Si O2"
_cell_formula_units_Z 32
_cell_length_a 23.529355
_cell_length_b 11.268552
_cell_length_c 11.234891
_cell_angle_alpha 90.000000
_cell_angle_beta 30.643647
_cell_angle_gamma 90.000000
_cell_volume 1518.305091
_symmetry_space_group_name_H-M "P 21/M"
_symmetry_group_IT_number 11
_symmetry_cell_setting 'monoclinic'
loop_
_space_group_symop_operation_xyz
x,y,z
-x,1/2+y,-z
-x,-y,-z
x,1/2-y,z
loop_
_atom_site_type_symbol
_atom_site_label
_atom_site_fract_x
_atom_site_fract_y
_atom_site_fract_z
Si Si1 0.762456 0.121973 0.910168
Si Si2 0.656180 0.881701 0.463638
Si Si3 0.676659 0.470685 0.656013
Si Si4 0.455718 0.122862 0.938302
Si Si5 0.914800 0.113425 0.141132
Si Si6 0.540776 0.002113 0.292227
Si Si7 0.007249 0.611544 0.580368
Si Si8 0.841828 0.037992 0.017514
O O1 0.706615 0.250000 0.003028
O O2 0.860591 0.115278 0.637183
O O3 0.671770 0.022507 0.060293
O O4 0.818754 0.111411 0.939284
O O5 0.695907 0.750000 0.369958
O O6 0.528968 0.897544 0.652297
O O7 0.672845 0.919244 0.569809
O O8 0.727214 0.974878 0.260207
O O9 0.574175 0.390955 0.791777
O O10 0.799255 0.414475 0.421625
O O11 0.630236 0.522014 0.863284
O O12 0.406223 0.250000 0.054202
O O13 0.480575 0.109534 0.753821
O O14 0.952836 0.250000 0.100855
O O15 0.882223 0.109275 0.059550
O O16 0.000000 0.000000 0.000000
O O17 0.500000 0.000000 0.500000
O O18 0.977757 0.750000 0.598771
O O19 0.000000 0.500000 0.500000
O O20 0.930526 0.565295 0.824946
#
# Coordination Sequence:
#
# PCOD9159667 Si02
#       8
#     4   4   4   4   4   4   4   4
#     4  10  20  37  58  80 115 159 201 248 300 368
#     4  10  19  33  57  85 121 160 201 258 315 371
#     4   9  21  41  63  92 122 159 215 260 317 383
#     4  10  21  39  65  90 123 167 209 263 317 379
#     4  11  25  43  66  95 126 163 208 265 327 391
#     4  11  22  37  51  88 126 159 207 250 310 373
#     4   9  19  35  57  84 116 157 206 254 303 359
#     4  10  20  38  60  87 116 155 208 254 311 376
#
# _framework density 21.076132999999999
#
# number of rings (size 3 to 8) (size 9 to 14) (size 15 to 20)
#    0.000    2.000    1.250    1.875    0.000    5.500 
#    0.000    3.750    0.000    0.000    0.000    0.000 
#    0.000    0.000    0.000    0.000    0.000    0.000 
#
# Total GULP energy -178181.733881 kJ/mol
# GULP energy per Si atom -5568.179184 kJ/mol
# Density = 2.102816 g / cm^3
# Si number density = 21.076133 Si / 1000 Ang^3
#
#
#
# Elastic Constant Matrix: (Units=GPa)
#
#
# Indices 1 2 3 4 5 6 
#
# 1 55.5992 18.8172 20.0497 0.0000 5.1207 0.0000
# 2 18.8172 117.5974 25.2502 0.0000 -2.0820 0.0000
# 3 20.0497 25.2502 106.7701 0.0000 3.1013 0.0000
# 4 0.0000 0.0000 0.0000 17.3927 0.0000 1.5288
# 5 5.1207 -2.0820 3.1013 0.0000 26.6239 0.0000
# 6 0.0000 0.0000 0.0000 1.5288 0.0000 1.0653
#
#
#
# Elastic Compliance Matrix: (Units=1/GPa)
#
#
# Indices 1 2 3 4 5 6 
#
# 1 0.020344 -0.002660 -0.003082 0.000000 -0.003762 0.000000
# 2 -0.002660 0.009330 -0.001749 0.000000 0.001445 0.000000
# 3 -0.003082 -0.001749 0.010380 0.000000 -0.000753 0.000000
# 4 0.000000 0.000000 0.000000 0.065795 0.000000 -0.094426
# 5 -0.003762 0.001445 -0.000753 0.000000 0.038485 0.000000
# 6 0.000000 0.000000 0.000000 -0.094426 0.000000 1.074255
#
#
# Mechanical properties :
#
#
# Convention : Reuss Voigt Hill
#
# Bulk Modulus (GPa) = 39.88450 45.35567 42.62008
# Shear Modulus (GPa) = 4.02600 23.40634 13.71617
#
# Velocity S-wave (km/s) = 1.38360 3.33612 2.55383
# Velocity P-wave (km/s) = 4.63870 6.03376 5.38163
#
# Compressibility (1/GPa) = 0.02507240
#
# Stress axis : x y z
#
# Youngs Moduli (GPa) = 49.15450 107.17679 96.33776
#
# Poissons Ratio (x) = 0.28511 0.29690
# Poissons Ratio (y) = 0.13076 0.16849
# Poissons Ratio (z) = 0.15149 0.18745
#
# Static dielectric constant tensor:
#      x y z
#    x 1.788620 0.000000 0.008980 
#    y 0.000000 1.802120 0.000000 
#    z 0.008980 0.000000 1.774230 
# 
# From -- ./inp_files/44217.got.cif
#   From: 2010.05.17/outbox.cif.g08.bks.cpg/sg11_23_cif.got.tgz:44217.got - 2010.06.03 12:22:45.
