data_PCOD9159470
_publ_section_title
;
Structure prediction by ZEFSAII (Michael W. Deem and Ramdas Pophale) SiO2 
 PCOD9159470
Probable space group: P 21/M
;
_chemical_formula_sum "Si O2"
_cell_formula_units_Z 24
_cell_length_a 21.339382
_cell_length_b 12.855930
_cell_length_c 12.340597
_cell_angle_alpha 90.000000
_cell_angle_beta 22.128771
_cell_angle_gamma 90.000000
_cell_volume 1275.278353
_symmetry_space_group_name_H-M "P 21/M"
_symmetry_group_IT_number 11
_symmetry_cell_setting 'monoclinic'
loop_
_space_group_symop_operation_xyz
x,y,z
-x,1/2+y,-z
-x,-y,-z
x,1/2-y,z
loop_
_atom_site_type_symbol
_atom_site_label
_atom_site_fract_x
_atom_site_fract_y
_atom_site_fract_z
Si Si1 0.820665 0.985681 0.650731
Si Si2 0.297445 0.374647 0.719102
Si Si3 0.510500 0.129349 0.180024
Si Si4 0.957013 0.367335 0.133996
Si Si5 0.144185 0.375064 0.180720
Si Si6 0.181774 0.424150 0.583681
O O1 0.810102 0.912610 0.772784
O O2 0.840163 0.921057 0.509181
O O3 0.975699 0.063982 0.419045
O O4 0.657101 0.056547 0.905179
O O5 0.315724 0.250000 0.689018
O O6 0.440578 0.411292 0.408455
O O7 0.279490 0.406771 0.872260
O O8 0.118783 0.394204 0.948317
O O9 0.563769 0.250000 0.104731
O O10 0.351762 0.124650 0.354680
O O11 0.904704 0.250000 0.241231
O O12 0.821864 0.454005 0.375933
O O13 0.028978 0.376429 0.897066
O O14 0.121834 0.250000 0.211556
#
# Coordination Sequence:
#
# PCOD9159470 Si02
#       6
#     4   4   4   4   4   4
#     4  11  22  35  55  83 110 144 180 225 271 326
#     4   8  15  32  55  76 100 140 181 215 260 313
#     4  10  21  36  56  81 110 142 179 226 275 323
#     4   9  17  31  55  81 107 141 182 223 265 322
#     4  10  21  37  56  77 106 146 187 225 266 315
#     4  10  19  33  54  83 111 140 180 223 274 324
#
# _framework density 18.819420999999998
#
# number of rings (size 3 to 8) (size 9 to 14) (size 15 to 20)
#    0.000    2.333    1.667    2.500    0.000    2.667 
#    0.000    0.833    0.000    0.000    0.000    0.000 
#    0.000    0.000    0.000    0.000    0.000    0.000 
#
# Total GULP energy -133812.015439 kJ/mol
# GULP energy per Si atom -5575.500643 kJ/mol
# Density = 1.877659 g / cm^3
# Si number density = 18.819421 Si / 1000 Ang^3
#
#
#
# Elastic Constant Matrix: (Units=GPa)
#
#
# Indices 1 2 3 4 5 6 
#
# 1 109.0153 0.3331 21.3584 0.0000 37.9515 0.0000
# 2 0.3331 34.8179 -8.7449 0.0000 4.4199 0.0000
# 3 21.3584 -8.7449 26.2959 0.0000 12.2019 0.0000
# 4 0.0000 0.0000 0.0000 15.8780 0.0000 1.9188
# 5 37.9515 4.4199 12.2019 0.0000 28.3419 0.0000
# 6 0.0000 0.0000 0.0000 1.9188 0.0000 20.8011
#
#
#
# Elastic Compliance Matrix: (Units=1/GPa)
#
#
# Indices 1 2 3 4 5 6 
#
# 1 0.017644 0.001870 -0.003263 0.000000 -0.022514 0.000000
# 2 0.001870 0.034992 0.017260 0.000000 -0.015392 0.000000
# 3 -0.003263 0.017260 0.057035 0.000000 -0.022878 0.000000
# 4 0.000000 0.000000 0.000000 0.063690 0.000000 -0.005875
# 5 -0.022514 -0.015392 -0.022878 0.000000 0.077680 0.000000
# 6 0.000000 0.000000 0.000000 -0.005875 0.000000 0.048616
#
#
# Mechanical properties :
#
#
# Convention : Reuss Voigt Hill
#
# Bulk Modulus (GPa) = 7.07186 21.78026 14.42606
# Shear Modulus (GPa) = 15.87009 23.48303 19.67656
#
# Velocity S-wave (km/s) = 2.90708 3.53627 3.23700
# Velocity P-wave (km/s) = 3.87738 5.31714 4.65328
#
# Compressibility (1/GPa) = 0.14140555
#
# Stress axis : x y z
#
# Youngs Moduli (GPa) = 56.67590 28.57800 17.53325
#
# Poissons Ratio (x) = -0.05343 0.05720
# Poissons Ratio (y) = -0.10597 -0.30263
# Poissons Ratio (z) = 0.18491 -0.49326
#
# Static dielectric constant tensor:
#      x y z
#    x 1.675190 0.000000 0.037280 
#    y 0.000000 1.637780 0.000000 
#    z 0.037280 0.000000 1.649480 
# 
# From -- ./inp_files/17536.got.cif
#   From: 2010.05.17/outbox.cif.g08.bks.cpg/sg11_9_cif.got.tgz:17536.got - 2010.06.03 12:22:45.
