data_PCOD9159012
_publ_section_title
;
Structure prediction by ZEFSAII (Michael W. Deem and Ramdas Pophale) SiO2 
 PCOD9159012
Probable space group: P 21/M
;
_chemical_formula_sum "Si O2"
_cell_formula_units_Z 32
_cell_length_a 8.091128
_cell_length_b 15.191108
_cell_length_c 12.823190
_cell_angle_alpha 90.000000
_cell_angle_beta 108.390283
_cell_angle_gamma 90.000000
_cell_volume 1495.645133
_symmetry_space_group_name_H-M "P 21/M"
_symmetry_group_IT_number 11
_symmetry_cell_setting 'monoclinic'
loop_
_space_group_symop_operation_xyz
x,y,z
-x,1/2+y,-z
-x,-y,-z
x,1/2-y,z
loop_
_atom_site_type_symbol
_atom_site_label
_atom_site_fract_x
_atom_site_fract_y
_atom_site_fract_z
Si Si1 0.688834 0.595269 0.234626
Si Si2 0.954208 0.095269 0.765374
Si Si3 0.936601 0.145377 0.992870
Si Si4 0.443732 0.645377 0.007130
Si Si5 0.441192 0.112150 0.382384
Si Si6 0.939879 0.887094 0.755675
Si Si7 0.568302 0.103267 0.636605
Si Si8 0.684203 0.112906 0.244325
O O1 0.561987 0.632632 0.297706
O O2 0.705091 0.491816 0.261325
O O3 0.882312 0.633725 0.264623
O O4 0.596821 0.603181 0.103958
O O5 0.764281 0.132631 0.702294
O O6 0.943766 0.991816 0.738675
O O7 0.992863 0.103181 0.896042
O O8 0.931567 0.250000 0.975629
O O9 0.741042 0.114352 0.982084
O O10 0.049779 0.127836 0.117961
O O11 0.455938 0.750000 0.024371
O O12 0.431817 0.627836 0.882039
O O13 0.244781 0.144920 0.323692
O O14 0.505467 0.132826 0.510934
O O15 0.578911 0.144920 0.323692
O O16 0.434090 0.004614 0.368179
O O17 0.120995 0.851819 0.741989
#
# Coordination Sequence:
#
# PCOD9159012 Si02
#       8
#     4   4   4   4   4   4   4   4
#     4  10  19  32  53  77 104 138 172 212 259 310
#     4  10  19  32  53  77 104 138 172 212 259 310
#     4  10  20  34  52  75 107 138 169 216 263 308
#     4  10  20  34  52  75 107 138 169 216 263 308
#     4   9  18  32  55  77 105 141 170 215 260 305
#     4   9  19  33  51  78 105 135 174 213 258 309
#     4   9  18  34  51  79 109 133 176 217 256 305
#     4   9  19  33  51  78 105 135 174 213 258 309
#
# _framework density 21.39545
#
# number of rings (size 3 to 8) (size 9 to 14) (size 15 to 20)
#    0.000    2.500    1.250    0.750    1.750    1.500 
#    0.000    5.000    0.000    3.000    0.000    3.500 
#    0.000    0.000    0.000    0.000    0.000    0.000 
#
# Total GULP energy -178654.099709 kJ/mol
# GULP energy per Si atom -5582.940616 kJ/mol
# Density = 2.134675 g / cm^3
# Si number density = 21.395450 Si / 1000 Ang^3
#
#
#
# Elastic Constant Matrix: (Units=GPa)
#
#
# Indices 1 2 3 4 5 6 
#
# 1 182.5713 18.5172 112.3267 0.0000 1.9532 0.0000
# 2 18.5172 32.9234 0.1562 0.0000 1.1555 0.0000
# 3 112.3267 0.1562 136.0945 0.0000 0.9718 0.0000
# 4 0.0000 0.0000 0.0000 -49.9912 0.0000 2.8165
# 5 1.9532 1.1555 0.9718 0.0000 19.6671 0.0000
# 6 0.0000 0.0000 0.0000 2.8165 0.0000 -5.2359
#
#
#
# Elastic Compliance Matrix: (Units=1/GPa)
#
#
# Indices 1 2 3 4 5 6 
#
# 1 0.012566 -0.007007 -0.010361 0.000000 -0.000324 0.000000
# 2 -0.007007 0.034344 0.005755 0.000000 -0.001606 0.000000
# 3 -0.010361 0.005755 0.015894 0.000000 -0.000095 0.000000
# 4 0.000000 0.000000 0.000000 -0.020629 0.000000 -0.011097
# 5 -0.000324 -0.001606 -0.000095 0.000000 0.050978 0.000000
# 6 0.000000 0.000000 0.000000 -0.011097 0.000000 -0.196958
#
#
# Mechanical properties :
#
#
# Convention : Reuss Voigt Hill
#
# Bulk Modulus (GPa) = 25.26682 68.17660 46.72171
# Shear Modulus (GPa) = -74.19834 7.59394 -33.30220
#
# Velocity S-wave (km/s) = -5.89532 1.88601 -3.94954
# Velocity P-wave (km/s) = 5.87406 6.05614 1.04217
#
# Compressibility (1/GPa) = 0.03957759
#
# Stress axis : x y z
#
# Youngs Moduli (GPa) = 79.57828 29.11749 62.91807
#
# Poissons Ratio (x) = 0.20403 0.65191
# Poissons Ratio (y) = 0.55761 -0.36212
# Poissons Ratio (z) = 0.82453 -0.16758
#
# Static dielectric constant tensor:
#      x y z
#    x 1.868350 0.000000 0.009240 
#    y 0.000000 1.769400 0.000000 
#    z 0.009240 0.000000 1.721600 
# 
# From -- ./inp_files/32679.got.cif
#   From: 2010.05.17/outbox.cif.g08.bks.cpg/sg11_17_cif.got.tgz:32679.got - 2010.06.03 12:22:45.
