data_PCOD9159329
_publ_section_title
;
Structure prediction by ZEFSAII (Michael W. Deem and Ramdas Pophale) SiO2 
 PCOD9159329
Probable space group: P 21/M
;
_chemical_formula_sum "Si O2"
_cell_formula_units_Z 20
_cell_length_a 28.308303
_cell_length_b 8.887651
_cell_length_c 9.867070
_cell_angle_alpha 90.000000
_cell_angle_beta 27.474037
_cell_angle_gamma 90.000000
_cell_volume 1145.292418
_symmetry_space_group_name_H-M "P 21/M"
_symmetry_group_IT_number 11
_symmetry_cell_setting 'monoclinic'
loop_
_space_group_symop_operation_xyz
x,y,z
-x,1/2+y,-z
-x,-y,-z
x,1/2-y,z
loop_
_atom_site_type_symbol
_atom_site_label
_atom_site_fract_x
_atom_site_fract_y
_atom_site_fract_z
Si Si1 0.164360 0.430845 0.336343
Si Si2 0.939845 0.570129 0.878146
Si Si3 0.388811 0.570853 0.267443
Si Si4 0.218127 0.930207 0.924095
Si Si5 0.766098 0.929523 0.541529
O O1 0.161223 0.250000 0.335673
O O2 0.212818 0.473405 0.357643
O O3 0.049627 0.495804 0.619357
O O4 0.224497 0.499263 0.056157
O O5 0.949803 0.750000 0.836098
O O6 0.880185 0.500049 0.902206
O O7 0.866742 0.539831 0.193773
O O8 0.397037 0.750000 0.239461
O O9 0.315661 0.533029 0.581672
O O10 0.328366 0.510488 0.290197
O O11 0.500000 0.500000 0.000000
O O12 0.207305 0.750000 0.958774
O O13 0.748872 0.750000 0.580138
#
# Coordination Sequence:
#
# PCOD9159329 Si02
#       5
#     4   4   4   4   4
#     4  11  21  33  51  78 111 143 173 213 258 303
#     4  10  19  33  53  76 106 145 180 213 253 303
#     4  10  21  38  61  81 100 130 171 217 264 314
#     4  10  21  36  53  77 106 138 176 215 255 307
#     4   9  20  36  54  78 107 138 176 216 257 305
#
# _framework density 17.462788
#
# number of rings (size 3 to 8) (size 9 to 14) (size 15 to 20)
#    0.000    2.000    0.000    3.600    0.000    4.800 
#    0.000    1.000    0.000    0.000    0.000    0.000 
#    0.000    0.000    0.000    0.000    0.000    0.000 
#
# Total GULP energy -111720.709792 kJ/mol
# GULP energy per Si atom -5586.035490 kJ/mol
# Density = 1.742304 g / cm^3
# Si number density = 17.462788 Si / 1000 Ang^3
#
#
#
# Elastic Constant Matrix: (Units=GPa)
#
#
# Indices 1 2 3 4 5 6 
#
# 1 130.9429 59.8800 88.7827 0.0000 15.7105 0.0000
# 2 59.8800 60.0857 52.8239 0.0000 1.6033 0.0000
# 3 88.7827 52.8239 94.3696 0.0000 -9.2718 0.0000
# 4 0.0000 0.0000 0.0000 30.9966 0.0000 -1.7584
# 5 15.7105 1.6033 -9.2718 0.0000 32.5261 0.0000
# 6 0.0000 0.0000 0.0000 -1.7584 0.0000 32.3170
#
#
#
# Elastic Compliance Matrix: (Units=1/GPa)
#
#
# Indices 1 2 3 4 5 6 
#
# 1 0.036107 -0.006130 -0.033150 0.000000 -0.026587 0.000000
# 2 -0.006130 0.035455 -0.014362 0.000000 -0.002881 0.000000
# 3 -0.033150 -0.014362 0.052949 0.000000 0.031813 0.000000
# 4 0.000000 0.000000 0.000000 0.032362 0.000000 0.001761
# 5 -0.026587 -0.002881 0.031813 0.000000 0.052797 0.000000
# 6 0.000000 0.000000 0.000000 0.001761 0.000000 0.031039
#
#
# Mechanical properties :
#
#
# Convention : Reuss Voigt Hill
#
# Bulk Modulus (GPa) = 58.04998 76.48573 67.26785
# Shear Modulus (GPa) = 14.13487 24.76205 19.44846
#
# Velocity S-wave (km/s) = 2.84813 3.76971 3.34085
# Velocity P-wave (km/s) = 6.64305 7.92729 7.31341
#
# Compressibility (1/GPa) = 0.01722653
#
# Stress axis : x y z
#
# Youngs Moduli (GPa) = 27.69573 28.20459 18.88613
#
# Poissons Ratio (x) = 0.17290 0.62607
# Poissons Ratio (y) = 0.16978 0.27125
# Poissons Ratio (z) = 0.91811 0.40508
#
# Static dielectric constant tensor:
#      x y z
#    x 1.567650 0.000000 0.025150 
#    y 0.000000 1.581140 0.000000 
#    z 0.025150 0.000000 1.587920 
# 
# From -- ./inp_files/15926.got.cif
#   From: 2010.05.17/outbox.cif.g08.bks.cpg/sg11_8_cif.got.tgz:15926.got - 2010.06.03 12:22:45.
