data_PCOD9159513
_publ_section_title
;
Structure prediction by ZEFSAII (Michael W. Deem and Ramdas Pophale) SiO2 
 PCOD9159513
Probable space group: P 21/M
;
_chemical_formula_sum "Si O2"
_cell_formula_units_Z 28
_cell_length_a 13.136153
_cell_length_b 11.942361
_cell_length_c 15.143272
_cell_angle_alpha 90.000000
_cell_angle_beta 32.443093
_cell_angle_gamma 90.000000
_cell_volume 1274.432440
_symmetry_space_group_name_H-M "P 21/M"
_symmetry_group_IT_number 11
_symmetry_cell_setting 'monoclinic'
loop_
_space_group_symop_operation_xyz
x,y,z
-x,1/2+y,-z
-x,-y,-z
x,1/2-y,z
loop_
_atom_site_type_symbol
_atom_site_label
_atom_site_fract_x
_atom_site_fract_y
_atom_site_fract_z
Si Si1 0.189333 0.120442 0.138612
Si Si2 0.008889 0.545092 0.394034
Si Si3 0.392427 0.459543 0.335044
Si Si4 0.198247 0.540774 0.964456
Si Si5 0.793341 0.553485 0.237563
Si Si6 0.382843 0.622461 0.511643
Si Si7 0.393134 0.875799 0.167098
O O1 0.150495 0.250000 0.150645
O O2 0.035316 0.062671 0.312816
O O3 0.200861 0.049332 0.041107
O O4 0.399875 0.112387 0.028942
O O5 0.207337 0.610980 0.242656
O O6 0.000000 0.500000 0.500000
O O7 0.809672 0.603283 0.516923
O O8 0.596689 0.398878 0.184795
O O9 0.390777 0.543256 0.419948
O O10 0.386560 0.535713 0.251211
O O11 0.193155 0.473916 0.875874
O O12 0.995991 0.603034 0.118470
O O13 0.597213 0.619474 0.394868
O O14 0.757535 0.437513 0.316689
O O15 0.331363 0.750000 0.529700
O O16 0.389834 0.750000 0.207554
#
# Coordination Sequence:
#
# PCOD9159513 Si02
#       7
#     4   4   4   4   4   4   4
#     4  10  20  34  57  84 105 131 176 227 267 307
#     4  10  20  32  50  79 111 140 169 213 271 317
#     4   9  18  31  52  80 107 137 177 224 265 302
#     4   9  18  34  52  74 109 138 167 213 266 312
#     4   9  19  33  52  80 110 140 169 215 270 319
#     4  10  19  33  55  81 107 137 177 223 268 308
#     4   9  18  33  52  77 108 141 177 217 261 312
#
# _framework density 21.970564
#
# number of rings (size 3 to 8) (size 9 to 14) (size 15 to 20)
#    0.000    2.571    0.000    1.714    0.000    8.000 
#    0.000    3.571    0.000   15.429    0.000   10.000 
#    0.000    0.000    0.000    0.000    0.000    0.000 
#
# Total GULP energy -156026.059398 kJ/mol
# GULP energy per Si atom -5572.359264 kJ/mol
# Density = 2.192056 g / cm^3
# Si number density = 21.970564 Si / 1000 Ang^3
#
#
#
# Elastic Constant Matrix: (Units=GPa)
#
#
# Indices 1 2 3 4 5 6 
#
# 1 68.4546 2.9404 56.9688 0.0000 -31.9271 0.0000
# 2 2.9404 28.8097 8.1719 0.0000 5.6002 0.0000
# 3 56.9688 8.1719 133.0965 0.0000 -40.1398 0.0000
# 4 0.0000 0.0000 0.0000 0.7861 0.0000 -2.1419
# 5 -31.9271 5.6002 -40.1398 0.0000 69.4413 0.0000
# 6 0.0000 0.0000 0.0000 -2.1419 0.0000 6.2406
#
#
#
# Elastic Compliance Matrix: (Units=1/GPa)
#
#
# Indices 1 2 3 4 5 6 
#
# 1 0.024880 -0.001389 -0.008575 0.000000 0.006594 0.000000
# 2 -0.001389 0.036878 -0.003342 0.000000 -0.005544 0.000000
# 3 -0.008575 -0.003342 0.012452 0.000000 0.003525 0.000000
# 4 0.000000 0.000000 0.000000 19.633796 0.000000 6.738607
# 5 0.006594 -0.005544 0.003525 0.000000 0.019917 0.000000
# 6 0.000000 0.000000 0.000000 6.738607 0.000000 2.473029
#
#
# Mechanical properties :
#
#
# Convention : Reuss Voigt Hill
#
# Bulk Modulus (GPa) = 21.00936 40.72477 30.86706
# Shear Modulus (GPa) = 0.22479 26.11224 13.16851
#
# Velocity S-wave (km/s) = 0.32021 3.45122 2.45086
# Velocity P-wave (km/s) = 3.11769 5.87005 4.69987
#
# Compressibility (1/GPa) = 0.04759783
#
# Stress axis : x y z
#
# Youngs Moduli (GPa) = 40.19325 27.11650 80.30894
#
# Poissons Ratio (x) = 0.03766 0.68867
# Poissons Ratio (y) = 0.05582 0.26838
# Poissons Ratio (z) = 0.34467 0.09062
#
# Static dielectric constant tensor:
#      x y z
#    x 1.855660 0.000000 -0.103140 
#    y 0.000000 1.767270 0.000000 
#    z -0.103140 0.000000 1.886260 
# 
# From -- ./inp_files/60450.got.cif
#   From: 2010.05.17/outbox.cif.g08.bks.cpg/sg11_31_cif.got.tgz:60450.got - 2010.06.03 12:22:45.
