data_PCOD9159408
_publ_section_title
;
Structure prediction by ZEFSAII (Michael W. Deem and Ramdas Pophale) SiO2 
 PCOD9159408
Probable space group: P 21/M
;
_chemical_formula_sum "Si O2"
_cell_formula_units_Z 28
_cell_length_a 19.938676
_cell_length_b 8.616152
_cell_length_c 18.568489
_cell_angle_alpha 90.000000
_cell_angle_beta 29.229175
_cell_angle_gamma 90.000000
_cell_volume 1557.674078
_symmetry_space_group_name_H-M "P 21/M"
_symmetry_group_IT_number 11
_symmetry_cell_setting 'monoclinic'
loop_
_space_group_symop_operation_xyz
x,y,z
-x,1/2+y,-z
-x,-y,-z
x,1/2-y,z
loop_
_atom_site_type_symbol
_atom_site_label
_atom_site_fract_x
_atom_site_fract_y
_atom_site_fract_z
Si Si1 0.792342 0.434022 0.004109
Si Si2 0.902258 0.437015 0.528255
Si Si3 0.011458 0.568232 0.908805
Si Si4 0.706325 0.568388 0.352632
Si Si5 0.149532 0.435252 0.206184
Si Si6 0.593493 0.434653 0.311801
Si Si7 0.654529 0.436049 0.851786
O O1 0.793371 0.250000 0.990706
O O2 0.812731 0.518025 0.909698
O O3 0.911780 0.480250 0.947852
O O4 0.654130 0.475740 0.177512
O O5 0.899820 0.250000 0.532517
O O6 0.748005 0.487583 0.694823
O O7 0.000000 0.500000 0.500000
O O8 0.991584 0.482265 0.374378
O O9 0.979479 0.750000 0.939338
O O10 0.168232 0.536160 0.740080
O O11 0.000000 0.500000 0.000000
O O12 0.742801 0.750000 0.323102
O O13 0.668899 0.526488 0.305082
O O14 0.567848 0.539570 0.527105
O O15 0.159225 0.250000 0.205675
O O16 0.255632 0.511255 0.163319
O O17 0.619521 0.250000 0.299337
O O18 0.646602 0.250000 0.858483
O O19 0.500000 0.500000 0.000000
#
# Coordination Sequence:
#
# PCOD9159408 Si02
#       7
#     4   4   4   4   4   4   4
#     4  11  22  37  56  80 110 144 181 227 277 328
#     4   8  16  31  53  78 107 140 177 217 259 312
#     4  12  23  36  54  79 106 139 181 229 275 325
#     4  10  19  33  54  78 102 133 176 226 275 326
#     4  10  20  36  56  81 111 145 182 222 270 326
#     4   9  19  34  53  76 104 138 177 221 273 329
#     4  10  19  34  57  86 114 144 181 222 266 317
#
# _framework density 17.975518999999998
#
# number of rings (size 3 to 8) (size 9 to 14) (size 15 to 20)
#    0.000    2.000    1.429    3.000    0.000    2.286 
#    0.000    1.429    0.000    0.000    0.000    0.000 
#    0.000    0.000    0.000    0.000    0.000    0.000 
#
# Total GULP energy -156124.819099 kJ/mol
# GULP energy per Si atom -5575.886396 kJ/mol
# Density = 1.793461 g / cm^3
# Si number density = 17.975519 Si / 1000 Ang^3
#
#
#
# Elastic Constant Matrix: (Units=GPa)
#
#
# Indices 1 2 3 4 5 6 
#
# 1 46.4808 6.1736 46.5260 0.0000 5.0977 0.0000
# 2 6.1736 30.6599 33.8173 0.0000 -1.0031 0.0000
# 3 46.5260 33.8173 163.7963 0.0000 6.1651 0.0000
# 4 0.0000 0.0000 0.0000 27.8906 0.0000 -1.2976
# 5 5.0977 -1.0031 6.1651 0.0000 29.0189 0.0000
# 6 0.0000 0.0000 0.0000 -1.2976 0.0000 29.3647
#
#
#
# Elastic Compliance Matrix: (Units=1/GPa)
#
#
# Indices 1 2 3 4 5 6 
#
# 1 0.030817 0.004154 -0.009489 0.000000 -0.003254 0.000000
# 2 0.004154 0.043117 -0.010192 0.000000 0.002926 0.000000
# 3 -0.009489 -0.010192 0.010943 0.000000 -0.001010 0.000000
# 4 0.000000 0.000000 0.000000 0.035928 0.000000 0.001588
# 5 -0.003254 0.002926 -0.001010 0.000000 0.035348 0.000000
# 6 0.000000 0.000000 0.000000 0.001588 0.000000 0.034125
#
#
# Mechanical properties :
#
#
# Convention : Reuss Voigt Hill
#
# Bulk Modulus (GPa) = 18.57924 45.99678 32.28801
# Shear Modulus (GPa) = 20.89675 27.54952 24.22314
#
# Velocity S-wave (km/s) = 3.41326 3.91911 3.67490
# Velocity P-wave (km/s) = 5.08843 6.79142 6.00064
#
# Compressibility (1/GPa) = 0.05382353
#
# Stress axis : x y z
#
# Youngs Moduli (GPa) = 32.44920 23.19290 91.38540
#
# Poissons Ratio (x) = -0.09635 0.86714
# Poissons Ratio (y) = -0.13480 0.93140
# Poissons Ratio (z) = 0.30790 0.23638
#
# Static dielectric constant tensor:
#      x y z
#    x 1.567750 0.000000 -0.003420 
#    y 0.000000 1.609360 0.000000 
#    z -0.003420 0.000000 1.684290 
# 
# From -- ./inp_files/61246.got.cif
#   From: 2010.05.17/outbox.cif.g08.bks.cpg/sg11_31_cif.got.tgz:61246.got - 2010.06.03 12:22:45.
