data_PCOD9159306
_publ_section_title
;
Structure prediction by ZEFSAII (Michael W. Deem and Ramdas Pophale) SiO2 
 PCOD9159306
Probable space group: P 21/M
;
_chemical_formula_sum "Si O2"
_cell_formula_units_Z 32
_cell_length_a 17.481946
_cell_length_b 18.817980
_cell_length_c 11.514664
_cell_angle_alpha 90.000000
_cell_angle_beta 28.841722
_cell_angle_gamma 90.000000
_cell_volume 1827.316763
_symmetry_space_group_name_H-M "P 21/M"
_symmetry_group_IT_number 11
_symmetry_cell_setting 'monoclinic'
loop_
_space_group_symop_operation_xyz
x,y,z
-x,1/2+y,-z
-x,-y,-z
x,1/2-y,z
loop_
_atom_site_type_symbol
_atom_site_label
_atom_site_fract_x
_atom_site_fract_y
_atom_site_fract_z
Si Si1 0.511237 0.328076 0.348093
Si Si2 0.841292 0.333010 0.774104
Si Si3 0.239367 0.431050 0.617499
Si Si4 0.494408 0.898441 0.410854
Si Si5 0.946898 0.574180 0.357153
Si Si6 0.446623 0.947471 0.237283
Si Si7 0.769237 0.507800 0.138747
Si Si8 0.282427 0.542529 0.220902
O O1 0.455101 0.250000 0.389496
O O2 0.390949 0.384846 0.454005
O O3 0.511199 0.336354 0.487421
O O4 0.687185 0.337294 0.063399
O O5 0.856782 0.250000 0.717938
O O6 0.804509 0.391530 0.723980
O O7 0.993195 0.362089 0.641727
O O8 0.136819 0.398856 0.649977
O O9 0.306648 0.503195 0.472663
O O10 0.156043 0.451121 0.849785
O O11 0.474018 0.888945 0.300316
O O12 0.356106 0.951353 0.641472
O O13 0.660912 0.938633 0.209556
O O14 0.836046 0.517896 0.572417
O O15 0.100555 0.530637 0.110424
O O16 0.391177 0.927412 0.182011
O O17 0.598467 0.999204 0.021557
#
# Coordination Sequence:
#
# PCOD9159306 Si02
#       8
#     4   4   4   4   4   4   4   4
#     4  10  19  33  53  74 103 141 176 210 261 324
#     4  11  22  36  52  74 108 143 179 218 263 322
#     4   9  18  31  52  79 106 130 163 222 265 306
#     4   9  16  30  52  75 103 131 164 215 252 307
#     4  11  20  32  54  82 105 136 176 223 262 308
#     4   9  17  32  55  80 104 128 173 223 263 304
#     4   9  16  28  50  80 106 126 160 206 271 306
#     4  10  20  34  54  79 108 138 180 221 263 310
#
# _framework density 17.512015999999999
#
# number of rings (size 3 to 8) (size 9 to 14) (size 15 to 20)
#    0.000    2.250    2.500    2.250    0.000    0.500 
#    0.000    0.625    0.000    6.750    0.000    0.000 
#    0.000    0.000    0.000    0.000    0.000    0.000 
#
# Total GULP energy -178163.512450 kJ/mol
# GULP energy per Si atom -5567.609764 kJ/mol
# Density = 1.747216 g / cm^3
# Si number density = 17.512016 Si / 1000 Ang^3
#
#
#
# Elastic Constant Matrix: (Units=GPa)
#
#
# Indices 1 2 3 4 5 6 
#
# 1 84.0186 28.0380 -1.7292 0.0000 -1.6925 0.0000
# 2 28.0380 50.3627 -4.3271 0.0000 -1.2515 0.0000
# 3 -1.7292 -4.3271 24.8289 0.0000 1.4436 0.0000
# 4 0.0000 0.0000 0.0000 17.7692 0.0000 2.8711
# 5 -1.6925 -1.2515 1.4436 0.0000 20.4791 0.0000
# 6 0.0000 0.0000 0.0000 2.8711 0.0000 10.1761
#
#
#
# Elastic Compliance Matrix: (Units=1/GPa)
#
#
# Indices 1 2 3 4 5 6 
#
# 1 0.014633 -0.008167 -0.000447 0.000000 0.000742 0.000000
# 2 -0.008167 0.024735 0.003709 0.000000 0.000575 0.000000
# 3 -0.000447 0.003709 0.041048 0.000000 -0.002704 0.000000
# 4 0.000000 0.000000 0.000000 0.058965 0.000000 -0.016636
# 5 0.000742 0.000575 -0.002704 0.000000 0.049117 0.000000
# 6 0.000000 0.000000 0.000000 -0.016636 0.000000 0.102963
#
#
# Mechanical properties :
#
#
# Convention : Reuss Voigt Hill
#
# Bulk Modulus (GPa) = 14.16308 22.57484 18.36896
# Shear Modulus (GPa) = 15.39369 18.83344 17.11357
#
# Velocity S-wave (km/s) = 2.96807 3.28298 3.12949
# Velocity P-wave (km/s) = 4.45546 5.22395 4.85493
#
# Compressibility (1/GPa) = 0.07060613
#
# Stress axis : x y z
#
# Youngs Moduli (GPa) = 68.33802 40.42785 24.36171
#
# Poissons Ratio (x) = 0.33016 0.01090
# Poissons Ratio (y) = 0.55809 -0.09035
# Poissons Ratio (z) = 0.03057 -0.14993
#
# Static dielectric constant tensor:
#      x y z
#    x 1.662120 0.000000 0.005110 
#    y 0.000000 1.589670 0.000000 
#    z 0.005110 0.000000 1.592610 
# 
# From -- ./inp_files/36337.got.cif
#   From: 2010.05.17/outbox.cif.g08.bks.cpg/sg11_19_cif.got.tgz:36337.got - 2010.06.03 12:22:45.
