data_PCOD9159837
_publ_section_title
;
Structure prediction by ZEFSAII (Michael W. Deem and Ramdas Pophale) SiO2 
 PCOD9159837
Probable space group: P 21/M
;
_chemical_formula_sum "Si O2"
_cell_formula_units_Z 28
_cell_length_a 12.393396
_cell_length_b 7.677966
_cell_length_c 16.220696
_cell_angle_alpha 90.000000
_cell_angle_beta 124.907530
_cell_angle_gamma 90.000000
_cell_volume 1265.786491
_symmetry_space_group_name_H-M "P 21/M"
_symmetry_group_IT_number 11
_symmetry_cell_setting 'monoclinic'
loop_
_space_group_symop_operation_xyz
x,y,z
-x,1/2+y,-z
-x,-y,-z
x,1/2-y,z
loop_
_atom_site_type_symbol
_atom_site_label
_atom_site_fract_x
_atom_site_fract_y
_atom_site_fract_z
Si Si1 0.399632 0.539734 0.883185
Si Si2 0.860029 0.045342 0.147447
Si Si3 0.583497 0.455686 0.290933
Si Si4 0.143411 0.463693 0.330177
Si Si5 0.336638 0.037109 0.275475
Si Si6 0.137272 0.457224 0.516165
Si Si7 0.150206 0.042878 0.043356
O O1 0.391519 0.750000 0.874071
O O2 0.255675 0.471524 0.846372
O O3 0.441580 0.472688 0.811769
O O4 0.500000 0.500000 0.000000
O O5 0.867811 0.250000 0.169912
O O6 0.006492 0.977038 0.228309
O O7 0.821604 0.027282 0.035212
O O8 0.555934 0.250000 0.274409
O O9 0.483325 0.523512 0.316715
O O10 0.735479 0.477427 0.379577
O O11 0.144655 0.250000 0.330274
O O12 0.266546 0.522231 0.328660
O O13 0.143299 0.522383 0.424610
O O14 0.334613 0.250000 0.278358
O O15 0.245343 0.983083 0.158165
O O16 0.147364 0.250000 0.517335
O O17 0.000000 0.500000 0.500000
O O18 0.164555 0.250000 0.045076
O O19 0.000000 0.000000 0.000000
#
# Coordination Sequence:
#
# PCOD9159837 Si02
#       7
#     4   4   4   4   4   4   4
#     4  10  21  36  56  82 115 156 193 236 289 344
#     4  10  19  34  55  78 110 150 192 234 282 339
#     4  10  21  39  61  85 115 152 191 234 288 345
#     4   9  18  35  58  82 109 147 189 230 284 345
#     4   9  18  34  58  83 112 151 190 226 277 347
#     4  11  23  40  63  86 112 148 192 241 292 344
#     4  11  20  33  55  83 115 151 189 230 279 336
#
# _framework density 22.120633999999999
#
# number of rings (size 3 to 8) (size 9 to 14) (size 15 to 20)
#    0.000    2.000    1.429    2.571    0.000    5.143 
#    0.000    4.286    0.000    0.000    0.000    0.000 
#    0.000    0.000    0.000    0.000    0.000    0.000 
#
# Total GULP energy -156434.756577 kJ/mol
# GULP energy per Si atom -5586.955592 kJ/mol
# Density = 2.207029 g / cm^3
# Si number density = 22.120634 Si / 1000 Ang^3
#
#
#
# Elastic Constant Matrix: (Units=GPa)
#
#
# Indices 1 2 3 4 5 6 
#
# 1 201.0731 2.6484 63.9134 0.0000 -18.4485 0.0000
# 2 2.6484 32.6842 -10.5230 0.0000 -4.4486 0.0000
# 3 63.9134 -10.5230 99.6120 0.0000 -21.5440 0.0000
# 4 0.0000 0.0000 0.0000 20.7974 0.0000 3.0155
# 5 -18.4485 -4.4486 -21.5440 0.0000 37.1521 0.0000
# 6 0.0000 0.0000 0.0000 3.0155 0.0000 9.6933
#
#
#
# Elastic Compliance Matrix: (Units=1/GPa)
#
#
# Indices 1 2 3 4 5 6 
#
# 1 0.006368 -0.001781 -0.004157 0.000000 0.000538 0.000000
# 2 -0.001781 0.033632 0.006146 0.000000 0.006707 0.000000
# 3 -0.004157 0.006146 0.014943 0.000000 0.007336 0.000000
# 4 0.000000 0.000000 0.000000 0.050354 0.000000 -0.015665
# 5 0.000538 0.006707 0.007336 0.000000 0.032241 0.000000
# 6 0.000000 0.000000 0.000000 -0.015665 0.000000 0.108037
#
#
# Mechanical properties :
#
#
# Convention : Reuss Voigt Hill
#
# Bulk Modulus (GPa) = 18.06450 49.49410 33.77930
# Shear Modulus (GPa) = 18.96728 32.01725 25.49226
#
# Velocity S-wave (km/s) = 2.93140 3.80859 3.39841
# Velocity P-wave (km/s) = 4.43188 6.46248 5.54099
#
# Compressibility (1/GPa) = 0.05535720
#
# Stress axis : x y z
#
# Youngs Moduli (GPa) = 157.04438 29.73362 66.92312
#
# Poissons Ratio (x) = 0.05297 0.27823
# Poissons Ratio (y) = 0.27975 -0.41133
# Poissons Ratio (z) = 0.65291 -0.18275
#
# Static dielectric constant tensor:
#      x y z
#    x 1.803690 0.000000 -0.013790 
#    y 0.000000 1.834810 0.000000 
#    z -0.013790 0.000000 1.778370 
# 
# From -- ./inp_files/49491.got.cif
#   From: 2010.05.17/outbox.cif.g08.bks.cpg/sg11_25_cif.got.tgz:49491.got - 2010.06.03 12:22:45.
