data_PCOD9159868
_publ_section_title
;
Structure prediction by ZEFSAII (Michael W. Deem and Ramdas Pophale) SiO2 
 PCOD9159868
Probable space group: P 21/M
;
_chemical_formula_sum "Si O2"
_cell_formula_units_Z 32
_cell_length_a 24.980546
_cell_length_b 8.554619
_cell_length_c 12.031363
_cell_angle_alpha 90.000000
_cell_angle_beta 42.201290
_cell_angle_gamma 90.000000
_cell_volume 1727.097567
_symmetry_space_group_name_H-M "P 21/M"
_symmetry_group_IT_number 11
_symmetry_cell_setting 'monoclinic'
loop_
_space_group_symop_operation_xyz
x,y,z
-x,1/2+y,-z
-x,-y,-z
x,1/2-y,z
loop_
_atom_site_type_symbol
_atom_site_label
_atom_site_fract_x
_atom_site_fract_y
_atom_site_fract_z
Si Si1 0.347187 0.561905 0.539131
Si Si2 0.270331 0.436864 0.441238
Si Si3 0.193265 0.437294 0.152982
Si Si4 0.468993 0.436648 0.766708
Si Si5 0.134005 0.060022 0.490405
Si Si6 0.031850 0.938234 0.332575
Si Si7 0.581699 0.064591 0.926436
Si Si8 0.346477 0.563139 0.793740
O O1 0.344955 0.750000 0.537132
O O2 0.288307 0.497226 0.536747
O O3 0.438530 0.514430 0.371905
O O4 0.330016 0.514503 0.692070
O O5 0.268737 0.250000 0.446014
O O6 0.189632 0.494008 0.505322
O O7 0.343679 0.490568 0.251246
O O8 0.200788 0.250000 0.141584
O O9 0.171708 0.487760 0.312854
O O10 0.119010 0.488134 0.189529
O O11 0.273316 0.512744 0.983860
O O12 0.465457 0.250000 0.786310
O O13 0.421634 0.517492 0.939716
O O14 0.426043 0.484682 0.719349
O O15 0.135330 0.250000 0.487153
O O16 0.040708 0.015676 0.637355
O O17 0.038431 0.750000 0.324078
O O18 0.000000 0.000000 0.500000
O O19 0.584354 0.250000 0.908638
O O20 0.500000 0.000000 0.000000
O O21 0.356322 0.750000 0.780778
#
# Coordination Sequence:
#
# PCOD9159868 Si02
#       8
#     4   4   4   4   4   4   4   4
#     4  10  23  40  55  74 106 145 184 229 276 323
#     4  11  21  35  57  81 108 145 185 224 270 326
#     4  10  19  34  55  81 113 143 176 221 274 326
#     4  11  22  38  58  79 107 141 180 229 280 326
#     4   8  17  32  52  81 112 140 171 212 265 320
#     4   9  16  30  52  79 113 145 174 213 266 326
#     4  12  23  36  54  79 109 143 181 222 270 323
#     4  11  23  38  56  79 106 141 186 229 273 325
#
# _framework density 18.528195
#
# number of rings (size 3 to 8) (size 9 to 14) (size 15 to 20)
#    0.000    1.750    1.250    4.875    0.000    2.500 
#    0.000    6.875    0.000    0.750    0.000    0.000 
#    0.000    0.000    0.000    0.000    0.000    0.000 
#
# Total GULP energy -178663.767489 kJ/mol
# GULP energy per Si atom -5583.242734 kJ/mol
# Density = 1.848602 g / cm^3
# Si number density = 18.528195 Si / 1000 Ang^3
#
#
#
# Elastic Constant Matrix: (Units=GPa)
#
#
# Indices 1 2 3 4 5 6 
#
# 1 155.4593 10.1147 20.1373 0.0000 2.5773 0.0000
# 2 10.1147 20.1618 -3.0156 0.0000 6.6804 0.0000
# 3 20.1373 -3.0156 20.5463 0.0000 9.1521 0.0000
# 4 0.0000 0.0000 0.0000 21.3078 0.0000 0.9227
# 5 2.5773 6.6804 9.1521 0.0000 27.6754 0.0000
# 6 0.0000 0.0000 0.0000 0.9227 0.0000 29.5712
#
#
#
# Elastic Compliance Matrix: (Units=1/GPa)
#
#
# Indices 1 2 3 4 5 6 
#
# 1 0.008312 -0.007457 -0.011373 0.000000 0.004787 0.000000
# 2 -0.007457 0.065545 0.027755 0.000000 -0.024305 0.000000
# 3 -0.011373 0.027755 0.077874 0.000000 -0.031393 0.000000
# 4 0.000000 0.000000 0.000000 0.046995 0.000000 -0.001466
# 5 0.004787 -0.024305 -0.031393 0.000000 0.051936 0.000000
# 6 0.000000 0.000000 0.000000 -0.001466 0.000000 0.033862
#
#
# Mechanical properties :
#
#
# Convention : Reuss Voigt Hill
#
# Bulk Modulus (GPa) = 5.89688 27.84888 16.87288
# Shear Modulus (GPa) = 15.47034 26.97295 21.22165
#
# Velocity S-wave (km/s) = 2.89271 3.81961 3.38800
# Velocity P-wave (km/s) = 3.78769 5.87501 4.94279
#
# Compressibility (1/GPa) = 0.16958111
#
# Stress axis : x y z
#
# Youngs Moduli (GPa) = 120.31507 15.25680 12.84124
#
# Poissons Ratio (x) = 0.11377 0.14604
# Poissons Ratio (y) = 0.89717 -0.35641
# Poissons Ratio (z) = 1.36831 -0.42345
#
# Static dielectric constant tensor:
#      x y z
#    x 1.668240 0.000000 0.002930 
#    y 0.000000 1.625670 0.000000 
#    z 0.002930 0.000000 1.597160 
# 
# From -- ./inp_files/43786.got.cif
#   From: 2010.05.17/outbox.cif.g08.bks.cpg/sg11_22_cif.got.tgz:43786.got - 2010.06.03 12:22:45.
