data_PCOD9159707
_publ_section_title
;
Structure prediction by ZEFSAII (Michael W. Deem and Ramdas Pophale) SiO2 
 PCOD9159707
Probable space group: P 21/M
;
_chemical_formula_sum "Si O2"
_cell_formula_units_Z 28
_cell_length_a 11.762592
_cell_length_b 18.017924
_cell_length_c 20.516179
_cell_angle_alpha 90.000000
_cell_angle_beta 22.110912
_cell_angle_gamma 90.000000
_cell_volume 1636.645807
_symmetry_space_group_name_H-M "P 21/M"
_symmetry_group_IT_number 11
_symmetry_cell_setting 'monoclinic'
loop_
_space_group_symop_operation_xyz
x,y,z
-x,1/2+y,-z
-x,-y,-z
x,1/2-y,z
loop_
_atom_site_type_symbol
_atom_site_label
_atom_site_fract_x
_atom_site_fract_y
_atom_site_fract_z
Si Si1 0.439873 0.836780 0.556104
Si Si2 0.251585 0.969951 0.317474
Si Si3 0.067019 0.055093 0.218150
Si Si4 0.411586 0.571531 0.959199
Si Si5 0.703411 0.541477 0.183855
Si Si6 0.871029 0.664178 0.201087
Si Si7 0.754881 0.554382 0.485631
O O1 0.392684 0.750000 0.593326
O O2 0.636129 0.844585 0.385573
O O3 0.620301 0.876759 0.518238
O O4 0.130767 0.881555 0.709463
O O5 0.504850 0.931912 0.227339
O O6 0.058839 0.927077 0.365012
O O7 0.408134 0.039127 0.197989
O O8 0.000000 0.000000 0.500000
O O9 0.346774 0.085764 0.112028
O O10 0.856762 0.007579 0.378883
O O11 0.200092 0.996101 0.096309
O O12 0.197641 0.639078 0.054396
O O13 0.786547 0.608322 0.187887
O O14 0.495437 0.483340 0.334899
O O15 0.000000 0.500000 0.000000
O O16 0.869713 0.750000 0.181576
#
# Coordination Sequence:
#
# PCOD9159707 Si02
#       7
#     4   4   4   4   4   4   4
#     4  11  22  36  56  84 118 149 177 228 293 339
#     4   9  20  34  57  82 105 140 188 231 269 321
#     4  10  19  33  59  85 107 139 188 231 283 327
#     4  10  19  34  58  85 106 142 186 239 277 326
#     4  11  20  35  60  81 108 147 194 232 267 325
#     4  11  22  36  55  85 117 146 181 230 291 336
#     4  10  19  36  57  82 109 139 189 231 274 327
#
# _framework density 17.108160999999999
#
# number of rings (size 3 to 8) (size 9 to 14) (size 15 to 20)
#    0.000    1.714    4.286    1.286    0.000    0.571 
#    0.000    1.429    0.000    0.000    0.000    0.000 
#    0.000    0.000    0.000    0.000    0.000    0.000 
#
# Total GULP energy -156193.731440 kJ/mol
# GULP energy per Si atom -5578.347551 kJ/mol
# Density = 1.706922 g / cm^3
# Si number density = 17.108161 Si / 1000 Ang^3
#
#
#
# Elastic Constant Matrix: (Units=GPa)
#
#
# Indices 1 2 3 4 5 6 
#
# 1 103.0078 70.6553 27.1088 0.0000 -24.7722 0.0000
# 2 70.6553 92.9576 40.8005 0.0000 -19.0858 0.0000
# 3 27.1088 40.8005 91.3539 0.0000 -7.1203 0.0000
# 4 0.0000 0.0000 0.0000 15.3626 0.0000 5.2850
# 5 -24.7722 -19.0858 -7.1203 0.0000 32.6089 0.0000
# 6 0.0000 0.0000 0.0000 5.2850 0.0000 15.0471
#
#
#
# Elastic Compliance Matrix: (Units=1/GPa)
#
#
# Indices 1 2 3 4 5 6 
#
# 1 0.021993 -0.015564 0.001035 0.000000 0.007824 0.000000
# 2 -0.015564 0.025975 -0.006835 0.000000 0.001887 0.000000
# 3 0.001035 -0.006835 0.013674 0.000000 -0.000229 0.000000
# 4 0.000000 0.000000 0.000000 0.074040 0.000000 -0.026005
# 5 0.007824 0.001887 -0.000229 0.000000 0.037664 0.000000
# 6 0.000000 0.000000 0.000000 -0.026005 0.000000 0.075592
#
#
# Mechanical properties :
#
#
# Convention : Reuss Voigt Hill
#
# Bulk Modulus (GPa) = 52.87389 62.71649 57.79519
# Shear Modulus (GPa) = 16.78005 22.52070 19.65037
#
# Velocity S-wave (km/s) = 3.13520 3.63212 3.39277
# Velocity P-wave (km/s) = 6.63918 7.37076 7.01452
#
# Compressibility (1/GPa) = 0.01891293
#
# Stress axis : x y z
#
# Youngs Moduli (GPa) = 45.46862 38.49800 73.12950
#
# Poissons Ratio (x) = 0.59920 -0.07568
# Poissons Ratio (y) = 0.70769 0.49987
# Poissons Ratio (z) = -0.04705 0.26315
#
# Static dielectric constant tensor:
#      x y z
#    x 1.617040 0.000000 -0.011230 
#    y 0.000000 1.529790 0.000000 
#    z -0.011230 0.000000 1.591970 
# 
# From -- ./inp_files/22723.got.cif
#   From: 2010.05.17/outbox.cif.g08.bks.cpg/sg11_12_cif.got.tgz:22723.got - 2010.06.03 12:22:45.
