data_PCOD9159354
_publ_section_title
;
Structure prediction by ZEFSAII (Michael W. Deem and Ramdas Pophale) SiO2 
 PCOD9159354
Probable space group: P 21/M
;
_chemical_formula_sum "Si O2"
_cell_formula_units_Z 30
_cell_length_a 15.551728
_cell_length_b 7.946781
_cell_length_c 11.443728
_cell_angle_alpha 90.000000
_cell_angle_beta 119.083265
_cell_angle_gamma 90.000000
_cell_volume 1235.965183
_symmetry_space_group_name_H-M "P 21/M"
_symmetry_group_IT_number 11
_symmetry_cell_setting 'monoclinic'
loop_
_space_group_symop_operation_xyz
x,y,z
-x,1/2+y,-z
-x,-y,-z
x,1/2-y,z
loop_
_atom_site_type_symbol
_atom_site_label
_atom_site_fract_x
_atom_site_fract_y
_atom_site_fract_z
Si Si1 0.703814 0.054346 0.711159
Si Si2 0.226896 0.435714 0.734572
Si Si3 0.517548 0.545063 0.691881
Si Si4 0.291478 0.550705 0.536052
Si Si5 0.403436 0.047410 0.009103
Si Si6 0.023321 0.429898 0.209172
Si Si7 0.041901 0.250000 0.717828
Si Si8 0.137169 0.066481 0.036828
O O1 0.731334 0.250000 0.743232
O O2 0.741736 0.983281 0.612072
O O3 0.586663 0.032191 0.637473
O O4 0.752282 0.955792 0.850964
O O5 0.269804 0.250000 0.736304
O O6 0.228764 0.522047 0.610317
O O7 0.120262 0.395883 0.716888
O O8 0.303947 0.513213 0.878535
O O9 0.520765 0.750000 0.685648
O O10 0.404246 0.492131 0.627412
O O11 0.571345 0.484476 0.845555
O O12 0.298186 0.750000 0.522533
O O13 0.395751 0.250000 0.014141
O O14 0.500000 0.000000 0.000000
O O15 0.042051 0.250000 0.279340
O O16 0.033364 0.598591 0.288740
O O17 0.082854 0.439044 0.125765
O O18 0.912006 0.437385 0.082112
O O19 0.119021 0.250000 0.964301
#
# Coordination Sequence:
#
# PCOD9159354 Si02
#       8
#     4   4   4   4   4   4   2   4
#     4  11  24  36  56  89 118 157 207 259 305 365
#     4   9  21  35  54  85 113 154 200 250 301 354
#     4  10  21  35  56  81 118 160 203 252 310 362
#     4  10  21  40  57  79 116 164 214 258 303 362
#     4  10  19  33  53  78 111 151 194 239 296 353
#     4  10  21  38  64  96 131 162 190 246 317 380
#     4  10  22  38  62  94 128 158 206 256 300 380
#     4  10  21  38  61  92 126 161 198 239 311 385
#
# _framework density 24.272525999999999
#
# number of rings (size 3 to 8) (size 9 to 14) (size 15 to 20)
#    0.400    1.600    2.000    1.200    3.733    2.667 
#    0.000    0.000    0.000    0.800    0.000    0.000 
#    0.000    0.000    0.000    0.000    0.000    0.000 
#
# Total GULP energy -167002.258107 kJ/mol
# GULP energy per Si atom -5566.741937 kJ/mol
# Density = 2.421728 g / cm^3
# Si number density = 24.272526 Si / 1000 Ang^3
#
#
#
# Elastic Constant Matrix: (Units=GPa)
#
#
# Indices 1 2 3 4 5 6 
#
# 1 88.9983 11.9400 -5.1187 0.0000 -17.0205 0.0000
# 2 11.9400 68.2899 19.9933 0.0000 -11.0034 0.0000
# 3 -5.1187 19.9933 37.0968 0.0000 1.7063 0.0000
# 4 0.0000 0.0000 0.0000 17.6051 0.0000 -10.1680
# 5 -17.0205 -11.0034 1.7063 0.0000 27.8659 0.0000
# 6 0.0000 0.0000 0.0000 -10.1680 0.0000 33.9858
#
#
#
# Elastic Compliance Matrix: (Units=1/GPa)
#
#
# Indices 1 2 3 4 5 6 
#
# 1 0.012973 -0.001856 0.002467 0.000000 0.007040 0.000000
# 2 -0.001856 0.019350 -0.011015 0.000000 0.007182 0.000000
# 3 0.002467 -0.011015 0.033458 0.000000 -0.004892 0.000000
# 4 0.000000 0.000000 0.000000 0.068667 0.000000 0.020544
# 5 0.007040 0.007182 -0.004892 0.000000 0.043322 0.000000
# 6 0.000000 0.000000 0.000000 0.020544 0.000000 0.035571
#
#
# Mechanical properties :
#
#
# Convention : Reuss Voigt Hill
#
# Bulk Modulus (GPa) = 22.23568 27.55712 24.89640
# Shear Modulus (GPa) = 20.06895 27.06272 23.56583
#
# Velocity S-wave (km/s) = 2.87856 3.34271 3.11928
# Velocity P-wave (km/s) = 4.49765 5.12603 4.82209
#
# Compressibility (1/GPa) = 0.04497277
#
# Stress axis : x y z
#
# Youngs Moduli (GPa) = 77.08040 51.67953 29.88783
#
# Poissons Ratio (x) = 0.09592 -0.07372
# Poissons Ratio (y) = 0.14307 0.32922
# Poissons Ratio (z) = -0.19013 0.56926
#
# Static dielectric constant tensor:
#      x y z
#    x 1.964950 0.000000 0.053350 
#    y 0.000000 1.867360 0.000000 
#    z 0.053350 0.000000 1.855130 
# 
# From -- ./inp_files/38323.got.cif
#   From: 2010.05.17/outbox.cif.g08.bks.cpg/sg11_20_cif.got.tgz:38323.got - 2010.06.03 12:22:45.
