data_PCOD9159864
_publ_section_title
;
Structure prediction by ZEFSAII (Michael W. Deem and Ramdas Pophale) SiO2 
 PCOD9159864
Probable space group: P 21/M
;
_chemical_formula_sum "Si O2"
_cell_formula_units_Z 28
_cell_length_a 26.005273
_cell_length_b 8.526783
_cell_length_c 9.609442
_cell_angle_alpha 90.000000
_cell_angle_beta 40.761625
_cell_angle_gamma 90.000000
_cell_volume 1391.234726
_symmetry_space_group_name_H-M "P 21/M"
_symmetry_group_IT_number 11
_symmetry_cell_setting 'monoclinic'
loop_
_space_group_symop_operation_xyz
x,y,z
-x,1/2+y,-z
-x,-y,-z
x,1/2-y,z
loop_
_atom_site_type_symbol
_atom_site_label
_atom_site_fract_x
_atom_site_fract_y
_atom_site_fract_z
Si Si1 0.253994 0.065181 0.902442
Si Si2 0.422429 0.561466 0.580814
Si Si3 0.917887 0.061643 0.224627
Si Si4 0.826787 0.435217 0.674255
Si Si5 0.492033 0.062175 0.862313
Si Si6 0.239172 0.562906 0.623357
Si Si7 0.317481 0.063671 0.202448
O O1 0.254145 0.250000 0.881592
O O2 0.338876 0.012821 0.789954
O O3 0.243389 0.981807 0.775744
O O4 0.187080 0.018066 0.150524
O O5 0.500000 0.500000 0.500000
O O6 0.418008 0.750000 0.602516
O O7 0.440042 0.516800 0.383696
O O8 0.920397 0.250000 0.224347
O O9 0.894609 0.007755 0.428736
O O10 0.845877 0.020081 0.268818
O O11 0.000000 0.000000 0.000000
O O12 0.835815 0.250000 0.678820
O O13 0.747491 0.467873 0.748410
O O14 0.491534 0.250000 0.868845
O O15 0.405850 0.014472 0.983712
O O16 0.500000 0.000000 0.000000
O O17 0.251130 0.750000 0.583384
O O18 0.301710 0.473917 0.397259
O O19 0.307534 0.250000 0.197183
#
# Coordination Sequence:
#
# PCOD9159864 Si02
#       7
#     4   4   4   4   4   4   4
#     4  12  24  38  57  84 114 150 196 244 290 341
#     4  11  23  39  57  80 112 152 194 241 293 347
#     4   9  20  38  63  91 118 146 182 225 276 338
#     4  10  21  38  59  84 112 148 186 226 278 338
#     4  10  22  35  50  74 104 138 182 231 281 330
#     4  10  21  38  58  84 116 153 191 232 284 342
#     4  10  19  34  55  81 109 141 187 239 281 334
#
# _framework density 20.126006
#
# number of rings (size 3 to 8) (size 9 to 14) (size 15 to 20)
#    0.000    1.714    0.000    5.571    0.000    9.143 
#    0.000    0.714    0.000    0.000    0.000    0.000 
#    0.000    0.000    0.000    0.000    0.000    0.000 
#
# Total GULP energy -156450.587917 kJ/mol
# GULP energy per Si atom -5587.520997 kJ/mol
# Density = 2.008020 g / cm^3
# Si number density = 20.126006 Si / 1000 Ang^3
#
#
#
# Elastic Constant Matrix: (Units=GPa)
#
#
# Indices 1 2 3 4 5 6 
#
# 1 33.1449 -1.5895 12.9414 0.0000 5.6644 0.0000
# 2 -1.5895 35.7225 6.8495 0.0000 -8.9547 0.0000
# 3 12.9414 6.8495 124.2039 0.0000 -5.2257 0.0000
# 4 0.0000 0.0000 0.0000 30.3838 0.0000 0.5524
# 5 5.6644 -8.9547 -5.2257 0.0000 32.7629 0.0000
# 6 0.0000 0.0000 0.0000 0.5524 0.0000 29.8851
#
#
#
# Elastic Compliance Matrix: (Units=1/GPa)
#
#
# Indices 1 2 3 4 5 6 
#
# 1 0.032681 0.000643 -0.003696 0.000000 -0.006064 0.000000
# 2 0.000643 0.030282 -0.001403 0.000000 0.007942 0.000000
# 3 -0.003696 -0.001403 0.008582 0.000000 0.001624 0.000000
# 4 0.000000 0.000000 0.000000 0.032923 0.000000 -0.000609
# 5 -0.006064 0.007942 0.001624 0.000000 0.034000 0.000000
# 6 0.000000 0.000000 0.000000 -0.000609 0.000000 0.033473
#
#
# Mechanical properties :
#
#
# Convention : Reuss Voigt Hill
#
# Bulk Modulus (GPa) = 15.96605 25.49714 20.73159
# Shear Modulus (GPa) = 24.78554 30.26436 27.52495
#
# Velocity S-wave (km/s) = 3.51311 3.88202 3.70216
# Velocity P-wave (km/s) = 4.94026 5.72623 5.34770
#
# Compressibility (1/GPa) = 0.06263290
#
# Stress axis : x y z
#
# Youngs Moduli (GPa) = 30.59912 33.02304 116.52220
#
# Poissons Ratio (x) = -0.02122 0.43063
# Poissons Ratio (y) = -0.01966 0.16346
# Poissons Ratio (z) = 0.11309 0.04632
#
# Static dielectric constant tensor:
#      x y z
#    x 1.722210 0.000000 0.026840 
#    y 0.000000 1.687080 0.000000 
#    z 0.026840 0.000000 1.743150 
# 
# From -- ./inp_files/28343.got.cif
#   From: 2010.05.17/outbox.cif.g08.bks.cpg/sg11_15_cif.got.tgz:28343.got - 2010.06.03 12:22:45.
