data_PCOD9159393
_publ_section_title
;
Structure prediction by ZEFSAII (Michael W. Deem and Ramdas Pophale) SiO2 
 PCOD9159393
Probable space group: P 21/M
;
_chemical_formula_sum "Si O2"
_cell_formula_units_Z 28
_cell_length_a 7.932835
_cell_length_b 31.223957
_cell_length_c 5.531087
_cell_angle_alpha 90.000000
_cell_angle_beta 62.493622
_cell_angle_gamma 90.000000
_cell_volume 1215.151997
_symmetry_space_group_name_H-M "P 21/M"
_symmetry_group_IT_number 11
_symmetry_cell_setting 'monoclinic'
loop_
_space_group_symop_operation_xyz
x,y,z
-x,1/2+y,-z
-x,-y,-z
x,1/2-y,z
loop_
_atom_site_type_symbol
_atom_site_label
_atom_site_fract_x
_atom_site_fract_y
_atom_site_fract_z
Si Si1 0.207582 0.052196 0.306014
Si Si2 0.641442 0.159945 0.243829
Si Si3 0.603283 0.250000 0.245943
Si Si4 0.944886 0.104929 0.166058
Si Si5 0.367886 0.250000 0.902090
Si Si6 0.560244 0.405436 0.913397
Si Si7 0.135024 0.965613 0.158134
Si Si8 0.712163 0.844435 0.215161
O O1 0.083682 0.033859 0.607074
O O2 0.208441 0.014017 0.107718
O O3 0.418985 0.069236 0.194024
O O4 0.078195 0.090751 0.294751
O O5 0.720434 0.206836 0.154170
O O6 0.419341 0.163764 0.462493
O O7 0.767592 0.134381 0.352589
O O8 0.657576 0.132717 0.993324
O O9 0.511727 0.250000 0.575960
O O10 0.463440 0.250000 0.104916
O O11 0.869063 0.062844 0.079050
O O12 0.082873 0.133442 0.901649
O O13 0.274063 0.297804 0.927880
O O14 0.722385 0.440387 0.751923
O O15 0.416128 0.381615 0.828917
#
# Coordination Sequence:
#
# PCOD9159393 Si02
#       8
#     4   4   2   4   2   4   4   4
#     4  10  20  34  52  76 107 140 181 230 282 335
#     4  10  20  35  56  78 110 143 186 229 284 338
#     4  10  20  37  62  87 119 157 194 239 295 347
#     4  10  21  35  54  80 106 144 186 229 281 340
#     4  10  20  37  62  87 119 157 194 239 295 347
#     4  10  19  33  54  76 104 142 184 225 281 342
#     4  10  20  34  52  76 107 140 181 230 282 335
#     4  10  20  35  56  78 110 143 186 229 284 338
#
# _framework density 23.042383999999998
#
# number of rings (size 3 to 8) (size 9 to 14) (size 15 to 20)
#    0.000    2.000    1.429    2.571    0.000    0.571 
#    0.000    0.000    0.000   17.143    0.000    0.000 
#    0.000    0.000    0.000    0.000    0.000    0.000 
#
# Total GULP energy -155965.151414 kJ/mol
# GULP energy per Si atom -5570.183979 kJ/mol
# Density = 2.298994 g / cm^3
# Si number density = 23.042384 Si / 1000 Ang^3
#
#
#
# Elastic Constant Matrix: (Units=GPa)
#
#
# Indices 1 2 3 4 5 6 
#
# 1 64.0705 21.6834 13.5451 0.0000 -15.3400 0.0000
# 2 21.6834 112.8169 2.9309 0.0000 -8.6043 0.0000
# 3 13.5451 2.9309 40.1712 0.0000 -6.4269 0.0000
# 4 0.0000 0.0000 0.0000 20.1404 0.0000 2.5315
# 5 -15.3400 -8.6043 -6.4269 0.0000 33.0344 0.0000
# 6 0.0000 0.0000 0.0000 2.5315 0.0000 27.8675
#
#
#
# Elastic Compliance Matrix: (Units=1/GPa)
#
#
# Indices 1 2 3 4 5 6 
#
# 1 0.019471 -0.003056 -0.005184 0.000000 0.007237 0.000000
# 2 -0.003056 0.009526 0.000521 0.000000 0.001164 0.000000
# 3 -0.005184 0.000521 0.027083 0.000000 0.002997 0.000000
# 4 0.000000 0.000000 0.000000 0.050225 0.000000 -0.004562
# 5 0.007237 0.001164 0.002997 0.000000 0.034518 0.000000
# 6 0.000000 0.000000 0.000000 -0.004562 0.000000 0.036299
#
#
# Mechanical properties :
#
#
# Convention : Reuss Voigt Hill
#
# Bulk Modulus (GPa) = 24.60450 32.59747 28.60099
# Shear Modulus (GPa) = 24.25925 28.13506 26.19716
#
# Velocity S-wave (km/s) = 3.24822 3.49809 3.37547
# Velocity P-wave (km/s) = 4.97685 5.52204 5.25652
#
# Compressibility (1/GPa) = 0.04064297
#
# Stress axis : x y z
#
# Youngs Moduli (GPa) = 51.35936 104.97113 36.92340
#
# Poissons Ratio (x) = 0.32075 0.19143
# Poissons Ratio (y) = 0.15693 -0.01925
# Poissons Ratio (z) = 0.26627 -0.05474
#
# Static dielectric constant tensor:
#      x y z
#    x 1.883110 0.000000 0.003210 
#    y 0.000000 1.946920 0.000000 
#    z 0.003210 0.000000 1.999320 
# 
# From -- ./inp_files/3279.got.cif
#   From: 2010.05.17/outbox.cif.g08.bks.cpg/sg11_2_cif.got.tgz:3279.got - 2010.06.03 12:22:45.
