data_PCOD9159087
_publ_section_title
;
Structure prediction by ZEFSAII (Michael W. Deem and Ramdas Pophale) SiO2 
 PCOD9159087
Probable space group: P 21/M
;
_chemical_formula_sum "Si O2"
_cell_formula_units_Z 32
_cell_length_a 29.031487
_cell_length_b 7.807390
_cell_length_c 10.783187
_cell_angle_alpha 90.000000
_cell_angle_beta 29.563629
_cell_angle_gamma 90.000000
_cell_volume 1205.903273
_symmetry_space_group_name_H-M "P 21/M"
_symmetry_group_IT_number 11
_symmetry_cell_setting 'monoclinic'
loop_
_space_group_symop_operation_xyz
x,y,z
-x,1/2+y,-z
-x,-y,-z
x,1/2-y,z
loop_
_atom_site_type_symbol
_atom_site_label
_atom_site_fract_x
_atom_site_fract_y
_atom_site_fract_z
Si Si1 0.975684 0.957211 0.240895
Si Si2 0.801079 0.452111 0.509873
Si Si3 0.870665 0.949752 0.736502
Si Si4 0.306638 0.542873 0.983713
Si Si5 0.621679 0.950229 0.810645
Si Si6 0.844521 0.446196 0.059354
Si Si7 0.485296 0.948493 0.693122
Si Si8 0.364074 0.047875 0.490897
O O1 0.977872 0.750000 0.235736
O O2 0.922665 0.014453 0.491528
O O3 0.909563 0.011339 0.282724
O O4 0.081824 0.017138 0.013588
O O5 0.791954 0.250000 0.514539
O O6 0.734359 0.535950 0.564331
O O7 0.749358 0.503723 0.759141
O O8 0.891326 0.750000 0.705587
O O9 0.760088 0.968154 0.964765
O O10 0.893407 0.047164 0.809385
O O11 0.307156 0.750000 0.972598
O O12 0.412256 0.478888 0.762561
O O13 0.597527 0.750000 0.874814
O O14 0.599200 0.021930 0.727083
O O15 0.573657 0.043393 0.038607
O O16 0.824728 0.250000 0.138843
O O17 0.746385 0.532421 0.262487
O O18 0.496787 0.750000 0.633777
O O19 0.582406 0.028821 0.515095
O O20 0.385045 0.250000 0.444454
#
# Coordination Sequence:
#
# PCOD9159087 Si02
#       8
#     4   4   4   4   4   4   4   4
#     4   9  19  35  55  80 106 133 170 216 262 308
#     4   9  17  30  52  80 107 135 169 212 259 307
#     4  10  19  33  55  79 104 134 168 210 259 312
#     4   8  15  29  50  77 105 130 162 209 258 302
#     4  10  19  32  54  81 108 137 171 214 260 309
#     4  11  23  37  53  75 105 139 175 216 260 309
#     4   9  18  34  56  80 106 136 173 217 260 305
#     4  10  22  38  53  74 106 142 178 216 259 306
#
# _framework density 26.536123
#
# number of rings (size 3 to 8) (size 9 to 14) (size 15 to 20)
#    0.000    2.500    0.000    3.000    0.000    6.000 
#    0.000    1.250    0.000    0.000    0.000    0.000 
#    0.000    0.000    0.000    0.000    0.000    0.000 
#
# Total GULP energy -178976.822731 kJ/mol
# GULP energy per Si atom -5593.025710 kJ/mol
# Density = 2.647573 g / cm^3
# Si number density = 26.536123 Si / 1000 Ang^3
#
#
#
# Elastic Constant Matrix: (Units=GPa)
#
#
# Indices 1 2 3 4 5 6 
#
# 1 199.3364 18.7643 36.8938 0.0000 -25.9207 0.0000
# 2 18.7643 44.3063 8.9452 0.0000 -8.8351 0.0000
# 3 36.8938 8.9452 105.4777 0.0000 -35.8028 0.0000
# 4 0.0000 0.0000 0.0000 23.5490 0.0000 -12.4905
# 5 -25.9207 -8.8351 -35.8028 0.0000 57.7979 0.0000
# 6 0.0000 0.0000 0.0000 -12.4905 0.0000 18.7338
#
#
#
# Elastic Compliance Matrix: (Units=1/GPa)
#
#
# Indices 1 2 3 4 5 6 
#
# 1 0.005619 -0.001829 -0.001329 0.000000 0.001417 0.000000
# 2 -0.001829 0.023954 -0.000541 0.000000 0.002506 0.000000
# 3 -0.001329 -0.000541 0.012360 0.000000 0.006977 0.000000
# 4 0.000000 0.000000 0.000000 0.065698 0.000000 0.043803
# 5 0.001417 0.002506 0.006977 0.000000 0.022642 0.000000
# 6 0.000000 0.000000 0.000000 0.043803 0.000000 0.082585
#
#
# Mechanical properties :
#
#
# Convention : Reuss Voigt Hill
#
# Bulk Modulus (GPa) = 28.95671 53.14743 41.05207
# Shear Modulus (GPa) = 21.57333 38.98396 30.27865
#
# Velocity S-wave (km/s) = 2.85437 3.83703 3.38159
# Velocity P-wave (km/s) = 4.66895 6.30097 5.54533
#
# Compressibility (1/GPa) = 0.03453430
#
# Stress axis : x y z
#
# Youngs Moduli (GPa) = 177.96448 41.74724 80.90664
#
# Poissons Ratio (x) = 0.07635 0.10756
# Poissons Ratio (y) = 0.32546 0.04377
# Poissons Ratio (z) = 0.23658 0.02259
#
# Static dielectric constant tensor:
#      x y z
#    x 2.101430 0.000000 0.002130 
#    y 0.000000 1.930370 0.000000 
#    z 0.002130 0.000000 2.229190 
# 
# From -- ./inp_files/45212.got.cif
#   From: 2010.05.17/outbox.cif.g08.bks.cpg/sg11_23_cif.got.tgz:45212.got - 2010.06.03 12:22:45.
