data_PCOD9159573
_publ_section_title
;
Structure prediction by ZEFSAII (Michael W. Deem and Ramdas Pophale) SiO2 
 PCOD9159573
Probable space group: P 21/M
;
_chemical_formula_sum "Si O2"
_cell_formula_units_Z 20
_cell_length_a 9.971997
_cell_length_b 20.092182
_cell_length_c 5.235882
_cell_angle_alpha 90.000000
_cell_angle_beta 107.619184
_cell_angle_gamma 90.000000
_cell_volume 999.845095
_symmetry_space_group_name_H-M "P 21/M"
_symmetry_group_IT_number 11
_symmetry_cell_setting 'monoclinic'
loop_
_space_group_symop_operation_xyz
x,y,z
-x,1/2+y,-z
-x,-y,-z
x,1/2-y,z
loop_
_atom_site_type_symbol
_atom_site_label
_atom_site_fract_x
_atom_site_fract_y
_atom_site_fract_z
Si Si1 0.840687 0.030839 0.098122
Si Si2 0.438509 0.465046 0.215384
Si Si3 0.661910 0.826519 0.799071
Si Si4 0.147490 0.325746 0.584018
Si Si5 0.916817 0.072493 0.642787
O O1 0.802314 0.056156 0.359548
O O2 0.859109 0.087190 0.892379
O O3 0.985369 0.991753 0.239972
O O4 0.728009 0.980719 0.913709
O O5 0.500000 0.500000 0.500000
O O6 0.451080 0.385463 0.244628
O O7 0.500000 0.500000 0.000000
O O8 0.612084 0.750000 0.732015
O O9 0.764924 0.843130 0.619877
O O10 0.748950 0.827911 0.112982
O O11 0.097736 0.250000 0.522807
O O12 0.019215 0.373637 0.576930
#
# Coordination Sequence:
#
# PCOD9159573 Si02
#       5
#     4   4   4   4   4
#     4  10  21  33  53  82 109 146 177 220 290 323
#     4  12  24  38  59  83 117 151 199 246 277 338
#     4  10  21  37  57  83 114 145 191 243 290 335
#     4  10  19  33  57  85 114 145 181 234 291 344
#     4  10  19  33  56  79 116 138 172 229 276 354
#
# _framework density 20.003098000000001
#
# number of rings (size 3 to 8) (size 9 to 14) (size 15 to 20)
#    0.000    1.600    2.000    3.600    5.600    0.000 
#    0.000    0.000    0.000    7.200    0.000    0.000 
#    0.000    0.000    0.000    0.000    0.000    0.000 
#
# Total GULP energy -111505.530808 kJ/mol
# GULP energy per Si atom -5575.276540 kJ/mol
# Density = 1.995757 g / cm^3
# Si number density = 20.003098 Si / 1000 Ang^3
#
#
#
# Elastic Constant Matrix: (Units=GPa)
#
#
# Indices 1 2 3 4 5 6 
#
# 1 35.5221 33.9061 32.7656 0.0000 -19.3188 0.0000
# 2 33.9061 124.2386 37.7018 0.0000 -13.2361 0.0000
# 3 32.7656 37.7018 164.2923 0.0000 -23.9591 0.0000
# 4 0.0000 0.0000 0.0000 13.3554 0.0000 -9.0328
# 5 -19.3188 -13.2361 -23.9591 0.0000 34.3883 0.0000
# 6 0.0000 0.0000 0.0000 -9.0328 0.0000 34.4125
#
#
#
# Elastic Compliance Matrix: (Units=1/GPa)
#
#
# Indices 1 2 3 4 5 6 
#
# 1 0.056845 -0.011377 -0.005240 0.000000 0.023905 0.000000
# 2 -0.011377 0.011076 -0.000649 0.000000 -0.002580 0.000000
# 3 -0.005240 -0.000649 0.007586 0.000000 0.002092 0.000000
# 4 0.000000 0.000000 0.000000 0.091038 0.000000 0.023896
# 5 0.023905 -0.002580 0.002092 0.000000 0.042973 0.000000
# 6 0.000000 0.000000 0.000000 0.023896 0.000000 0.035332
#
#
# Mechanical properties :
#
#
# Convention : Reuss Voigt Hill
#
# Bulk Modulus (GPa) = 24.40528 59.20002 41.80265
# Shear Modulus (GPa) = 17.06262 31.07655 24.06959
#
# Velocity S-wave (km/s) = 2.92378 3.94583 3.47261
# Velocity P-wave (km/s) = 4.86058 7.10064 6.08459
#
# Compressibility (1/GPa) = 0.04097474
#
# Stress axis : x y z
#
# Youngs Moduli (GPa) = 17.59183 90.28592 131.82665
#
# Poissons Ratio (x) = 1.02715 0.69077
# Poissons Ratio (y) = 0.20014 0.08557
# Poissons Ratio (z) = 0.09218 0.05860
#
# Static dielectric constant tensor:
#      x y z
#    x 1.776970 0.000000 -0.055490 
#    y 0.000000 1.758290 0.000000 
#    z -0.055490 0.000000 1.742560 
# 
# From -- ./inp_files/2430.got.cif
#   From: 2010.05.17/outbox.cif.g08.bks.cpg/sg11_2_cif.got.tgz:2430.got - 2010.06.03 12:22:45.
