data_PCOD9159290
_publ_section_title
;
Structure prediction by ZEFSAII (Michael W. Deem and Ramdas Pophale) SiO2 
 PCOD9159290
Probable space group: P 21/M
;
_chemical_formula_sum "Si O2"
_cell_formula_units_Z 28
_cell_length_a 32.288733
_cell_length_b 8.381324
_cell_length_c 32.288078
_cell_angle_alpha 90.000000
_cell_angle_beta 170.575221
_cell_angle_gamma 90.000000
_cell_volume 1430.849878
_symmetry_space_group_name_H-M "P 21/M"
_symmetry_group_IT_number 11
_symmetry_cell_setting 'monoclinic'
loop_
_space_group_symop_operation_xyz
x,y,z
-x,1/2+y,-z
-x,-y,-z
x,1/2-y,z
loop_
_atom_site_type_symbol
_atom_site_label
_atom_site_fract_x
_atom_site_fract_y
_atom_site_fract_z
Si Si1 0.607048 0.445076 0.369449
Si Si2 0.673316 0.055118 0.339928
Si Si3 0.064830 0.441514 0.971714
Si Si4 0.541758 0.560259 0.494583
Si Si5 0.238401 0.939667 0.761595
Si Si6 0.197633 0.056768 0.815345
Si Si7 0.917322 0.555122 0.106244
O O1 0.607081 0.250000 0.369249
O O2 0.642076 0.496756 0.356588
O O3 0.839514 0.496251 0.627606
O O4 0.340920 0.496204 0.126335
O O5 0.673402 0.250000 0.340394
O O6 0.937873 0.004152 0.580869
O O7 0.438253 0.004266 0.079743
O O8 0.051006 0.250000 0.958404
O O9 0.071126 0.495882 0.930079
O O10 0.815291 0.506747 0.747908
O O11 0.318825 0.492696 0.245760
O O12 0.500000 0.500000 0.500000
O O13 0.527701 0.750000 0.480387
O O14 0.238766 0.750000 0.761131
O O15 0.215378 0.998300 0.786001
O O16 0.000000 0.000000 0.500000
O O17 0.500000 0.000000 0.000000
O O18 0.197849 0.250000 0.814962
O O19 0.917250 0.750000 0.106100
#
# Coordination Sequence:
#
# PCOD9159290 Si02
#       7
#     4   4   4   4   4   4   4
#     4   9  15  26  44  75 113 147 182 229 283 331
#     4   9  17  28  48  77 112 147 184 231 283 331
#     4  11  22  39  61  89 121 156 195 242 294 347
#     4  12  25  42  62  87 117 154 195 242 294 352
#     4  12  25  42  63  88 117 154 195 242 294 352
#     4  10  19  33  52  79 112 148 187 234 286 339
#     4   9  17  28  48  77 112 146 183 232 284 330
#
# _framework density 19.56879
#
# number of rings (size 3 to 8) (size 9 to 14) (size 15 to 20)
#    0.000    1.714    0.000    6.000    0.000    6.857 
#    0.000    0.000    0.000    0.000    0.000   20.000 
#    0.000    0.000    0.000    0.000    0.000    0.000 
#
# Total GULP energy -156538.144530 kJ/mol
# GULP energy per Si atom -5590.648019 kJ/mol
# Density = 1.952425 g / cm^3
# Si number density = 19.568790 Si / 1000 Ang^3
#
#
#
# Elastic Constant Matrix: (Units=GPa)
#
#
# Indices 1 2 3 4 5 6 
#
# 1 151.2761 -19.3806 33.2193 0.0000 1.1533 0.0000
# 2 -19.3806 49.3913 -13.6256 0.0000 0.4736 0.0000
# 3 33.2193 -13.6256 109.1037 0.0000 1.0819 0.0000
# 4 0.0000 0.0000 0.0000 20.1172 0.0000 4.3112
# 5 1.1533 0.4736 1.0819 0.0000 46.5979 0.0000
# 6 0.0000 0.0000 0.0000 4.3112 0.0000 -10.8274
#
#
#
# Elastic Compliance Matrix: (Units=1/GPa)
#
#
# Indices 1 2 3 4 5 6 
#
# 1 0.007338 0.002346 -0.001940 0.000000 -0.000160 0.000000
# 2 0.002346 0.021722 0.002002 0.000000 -0.000325 0.000000
# 3 -0.001940 0.002002 0.010008 0.000000 -0.000205 0.000000
# 4 0.000000 0.000000 0.000000 0.045800 0.000000 0.018237
# 5 -0.000160 -0.000325 -0.000205 0.000000 0.021472 0.000000
# 6 0.000000 0.000000 0.000000 0.018237 0.000000 -0.085097
#
#
# Mechanical properties :
#
#
# Convention : Reuss Voigt Hill
#
# Bulk Modulus (GPa) = 22.78710 34.46637 28.62673
# Shear Modulus (GPa) = 160.99738 31.81476 96.40607
#
# Velocity S-wave (km/s) = 9.08026 4.03648 7.02653
# Velocity P-wave (km/s) = 11.02745 6.27499 8.97163
#
# Compressibility (1/GPa) = 0.04388449
#
# Stress axis : x y z
#
# Youngs Moduli (GPa) = 136.27441 46.03564 99.91795
#
# Poissons Ratio (x) = -0.10799 0.19381
# Poissons Ratio (y) = -0.31968 -0.20002
# Poissons Ratio (z) = 0.26433 -0.09215
#
# Static dielectric constant tensor:
#      x y z
#    x 1.652250 0.000000 -0.000590 
#    y 0.000000 1.683210 0.000000 
#    z -0.000590 0.000000 1.642070 
# 
# From -- ./inp_files/73844.got.cif
#   From: 2010.05.17/outbox.cif.g08.bks.cpg/sg11_37_cif.got.tgz:73844.got - 2010.06.03 12:22:45.
