data_PCOD9159004
_publ_section_title
;
Structure prediction by ZEFSAII (Michael W. Deem and Ramdas Pophale) SiO2 
 PCOD9159004
Probable space group: P 21/M
;
_chemical_formula_sum "Si O2"
_cell_formula_units_Z 32
_cell_length_a 19.299218
_cell_length_b 8.162005
_cell_length_c 27.455293
_cell_angle_alpha 90.000000
_cell_angle_beta 23.874088
_cell_angle_gamma 90.000000
_cell_volume 1750.354364
_symmetry_space_group_name_H-M "P 21/M"
_symmetry_group_IT_number 11
_symmetry_cell_setting 'monoclinic'
loop_
_space_group_symop_operation_xyz
x,y,z
-x,1/2+y,-z
-x,-y,-z
x,1/2-y,z
loop_
_atom_site_type_symbol
_atom_site_label
_atom_site_fract_x
_atom_site_fract_y
_atom_site_fract_z
Si Si1 0.426165 0.055461 0.727517
Si Si2 0.121291 0.948170 0.216755
Si Si3 0.807800 0.556251 0.485148
Si Si4 0.032632 0.440713 0.424701
Si Si5 0.770494 0.549774 0.047914
Si Si6 0.320410 0.446639 0.000751
Si Si7 0.101252 0.945907 0.886420
Si Si8 0.344065 0.557535 0.161801
O O1 0.445675 0.250000 0.718703
O O2 0.611382 0.979183 0.600323
O O3 0.289740 0.017193 0.772661
O O4 0.342598 0.996545 0.832733
O O5 0.127381 0.750000 0.211677
O O6 0.269988 0.010087 0.158525
O O7 0.941124 0.995912 0.357196
O O8 0.160849 0.014189 0.138058
O O9 0.832664 0.750000 0.476296
O O10 0.868665 0.469310 0.495582
O O11 0.077137 0.250000 0.396012
O O12 0.187733 0.537928 0.299930
O O13 0.000000 0.500000 0.500000
O O14 0.766989 0.750000 0.050702
O O15 0.701726 0.492092 0.040090
O O16 0.969125 0.501929 0.929139
O O17 0.339401 0.250000 0.985048
O O18 0.487110 0.514690 0.921846
O O19 0.114989 0.750000 0.876538
O O20 0.000000 0.000000 0.000000
O O21 0.375640 0.750000 0.133187
#
# Coordination Sequence:
#
# PCOD9159004 Si02
#       8
#     4   4   4   4   4   4   4   4
#     4  10  19  32  53  80 106 134 170 209 255 315
#     4   9  19  35  50  70 102 135 171 217 259 302
#     4  10  21  37  54  75 102 134 174 214 258 305
#     4  11  22  35  51  72 103 139 173 212 257 306
#     4   8  17  31  48  76 107 133 163 204 258 306
#     4  10  19  32  53  76 100 133 172 215 258 307
#     4   9  16  30  50  72 104 139 168 206 256 310
#     4   9  19  34  51  72 100 135 174 215 259 303
#
# _framework density 18.282014
#
# number of rings (size 3 to 8) (size 9 to 14) (size 15 to 20)
#    0.000    2.500    0.000    4.125    1.750    3.000 
#    0.000    3.750    0.000    0.750    0.000    0.000 
#    0.000    0.000    0.000    0.000    0.000    0.000 
#
# Total GULP energy -178404.713392 kJ/mol
# GULP energy per Si atom -5575.147294 kJ/mol
# Density = 1.824040 g / cm^3
# Si number density = 18.282014 Si / 1000 Ang^3
#
#
#
# Elastic Constant Matrix: (Units=GPa)
#
#
# Indices 1 2 3 4 5 6 
#
# 1 67.8188 3.0418 45.1250 0.0000 -8.0201 0.0000
# 2 3.0418 17.7686 -1.4805 0.0000 -1.5632 0.0000
# 3 45.1250 -1.4805 76.8483 0.0000 -22.2692 0.0000
# 4 0.0000 0.0000 0.0000 24.4177 0.0000 -1.6636
# 5 -8.0201 -1.5632 -22.2692 0.0000 23.2023 0.0000
# 6 0.0000 0.0000 0.0000 -1.6636 0.0000 18.6708
#
#
#
# Elastic Compliance Matrix: (Units=1/GPa)
#
#
# Indices 1 2 3 4 5 6 
#
# 1 0.025885 -0.006674 -0.017823 0.000000 -0.008608 0.000000
# 2 -0.006674 0.058853 0.007665 0.000000 0.009015 0.000000
# 3 -0.017823 0.007665 0.030463 0.000000 0.023593 0.000000
# 4 0.000000 0.000000 0.000000 0.041204 0.000000 0.003671
# 5 -0.008608 0.009015 0.023593 0.000000 0.063376 0.000000
# 6 0.000000 0.000000 0.000000 0.003671 0.000000 0.053887
#
#
# Mechanical properties :
#
#
# Convention : Reuss Voigt Hill
#
# Bulk Modulus (GPa) = 12.26414 28.42314 20.34364
# Shear Modulus (GPa) = 14.94720 20.97477 17.96098
#
# Velocity S-wave (km/s) = 2.86246 3.39084 3.13779
# Velocity P-wave (km/s) = 4.20092 5.55978 4.92742
#
# Compressibility (1/GPa) = 0.08153852
#
# Stress axis : x y z
#
# Youngs Moduli (GPa) = 38.63174 16.99136 32.82694
#
# Poissons Ratio (x) = 0.11339 0.58507
# Poissons Ratio (y) = 0.25781 -0.25162
# Poissons Ratio (z) = 0.68853 -0.13024
#
# Static dielectric constant tensor:
#      x y z
#    x 1.640750 0.000000 -0.018290 
#    y 0.000000 1.638040 0.000000 
#    z -0.018290 0.000000 1.644540 
# 
# From -- ./inp_files/42831.got.cif
#   From: 2010.05.17/outbox.cif.g08.bks.cpg/sg11_22_cif.got.tgz:42831.got - 2010.06.03 12:22:45.
