data_PCOD9159336
_publ_section_title
;
Structure prediction by ZEFSAII (Michael W. Deem and Ramdas Pophale) SiO2 
 PCOD9159336
Probable space group: P 21/M
;
_chemical_formula_sum "Si O2"
_cell_formula_units_Z 32
_cell_length_a 17.072686
_cell_length_b 7.874477
_cell_length_c 21.864677
_cell_angle_alpha 90.000000
_cell_angle_beta 152.308724
_cell_angle_gamma 90.000000
_cell_volume 1365.985424
_symmetry_space_group_name_H-M "P 21/M"
_symmetry_group_IT_number 11
_symmetry_cell_setting 'monoclinic'
loop_
_space_group_symop_operation_xyz
x,y,z
-x,1/2+y,-z
-x,-y,-z
x,1/2-y,z
loop_
_atom_site_type_symbol
_atom_site_label
_atom_site_fract_x
_atom_site_fract_y
_atom_site_fract_z
Si Si1 0.011648 0.449938 0.418455
Si Si2 0.304744 0.451177 0.862270
Si Si3 0.156299 0.451850 0.389604
Si Si4 0.499985 0.547564 0.311667
Si Si5 0.171027 0.954240 0.152178
Si Si6 0.685537 0.540297 0.996469
Si Si7 0.010792 0.947623 0.161625
Si Si8 0.654906 0.443512 0.290405
O O1 0.031353 0.250000 0.430627
O O2 0.077129 0.520793 0.398221
O O3 0.150352 0.503642 0.564557
O O4 0.812288 0.485702 0.274218
O O5 0.292267 0.250000 0.851839
O O6 0.247626 0.512409 0.890461
O O7 0.500000 0.500000 0.000000
O O8 0.119120 0.250000 0.359600
O O9 0.355426 0.470309 0.537420
O O10 0.093832 0.538786 0.285357
O O11 0.488524 0.750000 0.289188
O O12 0.327705 0.480025 0.221144
O O13 0.567990 0.459820 0.297438
O O14 0.197242 0.750000 0.172490
O O15 0.134374 0.019787 0.195462
O O16 0.000000 0.000000 0.000000
O O17 0.682590 0.750000 0.993494
O O18 0.495089 0.475666 0.854049
O O19 0.821019 0.481425 0.039568
O O20 0.987222 0.750000 0.129327
O O21 0.665241 0.250000 0.278161
#
# Coordination Sequence:
#
# PCOD9159336 Si02
#       8
#     4   4   4   4   4   4   4   4
#     4  10  20  37  58  85 118 150 185 228 276 333
#     4  11  22  39  62  88 117 150 184 227 279 334
#     4   9  18  32  51  75 105 140 179 223 272 325
#     4   9  19  35  50  73 111 147 181 230 283 327
#     4  10  21  35  51  71 103 143 183 230 283 333
#     4   9  19  35  56  83 114 142 182 234 280 328
#     4  10  19  33  53  77 104 140 183 229 277 327
#     4  10  19  34  59  86 110 148 192 231 275 330
#
# _framework density 23.426311999999999
#
# number of rings (size 3 to 8) (size 9 to 14) (size 15 to 20)
#    0.000    2.250    1.250    2.625    0.000    4.500 
#    0.000    4.375    0.000    0.000    0.000    0.000 
#    0.000    0.000    0.000    0.000    0.000    0.000 
#
# Total GULP energy -178585.633406 kJ/mol
# GULP energy per Si atom -5580.801044 kJ/mol
# Density = 2.337299 g / cm^3
# Si number density = 23.426312 Si / 1000 Ang^3
#
#
#
# Elastic Constant Matrix: (Units=GPa)
#
#
# Indices 1 2 3 4 5 6 
#
# 1 77.5582 0.0467 35.1833 0.0000 8.0761 0.0000
# 2 0.0467 31.2654 8.1215 0.0000 1.7385 0.0000
# 3 35.1833 8.1215 159.4791 0.0000 -0.2258 0.0000
# 4 0.0000 0.0000 0.0000 29.3455 0.0000 0.6288
# 5 8.0761 1.7385 -0.2258 0.0000 48.6096 0.0000
# 6 0.0000 0.0000 0.0000 0.6288 0.0000 13.7125
#
#
#
# Elastic Compliance Matrix: (Units=1/GPa)
#
#
# Indices 1 2 3 4 5 6 
#
# 1 0.014641 0.000969 -0.003283 0.000000 -0.002482 0.000000
# 2 0.000969 0.032543 -0.001873 0.000000 -0.001334 0.000000
# 3 -0.003283 -0.001873 0.007091 0.000000 0.000645 0.000000
# 4 0.000000 0.000000 0.000000 0.034110 0.000000 -0.001564
# 5 -0.002482 -0.001334 0.000645 0.000000 0.021035 0.000000
# 6 0.000000 0.000000 0.000000 -0.001564 0.000000 0.072998
#
#
# Mechanical properties :
#
#
# Convention : Reuss Voigt Hill
#
# Bulk Modulus (GPa) = 21.78582 39.44509 30.61546
# Shear Modulus (GPa) = 24.26098 33.33028 28.79563
#
# Velocity S-wave (km/s) = 3.22161 3.77606 3.50980
# Velocity P-wave (km/s) = 4.81231 5.99049 5.43343
#
# Compressibility (1/GPa) = 0.04590141
#
# Stress axis : x y z
#
# Youngs Moduli (GPa) = 68.30304 30.72816 141.02511
#
# Poissons Ratio (x) = -0.02977 0.46296
# Poissons Ratio (y) = -0.06618 0.26413
# Poissons Ratio (z) = 0.22422 0.05755
#
# Static dielectric constant tensor:
#      x y z
#    x 1.959540 0.000000 0.045010 
#    y 0.000000 1.849640 0.000000 
#    z 0.045010 0.000000 1.883100 
# 
# From -- ./inp_files/72121.got.cif
#   From: 2010.05.17/outbox.cif.g08.bks.cpg/sg11_37_cif.got.tgz:72121.got - 2010.06.03 12:22:45.
