data_PCOD9159265
_publ_section_title
;
Structure prediction by ZEFSAII (Michael W. Deem and Ramdas Pophale) SiO2 
 PCOD9159265
Probable space group: P 21/M
;
_chemical_formula_sum "Si O2"
_cell_formula_units_Z 28
_cell_length_a 24.708898
_cell_length_b 8.029822
_cell_length_c 6.771881
_cell_angle_alpha 90.000000
_cell_angle_beta 51.443843
_cell_angle_gamma 90.000000
_cell_volume 1050.688683
_symmetry_space_group_name_H-M "P 21/M"
_symmetry_group_IT_number 11
_symmetry_cell_setting 'monoclinic'
loop_
_space_group_symop_operation_xyz
x,y,z
-x,1/2+y,-z
-x,-y,-z
x,1/2-y,z
loop_
_atom_site_type_symbol
_atom_site_label
_atom_site_fract_x
_atom_site_fract_y
_atom_site_fract_z
Si Si1 0.421909 0.054760 0.054207
Si Si2 0.271705 0.938029 0.311737
Si Si3 0.297507 0.062901 0.844676
Si Si4 0.980931 0.550490 0.768939
Si Si5 0.553597 0.061147 0.575131
Si Si6 0.833441 0.447245 0.012899
Si Si7 0.127355 0.546552 0.528785
O O1 0.433888 0.250000 0.064679
O O2 0.340410 0.035477 0.209733
O O3 0.439465 0.940844 0.200030
O O4 0.471965 0.008056 0.753594
O O5 0.275184 0.750000 0.383052
O O6 0.193788 0.007975 0.505552
O O7 0.280437 0.932613 0.053657
O O8 0.283138 0.250000 0.946121
O O9 0.379271 0.047922 0.624095
O O10 0.243669 0.024923 0.789769
O O11 0.979743 0.750000 0.784763
O O12 0.903113 0.486382 0.976631
O O13 0.000000 0.500000 0.500000
O O14 0.048501 0.486418 0.735471
O O15 0.561885 0.250000 0.484812
O O16 0.825644 0.250000 0.037359
O O17 0.854627 0.499271 0.740058
O O18 0.127369 0.750000 0.540753
#
# Coordination Sequence:
#
# PCOD9159265 Si02
#       7
#     4   4   4   4   4   4   4
#     4  10  21  37  56  78 101 128 167 210 250 298
#     4  10  19  33  52  75 105 138 169 205 253 302
#     4  11  21  33  51  76 104 133 168 211 255 299
#     4   9  14  22  37  59  89 126 165 203 244 289
#     4  10  21  38  57  75  99 132 167 206 253 303
#     4   9  16  27  41  62  94 129 164 202 247 298
#     4   7  13  24  39  61  91 126 162 199 239 286
#
# _framework density 26.649190000000001
#
# number of rings (size 3 to 8) (size 9 to 14) (size 15 to 20)
#    0.000    2.571    0.000    5.143    0.000    2.286 
#    0.000    2.143    0.000    0.000    0.000    1.000 
#    0.000    0.000    0.000    0.000    0.000    0.000 
#
# Total GULP energy -156388.056233 kJ/mol
# GULP energy per Si atom -5585.287723 kJ/mol
# Density = 2.658854 g / cm^3
# Si number density = 26.649190 Si / 1000 Ang^3
#
#
#
# Elastic Constant Matrix: (Units=GPa)
#
#
# Indices 1 2 3 4 5 6 
#
# 1 172.8253 26.9785 32.2839 0.0000 -71.4812 0.0000
# 2 26.9785 111.3659 14.3524 0.0000 -21.4336 0.0000
# 3 32.2839 14.3524 159.9405 0.0000 -59.4981 0.0000
# 4 0.0000 0.0000 0.0000 20.2561 0.0000 -14.8356
# 5 -71.4812 -21.4336 -59.4981 0.0000 60.6644 0.0000
# 6 0.0000 0.0000 0.0000 -14.8356 0.0000 39.9505
#
#
#
# Elastic Compliance Matrix: (Units=1/GPa)
#
#
# Indices 1 2 3 4 5 6 
#
# 1 0.013421 0.000099 0.005003 0.000000 0.020756 0.000000
# 2 0.000099 0.009676 0.000672 0.000000 0.004194 0.000000
# 3 0.005003 0.000672 0.011751 0.000000 0.017658 0.000000
# 4 0.000000 0.000000 0.000000 0.067811 0.000000 0.025181
# 5 0.020756 0.004194 0.017658 0.000000 0.059741 0.000000
# 6 0.000000 0.000000 0.000000 0.025181 0.000000 0.034382
#
#
# Mechanical properties :
#
#
# Convention : Reuss Voigt Hill
#
# Bulk Modulus (GPa) = 21.55362 65.70682 43.63022
# Shear Modulus (GPa) = 24.91292 48.87533 36.89413
#
# Velocity S-wave (km/s) = 3.06084 4.28720 3.72484
# Velocity P-wave (km/s) = 4.53841 7.01545 5.90820
#
# Compressibility (1/GPa) = 0.04639591
#
# Stress axis : x y z
#
# Youngs Moduli (GPa) = 74.51071 103.34753 85.10030
#
# Poissons Ratio (x) = -0.01020 -0.42579
# Poissons Ratio (y) = -0.00735 -0.05719
# Poissons Ratio (z) = -0.37281 -0.06945
#
# Static dielectric constant tensor:
#      x y z
#    x 2.176480 0.000000 -0.055910 
#    y 0.000000 1.909280 0.000000 
#    z -0.055910 0.000000 2.160500 
# 
# From -- ./inp_files/29007.got.cif
#   From: 2010.05.17/outbox.cif.g08.bks.cpg/sg11_15_cif.got.tgz:29007.got - 2010.06.03 12:22:45.
