data_PCOD9159495
_publ_section_title
;
Structure prediction by ZEFSAII (Michael W. Deem and Ramdas Pophale) SiO2 
 PCOD9159495
Probable space group: P 21/M
;
_chemical_formula_sum "Si O2"
_cell_formula_units_Z 28
_cell_length_a 20.074416
_cell_length_b 7.597410
_cell_length_c 15.197600
_cell_angle_alpha 90.000000
_cell_angle_beta 36.808311
_cell_angle_gamma 90.000000
_cell_volume 1388.710187
_symmetry_space_group_name_H-M "P 21/M"
_symmetry_group_IT_number 11
_symmetry_cell_setting 'monoclinic'
loop_
_space_group_symop_operation_xyz
x,y,z
-x,1/2+y,-z
-x,-y,-z
x,1/2-y,z
loop_
_atom_site_type_symbol
_atom_site_label
_atom_site_fract_x
_atom_site_fract_y
_atom_site_fract_z
Si Si1 0.029912 0.459551 0.068146
Si Si2 0.761815 0.458338 0.751679
Si Si3 0.135958 0.043837 0.599865
Si Si4 0.645578 0.046519 0.701298
Si Si5 0.223261 0.043275 0.976498
Si Si6 0.942568 0.463979 0.686118
Si Si7 0.402409 0.464365 0.913055
O O1 0.033982 0.250000 0.073821
O O2 0.936705 0.522028 0.235655
O O3 0.150319 0.530631 0.973230
O O4 0.000000 0.500000 0.000000
O O5 0.778853 0.250000 0.719676
O O6 0.703669 0.534639 0.726472
O O7 0.879929 0.529074 0.664371
O O8 0.672988 0.481668 0.924242
O O9 0.152375 0.250000 0.568769
O O10 0.062113 0.973917 0.595257
O O11 0.256952 0.959651 0.473560
O O12 0.621826 0.250000 0.748878
O O13 0.527990 0.971989 0.794883
O O14 0.241340 0.250000 0.939963
O O15 0.139744 0.021230 0.147743
O O16 0.339164 0.971197 0.891804
O O17 0.944604 0.250000 0.682315
O O18 0.401747 0.250000 0.910377
#
# Coordination Sequence:
#
# PCOD9159495 Si02
#       7
#     4   4   4   4   4   4   4
#     4  10  19  33  55  79  99 117 142 182 232 285
#     4   9  17  29  45  66  92 124 164 205 240 270
#     4  10  20  33  48  68  95 126 159 192 231 280
#     4  10  20  31  44  65  96 131 162 197 237 272
#     4   8  15  28  47  70  93 119 150 185 227 274
#     4   8  15  28  44  63  90 122 156 196 235 271
#     4   9  17  30  47  67  93 126 164 199 230 268
#
# _framework density 20.162593999999999
#
# number of rings (size 3 to 8) (size 9 to 14) (size 15 to 20)
#    0.000    2.857    0.000    1.286    0.000    2.857 
#    0.000    0.000    0.000    0.857    0.000    0.000 
#    0.000    0.000    0.000    0.000    0.000    0.000 
#
# Total GULP energy -156038.130686 kJ/mol
# GULP energy per Si atom -5572.790382 kJ/mol
# Density = 2.011670 g / cm^3
# Si number density = 20.162594 Si / 1000 Ang^3
#
#
#
# Elastic Constant Matrix: (Units=GPa)
#
#
# Indices 1 2 3 4 5 6 
#
# 1 178.3280 1.6859 66.1763 0.0000 -16.9841 0.0000
# 2 1.6859 52.8394 -8.3502 0.0000 -0.1821 0.0000
# 3 66.1763 -8.3502 71.7451 0.0000 -23.8197 0.0000
# 4 0.0000 0.0000 0.0000 18.7283 0.0000 5.1824
# 5 -16.9841 -0.1821 -23.8197 0.0000 35.3922 0.0000
# 6 0.0000 0.0000 0.0000 5.1824 0.0000 8.4811
#
#
#
# Elastic Compliance Matrix: (Units=1/GPa)
#
#
# Indices 1 2 3 4 5 6 
#
# 1 0.008736 -0.001682 -0.008840 0.000000 -0.001766 0.000000
# 2 -0.001682 0.019722 0.004652 0.000000 0.002425 0.000000
# 3 -0.008840 0.004652 0.027342 0.000000 0.014184 0.000000
# 4 0.000000 0.000000 0.000000 0.064261 0.000000 -0.039267
# 5 -0.001766 0.002425 0.014184 0.000000 0.036966 0.000000
# 6 0.000000 0.000000 0.000000 -0.039267 0.000000 0.141904
#
#
# Mechanical properties :
#
#
# Convention : Reuss Voigt Hill
#
# Bulk Modulus (GPa) = 22.69571 46.88184 34.78877
# Shear Modulus (GPa) = 15.36770 28.74703 22.05736
#
# Velocity S-wave (km/s) = 2.76377 3.78002 3.31112
# Velocity P-wave (km/s) = 4.63307 6.50798 5.64886
#
# Compressibility (1/GPa) = 0.04406119
#
# Stress axis : x y z
#
# Youngs Moduli (GPa) = 114.47312 50.70379 36.57353
#
# Poissons Ratio (x) = 0.08527 0.32329
# Poissons Ratio (y) = 0.19251 -0.17013
# Poissons Ratio (z) = 1.01189 -0.23586
#
# Static dielectric constant tensor:
#      x y z
#    x 1.745160 0.000000 -0.093010 
#    y 0.000000 1.735960 0.000000 
#    z -0.093010 0.000000 1.637250 
# 
# From -- ./inp_files/37708.got.cif
#   From: 2010.05.17/outbox.cif.g08.bks.cpg/sg11_19_cif.got.tgz:37708.got - 2010.06.03 12:22:45.
