data_PCOD9159806
_publ_section_title
;
Structure prediction by ZEFSAII (Michael W. Deem and Ramdas Pophale) SiO2 
 PCOD9159806
Probable space group: P 21/M
;
_chemical_formula_sum "Si O2"
_cell_formula_units_Z 30
_cell_length_a 15.166275
_cell_length_b 9.440081
_cell_length_c 9.542891
_cell_angle_alpha 90.000000
_cell_angle_beta 100.490614
_cell_angle_gamma 90.000000
_cell_volume 1343.426507
_symmetry_space_group_name_H-M "P 21/M"
_symmetry_group_IT_number 11
_symmetry_cell_setting 'monoclinic'
loop_
_space_group_symop_operation_xyz
x,y,z
-x,1/2+y,-z
-x,-y,-z
x,1/2-y,z
loop_
_atom_site_type_symbol
_atom_site_label
_atom_site_fract_x
_atom_site_fract_y
_atom_site_fract_z
Si Si1 0.967179 0.975358 0.181952
Si Si2 0.219741 0.421440 0.330629
Si Si3 0.869220 0.578607 0.422798
Si Si4 0.776244 0.587847 0.990613
Si Si5 0.709444 0.417832 0.221725
Si Si6 0.419405 0.080061 0.401474
Si Si7 0.965091 0.250000 0.989240
Si Si8 0.492571 0.584727 0.856002
O O1 0.874715 0.909636 0.088704
O O2 0.039667 0.872806 0.135260
O O3 0.947639 0.974105 0.342237
O O4 0.974874 0.127635 0.114541
O O5 0.219993 0.250000 0.330596
O O6 0.142412 0.462456 0.417260
O O7 0.213378 0.459348 0.166241
O O8 0.318945 0.466001 0.410858
O O9 0.868049 0.750000 0.412931
O O10 0.779589 0.510107 0.329185
O O11 0.740486 0.750000 0.985374
O O12 0.720012 0.478280 0.066924
O O13 0.730732 0.250000 0.232696
O O14 0.606741 0.439245 0.236082
O O15 0.427689 0.250000 0.426067
O O16 0.434011 0.052952 0.240051
O O17 0.500000 0.000000 0.500000
O O18 0.498422 0.750000 0.891762
O O19 0.500000 0.500000 0.000000
#
# Coordination Sequence:
#
# PCOD9159806 Si02
#       8
#     4   4   4   4   4   4   2   4
#     4  10  19  34  58  84 109 139 174 212 256 304
#     4   9  19  34  55  76 104 143 182 225 260 313
#     4  10  19  34  54  79 104 137 182 214 256 307
#     4  10  19  35  56  80 107 142 185 216 263 315
#     4  10  20  32  50  75 105 136 175 228 271 313
#     4  10  20  35  53  74 102 140 184 226 273 317
#     4  10  20  34  58  86 112 136 170 212 254 312
#     4  10  21  34  49  73 103 135 176 226 277 321
#
# _framework density 22.330957000000001
#
# number of rings (size 3 to 8) (size 9 to 14) (size 15 to 20)
#    0.000    2.133    1.333    2.800    3.733    2.667 
#    0.000    1.333    0.000    4.800    0.000    0.000 
#    0.000    0.000    0.000    0.000    0.000    0.000 
#
# Total GULP energy -167033.993651 kJ/mol
# GULP energy per Si atom -5567.799788 kJ/mol
# Density = 2.228013 g / cm^3
# Si number density = 22.330957 Si / 1000 Ang^3
#
#
#
# Elastic Constant Matrix: (Units=GPa)
#
#
# Indices 1 2 3 4 5 6 
#
# 1 89.5617 18.4484 18.1462 0.0000 -16.8460 0.0000
# 2 18.4484 64.3756 8.3063 0.0000 -19.0447 0.0000
# 3 18.1462 8.3063 105.8455 0.0000 -26.4447 0.0000
# 4 0.0000 0.0000 0.0000 20.8167 0.0000 -15.4061
# 5 -16.8460 -19.0447 -26.4447 0.0000 34.6705 0.0000
# 6 0.0000 0.0000 0.0000 -15.4061 0.0000 12.9860
#
#
#
# Elastic Compliance Matrix: (Units=1/GPa)
#
#
# Indices 1 2 3 4 5 6 
#
# 1 0.012605 -0.002259 -0.000943 0.000000 0.004165 0.000000
# 2 -0.002259 0.019109 0.001527 0.000000 0.010564 0.000000
# 3 -0.000943 0.001527 0.011841 0.000000 0.009412 0.000000
# 4 0.000000 0.000000 0.000000 0.393766 0.000000 0.467147
# 5 0.004165 0.010564 0.009412 0.000000 0.043849 0.000000
# 6 0.000000 0.000000 0.000000 0.467147 0.000000 0.631210
#
#
# Mechanical properties :
#
#
# Convention : Reuss Voigt Hill
#
# Bulk Modulus (GPa) = 24.87195 38.84270 31.85732
# Shear Modulus (GPa) = 4.42818 28.02010 16.22414
#
# Velocity S-wave (km/s) = 1.40971 3.54611 2.69835
# Velocity P-wave (km/s) = 3.71642 5.84794 4.89950
#
# Compressibility (1/GPa) = 0.04020594
#
# Stress axis : x y z
#
# Youngs Moduli (GPa) = 79.33250 52.33044 84.45083
#
# Poissons Ratio (x) = 0.11819 0.07966
# Poissons Ratio (y) = 0.17918 -0.12895
# Poissons Ratio (z) = 0.07483 -0.07991
#
# Static dielectric constant tensor:
#      x y z
#    x 1.913260 0.000000 0.001780 
#    y 0.000000 1.749820 0.000000 
#    z 0.001780 0.000000 1.879370 
# 
# From -- ./inp_files/25822.got.cif
#   From: 2010.05.17/outbox.cif.g08.bks.cpg/sg11_13_cif.got.tgz:25822.got - 2010.06.03 12:22:45.
