data_PCOD9159313
_publ_section_title
;
Structure prediction by ZEFSAII (Michael W. Deem and Ramdas Pophale) SiO2 
 PCOD9159313
Probable space group: P 21/M
;
_chemical_formula_sum "Si O2"
_cell_formula_units_Z 30
_cell_length_a 17.208984
_cell_length_b 7.350604
_cell_length_c 12.365450
_cell_angle_alpha 90.000000
_cell_angle_beta 68.625012
_cell_angle_gamma 90.000000
_cell_volume 1456.592774
_symmetry_space_group_name_H-M "P 21/M"
_symmetry_group_IT_number 11
_symmetry_cell_setting 'monoclinic'
loop_
_space_group_symop_operation_xyz
x,y,z
-x,1/2+y,-z
-x,-y,-z
x,1/2-y,z
loop_
_atom_site_type_symbol
_atom_site_label
_atom_site_fract_x
_atom_site_fract_y
_atom_site_fract_z
Si Si1 0.282378 0.972498 0.020991
Si Si2 0.657093 0.041039 0.242162
Si Si3 0.171148 0.250000 0.609086
Si Si4 0.465420 0.969159 0.330927
Si Si5 0.915513 0.457635 0.192410
Si Si6 0.419614 0.966806 0.115400
Si Si7 0.301772 0.969503 0.545225
Si Si8 0.103560 0.530561 0.044508
O O1 0.285951 0.750000 0.019902
O O2 0.339140 0.035913 0.091259
O O3 0.185649 0.024698 0.068156
O O4 0.321365 0.035229 0.886422
O O5 0.685057 0.250000 0.224316
O O6 0.699767 0.965156 0.328184
O O7 0.557797 0.037307 0.309487
O O8 0.116767 0.091348 0.700295
O O9 0.231193 0.411369 0.525790
O O10 0.472236 0.750000 0.324856
O O11 0.437789 0.035660 0.226204
O O12 0.392999 0.014240 0.451883
O O13 0.113027 0.750000 0.775676
O O14 0.016075 0.458922 0.132294
O O15 0.885974 0.519027 0.087350
O O16 0.409171 0.750000 0.131646
O O17 0.500000 0.000000 0.000000
O O18 0.292024 0.750000 0.542848
O O19 0.097840 0.750000 0.048833
#
# Coordination Sequence:
#
# PCOD9159313 Si02
#       8
#     4   4   2   4   4   4   4   4
#     4   9  17  30  52  79 109 146 186 226 268 335
#     4  10  19  33  53  75 106 151 185 227 277 320
#     4  12  22  36  58  80 106 150 188 220 290 336
#     4  10  21  35  52  74 111 145 188 238 280 318
#     4  10  20  34  54  83 118 149 179 227 276 346
#     4  10  19  34  52  77 107 147 187 228 278 321
#     4  10  23  38  52  80 112 145 194 239 271 328
#     4   9  17  33  52  78 116 151 184 220 282 340
#
# _framework density 20.59601
#
# number of rings (size 3 to 8) (size 9 to 14) (size 15 to 20)
#    0.000    2.133    2.000    1.600    2.800    2.133 
#    0.000    0.667    0.000    0.000    0.000    0.933 
#    0.000    0.000    0.000    0.000    0.000    0.000 
#
# Total GULP energy -167061.095072 kJ/mol
# GULP energy per Si atom -5568.703169 kJ/mol
# Density = 2.054913 g / cm^3
# Si number density = 20.596010 Si / 1000 Ang^3
#
#
#
# Elastic Constant Matrix: (Units=GPa)
#
#
# Indices 1 2 3 4 5 6 
#
# 1 90.7537 -2.4937 6.0843 0.0000 -3.2194 0.0000
# 2 -2.4937 94.7556 -0.0562 0.0000 -3.9523 0.0000
# 3 6.0843 -0.0562 38.5109 0.0000 -0.6032 0.0000
# 4 0.0000 0.0000 0.0000 55.5995 0.0000 -48.0208
# 5 -3.2194 -3.9523 -0.6032 0.0000 29.1913 0.0000
# 6 0.0000 0.0000 0.0000 -48.0208 0.0000 41.5585
#
#
#
# Elastic Compliance Matrix: (Units=1/GPa)
#
#
# Indices 1 2 3 4 5 6 
#
# 1 0.011190 0.000345 -0.001748 0.000000 0.001245 0.000000
# 2 0.000345 0.010624 -0.000016 0.000000 0.001476 0.000000
# 3 -0.001748 -0.000016 0.026248 0.000000 0.000347 0.000000
# 4 0.000000 0.000000 0.000000 8.970522 0.000000 10.365434
# 5 0.001245 0.001476 0.000347 0.000000 0.034601 0.000000
# 6 0.000000 0.000000 0.000000 10.365434 0.000000 12.001316
#
#
# Mechanical properties :
#
#
# Convention : Reuss Voigt Hill
#
# Bulk Modulus (GPa) = 22.11158 25.67655 23.89406
# Shear Modulus (GPa) = 0.23728 39.96892 20.10310
#
# Velocity S-wave (km/s) = 0.33979 4.41002 3.12760
# Velocity P-wave (km/s) = 3.30350 6.19878 4.96679
#
# Compressibility (1/GPa) = 0.04522517
#
# Stress axis : x y z
#
# Youngs Moduli (GPa) = 89.36820 94.12543 38.09780
#
# Poissons Ratio (x) = -0.03251 0.06659
# Poissons Ratio (y) = -0.03086 0.00061
# Poissons Ratio (z) = 0.15620 0.00150
#
# Static dielectric constant tensor:
#      x y z
#    x 1.742830 0.000000 0.001770 
#    y 0.000000 1.752940 0.000000 
#    z 0.001770 0.000000 1.717270 
# 
# From -- ./inp_files/40557.got.cif
#   From: 2010.05.17/outbox.cif.g08.bks.cpg/sg11_21_cif.got.tgz:40557.got - 2010.06.03 12:22:45.
