data_PCOD9159029
_publ_section_title
;
Structure prediction by ZEFSAII (Michael W. Deem and Ramdas Pophale) SiO2 
 PCOD9159029
Probable space group: P 21/M
;
_chemical_formula_sum "Si O2"
_cell_formula_units_Z 32
_cell_length_a 25.963196
_cell_length_b 9.055848
_cell_length_c 20.463303
_cell_angle_alpha 90.000000
_cell_angle_beta 157.306379
_cell_angle_gamma 90.000000
_cell_volume 1856.218012
_symmetry_space_group_name_H-M "P 21/M"
_symmetry_group_IT_number 11
_symmetry_cell_setting 'monoclinic'
loop_
_space_group_symop_operation_xyz
x,y,z
-x,1/2+y,-z
-x,-y,-z
x,1/2-y,z
loop_
_atom_site_type_symbol
_atom_site_label
_atom_site_fract_x
_atom_site_fract_y
_atom_site_fract_z
Si Si1 0.942666 0.074405 0.613585
Si Si2 0.596843 0.415961 0.710177
Si Si3 0.903513 0.922059 0.936413
Si Si4 0.912210 0.427619 0.339534
Si Si5 0.644730 0.413826 0.609764
Si Si6 0.667206 0.573588 0.260581
Si Si7 0.132182 0.425838 0.957826
Si Si8 0.364856 0.926579 0.918487
O O1 0.933663 0.250000 0.589551
O O2 0.020765 0.052758 0.772841
O O3 0.794619 0.005528 0.441478
O O4 0.029945 0.996695 0.659124
O O5 0.570558 0.250000 0.703640
O O6 0.609209 0.405001 0.645414
O O7 0.477680 0.532335 0.577394
O O8 0.733730 0.481825 0.898036
O O9 0.927659 0.750000 0.963773
O O10 0.756532 0.962125 0.739716
O O11 0.915326 0.972328 0.025431
O O12 0.000000 0.000000 0.000000
O O13 0.929364 0.250000 0.359304
O O14 0.755478 0.458654 0.171911
O O15 0.000000 0.500000 0.500000
O O16 0.691735 0.250000 0.645760
O O17 0.686200 0.750000 0.283510
O O18 0.662571 0.515042 0.180440
O O19 0.519647 0.541263 0.117854
O O20 0.164865 0.250000 0.999053
O O21 0.358375 0.750000 0.896967
#
# Coordination Sequence:
#
# PCOD9159029 Si02
#       8
#     4   4   4   4   4   4   4   4
#     4  11  22  36  54  78 109 144 182 222 266 320
#     4   9  16  27  47  74 100 126 162 206 250 296
#     4  10  19  33  53  77 102 132 173 218 264 312
#     4  11  21  34  54  81 109 140 178 225 274 319
#     4   9  16  27  46  73 102 130 160 201 251 301
#     4  10  19  32  53  79 104 138 180 221 269 318
#     4   9  20  36  53  73 103 140 175 211 257 315
#     4   9  19  34  52  76 107 137 174 224 272 319
#
# _framework density 17.239353999999999
#
# number of rings (size 3 to 8) (size 9 to 14) (size 15 to 20)
#    0.000    2.250    1.250    2.250    0.000    5.500 
#    0.000    0.000    2.750    0.000    0.000    0.000 
#    0.000    0.000    0.000    0.000    0.000    0.000 
#
# Total GULP energy -178293.779651 kJ/mol
# GULP energy per Si atom -5571.680614 kJ/mol
# Density = 1.720012 g / cm^3
# Si number density = 17.239354 Si / 1000 Ang^3
#
#
#
# Elastic Constant Matrix: (Units=GPa)
#
#
# Indices 1 2 3 4 5 6 
#
# 1 56.8539 29.2981 44.9413 0.0000 11.1007 0.0000
# 2 29.2981 61.0213 49.4484 0.0000 -1.0279 0.0000
# 3 44.9413 49.4484 123.2202 0.0000 4.2854 0.0000
# 4 0.0000 0.0000 0.0000 29.5694 0.0000 4.4629
# 5 11.1007 -1.0279 4.2854 0.0000 19.3532 0.0000
# 6 0.0000 0.0000 0.0000 4.4629 0.0000 21.7356
#
#
#
# Elastic Compliance Matrix: (Units=1/GPa)
#
#
# Indices 1 2 3 4 5 6 
#
# 1 0.031431 -0.009732 -0.006967 0.000000 -0.017002 0.000000
# 2 -0.009732 0.027532 -0.007804 0.000000 0.008772 0.000000
# 3 -0.006967 -0.007804 0.013770 0.000000 0.000532 0.000000
# 4 0.000000 0.000000 0.000000 0.034900 0.000000 -0.007166
# 5 -0.017002 0.008772 0.000532 0.000000 0.061771 0.000000
# 6 0.000000 0.000000 0.000000 -0.007166 0.000000 0.047479
#
#
# Mechanical properties :
#
#
# Convention : Reuss Voigt Hill
#
# Bulk Modulus (GPa) = 42.14611 54.27455 48.21033
# Shear Modulus (GPa) = 18.26164 21.95882 20.11023
#
# Velocity S-wave (km/s) = 3.25822 3.57285 3.41916
# Velocity P-wave (km/s) = 6.21734 6.96934 6.60405
#
# Compressibility (1/GPa) = 0.02372698
#
# Stress axis : x y z
#
# Youngs Moduli (GPa) = 31.81611 36.32114 72.62177
#
# Poissons Ratio (x) = 0.35346 0.50595
# Poissons Ratio (y) = 0.30962 0.56677
# Poissons Ratio (z) = 0.22166 0.28347
#
# Static dielectric constant tensor:
#      x y z
#    x 1.582170 0.000000 0.048850 
#    y 0.000000 1.583600 0.000000 
#    z 0.048850 0.000000 1.647790 
# 
# From -- ./inp_files/67272.got.cif
#   From: 2010.05.17/outbox.cif.g08.bks.cpg/sg11_34_cif.got.tgz:67272.got - 2010.06.03 12:22:45.
