data_PCOD9159237
_publ_section_title
;
Structure prediction by ZEFSAII (Michael W. Deem and Ramdas Pophale) SiO2 
 PCOD9159237
Probable space group: P 21/M
;
_chemical_formula_sum "Si O2"
_cell_formula_units_Z 24
_cell_length_a 9.589732
_cell_length_b 9.184938
_cell_length_c 21.033161
_cell_angle_alpha 90.000000
_cell_angle_beta 34.265408
_cell_angle_gamma 90.000000
_cell_volume 1043.077596
_symmetry_space_group_name_H-M "P 21/M"
_symmetry_group_IT_number 11
_symmetry_cell_setting 'monoclinic'
loop_
_space_group_symop_operation_xyz
x,y,z
-x,1/2+y,-z
-x,-y,-z
x,1/2-y,z
loop_
_atom_site_type_symbol
_atom_site_label
_atom_site_fract_x
_atom_site_fract_y
_atom_site_fract_z
Si Si1 0.695702 0.417591 0.014756
Si Si2 0.286967 0.081527 0.334178
Si Si3 0.142021 0.920806 0.608844
Si Si4 0.825396 0.419502 0.147469
Si Si5 0.800573 0.416944 0.824072
Si Si6 0.507338 0.076412 0.632356
O O1 0.667176 0.250000 0.043492
O O2 0.768206 0.422579 0.912086
O O3 0.931132 0.490229 0.959514
O O4 0.436527 0.500275 0.114939
O O5 0.271838 0.250000 0.363423
O O6 0.082527 0.063460 0.357804
O O7 0.572474 0.065035 0.201804
O O8 0.283506 0.966400 0.393323
O O9 0.162079 0.750000 0.617590
O O10 0.383337 0.963613 0.477305
O O11 0.050139 0.012894 0.702799
O O12 0.889264 0.250000 0.127848
O O13 0.716728 0.481943 0.255299
O O14 0.794139 0.250000 0.806428
O O15 0.457625 0.250000 0.653061
#
# Coordination Sequence:
#
# PCOD9159237 Si02
#       6
#     4   4   4   4   4   4
#     4  10  20  38  58  75  98 129 171 215 257 305
#     4   8  17  31  49  76 107 139 170 205 248 297
#     4  10  19  33  51  77 110 138 170 209 250 299
#     4   9  18  32  53  77 103 136 172 208 249 303
#     4  10  22  36  55  79 100 129 169 214 258 303
#     4   9  17  29  50  78 106 139 172 205 249 299
#
# _framework density 23.008835000000001
#
# number of rings (size 3 to 8) (size 9 to 14) (size 15 to 20)
#    1.000    1.667    0.000    2.000    0.000    4.000 
#    0.000    1.667    0.000    0.000    0.000    0.000 
#    0.000    0.000    0.000    0.000    0.000    0.000 
#
# Total GULP energy -133994.530847 kJ/mol
# GULP energy per Si atom -5583.105452 kJ/mol
# Density = 2.295647 g / cm^3
# Si number density = 23.008835 Si / 1000 Ang^3
#
#
#
# Elastic Constant Matrix: (Units=GPa)
#
#
# Indices 1 2 3 4 5 6 
#
# 1 72.5259 25.5035 13.2362 0.0000 -3.8296 0.0000
# 2 25.5035 70.6727 31.0496 0.0000 3.7271 0.0000
# 3 13.2362 31.0496 114.8429 0.0000 -1.1283 0.0000
# 4 0.0000 0.0000 0.0000 37.3730 0.0000 3.6576
# 5 -3.8296 3.7271 -1.1283 0.0000 40.5192 0.0000
# 6 0.0000 0.0000 0.0000 3.6576 0.0000 19.2344
#
#
#
# Elastic Compliance Matrix: (Units=1/GPa)
#
#
# Indices 1 2 3 4 5 6 
#
# 1 0.015967 -0.005753 -0.000265 0.000000 0.002031 0.000000
# 2 -0.005753 0.018234 -0.004290 0.000000 -0.002340 0.000000
# 3 -0.000265 -0.004290 0.009904 0.000000 0.000645 0.000000
# 4 0.000000 0.000000 0.000000 0.027265 0.000000 -0.005185
# 5 0.002031 -0.002340 0.000645 0.000000 0.025105 0.000000
# 6 0.000000 0.000000 0.000000 -0.005185 0.000000 0.052976
#
#
# Mechanical properties :
#
#
# Convention : Reuss Voigt Hill
#
# Bulk Modulus (GPa) = 42.57124 44.18001 43.37563
# Shear Modulus (GPa) = 28.10650 31.97548 30.04099
#
# Velocity S-wave (km/s) = 3.49886 3.73192 3.61727
# Velocity P-wave (km/s) = 5.90466 6.14920 6.02817
#
# Compressibility (1/GPa) = 0.02349004
#
# Stress axis : x y z
#
# Youngs Moduli (GPa) = 62.63067 54.84340 100.96695
#
# Poissons Ratio (x) = 0.31549 0.02676
# Poissons Ratio (y) = 0.36028 0.43312
# Poissons Ratio (z) = 0.01660 0.23527
#
# Static dielectric constant tensor:
#      x y z
#    x 1.958820 0.000000 0.015710 
#    y 0.000000 1.768240 0.000000 
#    z 0.015710 0.000000 1.885110 
# 
# From -- ./inp_files/71196.got.cif
#   From: 2010.05.17/outbox.cif.g08.bks.cpg/sg11_36_cif.got.tgz:71196.got - 2010.06.03 12:22:45.
