data_PCOD9159952
_publ_section_title
;
Structure prediction by ZEFSAII (Michael W. Deem and Ramdas Pophale) SiO2 
 PCOD9159952
Probable space group: P 21/M
;
_chemical_formula_sum "Si O2"
_cell_formula_units_Z 32
_cell_length_a 14.983850
_cell_length_b 7.766009
_cell_length_c 23.949382
_cell_angle_alpha 90.000000
_cell_angle_beta 148.223021
_cell_angle_gamma 90.000000
_cell_volume 1467.601824
_symmetry_space_group_name_H-M "P 21/M"
_symmetry_group_IT_number 11
_symmetry_cell_setting 'monoclinic'
loop_
_space_group_symop_operation_xyz
x,y,z
-x,1/2+y,-z
-x,-y,-z
x,1/2-y,z
loop_
_atom_site_type_symbol
_atom_site_label
_atom_site_fract_x
_atom_site_fract_y
_atom_site_fract_z
Si Si1 0.731063 0.538760 0.496819
Si Si2 0.415447 0.543214 0.396166
Si Si3 0.946492 0.456175 0.261851
Si Si4 0.584535 0.457707 0.104043
Si Si5 0.873733 0.957125 0.983395
Si Si6 0.517572 0.545165 0.830683
Si Si7 0.808246 0.544969 0.413385
Si Si8 0.967834 0.457812 0.815656
O O1 0.731701 0.750000 0.497968
O O2 0.547194 0.481180 0.419740
O O3 0.770294 0.479941 0.455493
O O4 0.878930 0.480088 0.617740
O O5 0.500000 0.500000 0.500000
O O6 0.405201 0.750000 0.386288
O O7 0.225110 0.475989 0.290810
O O8 0.948093 0.250000 0.268592
O O9 0.778913 0.520925 0.203971
O O10 0.939832 0.495899 0.192725
O O11 0.588417 0.250000 0.110122
O O12 0.491771 0.523014 0.110579
O O13 0.500000 0.500000 0.000000
O O14 0.870974 0.750000 0.982637
O O15 0.677821 0.020132 0.879599
O O16 0.947963 0.018366 0.082339
O O17 0.000000 0.000000 0.000000
O O18 0.542654 0.750000 0.848663
O O19 0.336523 0.517879 0.705579
O O20 0.794898 0.750000 0.407385
O O21 0.000000 0.500000 0.500000
O O22 0.964964 0.250000 0.816419
#
# Coordination Sequence:
#
# PCOD9159952 Si02
#       8
#     4   4   4   4   4   4   4   4
#     4   9  19  35  56  81 111 149 189 228 283 345
#     4  10  19  34  56  83 114 149 188 232 286 346
#     4  10  19  34  57  83 111 146 184 226 282 348
#     4  10  21  37  60  85 113 149 190 239 293 349
#     4  10  23  41  61  84 115 156 200 248 298 349
#     4  10  22  42  62  85 120 159 199 247 301 355
#     4  11  23  40  64  90 120 159 199 245 295 352
#     4  10  21  36  57  84 115 150 190 238 289 341
#
# _framework density 21.804279000000001
#
# number of rings (size 3 to 8) (size 9 to 14) (size 15 to 20)
#    0.000    2.000    1.250    1.875    1.750    5.000 
#    0.000    3.750    0.000    0.000    0.000    0.000 
#    0.000    0.000    0.000    0.000    0.000    0.000 
#
# Total GULP energy -178753.047731 kJ/mol
# GULP energy per Si atom -5586.032742 kJ/mol
# Density = 2.175465 g / cm^3
# Si number density = 21.804279 Si / 1000 Ang^3
#
#
#
# Elastic Constant Matrix: (Units=GPa)
#
#
# Indices 1 2 3 4 5 6 
#
# 1 182.0049 7.6078 53.9838 0.0000 12.1696 0.0000
# 2 7.6078 29.4728 0.7007 0.0000 5.9413 0.0000
# 3 53.9838 0.7007 100.5525 0.0000 11.0265 0.0000
# 4 0.0000 0.0000 0.0000 21.7247 0.0000 -2.8845
# 5 12.1696 5.9413 11.0265 0.0000 42.5383 0.0000
# 6 0.0000 0.0000 0.0000 -2.8845 0.0000 20.3202
#
#
#
# Elastic Compliance Matrix: (Units=1/GPa)
#
#
# Indices 1 2 3 4 5 6 
#
# 1 0.006637 -0.001471 -0.003466 0.000000 -0.000795 0.000000
# 2 -0.001471 0.035247 0.001068 0.000000 -0.004779 0.000000
# 3 -0.003466 0.001068 0.012048 0.000000 -0.002281 0.000000
# 4 0.000000 0.000000 0.000000 0.046915 0.000000 0.006660
# 5 -0.000795 -0.004779 -0.002281 0.000000 0.024994 0.000000
# 6 0.000000 0.000000 0.000000 0.006660 0.000000 0.050157
#
#
# Mechanical properties :
#
#
# Convention : Reuss Voigt Hill
#
# Bulk Modulus (GPa) = 21.64703 48.51277 35.07990
# Shear Modulus (GPa) = 25.10868 33.56585 29.33726
#
# Velocity S-wave (km/s) = 3.39713 3.92780 3.67206
# Velocity P-wave (km/s) = 5.03356 6.54734 5.83971
#
# Compressibility (1/GPa) = 0.04619571
#
# Stress axis : x y z
#
# Youngs Moduli (GPa) = 150.67162 28.37110 82.99868
#
# Poissons Ratio (x) = 0.04172 0.28765
# Poissons Ratio (y) = 0.22157 -0.08864
# Poissons Ratio (z) = 0.52219 -0.03030
#
# Static dielectric constant tensor:
#      x y z
#    x 1.788790 0.000000 0.020390 
#    y 0.000000 1.810600 0.000000 
#    z 0.020390 0.000000 1.781340 
# 
# From -- ./inp_files/69065.got.cif
#   From: 2010.05.17/outbox.cif.g08.bks.cpg/sg11_35_cif.got.tgz:69065.got - 2010.06.03 12:22:45.
