data_PCOD9159687
_publ_section_title
;
Structure prediction by ZEFSAII (Michael W. Deem and Ramdas Pophale) SiO2 
 PCOD9159687
Probable space group: P 21/M
;
_chemical_formula_sum "Si O2"
_cell_formula_units_Z 32
_cell_length_a 11.612502
_cell_length_b 16.281041
_cell_length_c 22.380013
_cell_angle_alpha 90.000000
_cell_angle_beta 157.204520
_cell_angle_gamma 90.000000
_cell_volume 1639.366170
_symmetry_space_group_name_H-M "P 21/M"
_symmetry_group_IT_number 11
_symmetry_cell_setting 'monoclinic'
loop_
_space_group_symop_operation_xyz
x,y,z
-x,1/2+y,-z
-x,-y,-z
x,1/2-y,z
loop_
_atom_site_type_symbol
_atom_site_label
_atom_site_fract_x
_atom_site_fract_y
_atom_site_fract_z
Si Si1 0.585161 0.084784 0.843802
Si Si2 0.710273 0.656808 0.413647
Si Si3 0.555219 0.445609 0.619529
Si Si4 0.020087 0.341881 0.223184
Si Si5 0.357136 0.342040 0.853265
Si Si6 0.916261 0.483075 0.679277
Si Si7 0.234953 0.413681 0.205693
Si Si8 0.260793 0.938405 0.647994
O O1 0.480992 0.110269 0.728324
O O2 0.414610 0.139342 0.810998
O O3 0.469502 0.990706 0.792314
O O4 0.933923 0.094599 0.023330
O O5 0.686369 0.750000 0.386916
O O6 0.565463 0.634886 0.407518
O O7 0.055430 0.630707 0.578628
O O8 0.716843 0.438232 0.634018
O O9 0.272139 0.504312 0.471054
O O10 0.761535 0.495353 0.763739
O O11 0.089133 0.250000 0.280617
O O12 0.042191 0.423553 0.275370
O O13 0.209998 0.357093 0.252994
O O14 0.679516 0.341057 0.038282
O O15 0.224771 0.250000 0.797758
O O16 0.183294 0.421056 0.795218
O O17 0.524992 0.406863 0.302683
O O18 0.000000 0.000000 0.500000
#
# Coordination Sequence:
#
# PCOD9159687 Si02
#       8
#     4   4   4   4   4   4   4   4
#     4  10  20  36  61  87 117 151 196 239 301 353
#     4  11  23  37  55  84 122 156 186 235 300 357
#     4  10  21  38  57  81 110 149 198 245 288 353
#     4   9  20  37  58  87 118 151 197 248 298 353
#     4  10  20  35  58  88 118 151 196 248 297 355
#     4  10  21  37  61  83 114 154 203 244 302 346
#     4  10  19  36  62  86 112 153 193 246 295 354
#     4  10  19  33  58  82 117 150 191 233 285 356
#
# _framework density 19.519739999999999
#
# number of rings (size 3 to 8) (size 9 to 14) (size 15 to 20)
#    0.000    2.000    2.500    1.875    1.750    2.000 
#    0.000    5.000    0.000    0.000    0.000    0.000 
#    0.000    0.000    0.000    0.000    0.000    0.000 
#
# Total GULP energy -178229.854921 kJ/mol
# GULP energy per Si atom -5569.682966 kJ/mol
# Density = 1.947531 g / cm^3
# Si number density = 19.519740 Si / 1000 Ang^3
#
#
#
# Elastic Constant Matrix: (Units=GPa)
#
#
# Indices 1 2 3 4 5 6 
#
# 1 51.4931 33.7954 23.9900 0.0000 7.2346 0.0000
# 2 33.7954 84.0310 35.9654 0.0000 3.6350 0.0000
# 3 23.9900 35.9654 50.6072 0.0000 9.7159 0.0000
# 4 0.0000 0.0000 0.0000 8.3996 0.0000 0.8703
# 5 7.2346 3.6350 9.7159 0.0000 22.9546 0.0000
# 6 0.0000 0.0000 0.0000 0.8703 0.0000 21.4976
#
#
#
# Elastic Compliance Matrix: (Units=1/GPa)
#
#
# Indices 1 2 3 4 5 6 
#
# 1 0.028805 -0.008524 -0.006653 0.000000 -0.004912 0.000000
# 2 -0.008524 0.019775 -0.010805 0.000000 0.004129 0.000000
# 3 -0.006653 -0.010805 0.032503 0.000000 -0.009949 0.000000
# 4 0.000000 0.000000 0.000000 0.119555 0.000000 -0.004840
# 5 -0.004912 0.004129 -0.009949 0.000000 0.048670 0.000000
# 6 0.000000 0.000000 0.000000 -0.004840 0.000000 0.046713
#
#
# Mechanical properties :
#
#
# Convention : Reuss Voigt Hill
#
# Bulk Modulus (GPa) = 34.34474 41.51476 37.92975
# Shear Modulus (GPa) = 13.97853 16.72906 15.35380
#
# Velocity S-wave (km/s) = 2.67895 2.93069 2.80764
# Velocity P-wave (km/s) = 5.21556 5.72417 5.47578
#
# Compressibility (1/GPa) = 0.02911654
#
# Stress axis : x y z
#
# Youngs Moduli (GPa) = 34.71662 50.56962 30.76622
#
# Poissons Ratio (x) = 0.43108 0.20470
# Poissons Ratio (y) = 0.29594 0.33243
# Poissons Ratio (z) = 0.23098 0.54641
#
# Static dielectric constant tensor:
#      x y z
#    x 1.700460 0.000000 0.008310 
#    y 0.000000 1.742060 0.000000 
#    z 0.008310 0.000000 1.696760 
# 
# From -- ./inp_files/68697.got.cif
#   From: 2010.05.17/outbox.cif.g08.bks.cpg/sg11_35_cif.got.tgz:68697.got - 2010.06.03 12:22:45.
