data_PCOD9159289
_publ_section_title
;
Structure prediction by ZEFSAII (Michael W. Deem and Ramdas Pophale) SiO2 
 PCOD9159289
Probable space group: P 21/M
;
_chemical_formula_sum "Si O2"
_cell_formula_units_Z 32
_cell_length_a 10.736219
_cell_length_b 9.062718
_cell_length_c 17.125333
_cell_angle_alpha 90.000000
_cell_angle_beta 86.599965
_cell_angle_gamma 90.000000
_cell_volume 1663.350339
_symmetry_space_group_name_H-M "P 21/M"
_symmetry_group_IT_number 11
_symmetry_cell_setting 'monoclinic'
loop_
_space_group_symop_operation_xyz
x,y,z
-x,1/2+y,-z
-x,-y,-z
x,1/2-y,z
loop_
_atom_site_type_symbol
_atom_site_label
_atom_site_fract_x
_atom_site_fract_y
_atom_site_fract_z
Si Si1 0.923907 0.080122 0.124458
Si Si2 0.674157 0.077938 0.028653
Si Si3 0.635703 0.425425 0.588039
Si Si4 0.828584 0.425721 0.876807
Si Si5 0.531156 0.919550 0.164272
Si Si6 0.300868 0.074632 0.254977
Si Si7 0.217859 0.079659 0.740035
Si Si8 0.658018 0.573774 0.424857
O O1 0.963427 0.250000 0.124804
O O2 0.803666 0.068697 0.073046
O O3 0.876780 0.023868 0.210488
O O4 0.039446 0.979917 0.095187
O O5 0.635120 0.250000 0.030861
O O6 0.576201 0.978075 0.078536
O O7 0.716830 0.033920 0.940529
O O8 0.652804 0.250000 0.593977
O O9 0.696925 0.507369 0.658633
O O10 0.682474 0.486117 0.503275
O O11 0.486007 0.455152 0.594383
O O12 0.828826 0.250000 0.869219
O O13 0.805208 0.504580 0.795631
O O14 0.486532 0.750000 0.161764
O O15 0.653118 0.922086 0.215362
O O16 0.428514 0.020858 0.208591
O O17 0.293220 0.250000 0.257148
O O18 0.173419 0.250000 0.742345
O O19 0.253038 0.035774 0.650847
O O20 0.667138 0.750000 0.438349
#
# Coordination Sequence:
#
# PCOD9159289 Si02
#       8
#     4   4   4   4   4   4   4   4
#     4  10  20  35  56  83 110 135 177 228 272 316
#     4   9  20  37  57  82 108 137 176 226 274 320
#     4  10  19  33  52  79 112 144 179 217 263 318
#     4  11  23  39  57  76 104 144 186 223 269 323
#     4  10  19  34  55  80 109 143 179 219 269 322
#     4  12  24  37  54  76 109 147 183 223 269 321
#     4   9  17  32  54  80 111 143 177 217 265 316
#     4   9  17  31  52  81 113 142 177 217 261 314
#
# _framework density 19.23828
#
# number of rings (size 3 to 8) (size 9 to 14) (size 15 to 20)
#    0.000    2.000    1.250    3.000    0.000    3.500 
#    0.000    0.000    0.000    0.750    0.000    0.000 
#    0.000    0.000    0.000    0.000    0.000    0.000 
#
# Total GULP energy -178792.318529 kJ/mol
# GULP energy per Si atom -5587.259954 kJ/mol
# Density = 1.919449 g / cm^3
# Si number density = 19.238280 Si / 1000 Ang^3
#
#
#
# Elastic Constant Matrix: (Units=GPa)
#
#
# Indices 1 2 3 4 5 6 
#
# 1 31.3759 14.0613 4.1304 0.0000 -2.1675 0.0000
# 2 14.0613 75.7964 47.8383 0.0000 2.6353 0.0000
# 3 4.1304 47.8383 122.9501 0.0000 -1.4430 0.0000
# 4 0.0000 0.0000 0.0000 30.5492 0.0000 -3.5949
# 5 -2.1675 2.6353 -1.4430 0.0000 21.2599 0.0000
# 6 0.0000 0.0000 0.0000 -3.5949 0.0000 27.3228
#
#
#
# Elastic Compliance Matrix: (Units=1/GPa)
#
#
# Indices 1 2 3 4 5 6 
#
# 1 0.035526 -0.008003 0.001976 0.000000 0.004748 0.000000
# 2 -0.008003 0.019439 -0.007338 0.000000 -0.003724 0.000000
# 3 0.001976 -0.007338 0.010944 0.000000 0.001854 0.000000
# 4 0.000000 0.000000 0.000000 0.033249 0.000000 0.004375
# 5 0.004748 -0.003724 0.001854 0.000000 0.048108 0.000000
# 6 0.000000 0.000000 0.000000 0.004375 0.000000 0.037175
#
#
# Mechanical properties :
#
#
# Convention : Reuss Voigt Hill
#
# Bulk Modulus (GPa) = 25.52403 40.24250 32.88327
# Shear Modulus (GPa) = 22.29848 26.76589 24.53218
#
# Velocity S-wave (km/s) = 3.40820 3.73404 3.57483
# Velocity P-wave (km/s) = 5.36506 6.28920 5.84542
#
# Compressibility (1/GPa) = 0.03917876
#
# Stress axis : x y z
#
# Youngs Moduli (GPa) = 28.14840 51.44352 91.37450
#
# Poissons Ratio (x) = 0.41169 -0.18056
# Poissons Ratio (y) = 0.22527 0.67053
# Poissons Ratio (z) = -0.05562 0.37750
#
# Static dielectric constant tensor:
#      x y z
#    x 1.688300 0.000000 0.021720 
#    y 0.000000 1.635410 0.000000 
#    z 0.021720 0.000000 1.673810 
# 
# From -- ./inp_files/38153.got.cif
#   From: 2010.05.17/outbox.cif.g08.bks.cpg/sg11_20_cif.got.tgz:38153.got - 2010.06.03 12:22:45.
