data_PCOD9159931
_publ_section_title
;
Structure prediction by ZEFSAII (Michael W. Deem and Ramdas Pophale) SiO2 
 PCOD9159931
Probable space group: P 21/M
;
_chemical_formula_sum "Si O2"
_cell_formula_units_Z 28
_cell_length_a 26.756821
_cell_length_b 8.035515
_cell_length_c 8.193340
_cell_angle_alpha 90.000000
_cell_angle_beta 39.608877
_cell_angle_gamma 90.000000
_cell_volume 1123.101309
_symmetry_space_group_name_H-M "P 21/M"
_symmetry_group_IT_number 11
_symmetry_cell_setting 'monoclinic'
loop_
_space_group_symop_operation_xyz
x,y,z
-x,1/2+y,-z
-x,-y,-z
x,1/2-y,z
loop_
_atom_site_type_symbol
_atom_site_label
_atom_site_fract_x
_atom_site_fract_y
_atom_site_fract_z
Si Si1 0.122329 0.555366 0.126617
Si Si2 0.688650 0.546204 0.051803
Si Si3 0.836255 0.945858 0.506175
Si Si4 0.021803 0.553626 0.684458
Si Si5 0.545013 0.948323 0.220036
Si Si6 0.258054 0.948725 0.572442
Si Si7 0.400759 0.052206 0.396926
O O1 0.132616 0.750000 0.135147
O O2 0.075853 0.484169 0.398525
O O3 0.061307 0.533624 0.129885
O O4 0.205354 0.486519 0.858438
O O5 0.689387 0.750000 0.052013
O O6 0.776494 0.488576 0.796727
O O7 0.632591 0.492141 0.042148
O O8 0.646888 0.489290 0.322389
O O9 0.848681 0.750000 0.495021
O O10 0.921252 0.027450 0.305896
O O11 0.785553 0.974040 0.472075
O O12 0.007212 0.750000 0.701420
O O13 0.547996 0.750000 0.201270
O O14 0.500000 0.000000 0.500000
O O15 0.490726 0.006779 0.208037
O O16 0.249956 0.750000 0.582509
O O17 0.348626 0.989876 0.378012
O O18 0.397376 0.250000 0.401176
#
# Coordination Sequence:
#
# PCOD9159931 Si02
#       7
#     4   4   4   4   4   4   4
#     4   9  20  38  59  82 108 138 174 217 265 315
#     4   8  17  33  55  80 106 137 176 220 263 312
#     4  11  22  37  55  77 108 145 180 216 262 314
#     4  10  20  36  59  85 108 134 173 219 265 314
#     4   9  16  30  52  80 109 137 174 221 269 314
#     4  11  23  38  54  77 109 143 179 219 263 313
#     4  10  19  34  56  82 108 138 177 220 269 320
#
# _framework density 24.930968
#
# number of rings (size 3 to 8) (size 9 to 14) (size 15 to 20)
#    0.000    2.286    0.000    3.857    0.000    2.286 
#    0.000    8.571    0.000    0.000    0.000    0.000 
#    0.000    0.000    0.000    0.000    0.000    0.000 
#
# Total GULP energy -156479.488882 kJ/mol
# GULP energy per Si atom -5588.553174 kJ/mol
# Density = 2.487422 g / cm^3
# Si number density = 24.930968 Si / 1000 Ang^3
#
#
#
# Elastic Constant Matrix: (Units=GPa)
#
#
# Indices 1 2 3 4 5 6 
#
# 1 146.9177 -11.0746 20.4852 0.0000 -23.0239 0.0000
# 2 -11.0746 43.3488 -12.5557 0.0000 -0.0531 0.0000
# 3 20.4852 -12.5557 70.5134 0.0000 -24.1008 0.0000
# 4 0.0000 0.0000 0.0000 5.9709 0.0000 -5.2744
# 5 -23.0239 -0.0531 -24.1008 0.0000 49.9599 0.0000
# 6 0.0000 0.0000 0.0000 -5.2744 0.0000 39.5018
#
#
#
# Elastic Compliance Matrix: (Units=1/GPa)
#
#
# Indices 1 2 3 4 5 6 
#
# 1 0.007531 0.001685 -0.000840 0.000000 0.003068 0.000000
# 2 0.001685 0.024971 0.005067 0.000000 0.003247 0.000000
# 3 -0.000840 0.005067 0.018198 0.000000 0.008397 0.000000
# 4 0.000000 0.000000 0.000000 0.189876 0.000000 0.025353
# 5 0.003068 0.003247 0.008397 0.000000 0.025484 0.000000
# 6 0.000000 0.000000 0.000000 0.025353 0.000000 0.028700
#
#
# Mechanical properties :
#
#
# Convention : Reuss Voigt Hill
#
# Bulk Modulus (GPa) = 15.99399 28.27662 22.13531
# Shear Modulus (GPa) = 16.45943 36.68151 26.57047
#
# Velocity S-wave (km/s) = 2.57222 3.83994 3.26814
# Velocity P-wave (km/s) = 3.90526 5.57017 4.81029
#
# Compressibility (1/GPa) = 0.06252348
#
# Stress axis : x y z
#
# Youngs Moduli (GPa) = 132.77898 40.04710 54.95155
#
# Poissons Ratio (x) = -0.06747 0.04613
# Poissons Ratio (y) = -0.22369 -0.27842
# Poissons Ratio (z) = 0.11147 -0.20291
#
# Static dielectric constant tensor:
#      x y z
#    x 2.048160 0.000000 0.062610 
#    y 0.000000 1.863330 0.000000 
#    z 0.062610 0.000000 2.033280 
# 
# From -- ./inp_files/28340.got.cif
#   From: 2010.05.17/outbox.cif.g08.bks.cpg/sg11_15_cif.got.tgz:28340.got - 2010.06.03 12:22:45.
