data_PCOD9159591
_publ_section_title
;
Structure prediction by ZEFSAII (Michael W. Deem and Ramdas Pophale) SiO2 
 PCOD9159591
Probable space group: P 21/M
;
_chemical_formula_sum "Si O2"
_cell_formula_units_Z 24
_cell_length_a 11.589940
_cell_length_b 19.694998
_cell_length_c 7.510998
_cell_angle_alpha 90.000000
_cell_angle_beta 58.182343
_cell_angle_gamma 90.000000
_cell_volume 1456.853424
_symmetry_space_group_name_H-M "P 21/M"
_symmetry_group_IT_number 11
_symmetry_cell_setting 'monoclinic'
loop_
_space_group_symop_operation_xyz
x,y,z
-x,1/2+y,-z
-x,-y,-z
x,1/2-y,z
loop_
_atom_site_type_symbol
_atom_site_label
_atom_site_fract_x
_atom_site_fract_y
_atom_site_fract_z
Si Si1 0.115167 0.829641 0.354965
Si Si2 0.336460 0.558999 0.267521
Si Si3 0.119841 0.171037 0.163464
Si Si4 0.986725 0.108242 0.926673
Si Si5 0.346834 0.441799 0.967034
Si Si6 0.215263 0.996905 0.729627
O O1 0.148994 0.750000 0.335373
O O2 0.241461 0.877187 0.301879
O O3 0.063246 0.850038 0.201680
O O4 0.993861 0.842638 0.594217
O O5 0.495503 0.576828 0.143936
O O6 0.291492 0.527505 0.492400
O O7 0.316880 0.501841 0.131762
O O8 0.158316 0.250000 0.141629
O O9 0.246531 0.120870 0.083979
O O10 0.052902 0.153889 0.027083
O O11 0.864022 0.065637 0.114113
O O12 0.099756 0.052635 0.778089
O O13 0.312723 0.470194 0.798425
#
# Coordination Sequence:
#
# PCOD9159591 Si02
#       6
#     4   4   4   4   4   4
#     4  11  22  35  55  80 109 143 178 223 271 319
#     4  11  21  36  55  82 112 138 184 221 267 323
#     4  10  21  37  56  79 107 142 181 219 266 322
#     4  10  19  33  56  83 107 136 177 227 269 310
#     4  10  22  36  56  81 108 146 175 224 270 313
#     4  10  19  33  57  82 107 137 179 225 267 314
#
# _framework density 16.473859999999998
#
# number of rings (size 3 to 8) (size 9 to 14) (size 15 to 20)
#    0.000    1.667    3.333    2.000    0.000    2.000 
#    0.000    0.000    0.000    0.000    0.000    0.000 
#    0.000    0.000    0.000    0.000    0.000    0.000 
#
# Total GULP energy -134004.441650 kJ/mol
# GULP energy per Si atom -5583.518402 kJ/mol
# Density = 1.643637 g / cm^3
# Si number density = 16.473860 Si / 1000 Ang^3
#
#
#
# Elastic Constant Matrix: (Units=GPa)
#
#
# Indices 1 2 3 4 5 6 
#
# 1 104.2073 69.2181 57.6808 0.0000 -2.7127 0.0000
# 2 69.2181 101.3433 65.1887 0.0000 -9.2909 0.0000
# 3 57.6808 65.1887 108.0221 0.0000 -2.3804 0.0000
# 4 0.0000 0.0000 0.0000 26.6114 0.0000 -1.8280
# 5 -2.7127 -9.2909 -2.3804 0.0000 19.0130 0.0000
# 6 0.0000 0.0000 0.0000 -1.8280 0.0000 8.4740
#
#
#
# Elastic Compliance Matrix: (Units=1/GPa)
#
#
# Indices 1 2 3 4 5 6 
#
# 1 0.018574 -0.010690 -0.003533 0.000000 -0.003016 0.000000
# 2 -0.010690 0.023174 -0.008083 0.000000 0.008787 0.000000
# 3 -0.003533 -0.008083 0.015968 0.000000 -0.002455 0.000000
# 4 0.000000 0.000000 0.000000 0.038143 0.000000 0.008228
# 5 -0.003016 0.008787 -0.002455 0.000000 0.056152 0.000000
# 6 0.000000 0.000000 0.000000 0.008228 0.000000 0.119783
#
#
# Mechanical properties :
#
#
# Convention : Reuss Voigt Hill
#
# Bulk Modulus (GPa) = 76.31812 77.52753 76.92283
# Shear Modulus (GPa) = 15.58729 18.91867 17.25298
#
# Velocity S-wave (km/s) = 3.07935 3.39249 3.23970
# Velocity P-wave (km/s) = 7.68574 7.90623 7.79676
#
# Compressibility (1/GPa) = 0.01310305
#
# Stress axis : x y z
#
# Youngs Moduli (GPa) = 53.83813 43.15255 62.62558
#
# Poissons Ratio (x) = 0.46130 0.22129
# Poissons Ratio (y) = 0.57552 0.50620
# Poissons Ratio (z) = 0.19024 0.34880
#
# Static dielectric constant tensor:
#      x y z
#    x 1.535250 0.000000 0.004200 
#    y 0.000000 1.530980 0.000000 
#    z 0.004200 0.000000 1.532360 
# 
# From -- ./inp_files/4807.got.cif
#   From: 2010.05.17/outbox.cif.g08.bks.cpg/sg11_3_cif.got.tgz:4807.got - 2010.06.03 12:22:45.
