data_PCOD9159620
_publ_section_title
;
Structure prediction by ZEFSAII (Michael W. Deem and Ramdas Pophale) SiO2 
 PCOD9159620
Probable space group: P 21/M
;
_chemical_formula_sum "Si O2"
_cell_formula_units_Z 32
_cell_length_a 12.564252
_cell_length_b 8.775119
_cell_length_c 20.988082
_cell_angle_alpha 90.000000
_cell_angle_beta 127.706762
_cell_angle_gamma 90.000000
_cell_volume 1830.720235
_symmetry_space_group_name_H-M "P 21/M"
_symmetry_group_IT_number 11
_symmetry_cell_setting 'monoclinic'
loop_
_space_group_symop_operation_xyz
x,y,z
-x,1/2+y,-z
-x,-y,-z
x,1/2-y,z
loop_
_atom_site_type_symbol
_atom_site_label
_atom_site_fract_x
_atom_site_fract_y
_atom_site_fract_z
Si Si1 0.432726 0.432489 0.038201
Si Si2 0.155820 0.933669 0.489698
Si Si3 0.439908 0.932729 0.542329
Si Si4 0.142923 0.066895 0.979436
Si Si5 0.856245 0.566255 0.373282
Si Si6 0.412006 0.568009 0.280885
Si Si7 0.420016 0.433434 0.785470
Si Si8 0.855855 0.931643 0.869877
O O1 0.435598 0.250000 0.036474
O O2 0.512777 0.488149 0.129666
O O3 0.500000 0.500000 0.000000
O O4 0.276567 0.479091 0.990469
O O5 0.157680 0.750000 0.495230
O O6 0.284284 0.980696 0.495707
O O7 0.008128 0.978726 0.410151
O O8 0.168789 0.000774 0.565396
O O9 0.444869 0.750000 0.541857
O O10 0.500000 0.000000 0.500000
O O11 0.522291 0.990674 0.633678
O O12 0.126765 0.250000 0.969265
O O13 0.163825 0.029827 0.062133
O O14 0.005363 0.987796 0.907667
O O15 0.851481 0.750000 0.375910
O O16 0.734803 0.519890 0.282926
O O17 0.415519 0.750000 0.289953
O O18 0.498487 0.529261 0.249299
O O19 0.260949 0.511895 0.212646
O O20 0.425692 0.250000 0.795926
O O21 0.845416 0.750000 0.859489
#
# Coordination Sequence:
#
# PCOD9159620 Si02
#       8
#     4   4   4   4   4   4   4   4
#     4  11  23  39  58  81 114 151 189 230 280 336
#     4   9  18  32  53  80 110 143 181 225 275 326
#     4  11  23  38  56  80 112 151 191 232 283 336
#     4   9  19  35  54  80 112 147 184 228 282 333
#     4   9  17  32  54  82 111 139 177 226 277 327
#     4  11  21  35  57  85 114 146 187 231 278 333
#     4  10  20  34  56  84 112 144 185 230 278 333
#     4  10  19  33  56  85 113 142 183 232 279 330
#
# _framework density 17.47946
#
# number of rings (size 3 to 8) (size 9 to 14) (size 15 to 20)
#    0.000    2.000    2.500    1.500    0.000    3.000 
#    0.000    1.250    0.000    6.000    0.000    0.000 
#    0.000    0.000    0.000    0.000    0.000    0.000 
#
# Total GULP energy -178598.854198 kJ/mol
# GULP energy per Si atom -5581.214194 kJ/mol
# Density = 1.743968 g / cm^3
# Si number density = 17.479460 Si / 1000 Ang^3
#
#
#
# Elastic Constant Matrix: (Units=GPa)
#
#
# Indices 1 2 3 4 5 6 
#
# 1 165.1174 49.1816 86.4778 0.0000 16.8928 0.0000
# 2 49.1816 33.6109 40.6773 0.0000 2.4978 0.0000
# 3 86.4778 40.6773 108.7204 0.0000 16.1723 0.0000
# 4 0.0000 0.0000 0.0000 30.7727 0.0000 -1.9209
# 5 16.8928 2.4978 16.1723 0.0000 30.7443 0.0000
# 6 0.0000 0.0000 0.0000 -1.9209 0.0000 25.0592
#
#
#
# Elastic Compliance Matrix: (Units=1/GPa)
#
#
# Indices 1 2 3 4 5 6 
#
# 1 0.012655 -0.012221 -0.004998 0.000000 -0.003332 0.000000
# 2 -0.012221 0.067525 -0.017061 0.000000 0.010204 0.000000
# 3 -0.004998 -0.017061 0.020550 0.000000 -0.006678 0.000000
# 4 0.000000 0.000000 0.000000 0.032653 0.000000 0.002503
# 5 -0.003332 0.010204 -0.006678 0.000000 0.037041 0.000000
# 6 0.000000 0.000000 0.000000 0.002503 0.000000 0.040097
#
#
# Mechanical properties :
#
#
# Convention : Reuss Voigt Hill
#
# Bulk Modulus (GPa) = 31.08541 73.34689 52.21615
# Shear Modulus (GPa) = 17.25309 26.05604 21.65457
#
# Velocity S-wave (km/s) = 3.14514 3.86510 3.52356
# Velocity P-wave (km/s) = 5.56882 7.87220 6.81848
#
# Compressibility (1/GPa) = 0.03216943
#
# Stress axis : x y z
#
# Youngs Moduli (GPa) = 79.02121 14.80935 48.66235
#
# Poissons Ratio (x) = 0.18099 0.24320
# Poissons Ratio (y) = 0.96574 0.83023
# Poissons Ratio (z) = 0.39492 0.25266
#
# Static dielectric constant tensor:
#      x y z
#    x 1.596250 0.000000 0.031310 
#    y 0.000000 1.574560 0.000000 
#    z 0.031310 0.000000 1.570280 
# 
# From -- ./inp_files/42902.got.cif
#   From: 2010.05.17/outbox.cif.g08.bks.cpg/sg11_22_cif.got.tgz:42902.got - 2010.06.03 12:22:45.
