data_PCOD9159834
_publ_section_title
;
Structure prediction by ZEFSAII (Michael W. Deem and Ramdas Pophale) SiO2 
 PCOD9159834
Probable space group: P 21/M
;
_chemical_formula_sum "Si O2"
_cell_formula_units_Z 32
_cell_length_a 16.618490
_cell_length_b 7.596509
_cell_length_c 25.208886
_cell_angle_alpha 90.000000
_cell_angle_beta 152.809570
_cell_angle_gamma 90.000000
_cell_volume 1454.210739
_symmetry_space_group_name_H-M "P 21/M"
_symmetry_group_IT_number 11
_symmetry_cell_setting 'monoclinic'
loop_
_space_group_symop_operation_xyz
x,y,z
-x,1/2+y,-z
-x,-y,-z
x,1/2-y,z
loop_
_atom_site_type_symbol
_atom_site_label
_atom_site_fract_x
_atom_site_fract_y
_atom_site_fract_z
Si Si1 0.049694 0.038971 0.089654
Si Si2 0.349485 0.540665 0.453900
Si Si3 0.284644 0.536627 0.605210
Si Si4 0.446936 0.464915 0.322710
Si Si5 0.372243 0.456552 0.774399
Si Si6 0.058502 0.043091 0.658989
Si Si7 0.958494 0.049105 0.229079
Si Si8 0.229265 0.533201 0.986091
O O1 0.055970 0.250000 0.099539
O O2 0.248528 0.972264 0.215401
O O3 0.903764 0.973638 0.045573
O O4 0.000000 0.000000 0.000000
O O5 0.500000 0.500000 0.500000
O O6 0.321398 0.750000 0.440145
O O7 0.423737 0.480257 0.554159
O O8 0.162292 0.457834 0.330931
O O9 0.284036 0.750000 0.605183
O O10 0.463231 0.480597 0.679676
O O11 0.284808 0.474604 0.665463
O O12 0.116888 0.473141 0.472774
O O13 0.443052 0.250000 0.321191
O O14 0.394704 0.250000 0.799825
O O15 0.236895 0.532458 0.738180
O O16 0.570605 0.528234 0.888688
O O17 0.058328 0.250000 0.645810
O O18 0.051216 0.030201 0.718013
O O19 0.902616 0.250000 0.203018
O O20 0.843184 0.973969 0.113628
O O21 0.225297 0.750000 0.984634
#
# Coordination Sequence:
#
# PCOD9159834 Si02
#       8
#     4   4   4   4   4   4   4   4
#     4  10  19  34  55  78 108 147 185 224 273 330
#     4  11  21  37  58  83 115 150 189 232 283 337
#     4  10  19  35  56  81 114 146 183 237 297 348
#     4   9  18  33  54  76 107 148 180 216 280 339
#     4  10  21  37  58  82 110 150 194 238 291 350
#     4  10  21  38  58  82 115 151 186 236 301 349
#     4  11  22  38  60  84 113 152 195 238 287 343
#     4   9  20  38  56  79 115 152 189 237 291 341
#
# _framework density 22.005063
#
# number of rings (size 3 to 8) (size 9 to 14) (size 15 to 20)
#    0.000    2.000    1.250    2.625    0.000    3.500 
#    0.000    5.000    0.000    0.000    0.000    0.000 
#    0.000    0.000    0.000    0.000    0.000    0.000 
#
# Total GULP energy -178802.513267 kJ/mol
# GULP energy per Si atom -5587.578540 kJ/mol
# Density = 2.195498 g / cm^3
# Si number density = 22.005063 Si / 1000 Ang^3
#
#
#
# Elastic Constant Matrix: (Units=GPa)
#
#
# Indices 1 2 3 4 5 6 
#
# 1 138.3707 -9.3897 60.8389 0.0000 18.1589 0.0000
# 2 -9.3897 43.5690 2.2527 0.0000 8.8093 0.0000
# 3 60.8389 2.2527 127.4412 0.0000 6.4384 0.0000
# 4 0.0000 0.0000 0.0000 5.6188 0.0000 -9.0402
# 5 18.1589 8.8093 6.4384 0.0000 39.8786 0.0000
# 6 0.0000 0.0000 0.0000 -9.0402 0.0000 15.0522
#
#
#
# Elastic Compliance Matrix: (Units=1/GPa)
#
#
# Indices 1 2 3 4 5 6 
#
# 1 0.010100 0.003345 -0.004649 0.000000 -0.004587 0.000000
# 2 0.003345 0.025136 -0.001697 0.000000 -0.006802 0.000000
# 3 -0.004649 -0.001697 0.010052 0.000000 0.000869 0.000000
# 4 0.000000 0.000000 0.000000 5.281605 0.000000 3.172090
# 5 -0.004587 -0.006802 0.000869 0.000000 0.028527 0.000000
# 6 0.000000 0.000000 0.000000 3.172090 0.000000 1.971567
#
#
# Mechanical properties :
#
#
# Convention : Reuss Voigt Hill
#
# Bulk Modulus (GPa) = 25.45527 46.30941 35.88234
# Shear Modulus (GPa) = 0.68063 29.15519 14.91791
#
# Velocity S-wave (km/s) = 0.55676 3.64391 2.60654
# Velocity P-wave (km/s) = 3.46502 6.22854 5.03989
#
# Compressibility (1/GPa) = 0.03928459
#
# Stress axis : x y z
#
# Youngs Moduli (GPa) = 99.00995 39.78375 99.48050
#
# Poissons Ratio (x) = -0.13306 0.46248
# Poissons Ratio (y) = -0.33115 0.16885
# Poissons Ratio (z) = 0.46030 0.06753
#
# Static dielectric constant tensor:
#      x y z
#    x 1.783490 0.000000 0.020070 
#    y 0.000000 1.832760 0.000000 
#    z 0.020070 0.000000 1.796490 
# 
# From -- ./inp_files/69155.got.cif
#   From: 2010.05.17/outbox.cif.g08.bks.cpg/sg11_35_cif.got.tgz:69155.got - 2010.06.03 12:22:45.
