data_PCOD9159886
_publ_section_title
;
Structure prediction by ZEFSAII (Michael W. Deem and Ramdas Pophale) SiO2 
 PCOD9159886
Probable space group: P 21/M
;
_chemical_formula_sum "Si O2"
_cell_formula_units_Z 32
_cell_length_a 23.289175
_cell_length_b 7.472783
_cell_length_c 7.397368
_cell_angle_alpha 90.000000
_cell_angle_beta 81.182259
_cell_angle_gamma 90.000000
_cell_volume 1272.184743
_symmetry_space_group_name_H-M "P 21/M"
_symmetry_group_IT_number 11
_symmetry_cell_setting 'monoclinic'
loop_
_space_group_symop_operation_xyz
x,y,z
-x,1/2+y,-z
-x,-y,-z
x,1/2-y,z
loop_
_atom_site_type_symbol
_atom_site_label
_atom_site_fract_x
_atom_site_fract_y
_atom_site_fract_z
Si Si1 0.390199 0.038210 0.354324
Si Si2 0.144260 0.969868 0.103004
Si Si3 0.710469 0.047193 0.335253
Si Si4 0.892088 0.037765 0.251623
Si Si5 0.638760 0.032398 0.050982
Si Si6 0.982329 0.459880 0.714221
Si Si7 0.485665 0.536928 0.796863
Si Si8 0.803089 0.468542 0.573337
O O1 0.390226 0.250000 0.390240
O O2 0.456931 0.969305 0.333083
O O3 0.348092 0.946951 0.516780
O O4 0.366902 0.015147 0.158165
O O5 0.145244 0.750000 0.103666
O O6 0.146330 0.030074 0.895834
O O7 0.080119 0.032981 0.198377
O O8 0.192814 0.027900 0.222037
O O9 0.731732 0.250000 0.288751
O O10 0.692504 0.970637 0.149013
O O11 0.755286 0.963875 0.456357
O O12 0.885853 0.250000 0.256378
O O13 0.960313 0.005861 0.199582
O O14 0.000000 0.000000 0.500000
O O15 0.639301 0.250000 0.055110
O O16 0.579972 0.968300 0.182542
O O17 0.974959 0.250000 0.732433
O O18 0.864497 0.520816 0.452957
O O19 0.484084 0.750000 0.768728
O O20 0.500000 0.500000 0.000000
O O21 0.797284 0.250000 0.581916
#
# Coordination Sequence:
#
# PCOD9159886 Si02
#       8
#     4   4   4   4   4   4   4   4
#     4  10  20  34  53  77 107 144 177 214 270 330
#     4   9  18  32  54  81 105 132 169 211 257 309
#     4  10  21  35  55  80 104 137 182 228 269 313
#     4  10  19  34  56  78 103 135 170 213 259 304
#     4   9  18  34  55  80 107 136 177 227 269 314
#     4  11  20  33  54  81 111 140 168 205 255 310
#     4   8  15  29  49  74 105 137 171 213 266 322
#     4   9  18  34  53  76 103 133 175 219 260 304
#
# _framework density 25.153580000000002
#
# number of rings (size 3 to 8) (size 9 to 14) (size 15 to 20)
#    0.000    2.500    1.250    1.125    0.000    2.500 
#    0.000    5.000    0.000    1.500    0.000    0.000 
#    0.000    0.000    0.000    0.000    0.000    0.000 
#
# Total GULP energy -178651.370825 kJ/mol
# GULP energy per Si atom -5582.855338 kJ/mol
# Density = 2.509633 g / cm^3
# Si number density = 25.153580 Si / 1000 Ang^3
#
#
#
# Elastic Constant Matrix: (Units=GPa)
#
#
# Indices 1 2 3 4 5 6 
#
# 1 45.0156 -2.8887 21.0624 0.0000 16.7980 0.0000
# 2 -2.8887 79.4071 0.0763 0.0000 3.2221 0.0000
# 3 21.0624 0.0763 123.1301 0.0000 33.5102 0.0000
# 4 0.0000 0.0000 0.0000 6.5579 0.0000 -2.6085
# 5 16.7980 3.2221 33.5102 0.0000 50.9181 0.0000
# 6 0.0000 0.0000 0.0000 -2.6085 0.0000 8.5356
#
#
#
# Elastic Compliance Matrix: (Units=1/GPa)
#
#
# Indices 1 2 3 4 5 6 
#
# 1 0.026106 0.001236 -0.002560 0.000000 -0.007006 0.000000
# 2 0.001236 0.012691 0.000134 0.000000 -0.001299 0.000000
# 3 -0.002560 0.000134 0.010150 0.000000 -0.005844 0.000000
# 4 0.000000 0.000000 0.000000 0.173588 0.000000 0.053049
# 5 -0.007006 -0.001299 -0.005844 0.000000 0.025879 0.000000
# 6 0.000000 0.000000 0.000000 0.053049 0.000000 0.133368
#
#
# Mechanical properties :
#
#
# Convention : Reuss Voigt Hill
#
# Bulk Modulus (GPa) = 21.47375 31.56143 26.51759
# Shear Modulus (GPa) = 12.50994 28.48917 20.49956
#
# Velocity S-wave (km/s) = 2.23254 3.36908 2.85787
# Velocity P-wave (km/s) = 3.89887 5.26393 4.63196
#
# Compressibility (1/GPa) = 0.04656848
#
# Stress axis : x y z
#
# Youngs Moduli (GPa) = 38.30554 78.79657 98.52551
#
# Poissons Ratio (x) = -0.09743 0.25219
# Poissons Ratio (y) = -0.04736 -0.01323
# Poissons Ratio (z) = 0.09805 -0.01058
#
# Static dielectric constant tensor:
#      x y z
#    x 2.041560 0.000000 0.028100 
#    y 0.000000 1.979850 0.000000 
#    z 0.028100 0.000000 1.976770 
# 
# From -- ./inp_files/27957.got.cif
#   From: 2010.05.17/outbox.cif.g08.bks.cpg/sg11_14_cif.got.tgz:27957.got - 2010.06.03 12:22:45.
