data_PCOD9159374
_publ_section_title
;
Structure prediction by ZEFSAII (Michael W. Deem and Ramdas Pophale) SiO2 
 PCOD9159374
Probable space group: P 21/M
;
_chemical_formula_sum "Si O2"
_cell_formula_units_Z 30
_cell_length_a 9.518005
_cell_length_b 9.114783
_cell_length_c 17.610227
_cell_angle_alpha 90.000000
_cell_angle_beta 65.642458
_cell_angle_gamma 90.000000
_cell_volume 1391.780041
_symmetry_space_group_name_H-M "P 21/M"
_symmetry_group_IT_number 11
_symmetry_cell_setting 'monoclinic'
loop_
_space_group_symop_operation_xyz
x,y,z
-x,1/2+y,-z
-x,-y,-z
x,1/2-y,z
loop_
_atom_site_type_symbol
_atom_site_label
_atom_site_fract_x
_atom_site_fract_y
_atom_site_fract_z
Si Si1 0.782069 0.420757 0.044589
Si Si2 0.513898 0.576698 0.797113
Si Si3 0.022012 0.079643 0.875087
Si Si4 0.820902 0.085923 0.713087
Si Si5 0.011791 0.250000 0.461451
Si Si6 0.881357 0.075034 0.298558
Si Si7 0.225693 0.974905 0.449848
Si Si8 0.564757 0.927388 0.346688
O O1 0.822378 0.250000 0.055770
O O2 0.604480 0.438103 0.106849
O O3 0.871828 0.535705 0.077329
O O4 0.847393 0.439482 0.945132
O O5 0.531530 0.750000 0.775391
O O6 0.678174 0.504702 0.777980
O O7 0.449202 0.494851 0.736014
O O8 0.046763 0.250000 0.848358
O O9 0.071130 0.971270 0.797953
O O10 0.833225 0.250000 0.742240
O O11 0.787620 0.097651 0.631082
O O12 0.976842 0.997104 0.688605
O O13 0.138820 0.374223 0.457809
O O14 0.879328 0.375600 0.474291
O O15 0.874826 0.250000 0.307106
O O16 0.717985 0.996382 0.348807
O O17 0.407570 0.975633 0.424137
O O18 0.572795 0.750000 0.341767
#
# Coordination Sequence:
#
# PCOD9159374 Si02
#       8
#     4   4   4   4   2   4   4   4
#     4   9  18  32  53  81 115 148 195 247 292 344
#     4  10  19  33  57  86 115 149 195 250 286 339
#     4  10  19  33  53  80 113 155 194 241 301 344
#     4  11  23  40  58  85 120 155 194 235 295 347
#     4  10  20  38  66  96 122 146 188 232 276 334
#     4  12  25  38  57  82 116 158 199 246 290 352
#     4  10  21  38  66  95 119 150 188 234 278 334
#     4  11  21  36  57  88 120 151 198 237 285 337
#
# _framework density 21.555130999999999
#
# number of rings (size 3 to 8) (size 9 to 14) (size 15 to 20)
#    0.000    1.600    2.667    3.600    5.600    1.067 
#    0.000    0.667    0.000    4.800    0.000    0.000 
#    0.000    0.000    0.000    0.000    0.000    0.000 
#
# Total GULP energy -167028.093013 kJ/mol
# GULP energy per Si atom -5567.603100 kJ/mol
# Density = 2.150607 g / cm^3
# Si number density = 21.555131 Si / 1000 Ang^3
#
#
#
# Elastic Constant Matrix: (Units=GPa)
#
#
# Indices 1 2 3 4 5 6 
#
# 1 118.9115 45.1900 37.6833 0.0000 -48.6215 0.0000
# 2 45.1900 143.8344 48.2804 0.0000 -39.7032 0.0000
# 3 37.6833 48.2804 67.9037 0.0000 -38.9753 0.0000
# 4 0.0000 0.0000 0.0000 31.6931 0.0000 -26.4574
# 5 -48.6215 -39.7032 -38.9753 0.0000 42.1291 0.0000
# 6 0.0000 0.0000 0.0000 -26.4574 0.0000 56.1886
#
#
#
# Elastic Compliance Matrix: (Units=1/GPa)
#
#
# Indices 1 2 3 4 5 6 
#
# 1 0.016371 -0.000323 0.003869 0.000000 0.022169 0.000000
# 2 -0.000323 0.009788 -0.003624 0.000000 0.005500 0.000000
# 3 0.003869 -0.003624 0.033602 0.000000 0.032136 0.000000
# 4 0.000000 0.000000 0.000000 0.051988 0.000000 0.024480
# 5 0.022169 0.005500 0.032136 0.000000 0.084235 0.000000
# 6 0.000000 0.000000 0.000000 0.024480 0.000000 0.029324
#
#
# Mechanical properties :
#
#
# Convention : Reuss Voigt Hill
#
# Bulk Modulus (GPa) = 16.77694 65.88412 41.33053
# Shear Modulus (GPa) = 20.38051 39.30186 29.84119
#
# Velocity S-wave (km/s) = 3.07824 4.27467 3.72481
# Velocity P-wave (km/s) = 4.52043 7.41589 6.14124
#
# Compressibility (1/GPa) = 0.05960564
#
# Stress axis : x y z
#
# Youngs Moduli (GPa) = 61.08461 102.16243 29.76018
#
# Poissons Ratio (x) = 0.03297 -0.11514
# Poissons Ratio (y) = 0.01971 0.10785
# Poissons Ratio (z) = -0.23633 0.37022
#
# Static dielectric constant tensor:
#      x y z
#    x 1.786870 0.000000 0.022410 
#    y 0.000000 1.718460 0.000000 
#    z 0.022410 0.000000 1.897240 
# 
# From -- ./inp_files/67854.got.cif
#   From: 2010.05.17/outbox.cif.g08.bks.cpg/sg11_34_cif.got.tgz:67854.got - 2010.06.03 12:22:45.
