data_PCOD9159037
_publ_section_title
;
Structure prediction by ZEFSAII (Michael W. Deem and Ramdas Pophale) SiO2 
 PCOD9159037
Probable space group: P 21/M
;
_chemical_formula_sum "Si O2"
_cell_formula_units_Z 28
_cell_length_a 10.416586
_cell_length_b 11.582820
_cell_length_c 20.941128
_cell_angle_alpha 90.000000
_cell_angle_beta 144.491587
_cell_angle_gamma 90.000000
_cell_volume 1467.517222
_symmetry_space_group_name_H-M "P 21/M"
_symmetry_group_IT_number 11
_symmetry_cell_setting 'monoclinic'
loop_
_space_group_symop_operation_xyz
x,y,z
-x,1/2+y,-z
-x,-y,-z
x,1/2-y,z
loop_
_atom_site_type_symbol
_atom_site_label
_atom_site_fract_x
_atom_site_fract_y
_atom_site_fract_z
Si Si1 0.015386 0.617420 0.314982
Si Si2 0.654855 0.006486 0.903184
Si Si3 0.653655 0.389632 0.651131
Si Si4 0.553740 0.618196 0.061053
Si Si5 0.793493 0.033206 0.334163
Si Si6 0.765319 0.621732 0.446418
Si Si7 0.899520 0.387618 0.879597
O O1 0.055554 0.750000 0.350490
O O2 0.814833 0.617174 0.182423
O O3 0.924159 0.549406 0.338227
O O4 0.228202 0.567097 0.364829
O O5 0.570718 0.098343 0.921588
O O6 0.437297 0.935760 0.792791
O O7 0.760687 0.065459 0.883594
O O8 0.849725 0.931209 0.012533
O O9 0.674539 0.250000 0.655630
O O10 0.399429 0.415047 0.563651
O O11 0.788674 0.427826 0.768660
O O12 0.501730 0.750000 0.015591
O O13 0.500000 0.500000 0.000000
O O14 0.740409 0.963417 0.377086
O O15 0.980724 0.123481 0.429207
O O16 0.694905 0.750000 0.397505
O O17 0.895389 0.250000 0.878969
#
# Coordination Sequence:
#
# PCOD9159037 Si02
#       7
#     4   4   4   4   4   4   4
#     4   9  18  32  52  77 104 136 178 221 264 319
#     4  10  20  33  52  79 108 141 182 225 276 329
#     4   9  17  31  52  76 101 134 175 219 264 316
#     4  10  20  34  53  79 112 148 187 229 277 331
#     4  10  20  34  52  76 102 137 174 218 273 320
#     4  10  20  34  53  74 101 135 176 224 271 319
#     4  10  19  32  53  79 108 141 179 224 275 332
#
# _framework density 19.079843
#
# number of rings (size 3 to 8) (size 9 to 14) (size 15 to 20)
#    0.000    2.286    1.429    1.714    0.000    4.000 
#    0.000    2.143    0.000    0.000    0.000    1.000 
#    0.000    0.000    0.000    0.000    0.000    0.000 
#
# Total GULP energy -155998.686004 kJ/mol
# GULP energy per Si atom -5571.381643 kJ/mol
# Density = 1.903642 g / cm^3
# Si number density = 19.079843 Si / 1000 Ang^3
#
#
#
# Elastic Constant Matrix: (Units=GPa)
#
#
# Indices 1 2 3 4 5 6 
#
# 1 107.8310 12.1634 9.0778 0.0000 17.5064 0.0000
# 2 12.1634 41.9715 14.2738 0.0000 -5.7255 0.0000
# 3 9.0778 14.2738 75.9984 0.0000 21.1173 0.0000
# 4 0.0000 0.0000 0.0000 49.6650 0.0000 -10.3432
# 5 17.5064 -5.7255 21.1173 0.0000 30.4971 0.0000
# 6 0.0000 0.0000 0.0000 -10.3432 0.0000 21.7132
#
#
#
# Elastic Compliance Matrix: (Units=1/GPa)
#
#
# Indices 1 2 3 4 5 6 
#
# 1 0.011100 -0.005117 0.002071 0.000000 -0.008766 0.000000
# 2 -0.005117 0.030546 -0.009331 0.000000 0.015133 0.000000
# 3 0.002071 -0.009331 0.019168 0.000000 -0.016214 0.000000
# 4 0.000000 0.000000 0.000000 0.022352 0.000000 0.010648
# 5 -0.008766 0.015133 -0.016214 0.000000 0.051890 0.000000
# 6 0.000000 0.000000 0.000000 0.010648 0.000000 0.051127
#
#
# Mechanical properties :
#
#
# Convention : Reuss Voigt Hill
#
# Bulk Modulus (GPa) = 27.73069 32.98122 30.35596
# Shear Modulus (GPa) = 22.42576 33.06080 27.74328
#
# Velocity S-wave (km/s) = 3.43208 4.16716 3.81735
# Velocity P-wave (km/s) = 5.50192 6.36216 5.94761
#
# Compressibility (1/GPa) = 0.03606113
#
# Stress axis : x y z
#
# Youngs Moduli (GPa) = 90.09125 32.73731 52.16903
#
# Poissons Ratio (x) = 0.16752 -0.10805
# Poissons Ratio (y) = 0.46100 0.48678
# Poissons Ratio (z) = -0.18659 0.30547
#
# Static dielectric constant tensor:
#      x y z
#    x 1.680620 0.000000 0.010060 
#    y 0.000000 1.654730 0.000000 
#    z 0.010060 0.000000 1.683110 
# 
# From -- ./inp_files/68537.got.cif
#   From: 2010.05.17/outbox.cif.g08.bks.cpg/sg11_35_cif.got.tgz:68537.got - 2010.06.03 12:22:45.
