data_PCOD9159112
_publ_section_title
;
Structure prediction by ZEFSAII (Michael W. Deem and Ramdas Pophale) SiO2 
 PCOD9159112
Probable space group: P 21/M
;
_chemical_formula_sum "Si O2"
_cell_formula_units_Z 28
_cell_length_a 11.488162
_cell_length_b 8.560789
_cell_length_c 16.255555
_cell_angle_alpha 90.000000
_cell_angle_beta 117.826760
_cell_angle_gamma 90.000000
_cell_volume 1413.828514
_symmetry_space_group_name_H-M "P 21/M"
_symmetry_group_IT_number 11
_symmetry_cell_setting 'monoclinic'
loop_
_space_group_symop_operation_xyz
x,y,z
-x,1/2+y,-z
-x,-y,-z
x,1/2-y,z
loop_
_atom_site_type_symbol
_atom_site_label
_atom_site_fract_x
_atom_site_fract_y
_atom_site_fract_z
Si Si1 0.903187 0.936528 0.218968
Si Si2 0.909636 0.436872 0.043267
Si Si3 0.340330 0.939761 0.593810
Si Si4 0.360368 0.063031 0.313589
Si Si5 0.638945 0.063773 0.869832
Si Si6 0.644970 0.063167 0.212913
Si Si7 0.834615 0.438385 0.612641
O O1 0.892958 0.750000 0.220268
O O2 0.017392 0.991613 0.319173
O O3 0.763229 0.010341 0.194466
O O4 0.944864 0.986059 0.141353
O O5 0.922871 0.250000 0.053727
O O6 0.758959 0.475212 0.969581
O O7 0.000000 0.500000 0.000000
O O8 0.337163 0.750000 0.592469
O O9 0.488682 0.984965 0.616773
O O10 0.322559 0.988945 0.682463
O O11 0.232080 0.996605 0.493578
O O12 0.351347 0.250000 0.316150
O O13 0.336944 0.012942 0.211568
O O14 0.258901 0.987633 0.342989
O O15 0.636366 0.250000 0.858074
O O16 0.497453 0.006786 0.854724
O O17 0.633767 0.250000 0.208704
O O18 0.837201 0.250000 0.610447
#
# Coordination Sequence:
#
# PCOD9159112 Si02
#       7
#     4   4   4   4   4   4   4
#     4  11  24  39  57  82 113 150 189 230 275 327
#     4  11  24  41  62  87 115 147 182 225 277 331
#     4   8  17  34  55  80 111 146 185 229 276 328
#     4  10  19  32  54  85 116 146 183 229 280 330
#     4  10  21  38  60  84 111 146 185 227 278 332
#     4  10  21  39  61  84 111 145 186 232 279 326
#     4  10  20  35  54  78 112 152 190 229 275 327
#
# _framework density 19.804382
#
# number of rings (size 3 to 8) (size 9 to 14) (size 15 to 20)
#    0.000    2.000    0.000    4.286    0.000    8.000 
#    0.000    3.571    0.000    0.000    0.000    0.000 
#    0.000    0.000    0.000    0.000    0.000    0.000 
#
# Total GULP energy -156439.205537 kJ/mol
# GULP energy per Si atom -5587.114483 kJ/mol
# Density = 1.975931 g / cm^3
# Si number density = 19.804382 Si / 1000 Ang^3
#
#
#
# Elastic Constant Matrix: (Units=GPa)
#
#
# Indices 1 2 3 4 5 6 
#
# 1 69.7290 7.2836 5.5897 0.0000 3.1138 0.0000
# 2 7.2836 18.0747 15.8749 0.0000 13.2115 0.0000
# 3 5.5897 15.8749 58.2947 0.0000 26.3581 0.0000
# 4 0.0000 0.0000 0.0000 23.6409 0.0000 -1.9842
# 5 3.1138 13.2115 26.3581 0.0000 24.3812 0.0000
# 6 0.0000 0.0000 0.0000 -1.9842 0.0000 30.2062
#
#
#
# Elastic Compliance Matrix: (Units=1/GPa)
#
#
# Indices 1 2 3 4 5 6 
#
# 1 0.015061 -0.007617 -0.000717 0.000000 0.002979 0.000000
# 2 -0.007617 0.096183 -0.004571 0.000000 -0.046205 0.000000
# 3 -0.000717 -0.004571 0.033855 0.000000 -0.034032 0.000000
# 4 0.000000 0.000000 0.000000 0.042534 0.000000 0.002794
# 5 0.002979 -0.046205 -0.034032 0.000000 0.102463 0.000000
# 6 0.000000 0.000000 0.000000 0.002794 0.000000 0.033289
#
#
# Mechanical properties :
#
#
# Convention : Reuss Voigt Hill
#
# Bulk Modulus (GPa) = 8.38293 22.62166 15.50230
# Shear Modulus (GPa) = 12.85484 23.46899 18.16191
#
# Velocity S-wave (km/s) = 2.55049 3.44618 3.03159
# Velocity P-wave (km/s) = 3.59380 5.22324 4.48317
#
# Compressibility (1/GPa) = 0.11929004
#
# Stress axis : x y z
#
# Youngs Moduli (GPa) = 66.39519 10.39689 29.53742
#
# Poissons Ratio (x) = 0.07919 0.02117
# Poissons Ratio (y) = 0.50574 0.13501
# Poissons Ratio (z) = 0.04759 0.04752
#
# Static dielectric constant tensor:
#      x y z
#    x 1.671210 0.000000 0.020860 
#    y 0.000000 1.667640 0.000000 
#    z 0.020860 0.000000 1.707800 
# 
# From -- ./inp_files/37935.got.cif
#   From: 2010.05.17/outbox.cif.g08.bks.cpg/sg11_19_cif.got.tgz:37935.got - 2010.06.03 12:22:45.
