data_PCOD9159921
_publ_section_title
;
Structure prediction by ZEFSAII (Michael W. Deem and Ramdas Pophale) SiO2 
 PCOD9159921
Probable space group: P 21/M
;
_chemical_formula_sum "Si O2"
_cell_formula_units_Z 28
_cell_length_a 13.905918
_cell_length_b 8.677738
_cell_length_c 16.382748
_cell_angle_alpha 90.000000
_cell_angle_beta 50.112465
_cell_angle_gamma 90.000000
_cell_volume 1516.913437
_symmetry_space_group_name_H-M "P 21/M"
_symmetry_group_IT_number 11
_symmetry_cell_setting 'monoclinic'
loop_
_space_group_symop_operation_xyz
x,y,z
-x,1/2+y,-z
-x,-y,-z
x,1/2-y,z
loop_
_atom_site_type_symbol
_atom_site_label
_atom_site_fract_x
_atom_site_fract_y
_atom_site_fract_z
Si Si1 0.472992 0.566842 0.260964
Si Si2 0.275440 0.565134 0.940465
Si Si3 0.829292 0.436518 0.177121
Si Si4 0.060886 0.063529 0.157391
Si Si5 0.796940 0.933313 0.608352
Si Si6 0.985163 0.064909 0.381424
Si Si7 0.439132 0.934841 0.614566
O O1 0.482205 0.750000 0.257996
O O2 0.584617 0.499388 0.144596
O O3 0.335714 0.514516 0.308409
O O4 0.496331 0.500425 0.339191
O O5 0.280289 0.750000 0.937593
O O6 0.202511 0.512211 0.897325
O O7 0.194514 0.504439 0.059699
O O8 0.835775 0.250000 0.171430
O O9 0.707981 0.476629 0.297478
O O10 0.956889 0.491757 0.148586
O O11 0.067757 0.250000 0.150769
O O12 0.014208 0.020268 0.272939
O O13 0.779052 0.750000 0.617163
O O14 0.895232 0.972452 0.626744
O O15 0.865009 0.986520 0.487994
O O16 0.966884 0.250000 0.394190
O O17 0.448496 0.750000 0.610791
O O18 0.500000 0.000000 0.500000
#
# Coordination Sequence:
#
# PCOD9159921 Si02
#       7
#     4   4   4   4   4   4   4
#     4  11  22  37  58  79 104 147 189 228 279 333
#     4  10  20  36  54  79 112 145 182 228 274 325
#     4   8  17  32  51  75 109 147 180 216 263 318
#     4  10  19  34  56  81 109 144 184 223 267 328
#     4  10  20  37  58  82 112 143 180 230 282 334
#     4   9  20  36  57  84 113 144 180 225 278 335
#     4  10  20  34  51  80 115 148 183 226 271 325
#
# _framework density 18.458535000000001
#
# number of rings (size 3 to 8) (size 9 to 14) (size 15 to 20)
#    0.000    2.286    0.000    3.857    2.000    1.143 
#    0.000    4.286    0.000    0.000    0.000    0.000 
#    0.000    0.000    0.000    0.000    0.000    0.000 
#
# Total GULP energy -156306.525894 kJ/mol
# GULP energy per Si atom -5582.375925 kJ/mol
# Density = 1.841652 g / cm^3
# Si number density = 18.458535 Si / 1000 Ang^3
#
#
#
# Elastic Constant Matrix: (Units=GPa)
#
#
# Indices 1 2 3 4 5 6 
#
# 1 44.1221 24.0289 33.9108 0.0000 -19.5410 0.0000
# 2 24.0289 54.4509 30.7795 0.0000 -8.1812 0.0000
# 3 33.9108 30.7795 101.6501 0.0000 -10.1168 0.0000
# 4 0.0000 0.0000 0.0000 33.0423 0.0000 -2.8744
# 5 -19.5410 -8.1812 -10.1168 0.0000 22.3518 0.0000
# 6 0.0000 0.0000 0.0000 -2.8744 0.0000 20.6215
#
#
#
# Elastic Compliance Matrix: (Units=1/GPa)
#
#
# Indices 1 2 3 4 5 6 
#
# 1 0.054525 -0.012276 -0.010655 0.000000 0.038352 0.000000
# 2 -0.012276 0.025541 -0.003954 0.000000 -0.003174 0.000000
# 3 -0.010655 -0.003954 0.014156 0.000000 -0.004355 0.000000
# 4 0.000000 0.000000 0.000000 0.030636 0.000000 0.004270
# 5 0.038352 -0.003174 -0.004355 0.000000 0.075135 0.000000
# 6 0.000000 0.000000 0.000000 0.004270 0.000000 0.049088
#
#
# Mechanical properties :
#
#
# Convention : Reuss Voigt Hill
#
# Bulk Modulus (GPa) = 24.72156 41.96238 33.34197
# Shear Modulus (GPa) = 15.80596 22.63671 19.22134
#
# Velocity S-wave (km/s) = 2.92943 3.50573 3.23046
# Velocity P-wave (km/s) = 4.98640 6.25856 5.65834
#
# Compressibility (1/GPa) = 0.04045051
#
# Stress axis : x y z
#
# Youngs Moduli (GPa) = 18.34029 39.15288 70.64027
#
# Poissons Ratio (x) = 0.48064 0.75270
# Poissons Ratio (y) = 0.22514 0.27933
# Poissons Ratio (z) = 0.19542 0.15482
#
# Static dielectric constant tensor:
#      x y z
#    x 1.638090 0.000000 -0.004650 
#    y 0.000000 1.618840 0.000000 
#    z -0.004650 0.000000 1.620980 
# 
# From -- ./inp_files/60091.got.cif
#   From: 2010.05.17/outbox.cif.g08.bks.cpg/sg11_31_cif.got.tgz:60091.got - 2010.06.03 12:22:45.
