data_PCOD9159001
_publ_section_title
;
Structure prediction by ZEFSAII (Michael W. Deem and Ramdas Pophale) SiO2 
 PCOD9159001
Probable space group: P 21/M
;
_chemical_formula_sum "Si O2"
_cell_formula_units_Z 32
_cell_length_a 23.958812
_cell_length_b 7.910305
_cell_length_c 12.788909
_cell_angle_alpha 90.000000
_cell_angle_beta 134.983111
_cell_angle_gamma 90.000000
_cell_volume 1714.371691
_symmetry_space_group_name_H-M "P 21/M"
_symmetry_group_IT_number 11
_symmetry_cell_setting 'monoclinic'
loop_
_space_group_symop_operation_xyz
x,y,z
-x,1/2+y,-z
-x,-y,-z
x,1/2-y,z
loop_
_atom_site_type_symbol
_atom_site_label
_atom_site_fract_x
_atom_site_fract_y
_atom_site_fract_z
Si Si1 0.783675 0.453714 0.053382
Si Si2 0.005039 0.948395 0.173713
Si Si3 0.168825 0.048330 0.110078
Si Si4 0.514231 0.048871 0.139702
Si Si5 0.315678 0.542406 0.676953
Si Si6 0.824500 0.048707 0.654137
Si Si7 0.655486 0.451540 0.046719
Si Si8 0.039792 0.952159 0.661060
O O1 0.782031 0.250000 0.054065
O O2 0.713138 0.518457 0.033023
O O3 0.868793 0.508083 0.211694
O O4 0.783977 0.504402 0.932455
O O5 0.003786 0.750000 0.144600
O O6 0.086795 0.023279 0.240131
O O7 0.003531 0.967198 0.296901
O O8 0.921270 0.021107 0.023726
O O9 0.164650 0.250000 0.111010
O O10 0.202357 0.980695 0.262901
O O11 0.513193 0.250000 0.148077
O O12 0.603980 0.990339 0.277115
O O13 0.500000 0.000000 0.000000
O O14 0.437144 0.982312 0.096336
O O15 0.315296 0.750000 0.677944
O O16 0.238167 0.483483 0.513383
O O17 0.322142 0.485422 0.806623
O O18 0.830115 0.250000 0.643432
O O19 0.666446 0.250000 0.065785
O O20 0.037728 0.750000 0.671061
O O21 0.000000 0.000000 0.500000
#
# Coordination Sequence:
#
# PCOD9159001 Si02
#       8
#     4   4   4   4   4   4   4   4
#     4   9  19  34  53  72  93 130 172 203 237 295
#     4   9  19  33  50  70  94 129 169 206 245 288
#     4  10  20  34  49  70 101 129 162 212 254 284
#     4   9  16  29  48  71 101 132 159 193 241 294
#     4   8  16  29  48  74 100 126 158 195 238 289
#     4  10  19  32  53  73  94 130 170 204 239 292
#     4   9  17  31  52  76  99 125 162 203 240 291
#     4  10  20  32  48  69  99 134 164 201 245 292
#
# _framework density 18.66573
#
# number of rings (size 3 to 8) (size 9 to 14) (size 15 to 20)
#    0.000    2.750    0.000    2.250    1.750    2.000 
#    0.000    3.125    0.000    0.750    0.000    0.000 
#    0.000    0.000    0.000    0.000    0.000    0.000 
#
# Total GULP energy -178340.597732 kJ/mol
# GULP energy per Si atom -5573.143679 kJ/mol
# Density = 1.862325 g / cm^3
# Si number density = 18.665730 Si / 1000 Ang^3
#
#
#
# Elastic Constant Matrix: (Units=GPa)
#
#
# Indices 1 2 3 4 5 6 
#
# 1 134.6519 2.7716 43.5251 0.0000 11.9232 0.0000
# 2 2.7716 16.3994 1.8021 0.0000 5.3941 0.0000
# 3 43.5251 1.8021 53.0375 0.0000 -3.7371 0.0000
# 4 0.0000 0.0000 0.0000 14.8133 0.0000 -1.7695
# 5 11.9232 5.3941 -3.7371 0.0000 12.7406 0.0000
# 6 0.0000 0.0000 0.0000 -1.7695 0.0000 20.1733
#
#
#
# Elastic Compliance Matrix: (Units=1/GPa)
#
#
# Indices 1 2 3 4 5 6 
#
# 1 0.012679 0.004873 -0.011796 0.000000 -0.017388 0.000000
# 2 0.004873 0.073840 -0.009222 0.000000 -0.038527 0.000000
# 3 -0.011796 -0.009222 0.030532 0.000000 0.023899 0.000000
# 4 0.000000 0.000000 0.000000 0.068222 0.000000 0.005984
# 5 -0.017388 -0.038527 0.023899 0.000000 0.118083 0.000000
# 6 0.000000 0.000000 0.000000 0.005984 0.000000 0.050095
#
#
# Mechanical properties :
#
#
# Convention : Reuss Voigt Hill
#
# Bulk Modulus (GPa) = 11.79796 33.36515 22.58156
# Shear Modulus (GPa) = 12.07743 19.94477 16.01110
#
# Velocity S-wave (km/s) = 2.54645 3.27237 2.93197
# Velocity P-wave (km/s) = 3.87044 5.67378 4.85655
#
# Compressibility (1/GPa) = 0.08476039
#
# Stress axis : x y z
#
# Youngs Moduli (GPa) = 78.87187 13.54274 32.75253
#
# Poissons Ratio (x) = -0.06599 0.38634
# Poissons Ratio (y) = -0.38432 0.30206
# Poissons Ratio (z) = 0.93034 0.12490
#
# Static dielectric constant tensor:
#      x y z
#    x 1.665780 0.000000 0.028910 
#    y 0.000000 1.678930 0.000000 
#    z 0.028910 0.000000 1.637420 
# 
# From -- ./inp_files/42544.got.cif
#   From: 2010.05.17/outbox.cif.g08.bks.cpg/sg11_22_cif.got.tgz:42544.got - 2010.06.03 12:22:45.
