data_PCOD9159572
_publ_section_title
;
Structure prediction by ZEFSAII (Michael W. Deem and Ramdas Pophale) SiO2 
 PCOD9159572
Probable space group: P 21/M
;
_chemical_formula_sum "Si O2"
_cell_formula_units_Z 32
_cell_length_a 20.192264
_cell_length_b 10.990935
_cell_length_c 6.992723
_cell_angle_alpha 90.000000
_cell_angle_beta 114.707152
_cell_angle_gamma 90.000000
_cell_volume 1409.840176
_symmetry_space_group_name_H-M "P 21/M"
_symmetry_group_IT_number 11
_symmetry_cell_setting 'monoclinic'
loop_
_space_group_symop_operation_xyz
x,y,z
-x,1/2+y,-z
-x,-y,-z
x,1/2-y,z
loop_
_atom_site_type_symbol
_atom_site_label
_atom_site_fract_x
_atom_site_fract_y
_atom_site_fract_z
Si Si1 0.331619 0.504899 0.703840
Si Si2 0.430056 0.385794 0.515978
Si Si3 0.460316 0.885534 0.052668
Si Si4 0.182464 0.612423 0.543281
Si Si5 0.932800 0.114986 0.096704
Si Si6 0.324321 0.116278 0.078385
Si Si7 0.017648 0.611218 0.269466
Si Si8 0.770944 0.385889 0.954716
O O1 0.382340 0.475914 0.586217
O O2 0.251542 0.542417 0.541104
O O3 0.375922 0.601462 0.891172
O O4 0.325236 0.397490 0.851338
O O5 0.405796 0.250000 0.545454
O O6 0.512767 0.392206 0.693002
O O7 0.405322 0.392025 0.267141
O O8 0.483486 0.750000 0.014021
O O9 0.500000 0.000000 0.000000
O O10 0.183430 0.750000 0.470873
O O11 0.099529 0.571001 0.424166
O O12 0.202889 0.615303 0.792167
O O13 0.937710 0.250000 0.194856
O O14 0.847927 0.097898 0.940514
O O15 0.978563 0.121191 0.956845
O O16 0.961951 0.998062 0.245837
O O17 0.294556 0.250000 0.092235
O O18 0.280005 0.003715 0.114180
O O19 0.002228 0.750000 0.319985
O O20 0.740327 0.250000 0.874740
#
# Coordination Sequence:
#
# PCOD9159572 Si02
#       8
#     4   4   4   4   4   4   4   4
#     4  10  19  33  56  78 108 142 177 221 265 314
#     4   9  19  35  53  77 108 141 178 220 268 317
#     4   9  18  34  56  81 110 144 182 224 269 317
#     4   9  18  32  50  74 101 133 172 213 261 311
#     4   9  18  33  51  71 100 133 166 211 259 303
#     4  10  21  36  54  79 109 143 181 219 266 320
#     4   9  18  32  50  72  99 132 169 207 254 312
#     4   9  19  35  53  74 104 136 170 218 264 306
#
# _framework density 22.697609
#
# number of rings (size 3 to 8) (size 9 to 14) (size 15 to 20)
#    0.000    2.750    0.000    0.750    1.750    2.500 
#    0.000    5.625    0.000    0.000    0.000    0.000 
#    0.000    0.000    0.000    0.000    0.000    0.000 
#
# Total GULP energy -178265.346633 kJ/mol
# GULP energy per Si atom -5570.792082 kJ/mol
# Density = 2.264595 g / cm^3
# Si number density = 22.697609 Si / 1000 Ang^3
#
#
#
# Elastic Constant Matrix: (Units=GPa)
#
#
# Indices 1 2 3 4 5 6 
#
# 1 43.8916 40.5434 6.0037 0.0000 4.9098 0.0000
# 2 40.5434 160.7455 33.0210 0.0000 30.9219 0.0000
# 3 6.0037 33.0210 91.0924 0.0000 24.2014 0.0000
# 4 0.0000 0.0000 0.0000 20.4710 0.0000 14.3119
# 5 4.9098 30.9219 24.2014 0.0000 28.5553 0.0000
# 6 0.0000 0.0000 0.0000 14.3119 0.0000 19.2356
#
#
#
# Elastic Compliance Matrix: (Units=1/GPa)
#
#
# Indices 1 2 3 4 5 6 
#
# 1 0.030033 -0.008314 0.000019 0.000000 0.003824 0.000000
# 2 -0.008314 0.010200 -0.000768 0.000000 -0.008966 0.000000
# 3 0.000019 -0.000768 0.014242 0.000000 -0.011242 0.000000
# 4 0.000000 0.000000 0.000000 0.101807 0.000000 -0.075747
# 5 0.003824 -0.008966 -0.011242 0.000000 0.053599 0.000000
# 6 0.000000 0.000000 0.000000 -0.075747 0.000000 0.108345
#
#
# Mechanical properties :
#
#
# Convention : Reuss Voigt Hill
#
# Bulk Modulus (GPa) = 27.51136 50.54061 39.02598
# Shear Modulus (GPa) = 14.34846 28.06315 21.20581
#
# Velocity S-wave (km/s) = 2.51700 3.52005 3.05991
# Velocity P-wave (km/s) = 4.53808 6.23188 5.45117
#
# Compressibility (1/GPa) = 0.03634862
#
# Stress axis : x y z
#
# Youngs Moduli (GPa) = 33.29641 98.03486 70.21619
#
# Poissons Ratio (x) = 0.81510 -0.00131
# Poissons Ratio (y) = 0.27684 0.05391
# Poissons Ratio (z) = -0.00062 0.07526
#
# Static dielectric constant tensor:
#      x y z
#    x 1.896560 0.000000 -0.020430 
#    y 0.000000 1.886930 0.000000 
#    z -0.020430 0.000000 1.908860 
# 
# From -- ./inp_files/27520.got.cif
#   From: 2010.05.17/outbox.cif.g08.bks.cpg/sg11_14_cif.got.tgz:27520.got - 2010.06.03 12:22:45.
