data_PCOD9159185
_publ_section_title
;
Structure prediction by ZEFSAII (Michael W. Deem and Ramdas Pophale) SiO2 
 PCOD9159185
Probable space group: P 21/M
;
_chemical_formula_sum "Si O2"
_cell_formula_units_Z 30
_cell_length_a 18.525073
_cell_length_b 13.809431
_cell_length_c 8.157974
_cell_angle_alpha 90.000000
_cell_angle_beta 143.320360
_cell_angle_gamma 90.000000
_cell_volume 1246.636308
_symmetry_space_group_name_H-M "P 21/M"
_symmetry_group_IT_number 11
_symmetry_cell_setting 'monoclinic'
loop_
_space_group_symop_operation_xyz
x,y,z
-x,1/2+y,-z
-x,-y,-z
x,1/2-y,z
loop_
_atom_site_type_symbol
_atom_site_label
_atom_site_fract_x
_atom_site_fract_y
_atom_site_fract_z
Si Si1 0.952060 0.457562 0.583161
Si Si2 0.043545 0.750000 0.251652
Si Si3 0.313463 0.932714 0.264679
Si Si4 0.543400 0.642287 0.858039
Si Si5 0.425491 0.857526 0.129073
Si Si6 0.679481 0.647371 0.755791
Si Si7 0.288098 0.498724 0.685304
Si Si8 0.884656 0.086949 0.889067
O O1 0.033762 0.658695 0.367289
O O2 0.000000 0.500000 0.500000
O O3 0.811611 0.485697 0.353922
O O4 0.018079 0.519668 0.846217
O O5 0.064786 0.665549 0.144662
O O6 0.428412 0.922024 0.596631
O O7 0.367718 0.899842 0.190295
O O8 0.202698 0.869922 0.128957
O O9 0.264011 0.042428 0.159414
O O10 0.502005 0.750000 0.826583
O O11 0.619876 0.648516 0.827613
O O12 0.637431 0.599134 0.158945
O O13 0.376748 0.750000 0.015967
O O14 0.567028 0.853250 0.425175
O O15 0.387623 0.919815 0.905394
O O16 0.747394 0.750000 0.854312
O O17 0.211910 0.520830 0.386689
#
# Coordination Sequence:
#
# PCOD9159185 Si02
#       8
#     4   2   4   4   4   4   4   4
#     4  11  26  51  74 104 136 186 250 301 345 434
#     4  10  24  50  76 102 140 180 226 294 378 416
#     4  11  19  39  62  94 139 176 232 281 331 420
#     4  10  20  36  62  96 136 183 227 282 347 414
#     4  10  19  32  61  93 125 179 234 280 333 406
#     4   9  17  33  57  89 132 180 231 285 331 390
#     4  11  21  42  63  90 138 175 222 292 360 403
#     4  11  27  44  68 103 140 184 224 295 358 415
#
# _framework density 24.064755999999999
#
# number of rings (size 3 to 8) (size 9 to 14) (size 15 to 20)
#    0.000    1.600    2.667    4.400    5.600    1.067 
#    7.200    0.000    0.000    0.000    0.000    0.000 
#    0.000    0.000    0.000    0.000    0.000    0.000 
#
# Total GULP energy -167127.562478 kJ/mol
# GULP energy per Si atom -5570.918749 kJ/mol
# Density = 2.400998 g / cm^3
# Si number density = 24.064756 Si / 1000 Ang^3
#
#
#
# Elastic Constant Matrix: (Units=GPa)
#
#
# Indices 1 2 3 4 5 6 
#
# 1 75.0656 38.5467 9.3629 0.0000 -16.6529 0.0000
# 2 38.5467 174.5816 26.7398 0.0000 -9.9648 0.0000
# 3 9.3629 26.7398 120.5550 0.0000 -10.8217 0.0000
# 4 0.0000 0.0000 0.0000 19.8741 0.0000 -5.4651
# 5 -16.6529 -9.9648 -10.8217 0.0000 30.2311 0.0000
# 6 0.0000 0.0000 0.0000 -5.4651 0.0000 23.8684
#
#
#
# Elastic Compliance Matrix: (Units=1/GPa)
#
#
# Indices 1 2 3 4 5 6 
#
# 1 0.016806 -0.003265 0.000158 0.000000 0.008238 0.000000
# 2 -0.003265 0.006633 -0.001222 0.000000 -0.000049 0.000000
# 3 0.000158 -0.001222 0.008808 0.000000 0.002838 0.000000
# 4 0.000000 0.000000 0.000000 0.053698 0.000000 0.012295
# 5 0.008238 -0.000049 0.002838 0.000000 0.038616 0.000000
# 6 0.000000 0.000000 0.000000 0.012295 0.000000 0.044711
#
#
# Mechanical properties :
#
#
# Convention : Reuss Voigt Hill
#
# Bulk Modulus (GPa) = 42.38967 57.72235 50.05601
# Shear Modulus (GPa) = 26.91163 34.49824 30.70493
#
# Velocity S-wave (km/s) = 3.34773 3.79034 3.57589
# Velocity P-wave (km/s) = 5.70930 6.57221 6.15589
#
# Compressibility (1/GPa) = 0.02359065
#
# Stress axis : x y z
#
# Youngs Moduli (GPa) = 59.50269 150.75712 113.52716
#
# Poissons Ratio (x) = 0.49218 -0.01798
# Poissons Ratio (y) = 0.19426 0.13875
# Poissons Ratio (z) = -0.00943 0.18425
#
# Static dielectric constant tensor:
#      x y z
#    x 2.011160 0.000000 -0.009730 
#    y 0.000000 1.935090 0.000000 
#    z -0.009730 0.000000 1.919590 
# 
# From -- ./inp_files/27758.got.cif
#   From: 2010.05.17/outbox.cif.g08.bks.cpg/sg11_14_cif.got.tgz:27758.got - 2010.06.03 12:22:45.
