data_PCOD9159793
_publ_section_title
;
Structure prediction by ZEFSAII (Michael W. Deem and Ramdas Pophale) SiO2 
 PCOD9159793
Probable space group: P 21/M
;
_chemical_formula_sum "Si O2"
_cell_formula_units_Z 32
_cell_length_a 31.812498
_cell_length_b 9.061080
_cell_length_c 12.311565
_cell_angle_alpha 90.000000
_cell_angle_beta 29.431605
_cell_angle_gamma 90.000000
_cell_volume 1743.862473
_symmetry_space_group_name_H-M "P 21/M"
_symmetry_group_IT_number 11
_symmetry_cell_setting 'monoclinic'
loop_
_space_group_symop_operation_xyz
x,y,z
-x,1/2+y,-z
-x,-y,-z
x,1/2-y,z
loop_
_atom_site_type_symbol
_atom_site_label
_atom_site_fract_x
_atom_site_fract_y
_atom_site_fract_z
Si Si1 0.407503 0.074076 0.194377
Si Si2 0.885191 0.075942 0.167533
Si Si3 0.632723 0.427143 0.937466
Si Si4 0.277074 0.072726 0.871421
Si Si5 0.216814 0.926326 0.228763
Si Si6 0.246595 0.073208 0.698328
Si Si7 0.915136 0.575902 0.326719
Si Si8 0.475445 0.073435 0.441910
O O1 0.418068 0.250000 0.162707
O O2 0.342865 0.043280 0.439197
O O3 0.363227 0.011031 0.185274
O O4 0.500000 0.000000 0.000000
O O5 0.870667 0.250000 0.217084
O O6 0.819065 0.010394 0.230982
O O7 0.879353 0.993456 0.295745
O O8 0.982559 0.055051 0.906874
O O9 0.634036 0.250000 0.915567
O O10 0.707808 0.462488 0.853993
O O11 0.543184 0.468005 0.196899
O O12 0.269695 0.250000 0.901875
O O13 0.236342 0.032366 0.847430
O O14 0.377798 0.036869 0.635869
O O15 0.239615 0.993024 0.060721
O O16 0.211341 0.750000 0.234527
O O17 0.130708 0.995105 0.471040
O O18 0.233851 0.250000 0.716894
O O19 0.897262 0.750000 0.370091
O O20 0.482064 0.250000 0.439036
O O21 0.500000 0.000000 0.500000
#
# Coordination Sequence:
#
# PCOD9159793 Si02
#       8
#     4   4   4   4   4   4   4   4
#     4  11  23  38  57  82 113 149 190 233 280 334
#     4  10  21  38  62  91 117 146 186 233 283 336
#     4  10  21  36  54  80 115 147 184 236 286 334
#     4  10  21  37  57  79 111 154 195 236 284 341
#     4  11  22  36  57  86 116 146 186 237 287 335
#     4  10  22  40  60  82 113 155 196 233 282 341
#     4  10  21  38  61  88 119 149 182 228 284 345
#     4  10  19  34  54  77 109 148 189 233 278 328
#
# _framework density 18.350072000000001
#
# number of rings (size 3 to 8) (size 9 to 14) (size 15 to 20)
#    0.000    1.750    1.250    3.000    0.000    8.500 
#    0.000    1.875    0.000    0.000    0.000    0.000 
#    0.000    0.000    0.000    0.000    0.000    0.000 
#
# Total GULP energy -178812.059940 kJ/mol
# GULP energy per Si atom -5587.876873 kJ/mol
# Density = 1.830831 g / cm^3
# Si number density = 18.350072 Si / 1000 Ang^3
#
#
#
# Elastic Constant Matrix: (Units=GPa)
#
#
# Indices 1 2 3 4 5 6 
#
# 1 106.5472 50.6715 40.2304 0.0000 6.9077 0.0000
# 2 50.6715 53.2077 48.0967 0.0000 4.1282 0.0000
# 3 40.2304 48.0967 82.0136 0.0000 18.4342 0.0000
# 4 0.0000 0.0000 0.0000 27.4509 0.0000 -0.2273
# 5 6.9077 4.1282 18.4342 0.0000 29.7876 0.0000
# 6 0.0000 0.0000 0.0000 -0.2273 0.0000 31.6159
#
#
#
# Elastic Compliance Matrix: (Units=1/GPa)
#
#
# Indices 1 2 3 4 5 6 
#
# 1 0.017733 -0.020219 0.004012 0.000000 -0.003793 0.000000
# 2 -0.020219 0.066047 -0.032305 0.000000 0.015528 0.000000
# 3 0.004012 -0.032305 0.032958 0.000000 -0.016849 0.000000
# 4 0.000000 0.000000 0.000000 0.036431 0.000000 0.000262
# 5 -0.003793 0.015528 -0.016849 0.000000 0.042726 0.000000
# 6 0.000000 0.000000 0.000000 0.000262 0.000000 0.031632
#
#
# Mechanical properties :
#
#
# Convention : Reuss Voigt Hill
#
# Bulk Modulus (GPa) = 50.73107 57.75176 54.24141
# Shear Modulus (GPa) = 15.10020 24.62221 19.86121
#
# Velocity S-wave (km/s) = 2.87173 3.66704 3.29348
# Velocity P-wave (km/s) = 6.22110 7.03350 6.63973
#
# Compressibility (1/GPa) = 0.01971179
#
# Stress axis : x y z
#
# Youngs Moduli (GPa) = 56.39347 15.14072 30.34199
#
# Poissons Ratio (x) = 0.30614 -0.12172
# Poissons Ratio (y) = 1.14024 0.98020
# Poissons Ratio (z) = -0.22623 0.48912
#
# Static dielectric constant tensor:
#      x y z
#    x 1.607540 0.000000 -0.007180 
#    y 0.000000 1.606480 0.000000 
#    z -0.007180 0.000000 1.636910 
# 
# From -- ./inp_files/45124.got.cif
#   From: 2010.05.17/outbox.cif.g08.bks.cpg/sg11_23_cif.got.tgz:45124.got - 2010.06.03 12:22:45.
