data_PCOD9159194
_publ_section_title
;
Structure prediction by ZEFSAII (Michael W. Deem and Ramdas Pophale) SiO2 
 PCOD9159194
Probable space group: P 21/M
;
_chemical_formula_sum "Si O2"
_cell_formula_units_Z 32
_cell_length_a 23.798305
_cell_length_b 8.695894
_cell_length_c 14.842378
_cell_angle_alpha 90.000000
_cell_angle_beta 143.966471
_cell_angle_gamma 90.000000
_cell_volume 1806.891282
_symmetry_space_group_name_H-M "P 21/M"
_symmetry_group_IT_number 11
_symmetry_cell_setting 'monoclinic'
loop_
_space_group_symop_operation_xyz
x,y,z
-x,1/2+y,-z
-x,-y,-z
x,1/2-y,z
loop_
_atom_site_type_symbol
_atom_site_label
_atom_site_fract_x
_atom_site_fract_y
_atom_site_fract_z
Si Si1 0.880407 0.066203 0.258446
Si Si2 0.710863 0.569896 0.920741
Si Si3 0.497848 0.063179 0.394996
Si Si4 0.816594 0.433312 0.549204
Si Si5 0.204976 0.571153 0.141093
Si Si6 0.095658 0.066031 0.512203
Si Si7 0.310778 0.935658 0.457883
Si Si8 0.987217 0.930181 0.884620
O O1 0.880939 0.250000 0.264806
O O2 0.984146 0.018683 0.352263
O O3 0.876966 0.996657 0.354147
O O4 0.789688 0.014003 0.083227
O O5 0.715306 0.750000 0.947135
O O6 0.600739 0.518178 0.782136
O O7 0.740095 0.537446 0.855610
O O8 0.499979 0.250000 0.403750
O O9 0.589247 0.011275 0.455016
O O10 0.500000 0.000000 0.500000
O O11 0.809674 0.250000 0.531319
O O12 0.835290 0.505041 0.476088
O O13 0.727578 0.490523 0.495134
O O14 0.909852 0.477141 0.728240
O O15 0.234390 0.750000 0.164583
O O16 0.231499 0.532407 0.278231
O O17 0.092542 0.561127 0.978293
O O18 0.098487 0.250000 0.516100
O O19 0.317066 0.750000 0.473038
O O20 0.960388 0.750000 0.854216
O O21 0.000000 0.000000 0.000000
#
# Coordination Sequence:
#
# PCOD9159194 Si02
#       8
#     4   4   4   4   4   4   4   4
#     4  10  21  38  60  83 109 145 178 213 268 329
#     4  11  22  33  52  83 110 136 176 230 278 315
#     4  10  20  35  54  76 105 142 184 228 274 316
#     4  11  21  35  54  77 105 145 185 217 264 325
#     4  10  19  33  50  69 101 145 182 213 260 320
#     4  10  21  38  59  85 113 140 175 222 268 316
#     4   9  18  34  52  71 102 144 183 218 260 316
#     4  11  21  32  46  69 102 140 179 217 259 310
#
# _framework density 17.709976000000001
#
# number of rings (size 3 to 8) (size 9 to 14) (size 15 to 20)
#    0.000    1.750    2.500    2.625    0.000    6.000 
#    0.000    1.250    0.000    0.750    0.000    0.000 
#    0.000    0.000    0.000    0.000    0.000    0.000 
#
# Total GULP energy -178560.306725 kJ/mol
# GULP energy per Si atom -5580.009585 kJ/mol
# Density = 1.766967 g / cm^3
# Si number density = 17.709976 Si / 1000 Ang^3
#
#
#
# Elastic Constant Matrix: (Units=GPa)
#
#
# Indices 1 2 3 4 5 6 
#
# 1 138.4222 27.5388 46.3443 0.0000 7.6290 0.0000
# 2 27.5388 32.3861 22.5422 0.0000 2.5251 0.0000
# 3 46.3443 22.5422 70.0991 0.0000 8.7943 0.0000
# 4 0.0000 0.0000 0.0000 23.1537 0.0000 -6.1150
# 5 7.6290 2.5251 8.7943 0.0000 22.8435 0.0000
# 6 0.0000 0.0000 0.0000 -6.1150 0.0000 27.5374
#
#
#
# Elastic Compliance Matrix: (Units=1/GPa)
#
#
# Indices 1 2 3 4 5 6 
#
# 1 0.009876 -0.004975 -0.004817 0.000000 -0.000894 0.000000
# 2 -0.004975 0.042295 -0.010438 0.000000 0.001005 0.000000
# 3 -0.004817 -0.010438 0.021499 0.000000 -0.005514 0.000000
# 4 0.000000 0.000000 0.000000 0.045880 0.000000 0.010188
# 5 -0.000894 0.001005 -0.005514 0.000000 0.046086 0.000000
# 6 0.000000 0.000000 0.000000 0.010188 0.000000 0.038577
#
#
# Mechanical properties :
#
#
# Convention : Reuss Voigt Hill
#
# Bulk Modulus (GPa) = 30.11234 48.19533 39.15383
# Shear Modulus (GPa) = 19.55083 24.33908 21.94495
#
# Velocity S-wave (km/s) = 3.32617 3.71120 3.52395
# Velocity P-wave (km/s) = 5.63836 6.75550 6.22205
#
# Compressibility (1/GPa) = 0.03320898
#
# Stress axis : x y z
#
# Youngs Moduli (GPa) = 101.25338 23.64349 46.51436
#
# Poissons Ratio (x) = 0.11763 0.22408
# Poissons Ratio (y) = 0.50376 0.48551
# Poissons Ratio (z) = 0.48778 0.24679
#
# Static dielectric constant tensor:
#      x y z
#    x 1.620860 0.000000 0.040810 
#    y 0.000000 1.601020 0.000000 
#    z 0.040810 0.000000 1.540190 
# 
# From -- ./inp_files/54345.got.cif
#   From: 2010.05.17/outbox.cif.g08.bks.cpg/sg11_28_cif.got.tgz:54345.got - 2010.06.03 12:22:45.
