data_PCOD9159945
_publ_section_title
;
Structure prediction by ZEFSAII (Michael W. Deem and Ramdas Pophale) SiO2 
 PCOD9159945
Probable space group: P 21/M
;
_chemical_formula_sum "Si O2"
_cell_formula_units_Z 32
_cell_length_a 21.369860
_cell_length_b 9.315853
_cell_length_c 25.993851
_cell_angle_alpha 90.000000
_cell_angle_beta 20.419278
_cell_angle_gamma 90.000000
_cell_volume 1805.428117
_symmetry_space_group_name_H-M "P 21/M"
_symmetry_group_IT_number 11
_symmetry_cell_setting 'monoclinic'
loop_
_space_group_symop_operation_xyz
x,y,z
-x,1/2+y,-z
-x,-y,-z
x,1/2-y,z
loop_
_atom_site_type_symbol
_atom_site_label
_atom_site_fract_x
_atom_site_fract_y
_atom_site_fract_z
Si Si1 0.319056 0.586644 0.638607
Si Si2 0.814239 0.414535 0.141860
Si Si3 0.965633 0.920479 0.855883
Si Si4 0.013290 0.077451 0.544571
Si Si5 0.407646 0.421706 0.282497
Si Si6 0.269320 0.921146 0.043551
Si Si7 0.638462 0.920075 0.187603
Si Si8 0.683577 0.077004 0.873937
O O1 0.500000 0.500000 0.500000
O O2 0.354014 0.750000 0.594961
O O3 0.249585 0.590056 0.750414
O O4 0.158828 0.527762 0.726482
O O5 0.838801 0.250000 0.104819
O O6 0.675805 0.497162 0.211669
O O7 0.000000 0.500000 0.000000
O O8 0.975942 0.750000 0.838284
O O9 0.886376 0.000664 0.867951
O O10 0.820302 0.939213 0.013623
O O11 0.009515 0.250000 0.539933
O O12 0.846893 0.038963 0.709892
O O13 0.204473 0.042764 0.423579
O O14 0.000000 0.000000 0.500000
O O15 0.418793 0.250000 0.283850
O O16 0.482235 0.508808 0.273797
O O17 0.543373 0.453617 0.130379
O O18 0.243595 0.750000 0.060121
O O19 0.274255 0.961693 0.099414
O O20 0.610623 0.750000 0.216537
O O21 0.660687 0.250000 0.889417
O O22 0.500000 0.000000 0.000000
#
# Coordination Sequence:
#
# PCOD9159945 Si02
#       8
#     4   4   4   4   4   4   4   4
#     4  10  22  39  55  78 111 146 184 230 280 331
#     4  11  21  36  58  83 111 144 187 234 279 328
#     4   9  18  35  55  77 109 142 179 226 273 323
#     4  10  21  37  58  83 115 149 183 225 275 327
#     4   9  18  34  54  78 109 146 184 226 276 328
#     4   9  18  33  54  79 105 140 185 224 266 323
#     4  10  19  34  56  83 111 142 184 232 277 329
#     4  10  21  37  57  83 113 146 185 226 269 322
#
# _framework density 17.724329000000001
#
# number of rings (size 3 to 8) (size 9 to 14) (size 15 to 20)
#    0.000    2.250    1.250    1.500    0.000    4.500 
#    2.250    2.500    0.000    0.000    0.000    0.000 
#    0.000    0.000    0.000    0.000    0.000    0.000 
#
# Total GULP energy -178545.310201 kJ/mol
# GULP energy per Si atom -5579.540944 kJ/mol
# Density = 1.768399 g / cm^3
# Si number density = 17.724329 Si / 1000 Ang^3
#
#
#
# Elastic Constant Matrix: (Units=GPa)
#
#
# Indices 1 2 3 4 5 6 
#
# 1 140.1939 50.5714 70.2666 0.0000 -25.6720 0.0000
# 2 50.5714 52.8091 49.1668 0.0000 -15.7341 0.0000
# 3 70.2666 49.1668 123.9323 0.0000 -31.2135 0.0000
# 4 0.0000 0.0000 0.0000 27.4627 0.0000 -5.7769
# 5 -25.6720 -15.7341 -31.2135 0.0000 30.4615 0.0000
# 6 0.0000 0.0000 0.0000 -5.7769 0.0000 36.4908
#
#
#
# Elastic Compliance Matrix: (Units=1/GPa)
#
#
# Indices 1 2 3 4 5 6 
#
# 1 0.011986 -0.007859 -0.002906 0.000000 0.003064 0.000000
# 2 -0.007859 0.035635 -0.009049 0.000000 0.002511 0.000000
# 3 -0.002906 -0.009049 0.015517 0.000000 0.008777 0.000000
# 4 0.000000 0.000000 0.000000 0.037667 0.000000 0.005963
# 5 0.003064 0.002511 0.008777 0.000000 0.045701 0.000000
# 6 0.000000 0.000000 0.000000 0.005963 0.000000 0.028348
#
#
# Mechanical properties :
#
#
# Convention : Reuss Voigt Hill
#
# Bulk Modulus (GPa) = 42.53604 72.99386 57.76495
# Shear Modulus (GPa) = 22.49015 28.67834 25.58425
#
# Velocity S-wave (km/s) = 3.56601 4.02683 3.80340
# Velocity P-wave (km/s) = 6.40359 7.93049 7.20759
#
# Compressibility (1/GPa) = 0.02350948
#
# Stress axis : x y z
#
# Youngs Moduli (GPa) = 83.43385 28.06206 64.44538
#
# Poissons Ratio (x) = 0.22055 0.18727
# Poissons Ratio (y) = 0.65574 0.58316
# Poissons Ratio (z) = 0.24245 0.25393
#
# Static dielectric constant tensor:
#      x y z
#    x 1.586720 0.000000 0.004820 
#    y 0.000000 1.601860 0.000000 
#    z 0.004820 0.000000 1.587080 
# 
# From -- ./inp_files/71990.got.cif
#   From: 2010.05.17/outbox.cif.g08.bks.cpg/sg11_36_cif.got.tgz:71990.got - 2010.06.03 12:22:45.
