data_PCOD9159046
_publ_section_title
;
Structure prediction by ZEFSAII (Michael W. Deem and Ramdas Pophale) SiO2 
 PCOD9159046
Probable space group: P 21/M
;
_chemical_formula_sum "Si O2"
_cell_formula_units_Z 32
_cell_length_a 29.078648
_cell_length_b 8.716845
_cell_length_c 22.844804
_cell_angle_alpha 90.000000
_cell_angle_beta 18.489114
_cell_angle_gamma 90.000000
_cell_volume 1836.329994
_symmetry_space_group_name_H-M "P 21/M"
_symmetry_group_IT_number 11
_symmetry_cell_setting 'monoclinic'
loop_
_space_group_symop_operation_xyz
x,y,z
-x,1/2+y,-z
-x,-y,-z
x,1/2-y,z
loop_
_atom_site_type_symbol
_atom_site_label
_atom_site_fract_x
_atom_site_fract_y
_atom_site_fract_z
Si Si1 0.773032 0.565068 0.780181
Si Si2 0.700795 0.932756 0.207318
Si Si3 0.983772 0.064949 0.427133
Si Si4 0.847444 0.064375 0.471477
Si Si5 0.530232 0.064858 0.899019
Si Si6 0.110259 0.933684 0.818610
Si Si7 0.620679 0.434185 0.429953
Si Si8 0.010486 0.432108 0.815320
O O1 0.778659 0.750000 0.770370
O O2 0.860017 0.499768 0.619492
O O3 0.863487 0.517544 0.728378
O O4 0.605963 0.518713 0.976949
O O5 0.720617 0.750000 0.180597
O O6 0.549068 0.973074 0.358599
O O7 0.677916 0.983281 0.302376
O O8 0.843950 0.013095 0.010796
O O9 0.974808 0.250000 0.439927
O O10 0.951980 0.018472 0.399223
O O11 0.850223 0.250000 0.463097
O O12 0.685125 0.017281 0.686391
O O13 0.899153 0.993196 0.348690
O O14 0.532631 0.250000 0.900355
O O15 0.500000 0.000000 0.000000
O O16 0.094863 0.750000 0.835519
O O17 0.272303 0.970731 0.645938
O O18 0.072087 0.000418 0.801613
O O19 0.000000 0.000000 0.000000
O O20 0.628911 0.250000 0.409859
O O21 0.015211 0.250000 0.812453
#
# Coordination Sequence:
#
# PCOD9159046 Si02
#       8
#     4   4   4   4   4   4   4   4
#     4   9  17  29  50  80 108 133 169 219 270 319
#     4  10  19  34  57  83 111 144 180 226 278 330
#     4   9  17  31  51  76 105 137 173 216 267 323
#     4  10  21  37  54  74 106 148 188 228 279 336
#     4  10  19  32  53  80 109 140 178 225 274 326
#     4  11  21  36  59  87 116 147 185 231 280 334
#     4   9  19  34  56  86 114 139 178 227 277 329
#     4  12  25  39  55  79 113 153 193 234 282 338
#
# _framework density 17.426062000000002
#
# number of rings (size 3 to 8) (size 9 to 14) (size 15 to 20)
#    0.000    2.000    2.500    1.875    0.000    2.000 
#    0.000    1.250    0.000    4.500    0.000    0.000 
#    0.000    0.000    0.000    0.000    0.000    0.000 
#
# Total GULP energy -178544.746712 kJ/mol
# GULP energy per Si atom -5579.523335 kJ/mol
# Density = 1.738640 g / cm^3
# Si number density = 17.426062 Si / 1000 Ang^3
#
#
#
# Elastic Constant Matrix: (Units=GPa)
#
#
# Indices 1 2 3 4 5 6 
#
# 1 151.1558 44.3531 94.2085 0.0000 -8.3961 0.0000
# 2 44.3531 38.6793 45.1097 0.0000 -4.1293 0.0000
# 3 94.2085 45.1097 139.2580 0.0000 -8.1985 0.0000
# 4 0.0000 0.0000 0.0000 25.9162 0.0000 4.3991
# 5 -8.3961 -4.1293 -8.1985 0.0000 28.7567 0.0000
# 6 0.0000 0.0000 0.0000 4.3991 0.0000 23.3030
#
#
#
# Elastic Compliance Matrix: (Units=1/GPa)
#
#
# Indices 1 2 3 4 5 6 
#
# 1 0.012606 -0.007192 -0.006146 0.000000 0.000896 0.000000
# 2 -0.007192 0.045787 -0.009868 0.000000 0.001661 0.000000
# 3 -0.006146 -0.009868 0.014591 0.000000 0.000948 0.000000
# 4 0.000000 0.000000 0.000000 0.039863 0.000000 -0.007525
# 5 0.000896 0.001661 0.000948 0.000000 0.035545 0.000000
# 6 0.000000 0.000000 0.000000 -0.007525 0.000000 0.044333
#
#
# Mechanical properties :
#
#
# Convention : Reuss Voigt Hill
#
# Bulk Modulus (GPa) = 37.63395 77.38173 57.50784
# Shear Modulus (GPa) = 20.16163 25.28998 22.72581
#
# Velocity S-wave (km/s) = 3.40513 3.81369 3.61519
# Velocity P-wave (km/s) = 6.09124 7.99340 7.10625
#
# Compressibility (1/GPa) = 0.02657175
#
# Stress axis : x y z
#
# Youngs Moduli (GPa) = 79.32660 21.84011 68.53618
#
# Poissons Ratio (x) = 0.15708 0.42119
# Poissons Ratio (y) = 0.57055 0.67634
# Poissons Ratio (z) = 0.48750 0.21552
#
# Static dielectric constant tensor:
#      x y z
#    x 1.590840 0.000000 -0.046040 
#    y 0.000000 1.583220 0.000000 
#    z -0.046040 0.000000 1.584770 
# 
# From -- ./inp_files/67018.got.cif
#   From: 2010.05.17/outbox.cif.g08.bks.cpg/sg11_34_cif.got.tgz:67018.got - 2010.06.03 12:22:45.
