data_PCOD9159014
_publ_section_title
;
Structure prediction by ZEFSAII (Michael W. Deem and Ramdas Pophale) SiO2 
 PCOD9159014
Probable space group: P 21/M
;
_chemical_formula_sum "Si O2"
_cell_formula_units_Z 32
_cell_length_a 5.401984
_cell_length_b 21.418208
_cell_length_c 14.738314
_cell_angle_alpha 90.000000
_cell_angle_beta 116.297797
_cell_angle_gamma 90.000000
_cell_volume 1528.749060
_symmetry_space_group_name_H-M "P 21/M"
_symmetry_group_IT_number 11
_symmetry_cell_setting 'monoclinic'
loop_
_space_group_symop_operation_xyz
x,y,z
-x,1/2+y,-z
-x,-y,-z
x,1/2-y,z
loop_
_atom_site_type_symbol
_atom_site_label
_atom_site_fract_x
_atom_site_fract_y
_atom_site_fract_z
Si Si1 0.862636 0.096217 0.736100
Si Si2 0.306949 0.937110 0.093406
Si Si3 0.480099 0.424822 0.516561
Si Si4 0.016770 0.603358 0.869338
Si Si5 0.568249 0.677758 0.901249
Si Si6 0.222208 0.514360 0.763022
Si Si7 0.116132 0.564780 0.562596
Si Si8 0.290723 0.179971 0.872650
O O1 0.838058 0.068214 0.833083
O O2 0.584360 0.092129 0.633944
O O3 0.010037 0.162150 0.775388
O O4 0.070691 0.050528 0.716586
O O5 0.491432 0.873943 0.116144
O O6 0.513988 0.996010 0.133606
O O7 0.114896 0.935120 0.974538
O O8 0.500000 0.500000 0.500000
O O9 0.698551 0.399358 0.479342
O O10 0.168024 0.403080 0.453693
O O11 0.272579 0.648345 0.880756
O O12 0.007869 0.556104 0.784278
O O13 0.744559 0.640291 0.855420
O O14 0.535528 0.750000 0.870298
O O15 0.743484 0.675825 0.023874
O O16 0.289070 0.547051 0.679599
O O17 0.000000 0.500000 0.500000
O O18 0.386844 0.250000 0.867653
#
# Coordination Sequence:
#
# PCOD9159014 Si02
#       8
#     4   4   4   4   4   4   4   4
#     4  11  20  33  56  80 115 154 183 234 290 343
#     4  10  21  35  50  80 120 159 178 227 285 345
#     4  10  19  32  53  77 109 141 186 221 275 330
#     4  11  23  37  55  88 114 153 191 225 286 343
#     4  10  21  41  60  79 111 150 196 244 278 325
#     4  11  23  33  55  81 123 149 187 229 283 353
#     4  10  19  35  51  76 109 147 186 227 266 326
#     4   9  20  36  54  79 109 150 198 238 278 334
#
# _framework density 20.932148000000002
#
# number of rings (size 3 to 8) (size 9 to 14) (size 15 to 20)
#    0.000    1.750    3.750    2.250    3.500    1.500 
#    0.000    0.000    0.000    0.000    0.000    5.250 
#    0.000    0.000    0.000    0.000    0.000    0.000 
#
# Total GULP energy -178620.065512 kJ/mol
# GULP energy per Si atom -5581.877047 kJ/mol
# Density = 2.088451 g / cm^3
# Si number density = 20.932148 Si / 1000 Ang^3
#
#
#
# Elastic Constant Matrix: (Units=GPa)
#
#
# Indices 1 2 3 4 5 6 
#
# 1 103.5867 13.9980 5.6558 0.0000 -12.8896 0.0000
# 2 13.9980 61.2182 16.6740 0.0000 -0.5827 0.0000
# 3 5.6558 16.6740 58.4219 0.0000 -12.2260 0.0000
# 4 0.0000 0.0000 0.0000 13.7505 0.0000 -2.2835
# 5 -12.8896 -0.5827 -12.2260 0.0000 27.6769 0.0000
# 6 0.0000 0.0000 0.0000 -2.2835 0.0000 20.6144
#
#
#
# Elastic Compliance Matrix: (Units=1/GPa)
#
#
# Indices 1 2 3 4 5 6 
#
# 1 0.010613 -0.002598 0.000812 0.000000 0.005247 0.000000
# 2 -0.002598 0.018454 -0.005716 0.000000 -0.003346 0.000000
# 3 0.000812 -0.005716 0.020631 0.000000 0.009371 0.000000
# 4 0.000000 0.000000 0.000000 0.074088 0.000000 0.008207
# 5 0.005247 -0.003346 0.009371 0.000000 0.042644 0.000000
# 6 0.000000 0.000000 0.000000 0.008207 0.000000 0.049419
#
#
# Mechanical properties :
#
#
# Convention : Reuss Voigt Hill
#
# Bulk Modulus (GPa) = 28.82284 32.87580 30.84932
# Shear Modulus (GPa) = 20.62565 24.86830 22.74698
#
# Velocity S-wave (km/s) = 3.14245 3.45054 3.30009
# Velocity P-wave (km/s) = 5.19290 5.62272 5.41208
#
# Compressibility (1/GPa) = 0.03469471
#
# Stress axis : x y z
#
# Youngs Moduli (GPa) = 94.22070 54.18885 48.47157
#
# Poissons Ratio (x) = 0.14079 -0.03936
# Poissons Ratio (y) = 0.24479 0.27705
# Poissons Ratio (z) = -0.07651 0.30972
#
# Static dielectric constant tensor:
#      x y z
#    x 1.768340 0.000000 -0.017840 
#    y 0.000000 1.748620 0.000000 
#    z -0.017840 0.000000 1.759400 
# 
# From -- ./inp_files/30194.got.cif
#   From: 2010.05.17/outbox.cif.g08.bks.cpg/sg11_16_cif.got.tgz:30194.got - 2010.06.03 12:22:45.
