data_PCOD9159611
_publ_section_title
;
Structure prediction by ZEFSAII (Michael W. Deem and Ramdas Pophale) SiO2 
 PCOD9159611
Probable space group: P 21/M
;
_chemical_formula_sum "Si O2"
_cell_formula_units_Z 32
_cell_length_a 21.837344
_cell_length_b 13.321201
_cell_length_c 12.030632
_cell_angle_alpha 90.000000
_cell_angle_beta 29.145744
_cell_angle_gamma 90.000000
_cell_volume 1704.472023
_symmetry_space_group_name_H-M "P 21/M"
_symmetry_group_IT_number 11
_symmetry_cell_setting 'monoclinic'
loop_
_space_group_symop_operation_xyz
x,y,z
-x,1/2+y,-z
-x,-y,-z
x,1/2-y,z
loop_
_atom_site_type_symbol
_atom_site_label
_atom_site_fract_x
_atom_site_fract_y
_atom_site_fract_z
Si Si1 0.862204 0.475579 0.765336
Si Si2 0.560553 0.635633 0.038356
Si Si3 0.782332 0.005561 0.652966
Si Si4 0.976320 0.133710 0.773518
Si Si5 0.268895 0.634434 0.465133
Si Si6 0.520157 0.367655 0.581448
Si Si7 0.266921 0.130727 0.862010
Si Si8 0.776190 0.028797 0.235760
O O1 0.782261 0.459534 0.781270
O O2 0.883750 0.383597 0.814633
O O3 0.000000 0.500000 0.500000
O O4 0.809368 0.567162 0.923999
O O5 0.608422 0.750000 0.951502
O O6 0.420063 0.631931 0.213536
O O7 0.544458 0.614686 0.195820
O O8 0.655460 0.557361 0.835152
O O9 0.898082 0.929575 0.449383
O O10 0.791712 0.096548 0.552352
O O11 0.002423 0.250000 0.749402
O O12 0.900171 0.083746 0.994772
O O13 0.235843 0.750000 0.546979
O O14 0.236437 0.556941 0.615393
O O15 0.551336 0.250000 0.528351
O O16 0.414749 0.387226 0.655809
O O17 0.651825 0.424622 0.373777
O O18 0.244798 0.250000 0.905880
O O19 0.226812 0.084371 0.806745
#
# Coordination Sequence:
#
# PCOD9159611 Si02
#       8
#     4   4   4   4   4   4   4   4
#     4   9  20  34  52  82 115 143 177 224 285 332
#     4   9  17  32  56  84 110 143 185 228 279 335
#     4  11  20  35  57  83 109 144 189 234 275 333
#     4  10  21  36  56  80 108 144 182 230 283 336
#     4  10  22  38  58  80 110 151 188 230 282 336
#     4   9  16  29  56  84 108 146 187 229 280 333
#     4  10  19  33  56  84 112 146 189 235 280 329
#     4  10  20  37  54  78 113 148 188 228 275 331
#
# _framework density 18.774142999999999
#
# number of rings (size 3 to 8) (size 9 to 14) (size 15 to 20)
#    0.000    2.250    1.250    3.000    0.000    3.000 
#    0.000    6.250    0.000    3.000    0.000    0.000 
#    0.000    0.000    0.000    0.000    0.000    0.000 
#
# Total GULP energy -178343.536310 kJ/mol
# GULP energy per Si atom -5573.235510 kJ/mol
# Density = 1.873141 g / cm^3
# Si number density = 18.774143 Si / 1000 Ang^3
#
#
#
# Elastic Constant Matrix: (Units=GPa)
#
#
# Indices 1 2 3 4 5 6 
#
# 1 56.8473 30.0343 -3.4905 0.0000 16.0151 0.0000
# 2 30.0343 52.1584 5.9989 0.0000 4.8864 0.0000
# 3 -3.4905 5.9989 38.9922 0.0000 5.3694 0.0000
# 4 0.0000 0.0000 0.0000 20.6666 0.0000 -2.8091
# 5 16.0151 4.8864 5.3694 0.0000 14.3460 0.0000
# 6 0.0000 0.0000 0.0000 -2.8091 0.0000 20.4346
#
#
#
# Elastic Compliance Matrix: (Units=1/GPa)
#
#
# Indices 1 2 3 4 5 6 
#
# 1 0.042762 -0.021925 0.013439 0.000000 -0.045299 0.000000
# 2 -0.021925 0.031232 -0.009145 0.000000 0.017261 0.000000
# 3 0.013439 -0.009145 0.031517 0.000000 -0.023684 0.000000
# 4 0.000000 0.000000 0.000000 0.049309 0.000000 0.006778
# 5 -0.045299 0.017261 -0.023684 0.000000 0.123260 0.000000
# 6 0.000000 0.000000 0.000000 0.006778 0.000000 0.049868
#
#
# Mechanical properties :
#
#
# Convention : Reuss Voigt Hill
#
# Bulk Modulus (GPa) = 14.23503 23.67592 18.95548
# Shear Modulus (GPa) = 12.93235 18.78643 15.85939
#
# Velocity S-wave (km/s) = 2.62742 3.16674 2.90961
# Velocity P-wave (km/s) = 4.09917 5.09993 4.62669
#
# Compressibility (1/GPa) = 0.07024924
#
# Stress axis : x y z
#
# Youngs Moduli (GPa) = 23.38546 32.01814 31.72848
#
# Poissons Ratio (x) = 0.70201 -0.42640
# Poissons Ratio (y) = 0.51273 0.29014
# Poissons Ratio (z) = -0.31427 0.29279
#
# Static dielectric constant tensor:
#      x y z
#    x 1.694100 0.000000 0.001150 
#    y 0.000000 1.636980 0.000000 
#    z 0.001150 0.000000 1.653090 
# 
# From -- ./inp_files/35084.got.cif
#   From: 2010.05.17/outbox.cif.g08.bks.cpg/sg11_18_cif.got.tgz:35084.got - 2010.06.03 12:22:45.
