data_PCOD9159083
_publ_section_title
;
Structure prediction by ZEFSAII (Michael W. Deem and Ramdas Pophale) SiO2 
 PCOD9159083
Probable space group: P 21/M
;
_chemical_formula_sum "Si O2"
_cell_formula_units_Z 32
_cell_length_a 19.290881
_cell_length_b 10.134391
_cell_length_c 23.964252
_cell_angle_alpha 90.000000
_cell_angle_beta 159.125669
_cell_angle_gamma 90.000000
_cell_volume 1669.371916
_symmetry_space_group_name_H-M "P 21/M"
_symmetry_group_IT_number 11
_symmetry_cell_setting 'monoclinic'
loop_
_space_group_symop_operation_xyz
x,y,z
-x,1/2+y,-z
-x,-y,-z
x,1/2-y,z
loop_
_atom_site_type_symbol
_atom_site_label
_atom_site_fract_x
_atom_site_fract_y
_atom_site_fract_z
Si Si1 0.153247 0.399316 0.436885
Si Si2 0.568925 0.401245 0.694384
Si Si3 0.344883 0.397332 0.055133
Si Si4 0.848664 0.908471 0.850947
Si Si5 0.796110 0.896817 0.289358
Si Si6 0.798063 0.907942 0.170668
Si Si7 0.853685 0.398223 0.016378
Si Si8 0.767709 0.023552 0.388489
O O1 0.080721 0.250000 0.374089
O O2 0.346154 0.417947 0.545077
O O3 0.211296 0.418321 0.545778
O O4 0.991269 0.508659 0.302893
O O5 0.596687 0.250000 0.693802
O O6 0.648255 0.515823 0.713417
O O7 0.698224 0.408336 0.848425
O O8 0.268362 0.250000 0.005331
O O9 0.344003 0.425441 0.988323
O O10 0.208170 0.498445 0.984220
O O11 0.563119 0.405000 0.242900
O O12 0.849096 0.750000 0.865837
O O13 0.936205 0.916767 0.854487
O O14 0.000000 0.000000 0.000000
O O15 0.717334 0.750000 0.235355
O O16 0.726517 0.954394 0.177855
O O17 0.031573 0.895815 0.458943
O O18 0.759060 0.967439 0.319507
O O19 0.836877 0.750000 0.204780
O O20 0.841727 0.250000 0.029882
#
# Coordination Sequence:
#
# PCOD9159083 Si02
#       8
#     4   4   4   4   4   4   4   4
#     4  10  19  34  54  79 107 137 176 220 264 312
#     4   9  17  30  49  76 107 135 169 217 262 308
#     4  11  22  35  53  78 108 141 177 218 261 311
#     4   9  17  29  45  72 107 139 170 210 260 310
#     4   9  18  34  53  73 102 139 172 213 265 312
#     4   9  21  38  52  74 108 141 177 218 262 314
#     4   9  18  32  49  74 108 138 170 216 259 306
#     4  10  19  32  54  80 104 132 176 218 262 314
#
# _framework density 19.168886000000001
#
# number of rings (size 3 to 8) (size 9 to 14) (size 15 to 20)
#    0.000    2.500    1.250    1.875    0.000    5.000 
#    0.000    0.625    0.000    0.750    0.000    0.000 
#    0.000    0.000    0.000    0.000    0.000    0.000 
#
# Total GULP energy -178180.110270 kJ/mol
# GULP energy per Si atom -5568.128446 kJ/mol
# Density = 1.912526 g / cm^3
# Si number density = 19.168886 Si / 1000 Ang^3
#
#
#
# Elastic Constant Matrix: (Units=GPa)
#
#
# Indices 1 2 3 4 5 6 
#
# 1 56.0534 35.8255 10.0082 0.0000 6.5844 0.0000
# 2 35.8255 71.5264 18.2370 0.0000 5.2751 0.0000
# 3 10.0082 18.2370 46.6809 0.0000 1.7165 0.0000
# 4 0.0000 0.0000 0.0000 5.7791 0.0000 -11.3143
# 5 6.5844 5.2751 1.7165 0.0000 21.2989 0.0000
# 6 0.0000 0.0000 0.0000 -11.3143 0.0000 15.1912
#
#
#
# Elastic Compliance Matrix: (Units=1/GPa)
#
#
# Indices 1 2 3 4 5 6 
#
# 1 0.026773 -0.012908 -0.000512 0.000000 -0.005039 0.000000
# 2 -0.012908 0.021995 -0.005789 0.000000 -0.000991 0.000000
# 3 -0.000512 -0.005789 0.023805 0.000000 -0.000326 0.000000
# 4 0.000000 0.000000 0.000000 -0.377683 0.000000 -0.281296
# 5 -0.005039 -0.000991 -0.000326 0.000000 0.048780 0.000000
# 6 0.000000 0.000000 0.000000 -0.281296 0.000000 -0.143681
#
#
# Mechanical properties :
#
#
# Convention : Reuss Voigt Hill
#
# Bulk Modulus (GPa) = 29.27750 33.60021 31.43886
# Shear Modulus (GPa) = -14.27730 15.79985 0.76128
#
# Velocity S-wave (km/s) = -2.73209 2.87408 0.63088
# Velocity P-wave (km/s) = 2.31391 5.34606 4.11913
#
# Compressibility (1/GPa) = 0.03415592
#
# Stress axis : x y z
#
# Youngs Moduli (GPa) = 37.35081 45.46478 42.00712
#
# Poissons Ratio (x) = 0.58685 0.02151
# Poissons Ratio (y) = 0.48211 0.24318
# Poissons Ratio (z) = 0.01913 0.26320
#
# Static dielectric constant tensor:
#      x y z
#    x 1.682550 0.000000 0.002240 
#    y 0.000000 1.669320 0.000000 
#    z 0.002240 0.000000 1.680960 
# 
# From -- ./inp_files/72173.got.cif
#   From: 2010.05.17/outbox.cif.g08.bks.cpg/sg11_37_cif.got.tgz:72173.got - 2010.06.03 12:22:45.
