data_PCOD9159108
_publ_section_title
;
Structure prediction by ZEFSAII (Michael W. Deem and Ramdas Pophale) SiO2 
 PCOD9159108
Probable space group: P 21/M
;
_chemical_formula_sum "Si O2"
_cell_formula_units_Z 28
_cell_length_a 22.377310
_cell_length_b 8.698393
_cell_length_c 15.294333
_cell_angle_alpha 90.000000
_cell_angle_beta 146.496158
_cell_angle_gamma 90.000000
_cell_volume 1643.277610
_symmetry_space_group_name_H-M "P 21/M"
_symmetry_group_IT_number 11
_symmetry_cell_setting 'monoclinic'
loop_
_space_group_symop_operation_xyz
x,y,z
-x,1/2+y,-z
-x,-y,-z
x,1/2-y,z
loop_
_atom_site_type_symbol
_atom_site_label
_atom_site_fract_x
_atom_site_fract_y
_atom_site_fract_z
Si Si1 0.658965 0.567493 0.756995
Si Si2 0.369678 0.067007 0.978333
Si Si3 0.786135 0.067789 0.063604
Si Si4 0.248772 0.567174 0.661779
Si Si5 0.395166 0.066323 0.691905
Si Si6 0.570078 0.565656 0.464382
Si Si7 0.981586 0.933941 0.574527
O O1 0.673242 0.750000 0.782860
O O2 0.647667 0.527931 0.640643
O O3 0.543475 0.519179 0.657746
O O4 0.750320 0.481784 0.923417
O O5 0.383076 0.250000 0.992686
O O6 0.291300 0.019114 0.962326
O O7 0.314133 0.009329 0.821682
O O8 0.485685 0.987741 0.133061
O O9 0.768789 0.250000 0.054239
O O10 0.910300 0.033258 0.238190
O O11 0.251987 0.750000 0.676218
O O12 0.306988 0.516163 0.644004
O O13 0.125969 0.508409 0.517491
O O14 0.386450 0.250000 0.692179
O O15 0.385527 0.029383 0.577183
O O16 0.549115 0.750000 0.442160
O O17 0.967851 0.750000 0.552421
O O18 0.000000 0.000000 0.500000
#
# Coordination Sequence:
#
# PCOD9159108 Si02
#       7
#     4   4   4   4   4   4   4
#     4  10  19  32  54  84 113 145 184 227 277 333
#     4  12  23  36  56  83 114 149 189 228 276 333
#     4  11  22  36  56  83 115 148 182 229 282 331
#     4  12  25  40  57  80 113 150 191 232 279 334
#     4  11  22  38  58  81 115 152 188 229 279 333
#     4   9  19  34  54  80 113 148 183 227 278 330
#     4  11  23  39  60  82 109 146 191 234 279 327
#
# _framework density 17.039117999999998
#
# number of rings (size 3 to 8) (size 9 to 14) (size 15 to 20)
#    0.000    1.143    2.857    4.714    0.000    2.857 
#    0.000    0.000    0.000    0.857    0.000    0.000 
#    0.000    0.000    0.000    0.000    0.000    0.000 
#
# Total GULP energy -156510.502232 kJ/mol
# GULP energy per Si atom -5589.660794 kJ/mol
# Density = 1.700034 g / cm^3
# Si number density = 17.039118 Si / 1000 Ang^3
#
#
#
# Elastic Constant Matrix: (Units=GPa)
#
#
# Indices 1 2 3 4 5 6 
#
# 1 81.6205 18.2207 52.5201 0.0000 4.2069 0.0000
# 2 18.2207 38.0670 22.0346 0.0000 -7.9295 0.0000
# 3 52.5201 22.0346 96.5937 0.0000 -16.0302 0.0000
# 4 0.0000 0.0000 0.0000 27.1452 0.0000 -0.3234
# 5 4.2069 -7.9295 -16.0302 0.0000 25.8246 0.0000
# 6 0.0000 0.0000 0.0000 -0.3234 0.0000 27.2668
#
#
#
# Elastic Compliance Matrix: (Units=1/GPa)
#
#
# Indices 1 2 3 4 5 6 
#
# 1 0.022963 -0.006140 -0.013399 0.000000 -0.013943 0.000000
# 2 -0.006140 0.032647 -0.002541 0.000000 0.009447 0.000000
# 3 -0.013399 -0.002541 0.020569 0.000000 0.014170 0.000000
# 4 0.000000 0.000000 0.000000 0.036844 0.000000 0.000437
# 5 -0.013943 0.009447 0.014170 0.000000 0.052691 0.000000
# 6 0.000000 0.000000 0.000000 0.000437 0.000000 0.036680
#
#
# Mechanical properties :
#
#
# Convention : Reuss Voigt Hill
#
# Bulk Modulus (GPa) = 31.23083 44.64802 37.93943
# Shear Modulus (GPa) = 19.43818 24.28105 21.85961
#
# Velocity S-wave (km/s) = 3.38123 3.77904 3.58566
# Velocity P-wave (km/s) = 5.79762 6.73065 6.28148
#
# Compressibility (1/GPa) = 0.03201964
#
# Stress axis : x y z
#
# Youngs Moduli (GPa) = 43.54901 30.63063 48.61670
#
# Poissons Ratio (x) = 0.18806 0.65140
# Poissons Ratio (y) = 0.26738 0.12355
# Poissons Ratio (z) = 0.58350 0.07784
#
# Static dielectric constant tensor:
#      x y z
#    x 1.560420 0.000000 -0.022100 
#    y 0.000000 1.570590 0.000000 
#    z -0.022100 0.000000 1.565720 
# 
# From -- ./inp_files/54585.got.cif
#   From: 2010.05.17/outbox.cif.g08.bks.cpg/sg11_28_cif.got.tgz:54585.got - 2010.06.03 12:22:45.
