data_PCOD9159044
_publ_section_title
;
Structure prediction by ZEFSAII (Michael W. Deem and Ramdas Pophale) SiO2 
 PCOD9159044
Probable space group: P 21/M
;
_chemical_formula_sum "Si O2"
_cell_formula_units_Z 28
_cell_length_a 15.495793
_cell_length_b 8.876093
_cell_length_c 12.646233
_cell_angle_alpha 90.000000
_cell_angle_beta 74.028667
_cell_angle_gamma 90.000000
_cell_volume 1672.248115
_symmetry_space_group_name_H-M "P 21/M"
_symmetry_group_IT_number 11
_symmetry_cell_setting 'monoclinic'
loop_
_space_group_symop_operation_xyz
x,y,z
-x,1/2+y,-z
-x,-y,-z
x,1/2-y,z
loop_
_atom_site_type_symbol
_atom_site_label
_atom_site_fract_x
_atom_site_fract_y
_atom_site_fract_z
Si Si1 0.580616 0.568996 0.269961
Si Si2 0.726178 0.569329 0.392499
Si Si3 0.094887 0.930934 0.347566
Si Si4 0.610947 0.569691 0.639793
Si Si5 0.409529 0.430244 0.981444
Si Si6 0.287036 0.930945 0.194213
Si Si7 0.094034 0.570233 0.595165
O O1 0.568160 0.750000 0.284598
O O2 0.665416 0.525713 0.312981
O O3 0.490365 0.487884 0.338559
O O4 0.594521 0.534918 0.141638
O O5 0.737541 0.750000 0.387145
O O6 0.670106 0.530697 0.517254
O O7 0.823012 0.493753 0.367182
O O8 0.085303 0.750000 0.347582
O O9 0.183946 0.972463 0.253264
O O10 0.108051 0.974380 0.466658
O O11 0.002822 0.005557 0.340690
O O12 0.611984 0.750000 0.652834
O O13 0.653637 0.491890 0.728268
O O14 0.412102 0.250000 0.993128
O O15 0.500000 0.500000 0.000000
O O16 0.327075 0.498185 0.074797
O O17 0.294248 0.750000 0.188518
O O18 0.092887 0.750000 0.600650
#
# Coordination Sequence:
#
# PCOD9159044 Si02
#       7
#     4   4   4   4   4   4   4
#     4  10  22  38  54  73 106 147 181 218 264 316
#     4  10  21  36  53  77 109 145 178 213 265 321
#     4   9  19  34  52  77 107 140 173 212 267 320
#     4  11  21  32  52  80 108 140 178 218 260 315
#     4  11  22  36  55  78 105 140 183 225 266 308
#     4  11  21  35  55  78 109 142 175 218 268 315
#     4  10  19  32  53  80 108 138 172 215 264 316
#
# _framework density 16.743926999999999
#
# number of rings (size 3 to 8) (size 9 to 14) (size 15 to 20)
#    0.000    1.714    2.857    2.143    0.000    3.429 
#    0.000    0.000    0.000    0.857    0.000    0.000 
#    0.000    0.000    0.000    0.000    0.000    0.000 
#
# Total GULP energy -156370.967579 kJ/mol
# GULP energy per Si atom -5584.677414 kJ/mol
# Density = 1.670582 g / cm^3
# Si number density = 16.743927 Si / 1000 Ang^3
#
#
#
# Elastic Constant Matrix: (Units=GPa)
#
#
# Indices 1 2 3 4 5 6 
#
# 1 152.6884 41.5091 43.0451 0.0000 -9.1275 0.0000
# 2 41.5091 29.4334 23.5983 0.0000 -2.3633 0.0000
# 3 43.0451 23.5983 48.4589 0.0000 -5.2092 0.0000
# 4 0.0000 0.0000 0.0000 22.3300 0.0000 -4.8212
# 5 -9.1275 -2.3633 -5.2092 0.0000 28.3657 0.0000
# 6 0.0000 0.0000 0.0000 -4.8212 0.0000 29.4195
#
#
#
# Elastic Compliance Matrix: (Units=1/GPa)
#
#
# Indices 1 2 3 4 5 6 
#
# 1 0.011095 -0.012725 -0.003458 0.000000 0.001875 0.000000
# 2 -0.012725 0.070334 -0.023216 0.000000 -0.002498 0.000000
# 3 -0.003458 -0.023216 0.035384 0.000000 0.003451 0.000000
# 4 0.000000 0.000000 0.000000 0.046425 0.000000 0.007608
# 5 0.001875 -0.002498 0.003451 0.000000 0.036283 0.000000
# 6 0.000000 0.000000 0.000000 0.007608 0.000000 0.035238
#
#
# Mechanical properties :
#
#
# Convention : Reuss Voigt Hill
#
# Bulk Modulus (GPa) = 26.30469 49.65396 37.97933
# Shear Modulus (GPa) = 15.32671 24.18493 19.75582
#
# Velocity S-wave (km/s) = 3.02877 3.80465 3.43866
# Velocity P-wave (km/s) = 5.28918 7.00141 6.20464
#
# Compressibility (1/GPa) = 0.03801604
#
# Stress axis : x y z
#
# Youngs Moduli (GPa) = 90.12694 14.21797 28.26146
#
# Poissons Ratio (x) = 0.18092 0.09772
# Poissons Ratio (y) = 1.14686 0.65611
# Poissons Ratio (z) = 0.31162 0.33008
#
# Static dielectric constant tensor:
#      x y z
#    x 1.546140 0.000000 -0.003440 
#    y 0.000000 1.559330 0.000000 
#    z -0.003440 0.000000 1.552560 
# 
# From -- ./inp_files/37485.got.cif
#   From: 2010.05.17/outbox.cif.g08.bks.cpg/sg11_19_cif.got.tgz:37485.got - 2010.06.03 12:22:45.
