data_PCOD9159190
_publ_section_title
;
Structure prediction by ZEFSAII (Michael W. Deem and Ramdas Pophale) SiO2 
 PCOD9159190
Probable space group: P 21/M
;
_chemical_formula_sum "Si O2"
_cell_formula_units_Z 24
_cell_length_a 11.872070
_cell_length_b 17.518378
_cell_length_c 5.596746
_cell_angle_alpha 90.000000
_cell_angle_beta 119.815327
_cell_angle_gamma 90.000000
_cell_volume 1009.931086
_symmetry_space_group_name_H-M "P 21/M"
_symmetry_group_IT_number 11
_symmetry_cell_setting 'monoclinic'
loop_
_space_group_symop_operation_xyz
x,y,z
-x,1/2+y,-z
-x,-y,-z
x,1/2-y,z
loop_
_atom_site_type_symbol
_atom_site_label
_atom_site_fract_x
_atom_site_fract_y
_atom_site_fract_z
Si Si1 0.332020 0.250000 0.197150
Si Si2 0.455271 0.883553 0.587435
Si Si3 0.339357 0.250000 0.704508
Si Si4 0.823384 0.984600 0.470389
Si Si5 0.929630 0.381124 0.320252
Si Si6 0.459051 0.085314 0.819437
Si Si7 0.160422 0.636787 0.277551
O O1 0.426967 0.323235 0.297337
O O2 0.259923 0.250000 0.373887
O O3 0.260485 0.250000 0.868472
O O4 0.460557 0.926313 0.338580
O O5 0.313374 0.846601 0.458289
O O6 0.478463 0.931134 0.855487
O O7 0.433593 0.177103 0.803624
O O8 0.685297 0.946998 0.353163
O O9 0.929503 0.919197 0.552091
O O10 0.835030 0.044633 0.263220
O O11 0.852434 0.043611 0.716398
O O12 0.910226 0.338231 0.552331
O O13 0.893010 0.340653 0.036016
#
# Coordination Sequence:
#
# PCOD9159190 Si02
#       7
#     2   4   2   4   4   4   4
#     4   8  16  32  48  64  94 128 158 182 230 290
#     4  10  20  32  49  74  98 125 154 196 241 284
#     4   8  16  32  46  68  92 122 160 188 226 288
#     4   9  21  32  52  68  97 128 163 191 234 281
#     4   9  20  34  49  68  93 131 164 187 228 281
#     4  10  20  31  51  72  97 125 154 195 243 278
#     4  10  19  33  49  70  98 125 159 193 232 280
#
# _framework density 23.763998000000001
#
# number of rings (size 3 to 8) (size 9 to 14) (size 15 to 20)
#    1.000    1.667    0.000    1.500    2.333    1.333 
#    0.000    0.000    0.000    2.000    0.000    0.000 
#    0.000    0.000    0.000    0.000    0.000    0.000 
#
# Total GULP energy -133808.799489 kJ/mol
# GULP energy per Si atom -5575.366645 kJ/mol
# Density = 2.370991 g / cm^3
# Si number density = 23.763998 Si / 1000 Ang^3
#
#
#
# Elastic Constant Matrix: (Units=GPa)
#
#
# Indices 1 2 3 4 5 6 
#
# 1 99.7103 23.2843 51.7612 0.0000 -21.2084 0.0000
# 2 23.2843 58.4205 14.4793 0.0000 0.5445 0.0000
# 3 51.7612 14.4793 156.4338 0.0000 -74.0403 0.0000
# 4 0.0000 0.0000 0.0000 -4.9268 0.0000 -3.3077
# 5 -21.2084 0.5445 -74.0403 0.0000 47.9091 0.0000
# 6 0.0000 0.0000 0.0000 -3.3077 0.0000 -8.1508
#
#
#
# Elastic Compliance Matrix: (Units=1/GPa)
#
#
# Indices 1 2 3 4 5 6 
#
# 1 0.013068 -0.004107 -0.004408 0.000000 -0.000981 0.000000
# 2 -0.004107 0.020220 -0.005518 0.000000 -0.010576 0.000000
# 3 -0.004408 -0.005518 0.027809 0.000000 0.041088 0.000000
# 4 0.000000 0.000000 0.000000 -0.278977 0.000000 0.113211
# 5 -0.000981 -0.010576 0.041088 0.000000 0.084057 0.000000
# 6 0.000000 0.000000 0.000000 0.113211 0.000000 -0.168628
#
#
# Mechanical properties :
#
#
# Convention : Reuss Voigt Hill
#
# Bulk Modulus (GPa) = 30.27487 54.84603 42.56045
# Shear Modulus (GPa) = -18.98430 21.96895 1.49232
#
# Velocity S-wave (km/s) = -2.82949 3.04380 0.79331
# Velocity P-wave (km/s) = 1.44664 5.95672 4.33447
#
# Compressibility (1/GPa) = 0.03303070
#
# Stress axis : x y z
#
# Youngs Moduli (GPa) = 76.52467 49.45517 35.96017
#
# Poissons Ratio (x) = 0.20310 0.15851
# Poissons Ratio (y) = 0.31426 0.19844
# Poissons Ratio (z) = 0.33731 0.27291
#
# Static dielectric constant tensor:
#      x y z
#    x 1.854480 0.000000 -0.090270 
#    y 0.000000 2.009320 0.000000 
#    z -0.090270 0.000000 1.937350 
# 
# From -- ./inp_files/5292.got.cif
#   From: 2010.05.17/outbox.cif.g08.bks.cpg/sg11_3_cif.got.tgz:5292.got - 2010.06.03 12:22:45.
