data_PCOD9159982
_publ_section_title
;
Structure prediction by ZEFSAII (Michael W. Deem and Ramdas Pophale) SiO2 
 PCOD9159982
Probable space group: P 21/M
;
_chemical_formula_sum "Si O2"
_cell_formula_units_Z 32
_cell_length_a 10.495885
_cell_length_b 11.544891
_cell_length_c 23.701019
_cell_angle_alpha 90.000000
_cell_angle_beta 140.352128
_cell_angle_gamma 90.000000
_cell_volume 1832.494066
_symmetry_space_group_name_H-M "P 21/M"
_symmetry_group_IT_number 11
_symmetry_cell_setting 'monoclinic'
loop_
_space_group_symop_operation_xyz
x,y,z
-x,1/2+y,-z
-x,-y,-z
x,1/2-y,z
loop_
_atom_site_type_symbol
_atom_site_label
_atom_site_fract_x
_atom_site_fract_y
_atom_site_fract_z
Si Si1 0.458470 0.883611 0.651941
Si Si2 0.183639 0.882460 0.768505
Si Si3 0.969188 0.121180 0.522790
Si Si4 0.678970 0.535868 0.287744
Si Si5 0.080947 0.027810 0.935964
Si Si6 0.260136 0.882544 0.099417
Si Si7 0.900378 0.610554 0.770320
Si Si8 0.466375 0.377521 0.020665
O O1 0.483915 0.750000 0.679638
O O2 0.666728 0.919233 0.695042
O O3 0.267521 0.885298 0.545140
O O4 0.404242 0.961033 0.687648
O O5 0.136905 0.750000 0.737036
O O6 0.380764 0.881409 0.874952
O O7 0.008490 0.928202 0.749729
O O8 0.228008 0.954100 0.728181
O O9 0.992500 0.250000 0.502527
O O10 0.139563 0.114383 0.628027
O O11 0.000000 0.000000 0.500000
O O12 0.487514 0.598825 0.196039
O O13 0.888193 0.082275 0.900305
O O14 0.239052 0.117082 0.964252
O O15 0.009579 0.944264 0.861447
O O16 0.200377 0.959731 0.025487
O O17 0.224544 0.750000 0.072445
O O18 0.922220 0.750000 0.779888
O O19 0.501490 0.250000 0.004329
O O20 0.500000 0.500000 0.000000
#
# Coordination Sequence:
#
# PCOD9159982 Si02
#       8
#     4   4   4   4   4   4   4   4
#     4   9  18  34  57  82 105 141 186 227 277 336
#     4  10  21  35  53  81 115 149 188 231 278 335
#     4   9  19  35  59  86 114 143 183 233 284 342
#     4  11  19  35  54  83 111 146 178 233 284 334
#     4  11  21  37  51  75 109 148 192 228 284 325
#     4  11  23  34  50  78 110 144 186 234 284 332
#     4  10  19  34  57  80 110 149 192 233 274 334
#     4  11  22  37  56  78 109 150 194 236 276 327
#
# _framework density 17.462539
#
# number of rings (size 3 to 8) (size 9 to 14) (size 15 to 20)
#    0.000    1.750    3.750    1.500    0.000    1.000 
#    0.000    0.625    0.000    0.000    0.000    0.000 
#    0.000    0.000    0.000    0.000    0.000    0.000 
#
# Total GULP energy -178199.535067 kJ/mol
# GULP energy per Si atom -5568.735471 kJ/mol
# Density = 1.742279 g / cm^3
# Si number density = 17.462539 Si / 1000 Ang^3
#
#
#
# Elastic Constant Matrix: (Units=GPa)
#
#
# Indices 1 2 3 4 5 6 
#
# 1 103.6142 28.9748 32.6481 0.0000 18.0083 0.0000
# 2 28.9748 87.8211 20.2846 0.0000 -0.1594 0.0000
# 3 32.6481 20.2846 76.5108 0.0000 26.0399 0.0000
# 4 0.0000 0.0000 0.0000 25.0860 0.0000 -0.9255
# 5 18.0083 -0.1594 26.0399 0.0000 21.7218 0.0000
# 6 0.0000 0.0000 0.0000 -0.9255 0.0000 20.3332
#
#
#
# Elastic Compliance Matrix: (Units=1/GPa)
#
#
# Indices 1 2 3 4 5 6 
#
# 1 0.012725 -0.003905 -0.001342 0.000000 -0.008969 0.000000
# 2 -0.003905 0.013927 -0.005342 0.000000 0.009744 0.000000
# 3 -0.001342 -0.005342 0.024821 0.000000 -0.028681 0.000000
# 4 0.000000 0.000000 0.000000 0.039930 0.000000 0.001818
# 5 -0.008969 0.009744 -0.028681 0.000000 0.087927 0.000000
# 6 0.000000 0.000000 0.000000 0.001818 0.000000 0.049263
#
#
# Mechanical properties :
#
#
# Convention : Reuss Voigt Hill
#
# Bulk Modulus (GPa) = 33.00951 47.97345 40.49148
# Shear Modulus (GPa) = 19.24052 25.83076 22.53564
#
# Velocity S-wave (km/s) = 3.32296 3.85022 3.59627
# Velocity P-wave (km/s) = 5.80231 6.87732 6.36256
#
# Compressibility (1/GPa) = 0.03029430
#
# Stress axis : x y z
#
# Youngs Moduli (GPa) = 78.58656 71.80478 40.28926
#
# Poissons Ratio (x) = 0.28037 0.05407
# Poissons Ratio (y) = 0.30685 0.21523
# Poissons Ratio (z) = 0.10546 0.38360
#
# Static dielectric constant tensor:
#      x y z
#    x 1.601270 0.000000 0.017080 
#    y 0.000000 1.630600 0.000000 
#    z 0.017080 0.000000 1.590970 
# 
# From -- ./inp_files/52269.got.cif
#   From: 2010.05.17/outbox.cif.g08.bks.cpg/sg11_27_cif.got.tgz:52269.got - 2010.06.03 12:22:45.
