data_PCOD9159034
_publ_section_title
;
Structure prediction by ZEFSAII (Michael W. Deem and Ramdas Pophale) SiO2 
 PCOD9159034
Probable space group: P 21/M
;
_chemical_formula_sum "Si O2"
_cell_formula_units_Z 32
_cell_length_a 22.050767
_cell_length_b 7.693350
_cell_length_c 17.290287
_cell_angle_alpha 90.000000
_cell_angle_beta 152.447357
_cell_angle_gamma 90.000000
_cell_volume 1356.790075
_symmetry_space_group_name_H-M "P 21/M"
_symmetry_group_IT_number 11
_symmetry_cell_setting 'monoclinic'
loop_
_space_group_symop_operation_xyz
x,y,z
-x,1/2+y,-z
-x,-y,-z
x,1/2-y,z
loop_
_atom_site_type_symbol
_atom_site_label
_atom_site_fract_x
_atom_site_fract_y
_atom_site_fract_z
Si Si1 0.136544 0.959816 0.195394
Si Si2 0.152170 0.541109 0.663712
Si Si3 0.155484 0.544924 0.497280
Si Si4 0.682655 0.460040 0.005374
Si Si5 0.992157 0.959036 0.178708
Si Si6 0.609598 0.957546 0.350279
Si Si7 0.702896 0.454973 0.853468
Si Si8 0.585191 0.445522 0.500913
O O1 0.149903 0.750000 0.211706
O O2 0.103130 0.022464 0.244491
O O3 0.274364 0.031005 0.317984
O O4 0.000000 0.000000 0.000000
O O5 0.172858 0.750000 0.687732
O O6 0.186846 0.472407 0.617265
O O7 0.229466 0.471183 0.825527
O O8 0.000000 0.500000 0.500000
O O9 0.130908 0.750000 0.480603
O O10 0.276235 0.521788 0.575923
O O11 0.029919 0.474530 0.307102
O O12 0.701524 0.250000 0.022625
O O13 0.529704 0.490990 0.847910
O O14 0.706064 0.529756 0.944885
O O15 0.999888 0.750000 0.188534
O O16 0.847234 0.003805 0.985595
O O17 0.620021 0.750000 0.375043
O O18 0.600843 0.044584 0.424840
O O19 0.695567 0.250000 0.851841
O O20 0.565815 0.500309 0.656667
O O21 0.589879 0.250000 0.535547
#
# Coordination Sequence:
#
# PCOD9159034 Si02
#       8
#     4   4   4   4   4   4   4   4
#     4  10  22  39  61  86 115 145 180 225 275 331
#     4  10  20  34  51  70 101 143 182 228 279 331
#     4  10  20  34  53  77 107 143 186 229 278 332
#     4   8  17  33  49  72 109 142 177 226 277 318
#     4  10  20  37  56  81 114 145 183 230 276 330
#     4  10  19  32  53  79 106 141 183 230 275 324
#     4  10  20  34  56  86 114 147 190 234 272 323
#     4  10  19  37  60  83 114 150 183 224 276 330
#
# _framework density 23.585079
#
# number of rings (size 3 to 8) (size 9 to 14) (size 15 to 20)
#    0.000    2.250    1.250    2.625    0.000    3.000 
#    0.000    3.750    0.000    0.000    0.000    0.000 
#    0.000    0.000    0.000    0.000    0.000    0.000 
#
# Total GULP energy -178589.065055 kJ/mol
# GULP energy per Si atom -5580.908283 kJ/mol
# Density = 2.353140 g / cm^3
# Si number density = 23.585079 Si / 1000 Ang^3
#
#
#
# Elastic Constant Matrix: (Units=GPa)
#
#
# Indices 1 2 3 4 5 6 
#
# 1 72.1914 -2.3332 40.5718 0.0000 9.6785 0.0000
# 2 -2.3332 40.8261 6.5189 0.0000 -6.2881 0.0000
# 3 40.5718 6.5189 179.7457 0.0000 4.3072 0.0000
# 4 0.0000 0.0000 0.0000 23.9733 0.0000 5.9925
# 5 9.6785 -6.2881 4.3072 0.0000 43.3245 0.0000
# 6 0.0000 0.0000 0.0000 5.9925 0.0000 12.8929
#
#
#
# Elastic Compliance Matrix: (Units=1/GPa)
#
#
# Indices 1 2 3 4 5 6 
#
# 1 0.016361 0.001035 -0.003655 0.000000 -0.003141 0.000000
# 2 0.001035 0.025300 -0.001237 0.000000 0.003564 0.000000
# 3 -0.003655 -0.001237 0.006433 0.000000 -0.000002 0.000000
# 4 0.000000 0.000000 0.000000 0.047196 0.000000 -0.021936
# 5 -0.003141 0.003564 -0.000002 0.000000 0.024301 0.000000
# 6 0.000000 0.000000 0.000000 -0.021936 0.000000 0.087758
#
#
# Mechanical properties :
#
#
# Convention : Reuss Voigt Hill
#
# Bulk Modulus (GPa) = 24.76467 42.47535 33.62001
# Shear Modulus (GPa) = 21.87967 32.57186 27.22576
#
# Velocity S-wave (km/s) = 3.04911 3.72026 3.40128
# Velocity P-wave (km/s) = 4.78738 6.04171 5.45075
#
# Compressibility (1/GPa) = 0.04038011
#
# Stress axis : x y z
#
# Youngs Moduli (GPa) = 61.12130 39.52630 155.43965
#
# Poissons Ratio (x) = -0.04090 0.56816
# Poissons Ratio (y) = -0.06325 0.19221
# Poissons Ratio (z) = 0.22341 0.04888
#
# Static dielectric constant tensor:
#      x y z
#    x 1.944090 0.000000 -0.027220 
#    y 0.000000 1.882740 0.000000 
#    z -0.027220 0.000000 1.943540 
# 
# From -- ./inp_files/67128.got.cif
#   From: 2010.05.17/outbox.cif.g08.bks.cpg/sg11_34_cif.got.tgz:67128.got - 2010.06.03 12:22:45.
