data_PCOD9159123
_publ_section_title
;
Structure prediction by ZEFSAII (Michael W. Deem and Ramdas Pophale) SiO2 
 PCOD9159123
Probable space group: P 21/M
;
_chemical_formula_sum "Si O2"
_cell_formula_units_Z 32
_cell_length_a 21.145748
_cell_length_b 14.060173
_cell_length_c 8.507051
_cell_angle_alpha 90.000000
_cell_angle_beta 145.528304
_cell_angle_gamma 90.000000
_cell_volume 1431.556378
_symmetry_space_group_name_H-M "P 21/M"
_symmetry_group_IT_number 11
_symmetry_cell_setting 'monoclinic'
loop_
_space_group_symop_operation_xyz
x,y,z
-x,1/2+y,-z
-x,-y,-z
x,1/2-y,z
loop_
_atom_site_type_symbol
_atom_site_label
_atom_site_fract_x
_atom_site_fract_y
_atom_site_fract_z
Si Si1 0.726675 0.852857 0.700801
Si Si2 0.397281 0.641890 0.972007
Si Si3 0.513806 0.466024 0.348891
Si Si4 0.843604 0.990494 0.741144
Si Si5 0.711437 0.359076 0.600254
Si Si6 0.686923 0.858050 0.960872
Si Si7 0.020666 0.357866 0.786258
Si Si8 0.192744 0.542888 0.692253
O O1 0.708142 0.750000 0.589486
O O2 0.654761 0.860854 0.709765
O O3 0.855327 0.853818 0.032826
O O4 0.736484 0.929918 0.585427
O O5 0.437100 0.750000 0.082349
O O6 0.348745 0.639606 0.694995
O O7 0.295892 0.615933 0.884413
O O8 0.482245 0.554578 0.171747
O O9 0.500000 0.500000 0.500000
O O10 0.631594 0.417257 0.553821
O O11 0.417054 0.385510 0.140984
O O12 0.828609 0.086444 0.811685
O O13 0.830145 0.010866 0.533278
O O14 0.947804 0.924059 0.999541
O O15 0.725140 0.250000 0.676494
O O16 0.725194 0.750000 0.071889
O O17 0.770547 0.946647 0.149543
O O18 0.988617 0.250000 0.763665
O O19 0.920543 0.405814 0.485964
#
# Coordination Sequence:
#
# PCOD9159123 Si02
#       8
#     4   4   4   4   4   4   4   4
#     4   8  17  33  52  71 102 140 174 211 257 308
#     4   9  20  37  55  79 110 139 177 221 268 321
#     4  11  22  36  58  81 105 141 180 224 267 320
#     4   9  18  34  53  78 106 136 177 217 259 309
#     4  10  20  36  56  78 109 145 177 218 267 317
#     4  10  21  36  51  76 109 140 173 217 267 313
#     4   9  18  33  56  78 104 140 179 215 259 314
#     4  10  19  32  55  82 105 138 175 222 263 309
#
# _framework density 22.353293000000001
#
# number of rings (size 3 to 8) (size 9 to 14) (size 15 to 20)
#    0.750    1.750    0.000    2.250    0.000    3.000 
#    0.000    1.875    0.000    0.750    0.000    0.000 
#    0.000    0.000    0.000    0.000    0.000    0.000 
#
# Total GULP energy -178266.438577 kJ/mol
# GULP energy per Si atom -5570.826206 kJ/mol
# Density = 2.230242 g / cm^3
# Si number density = 22.353293 Si / 1000 Ang^3
#
#
#
# Elastic Constant Matrix: (Units=GPa)
#
#
# Indices 1 2 3 4 5 6 
#
# 1 40.7736 26.9511 1.1104 0.0000 -3.7172 0.0000
# 2 26.9511 147.3805 20.7749 0.0000 0.5038 0.0000
# 3 1.1104 20.7749 36.5977 0.0000 15.4817 0.0000
# 4 0.0000 0.0000 0.0000 27.8237 0.0000 -2.8831
# 5 -3.7172 0.5038 15.4817 0.0000 14.8982 0.0000
# 6 0.0000 0.0000 0.0000 -2.8831 0.0000 23.3769
#
#
#
# Elastic Compliance Matrix: (Units=1/GPa)
#
#
# Indices 1 2 3 4 5 6 
#
# 1 0.028750 -0.005003 -0.002031 0.000000 0.009453 0.000000
# 2 -0.005003 0.008722 -0.007399 0.000000 0.006145 0.000000
# 3 -0.002031 -0.007399 0.056556 0.000000 -0.059028 0.000000
# 4 0.000000 0.000000 0.000000 0.036406 0.000000 0.004490
# 5 0.009453 0.006145 -0.059028 0.000000 0.130612 0.000000
# 6 0.000000 0.000000 0.000000 0.004490 0.000000 0.043331
#
#
# Mechanical properties :
#
#
# Convention : Reuss Voigt Hill
#
# Bulk Modulus (GPa) = 15.34654 35.82495 25.58574
# Shear Modulus (GPa) = 14.08591 24.94744 19.51668
#
# Velocity S-wave (km/s) = 2.51300 3.34436 2.95803
# Velocity P-wave (km/s) = 3.91160 5.56547 4.81015
#
# Compressibility (1/GPa) = 0.06516129
#
# Stress axis : x y z
#
# Youngs Moduli (GPa) = 34.78249 114.65126 17.68159
#
# Poissons Ratio (x) = 0.57366 0.03591
# Poissons Ratio (y) = 0.17403 0.13083
# Poissons Ratio (z) = 0.07064 0.84831
#
# Static dielectric constant tensor:
#      x y z
#    x 1.868500 0.000000 0.083690 
#    y 0.000000 1.907900 0.000000 
#    z 0.083690 0.000000 1.893970 
# 
# From -- ./inp_files/26863.got.cif
#   From: 2010.05.17/outbox.cif.g08.bks.cpg/sg11_14_cif.got.tgz:26863.got - 2010.06.03 12:22:45.
