data_PCOD9159245
_publ_section_title
;
Structure prediction by ZEFSAII (Michael W. Deem and Ramdas Pophale) SiO2 
 PCOD9159245
Probable space group: P 21/M
;
_chemical_formula_sum "Si O2"
_cell_formula_units_Z 32
_cell_length_a 23.564308
_cell_length_b 8.808587
_cell_length_c 17.426731
_cell_angle_alpha 90.000000
_cell_angle_beta 30.981405
_cell_angle_gamma 90.000000
_cell_volume 1862.007988
_symmetry_space_group_name_H-M "P 21/M"
_symmetry_group_IT_number 11
_symmetry_cell_setting 'monoclinic'
loop_
_space_group_symop_operation_xyz
x,y,z
-x,1/2+y,-z
-x,-y,-z
x,1/2-y,z
loop_
_atom_site_type_symbol
_atom_site_label
_atom_site_fract_x
_atom_site_fract_y
_atom_site_fract_z
Si Si1 0.182046 0.065369 0.643821
Si Si2 0.396317 0.426311 0.660385
Si Si3 0.372472 0.433393 0.310255
Si Si4 0.832753 0.571419 0.163976
Si Si5 0.369140 0.932529 0.984600
Si Si6 0.377128 0.568142 0.145984
Si Si7 0.263306 0.067576 0.958527
Si Si8 0.058857 0.568936 0.107379
O O1 0.186557 0.250000 0.641687
O O2 0.291359 0.015960 0.472280
O O3 0.172237 0.014236 0.743277
O O4 0.068401 0.024384 0.733033
O O5 0.500000 0.500000 0.500000
O O6 0.422299 0.250000 0.641492
O O7 0.289817 0.437417 0.729192
O O8 0.355151 0.488516 0.790161
O O9 0.371161 0.250000 0.307405
O O10 0.500966 0.477915 0.172707
O O11 0.329421 0.498503 0.279093
O O12 0.865362 0.750000 0.125529
O O13 0.908897 0.480436 0.016667
O O14 0.364943 0.750000 0.980644
O O15 0.297701 0.009591 0.001727
O O16 0.329234 0.969260 0.117477
O O17 0.382211 0.750000 0.146303
O O18 0.500000 0.500000 0.000000
O O19 0.261477 0.250000 0.957955
O O20 0.146492 0.007897 0.062487
O O21 0.068661 0.750000 0.102531
#
# Coordination Sequence:
#
# PCOD9159245 Si02
#       8
#     4   4   4   4   4   4   4   4
#     4   9  18  32  52  75 100 131 166 206 251 297
#     4   9  19  31  45  65  94 130 160 195 242 288
#     4   9  18  32  51  77 106 133 161 197 249 301
#     4   9  18  33  50  69  96 131 168 207 250 291
#     4   9  18  31  52  77 100 129 163 197 238 296
#     4   9  17  31  50  74 104 134 163 197 242 295
#     4  10  21  35  50  70  97 129 166 207 248 290
#     4  10  19  33  52  72  96 130 172 211 246 291
#
# _framework density 17.185749000000001
#
# number of rings (size 3 to 8) (size 9 to 14) (size 15 to 20)
#    0.000    2.750    0.000    3.000    1.750    5.000 
#    0.000    2.500    0.000    0.750    0.000    0.000 
#    0.000    0.000    0.000    0.000    0.000    0.000 
#
# Total GULP energy -178292.130342 kJ/mol
# GULP energy per Si atom -5571.629073 kJ/mol
# Density = 1.714663 g / cm^3
# Si number density = 17.185749 Si / 1000 Ang^3
#
#
#
# Elastic Constant Matrix: (Units=GPa)
#
#
# Indices 1 2 3 4 5 6 
#
# 1 110.0997 23.3094 22.8276 0.0000 23.9817 0.0000
# 2 23.3094 22.0587 7.4709 0.0000 2.0868 0.0000
# 3 22.8276 7.4709 38.3642 0.0000 4.1722 0.0000
# 4 0.0000 0.0000 0.0000 19.2426 0.0000 5.7881
# 5 23.9817 2.0868 4.1722 0.0000 10.5619 0.0000
# 6 0.0000 0.0000 0.0000 5.7881 0.0000 26.2159
#
#
#
# Elastic Compliance Matrix: (Units=1/GPa)
#
#
# Indices 1 2 3 4 5 6 
#
# 1 0.026298 -0.020780 -0.005803 0.000000 -0.053314 0.000000
# 2 -0.020780 0.065336 -0.004270 0.000000 0.035960 0.000000
# 3 -0.005803 -0.004270 0.030120 0.000000 0.002122 0.000000
# 4 0.000000 0.000000 0.000000 0.055665 0.000000 -0.012290
# 5 -0.053314 0.035960 0.002122 0.000000 0.207790 0.000000
# 6 0.000000 0.000000 0.000000 -0.012290 0.000000 0.040858
#
#
# Mechanical properties :
#
#
# Convention : Reuss Voigt Hill
#
# Bulk Modulus (GPa) = 16.65336 30.85982 23.75659
# Shear Modulus (GPa) = 9.84663 18.99839 14.42251
#
# Velocity S-wave (km/s) = 2.39624 3.32847 2.90006
# Velocity P-wave (km/s) = 4.16740 5.72427 5.00672
#
# Compressibility (1/GPa) = 0.06004795
#
# Stress axis : x y z
#
# Youngs Moduli (GPa) = 38.02583 15.30556 33.20086
#
# Poissons Ratio (x) = 0.31805 0.19267
# Poissons Ratio (y) = 0.79017 0.14175
# Poissons Ratio (z) = 0.22067 0.06535
#
# Static dielectric constant tensor:
#      x y z
#    x 1.593870 0.000000 0.022820 
#    y 0.000000 1.582040 0.000000 
#    z 0.022820 0.000000 1.624810 
# 
# From -- ./inp_files/61738.got.cif
#   From: 2010.05.17/outbox.cif.g08.bks.cpg/sg11_31_cif.got.tgz:61738.got - 2010.06.03 12:22:45.
