data_PCOD9159672
_publ_section_title
;
Structure prediction by ZEFSAII (Michael W. Deem and Ramdas Pophale) SiO2 
 PCOD9159672
Probable space group: P 21/M
;
_chemical_formula_sum "Si O2"
_cell_formula_units_Z 32
_cell_length_a 21.408882
_cell_length_b 8.907888
_cell_length_c 27.431332
_cell_angle_alpha 90.000000
_cell_angle_beta 160.372334
_cell_angle_gamma 90.000000
_cell_volume 1757.251533
_symmetry_space_group_name_H-M "P 21/M"
_symmetry_group_IT_number 11
_symmetry_cell_setting 'monoclinic'
loop_
_space_group_symop_operation_xyz
x,y,z
-x,1/2+y,-z
-x,-y,-z
x,1/2-y,z
loop_
_atom_site_type_symbol
_atom_site_label
_atom_site_fract_x
_atom_site_fract_y
_atom_site_fract_z
Si Si1 0.125916 0.929996 0.835151
Si Si2 0.845863 0.928925 0.038149
Si Si3 0.207890 0.429054 0.268717
Si Si4 0.498629 0.069877 0.945757
Si Si5 0.264569 0.430091 0.501393
Si Si6 0.204783 0.069224 0.648468
Si Si7 0.469731 0.069789 0.552989
Si Si8 0.414656 0.570271 0.710056
O O1 0.127246 0.750000 0.845406
O O2 0.945691 0.962563 0.670118
O O3 0.117096 0.012816 0.880017
O O4 0.314345 0.971956 0.945852
O O5 0.863025 0.750000 0.048808
O O6 0.633498 0.970066 0.869533
O O7 0.003244 0.002002 0.120111
O O8 0.197444 0.250000 0.258495
O O9 0.340028 0.492276 0.323538
O O10 0.314875 0.469325 0.398099
O O11 0.497939 0.250000 0.949705
O O12 0.322574 0.026498 0.783201
O O13 0.500000 0.000000 0.000000
O O14 0.279460 0.250000 0.519958
O O15 0.395392 0.470978 0.551650
O O16 0.320320 0.515259 0.591036
O O17 0.195210 0.250000 0.638989
O O18 0.316010 0.007897 0.683463
O O19 0.000000 0.000000 0.500000
O O20 0.491819 0.250000 0.567419
O O21 0.399402 0.750000 0.704037
#
# Coordination Sequence:
#
# PCOD9159672 Si02
#       8
#     4   4   4   4   4   4   4   4
#     4  10  20  39  62  87 116 150 198 246 293 349
#     4  11  22  37  59  87 117 155 198 245 293 342
#     4  10  19  33  57  86 118 154 194 242 294 352
#     4  10  23  40  62  90 121 154 193 242 292 347
#     4  10  21  38  61  88 119 156 195 244 299 349
#     4  11  24  43  65  89 119 159 199 239 293 354
#     4   9  18  34  55  85 120 151 191 243 297 352
#     4  11  25  42  60  87 121 157 200 245 289 349
#
# _framework density 18.210256000000001
#
# number of rings (size 3 to 8) (size 9 to 14) (size 15 to 20)
#    0.000    1.750    2.500    1.500    1.750    4.500 
#    0.000    0.625    0.000    0.000    0.000    0.000 
#    0.000    0.000    0.000    0.000    0.000    0.000 
#
# Total GULP energy -178769.372157 kJ/mol
# GULP energy per Si atom -5586.542880 kJ/mol
# Density = 1.816881 g / cm^3
# Si number density = 18.210256 Si / 1000 Ang^3
#
#
#
# Elastic Constant Matrix: (Units=GPa)
#
#
# Indices 1 2 3 4 5 6 
#
# 1 89.9172 33.5760 68.2139 0.0000 5.7301 0.0000
# 2 33.5760 36.5984 52.6648 0.0000 5.3106 0.0000
# 3 68.2139 52.6648 147.3749 0.0000 15.0040 0.0000
# 4 0.0000 0.0000 0.0000 28.4854 0.0000 1.2658
# 5 5.7301 5.3106 15.0040 0.0000 35.0738 0.0000
# 6 0.0000 0.0000 0.0000 1.2658 0.0000 34.1439
#
#
#
# Elastic Compliance Matrix: (Units=1/GPa)
#
#
# Indices 1 2 3 4 5 6 
#
# 1 0.018677 -0.009663 -0.005259 0.000000 0.000662 0.000000
# 2 -0.009663 0.061247 -0.017388 0.000000 -0.000257 0.000000
# 3 -0.005259 -0.017388 0.015765 0.000000 -0.003252 0.000000
# 4 0.000000 0.000000 0.000000 0.035164 0.000000 -0.001304
# 5 0.000662 -0.000257 -0.003252 0.000000 0.029833 0.000000
# 6 0.000000 0.000000 0.000000 -0.001304 0.000000 0.029336
#
#
# Mechanical properties :
#
#
# Convention : Reuss Voigt Hill
#
# Bulk Modulus (GPa) = 32.18705 64.75555 48.47130
# Shear Modulus (GPa) = 18.86804 27.50300 23.18552
#
# Velocity S-wave (km/s) = 3.22238 3.89048 3.57208
# Velocity P-wave (km/s) = 5.61770 7.47116 6.60972
#
# Compressibility (1/GPa) = 0.03106839
#
# Stress axis : x y z
#
# Youngs Moduli (GPa) = 53.54125 16.32729 63.43356
#
# Poissons Ratio (x) = 0.15777 0.33361
# Poissons Ratio (y) = 0.51735 1.10300
# Poissons Ratio (z) = 0.28159 0.28390
#
# Static dielectric constant tensor:
#      x y z
#    x 1.599610 0.000000 0.011300 
#    y 0.000000 1.615830 0.000000 
#    z 0.011300 0.000000 1.617870 
# 
# From -- ./inp_files/66979.got.cif
#   From: 2010.05.17/outbox.cif.g08.bks.cpg/sg11_34_cif.got.tgz:66979.got - 2010.06.03 12:22:45.
