data_PCOD9159277
_publ_section_title
;
Structure prediction by ZEFSAII (Michael W. Deem and Ramdas Pophale) SiO2 
 PCOD9159277
Probable space group: P 21/M
;
_chemical_formula_sum "Si O2"
_cell_formula_units_Z 28
_cell_length_a 18.496414
_cell_length_b 8.944830
_cell_length_c 9.746258
_cell_angle_alpha 90.000000
_cell_angle_beta 84.296632
_cell_angle_gamma 90.000000
_cell_volume 1604.509595
_symmetry_space_group_name_H-M "P 21/M"
_symmetry_group_IT_number 11
_symmetry_cell_setting 'monoclinic'
loop_
_space_group_symop_operation_xyz
x,y,z
-x,1/2+y,-z
-x,-y,-z
x,1/2-y,z
loop_
_atom_site_type_symbol
_atom_site_label
_atom_site_fract_x
_atom_site_fract_y
_atom_site_fract_z
Si Si1 0.569788 0.569939 0.410139
Si Si2 0.061545 0.923664 0.801153
Si Si3 0.504871 0.429443 0.847982
Si Si4 0.646439 0.428827 0.638076
Si Si5 0.923262 0.926859 0.476917
Si Si6 0.205207 0.070745 0.294976
Si Si7 0.101332 0.074491 0.069260
O O1 0.500000 0.500000 0.500000
O O2 0.568426 0.750000 0.420340
O O3 0.558655 0.530796 0.251125
O O4 0.634367 0.504618 0.490974
O O5 0.073554 0.750000 0.767616
O O6 0.974402 0.946449 0.833710
O O7 0.091494 0.026539 0.675756
O O8 0.096037 0.970545 0.938624
O O9 0.503689 0.250000 0.863494
O O10 0.579753 0.469321 0.753615
O O11 0.500000 0.500000 0.000000
O O12 0.644935 0.250000 0.622097
O O13 0.720983 0.485288 0.689212
O O14 0.930695 0.750000 0.491673
O O15 0.857179 0.975670 0.585628
O O16 0.000000 0.000000 0.500000
O O17 0.216720 0.250000 0.306290
O O18 0.169365 0.043685 0.153483
O O19 0.102283 0.250000 0.028822
#
# Coordination Sequence:
#
# PCOD9159277 Si02
#       7
#     4   4   4   4   4   4   4
#     4   9  17  32  54  80 109 142 179 216 256 309
#     4  10  19  33  52  77 103 132 176 225 272 324
#     4   9  19  34  55  84 112 138 175 216 256 309
#     4  10  21  36  54  81 111 141 180 222 268 321
#     4  11  21  35  54  78 105 136 178 227 274 323
#     4  10  21  37  55  77 107 142 181 223 272 328
#     4   9  18  34  52  74 103 137 176 220 270 324
#
# _framework density 17.450814000000001
#
# number of rings (size 3 to 8) (size 9 to 14) (size 15 to 20)
#    0.000    2.286    1.429    2.571    0.000    5.714 
#    0.000    1.429    0.000    1.714    0.000    0.000 
#    0.000    0.000    0.000    0.000    0.000    0.000 
#
# Total GULP energy -156098.996068 kJ/mol
# GULP energy per Si atom -5574.964145 kJ/mol
# Density = 1.741110 g / cm^3
# Si number density = 17.450814 Si / 1000 Ang^3
#
#
#
# Elastic Constant Matrix: (Units=GPa)
#
#
# Indices 1 2 3 4 5 6 
#
# 1 84.0333 34.2675 39.6726 0.0000 19.7451 0.0000
# 2 34.2675 39.9307 33.4679 0.0000 7.4746 0.0000
# 3 39.6726 33.4679 101.8537 0.0000 14.4243 0.0000
# 4 0.0000 0.0000 0.0000 33.0849 0.0000 4.5623
# 5 19.7451 7.4746 14.4243 0.0000 23.8139 0.0000
# 6 0.0000 0.0000 0.0000 4.5623 0.0000 28.3865
#
#
#
# Elastic Compliance Matrix: (Units=1/GPa)
#
#
# Indices 1 2 3 4 5 6 
#
# 1 0.021658 -0.014739 -0.001865 0.000000 -0.012202 0.000000
# 2 -0.014739 0.045008 -0.009602 0.000000 0.003910 0.000000
# 3 -0.001865 -0.009602 0.014278 0.000000 -0.004089 0.000000
# 4 0.000000 0.000000 0.000000 0.030910 0.000000 -0.004968
# 5 -0.012202 0.003910 -0.004089 0.000000 0.053358 0.000000
# 6 0.000000 0.000000 0.000000 -0.004968 0.000000 0.036027
#
#
# Mechanical properties :
#
#
# Convention : Reuss Voigt Hill
#
# Bulk Modulus (GPa) = 35.04745 48.95930 42.00338
# Shear Modulus (GPa) = 18.99967 24.95103 21.97535
#
# Velocity S-wave (km/s) = 3.30321 3.78536 3.55247
# Velocity P-wave (km/s) = 5.88858 6.87181 6.39911
#
# Compressibility (1/GPa) = 0.02853275
#
# Stress axis : x y z
#
# Youngs Moduli (GPa) = 46.17264 22.21817 70.03583
#
# Poissons Ratio (x) = 0.32748 0.13060
# Poissons Ratio (y) = 0.68055 0.67247
# Poissons Ratio (z) = 0.08610 0.21334
#
# Static dielectric constant tensor:
#      x y z
#    x 1.599900 0.000000 0.018710 
#    y 0.000000 1.594970 0.000000 
#    z 0.018710 0.000000 1.614440 
# 
# From -- ./inp_files/25562.got.cif
#   From: 2010.05.17/outbox.cif.g08.bks.cpg/sg11_13_cif.got.tgz:25562.got - 2010.06.03 12:22:45.
