data_PCOD9159503
_publ_section_title
;
Structure prediction by ZEFSAII (Michael W. Deem and Ramdas Pophale) SiO2 
 PCOD9159503
Probable space group: P 21/M
;
_chemical_formula_sum "Si O2"
_cell_formula_units_Z 28
_cell_length_a 15.956476
_cell_length_b 9.141144
_cell_length_c 17.905829
_cell_angle_alpha 90.000000
_cell_angle_beta 35.594720
_cell_angle_gamma 90.000000
_cell_volume 1520.165233
_symmetry_space_group_name_H-M "P 21/M"
_symmetry_group_IT_number 11
_symmetry_cell_setting 'monoclinic'
loop_
_space_group_symop_operation_xyz
x,y,z
-x,1/2+y,-z
-x,-y,-z
x,1/2-y,z
loop_
_atom_site_type_symbol
_atom_site_label
_atom_site_fract_x
_atom_site_fract_y
_atom_site_fract_z
Si Si1 0.838118 0.915947 0.531974
Si Si2 0.179988 0.914224 0.312127
Si Si3 0.180349 0.426126 0.060301
Si Si4 0.113113 0.425698 0.671670
Si Si5 0.152943 0.073408 0.908299
Si Si6 0.362541 0.423216 0.064204
Si Si7 0.348793 0.074668 0.627586
O O1 0.779436 0.750000 0.580792
O O2 0.832434 0.966688 0.450501
O O3 0.007856 0.906758 0.429001
O O4 0.775896 0.024921 0.638801
O O5 0.236651 0.750000 0.258411
O O6 0.233676 0.026441 0.211359
O O7 0.165693 0.250000 0.075732
O O8 0.314588 0.468321 0.015611
O O9 0.035673 0.497985 0.197986
O O10 0.194808 0.465090 0.962826
O O11 0.089088 0.250000 0.687380
O O12 0.233073 0.458720 0.646592
O O13 0.136472 0.250000 0.915457
O O14 0.273386 0.030215 0.760294
O O15 0.000000 0.000000 0.000000
O O16 0.381282 0.250000 0.052120
O O17 0.500000 0.500000 0.000000
O O18 0.368837 0.250000 0.614784
O O19 0.500000 0.000000 0.500000
#
# Coordination Sequence:
#
# PCOD9159503 Si02
#       7
#     4   4   4   4   4   4   4
#     4   9  18  32  53  80 111 141 179 229 278 331
#     4  10  19  33  55  80 107 142 184 228 282 337
#     4  10  21  36  59  88 115 146 192 244 292 348
#     4  10  19  35  59  85 113 148 191 237 285 345
#     4  10  20  37  62  91 120 152 194 243 293 352
#     4  11  23  39  57  79 114 153 194 242 294 350
#     4  10  22  39  59  84 120 157 193 238 291 351
#
# _framework density 18.419049999999999
#
# number of rings (size 3 to 8) (size 9 to 14) (size 15 to 20)
#    0.000    2.000    2.857    0.857    0.000    2.857 
#    2.571    0.000    0.000    0.000    0.000    0.000 
#    0.000    0.000    0.000    0.000    0.000    0.000 
#
# Total GULP energy -156191.502491 kJ/mol
# GULP energy per Si atom -5578.267946 kJ/mol
# Density = 1.837713 g / cm^3
# Si number density = 18.419050 Si / 1000 Ang^3
#
#
#
# Elastic Constant Matrix: (Units=GPa)
#
#
# Indices 1 2 3 4 5 6 
#
# 1 159.0854 46.2900 59.5932 0.0000 24.4949 0.0000
# 2 46.2900 29.6611 23.1237 0.0000 -0.5502 0.0000
# 3 59.5932 23.1237 70.2999 0.0000 9.5892 0.0000
# 4 0.0000 0.0000 0.0000 32.2551 0.0000 -1.8858
# 5 24.4949 -0.5502 9.5892 0.0000 36.1034 0.0000
# 6 0.0000 0.0000 0.0000 -1.8858 0.0000 23.4587
#
#
#
# Elastic Compliance Matrix: (Units=1/GPa)
#
#
# Indices 1 2 3 4 5 6 
#
# 1 0.015735 -0.020652 -0.005236 0.000000 -0.009600 0.000000
# 2 -0.020652 0.073274 -0.008984 0.000000 0.017515 0.000000
# 3 -0.005236 -0.008984 0.021947 0.000000 -0.002414 0.000000
# 4 0.000000 0.000000 0.000000 0.031149 0.000000 0.002504
# 5 -0.009600 0.017515 -0.002414 0.000000 0.035119 0.000000
# 6 0.000000 0.000000 0.000000 0.002504 0.000000 0.042829
#
#
# Mechanical properties :
#
#
# Convention : Reuss Voigt Hill
#
# Bulk Modulus (GPa) = 24.26491 57.45113 40.85802
# Shear Modulus (GPa) = 16.47257 27.03274 21.75265
#
# Velocity S-wave (km/s) = 2.99377 3.83515 3.44028
# Velocity P-wave (km/s) = 5.01524 7.13232 6.16533
#
# Compressibility (1/GPa) = 0.04121177
#
# Stress axis : x y z
#
# Youngs Moduli (GPa) = 63.55423 13.64746 45.56339
#
# Poissons Ratio (x) = 0.28185 0.23855
# Poissons Ratio (y) = 1.31254 0.40934
# Poissons Ratio (z) = 0.33275 0.12261
#
# Static dielectric constant tensor:
#      x y z
#    x 1.643870 0.000000 0.015050 
#    y 0.000000 1.637440 0.000000 
#    z 0.015050 0.000000 1.642320 
# 
# From -- ./inp_files/60085.got.cif
#   From: 2010.05.17/outbox.cif.g08.bks.cpg/sg11_31_cif.got.tgz:60085.got - 2010.06.03 12:22:45.
