data_PCOD9159741
_publ_section_title
;
Structure prediction by ZEFSAII (Michael W. Deem and Ramdas Pophale) SiO2 
 PCOD9159741
Probable space group: P 21/M
;
_chemical_formula_sum "Si O2"
_cell_formula_units_Z 28
_cell_length_a 6.634065
_cell_length_b 17.969190
_cell_length_c 15.229936
_cell_angle_alpha 90.000000
_cell_angle_beta 123.178148
_cell_angle_gamma 90.000000
_cell_volume 1519.559798
_symmetry_space_group_name_H-M "P 21/M"
_symmetry_group_IT_number 11
_symmetry_cell_setting 'monoclinic'
loop_
_space_group_symop_operation_xyz
x,y,z
-x,1/2+y,-z
-x,-y,-z
x,1/2-y,z
loop_
_atom_site_type_symbol
_atom_site_label
_atom_site_fract_x
_atom_site_fract_y
_atom_site_fract_z
Si Si1 0.855375 0.957155 0.642004
Si Si2 0.784956 0.443904 0.974831
Si Si3 0.027573 0.336227 0.448555
Si Si4 0.244984 0.472268 0.857086
Si Si5 0.563080 0.336146 0.622384
Si Si6 0.331501 0.569257 0.527289
Si Si7 0.945452 0.338718 0.867649
O O1 0.928577 0.873720 0.635445
O O2 0.593744 0.954117 0.624450
O O3 0.809716 0.996431 0.537211
O O4 0.050595 0.003936 0.739377
O O5 0.511645 0.463343 0.880876
O O6 0.862011 0.368180 0.943779
O O7 0.759810 0.460018 0.073006
O O8 0.000000 0.500000 0.000000
O O9 0.973632 0.250000 0.428224
O O10 0.275215 0.343665 0.563821
O O11 0.812715 0.379873 0.442108
O O12 0.154800 0.395088 0.882026
O O13 0.608272 0.250000 0.608772
O O14 0.633135 0.386262 0.555990
O O15 0.723337 0.350948 0.746348
O O16 0.003491 0.250000 0.881127
#
# Coordination Sequence:
#
# PCOD9159741 Si02
#       7
#     4   4   4   4   4   4   4
#     4  10  21  34  55  80 106 140 187 224 261 323
#     4   9  21  38  59  82 108 142 185 228 280 328
#     4  10  21  34  50  76 112 150 185 224 269 319
#     4  10  20  39  60  80 111 148 183 229 281 328
#     4   9  18  31  49  79 116 146 177 219 269 325
#     4  10  19  34  52  78 110 144 182 220 265 319
#     4  10  20  34  56  87 116 141 178 225 277 337
#
# _framework density 18.426390000000001
#
# number of rings (size 3 to 8) (size 9 to 14) (size 15 to 20)
#    0.000    2.286    1.429    0.857    2.000    3.429 
#    0.000    0.714    0.000    8.571    0.000    0.000 
#    0.000    0.000    0.000    0.000    0.000    0.000 
#
# Total GULP energy -155907.229152 kJ/mol
# GULP energy per Si atom -5568.115327 kJ/mol
# Density = 1.838445 g / cm^3
# Si number density = 18.426390 Si / 1000 Ang^3
#
#
#
# Elastic Constant Matrix: (Units=GPa)
#
#
# Indices 1 2 3 4 5 6 
#
# 1 83.4523 31.7210 28.0461 0.0000 21.3591 0.0000
# 2 31.7210 92.7375 28.2530 0.0000 12.4872 0.0000
# 3 28.0461 28.2530 42.7228 0.0000 19.0892 0.0000
# 4 0.0000 0.0000 0.0000 27.4464 0.0000 -4.9849
# 5 21.3591 12.4872 19.0892 0.0000 19.2919 0.0000
# 6 0.0000 0.0000 0.0000 -4.9849 0.0000 31.8689
#
#
#
# Elastic Compliance Matrix: (Units=1/GPa)
#
#
# Indices 1 2 3 4 5 6 
#
# 1 0.018045 -0.003238 -0.003073 0.000000 -0.014842 0.000000
# 2 -0.003238 0.014085 -0.008456 0.000000 0.002835 0.000000
# 3 -0.003073 -0.008456 0.048488 0.000000 -0.039103 0.000000
# 4 0.000000 0.000000 0.000000 0.037500 0.000000 0.005866
# 5 -0.014842 0.002835 -0.039103 0.000000 0.105125 0.000000
# 6 0.000000 0.000000 0.000000 0.005866 0.000000 0.032296
#
#
# Mechanical properties :
#
#
# Convention : Reuss Voigt Hill
#
# Bulk Modulus (GPa) = 19.57529 43.88365 31.72947
# Shear Modulus (GPa) = 16.55080 24.44762 20.49921
#
# Velocity S-wave (km/s) = 3.00027 3.64644 3.33902
# Velocity P-wave (km/s) = 4.75907 6.44950 5.66766
#
# Compressibility (1/GPa) = 0.05108482
#
# Stress axis : x y z
#
# Youngs Moduli (GPa) = 55.41667 70.99777 20.62374
#
# Poissons Ratio (x) = 0.22986 0.06338
# Poissons Ratio (y) = 0.17942 0.17439
# Poissons Ratio (z) = 0.17031 0.60033
#
# Static dielectric constant tensor:
#      x y z
#    x 1.661860 0.000000 0.014940 
#    y 0.000000 1.652290 0.000000 
#    z 0.014940 0.000000 1.637140 
# 
# From -- ./inp_files/46088.got.cif
#   From: 2010.05.17/outbox.cif.g08.bks.cpg/sg11_24_cif.got.tgz:46088.got - 2010.06.03 12:22:45.
