data_PCOD9159212
_publ_section_title
;
Structure prediction by ZEFSAII (Michael W. Deem and Ramdas Pophale) SiO2 
 PCOD9159212
Probable space group: P 21/M
;
_chemical_formula_sum "Si O2"
_cell_formula_units_Z 32
_cell_length_a 15.343304
_cell_length_b 8.905700
_cell_length_c 23.602149
_cell_angle_alpha 90.000000
_cell_angle_beta 39.490476
_cell_angle_gamma 90.000000
_cell_volume 2050.980046
_symmetry_space_group_name_H-M "P 21/M"
_symmetry_group_IT_number 11
_symmetry_cell_setting 'monoclinic'
loop_
_space_group_symop_operation_xyz
x,y,z
-x,1/2+y,-z
-x,-y,-z
x,1/2-y,z
loop_
_atom_site_type_symbol
_atom_site_label
_atom_site_fract_x
_atom_site_fract_y
_atom_site_fract_z
Si Si1 0.287856 0.071152 0.587221
Si Si2 0.702052 0.929776 0.871917
Si Si3 0.543282 0.928835 0.068157
Si Si4 0.007210 0.570244 0.746616
Si Si5 0.003726 0.070009 0.873234
Si Si6 0.713433 0.929699 0.204555
Si Si7 0.718545 0.429664 0.078094
Si Si8 0.556679 0.070887 0.384009
O O1 0.278433 0.250000 0.600059
O O2 0.401148 0.040783 0.482176
O O3 0.139123 0.002772 0.651213
O O4 0.347432 0.998356 0.614895
O O5 0.689183 0.750000 0.870589
O O6 0.861643 0.970928 0.791782
O O7 0.606078 0.013220 0.875271
O O8 0.641143 0.964511 0.965014
O O9 0.543569 0.750000 0.075742
O O10 0.604689 0.009071 0.092051
O O11 0.018957 0.750000 0.740614
O O12 0.005257 0.512582 0.812369
O O13 0.004134 0.250000 0.862912
O O14 0.139081 0.032632 0.841307
O O15 0.866760 0.031536 0.976644
O O16 0.701933 0.750000 0.208239
O O17 0.705170 0.997675 0.146330
O O18 0.599880 0.997558 0.303463
O O19 0.710250 0.250000 0.086461
O O20 0.576812 0.250000 0.372115
#
# Coordination Sequence:
#
# PCOD9159212 Si02
#       8
#     4   4   4   4   4   4   4   4
#     4  10  20  33  50  73 102 131 166 208 251 301
#     4   9  19  33  49  73 101 130 165 207 253 300
#     4  10  19  33  51  72  98 131 169 210 252 296
#     4  11  20  31  51  76 103 135 168 205 250 302
#     4  10  21  34  48  70 101 137 174 209 246 290
#     4  11  22  35  51  72 100 135 175 215 250 294
#     4  11  22  35  51  71 100 138 175 211 250 297
#     4  10  20  34  51  72  98 132 170 209 252 296
#
# _framework density 15.602297
#
# number of rings (size 3 to 8) (size 9 to 14) (size 15 to 20)
#    0.000    1.750    2.500    2.625    0.000    4.000 
#    0.000    0.000    0.000    0.000    0.000    0.875 
#    0.000    0.000    0.000    0.000    0.000    0.000 
#
# Total GULP energy -178680.982067 kJ/mol
# GULP energy per Si atom -5583.780690 kJ/mol
# Density = 1.556679 g / cm^3
# Si number density = 15.602297 Si / 1000 Ang^3
#
#
#
# Elastic Constant Matrix: (Units=GPa)
#
#
# Indices 1 2 3 4 5 6 
#
# 1 103.7825 52.1603 69.6014 0.0000 -12.4070 0.0000
# 2 52.1603 57.8904 53.7094 0.0000 -5.6797 0.0000
# 3 69.6014 53.7094 107.5400 0.0000 -13.0876 0.0000
# 4 0.0000 0.0000 0.0000 26.7424 0.0000 0.5884
# 5 -12.4070 -5.6797 -13.0876 0.0000 25.7233 0.0000
# 6 0.0000 0.0000 0.0000 0.5884 0.0000 25.7502
#
#
#
# Elastic Compliance Matrix: (Units=1/GPa)
#
#
# Indices 1 2 3 4 5 6 
#
# 1 0.020755 -0.011729 -0.007112 0.000000 0.003802 0.000000
# 2 -0.011729 0.038849 -0.012212 0.000000 -0.003293 0.000000
# 3 -0.007112 -0.012212 0.020527 0.000000 0.004317 0.000000
# 4 0.000000 0.000000 0.000000 0.037413 0.000000 -0.000855
# 5 0.003802 -0.003293 0.004317 0.000000 0.042178 0.000000
# 6 0.000000 0.000000 0.000000 -0.000855 0.000000 0.038854
#
#
# Mechanical properties :
#
#
# Convention : Reuss Voigt Hill
#
# Bulk Modulus (GPa) = 55.48230 68.90612 62.19421
# Shear Modulus (GPa) = 18.74837 21.89266 20.32051
#
# Velocity S-wave (km/s) = 3.47023 3.74995 3.61280
# Velocity P-wave (km/s) = 7.18987 7.93785 7.57310
#
# Compressibility (1/GPa) = 0.01802377
#
# Stress axis : x y z
#
# Youngs Moduli (GPa) = 48.18215 25.74062 48.71719
#
# Poissons Ratio (x) = 0.30190 0.34649
# Poissons Ratio (y) = 0.56511 0.59495
# Poissons Ratio (z) = 0.34268 0.31436
#
# Static dielectric constant tensor:
#      x y z
#    x 1.494000 0.000000 -0.021070 
#    y 0.000000 1.515530 0.000000 
#    z -0.021070 0.000000 1.516600 
# 
# From -- ./inp_files/54310.got.cif
#   From: 2010.05.17/outbox.cif.g08.bks.cpg/sg11_28_cif.got.tgz:54310.got - 2010.06.03 12:22:45.
