data_PCOD9159700
_publ_section_title
;
Structure prediction by ZEFSAII (Michael W. Deem and Ramdas Pophale) SiO2 
 PCOD9159700
Probable space group: P 21/M
;
_chemical_formula_sum "Si O2"
_cell_formula_units_Z 28
_cell_length_a 10.560238
_cell_length_b 13.717014
_cell_length_c 12.235015
_cell_angle_alpha 90.000000
_cell_angle_beta 119.633034
_cell_angle_gamma 90.000000
_cell_volume 1540.502861
_symmetry_space_group_name_H-M "P 21/M"
_symmetry_group_IT_number 11
_symmetry_cell_setting 'monoclinic'
loop_
_space_group_symop_operation_xyz
x,y,z
-x,1/2+y,-z
-x,-y,-z
x,1/2-y,z
loop_
_atom_site_type_symbol
_atom_site_label
_atom_site_fract_x
_atom_site_fract_y
_atom_site_fract_z
Si Si1 0.822079 0.001525 0.756794
Si Si2 0.086613 0.364006 0.828111
Si Si3 0.145826 0.466358 0.624166
Si Si4 0.589978 0.363535 0.544842
Si Si5 0.304676 0.137081 0.113430
Si Si6 0.361745 0.864290 0.692795
Si Si7 0.251628 0.363828 0.458599
O O1 0.688065 0.069914 0.663098
O O2 0.960773 0.070792 0.829484
O O3 0.776149 0.936111 0.839350
O O4 0.844948 0.928373 0.664350
O O5 0.044001 0.250000 0.804617
O O6 0.111260 0.406370 0.718064
O O7 0.231066 0.370927 0.963781
O O8 0.243603 0.561555 0.688873
O O9 0.231055 0.399888 0.572881
O O10 0.000000 0.500000 0.500000
O O11 0.620982 0.250000 0.579464
O O12 0.626801 0.381998 0.433333
O O13 0.418885 0.378912 0.492297
O O14 0.286145 0.250000 0.143773
O O15 0.477265 0.118178 0.190289
O O16 0.324871 0.750000 0.692854
O O17 0.217582 0.250000 0.434452
#
# Coordination Sequence:
#
# PCOD9159700 Si02
#       7
#     4   4   4   4   4   4   4
#     4  12  19  36  61  88 114 146 191 242 289 340
#     4  11  25  42  57  80 119 162 196 232 285 350
#     4  12  23  39  57  85 117 153 191 233 291 345
#     4  10  19  33  58  90 118 145 183 240 297 340
#     4  10  22  40  62  86 115 153 195 239 288 340
#     4  10  20  37  61  88 118 152 194 239 285 344
#     4  11  21  33  55  87 116 144 183 237 293 339
#
# _framework density 18.175882999999999
#
# number of rings (size 3 to 8) (size 9 to 14) (size 15 to 20)
#    0.000    1.143    4.286    3.000    0.000    2.857 
#    0.000    0.000    0.000    1.714    0.000    0.000 
#    0.000    0.000    0.000    0.000    0.000    0.000 
#
# Total GULP energy -156465.740864 kJ/mol
# GULP energy per Si atom -5588.062174 kJ/mol
# Density = 1.813451 g / cm^3
# Si number density = 18.175883 Si / 1000 Ang^3
#
#
#
# Elastic Constant Matrix: (Units=GPa)
#
#
# Indices 1 2 3 4 5 6 
#
# 1 42.6735 45.7443 18.9279 0.0000 13.2104 0.0000
# 2 45.7443 102.2353 46.0291 0.0000 16.8470 0.0000
# 3 18.9279 46.0291 87.1925 0.0000 10.7932 0.0000
# 4 0.0000 0.0000 0.0000 30.2563 0.0000 3.3023
# 5 13.2104 16.8470 10.7932 0.0000 17.2515 0.0000
# 6 0.0000 0.0000 0.0000 3.3023 0.0000 32.1736
#
#
#
# Elastic Compliance Matrix: (Units=1/GPa)
#
#
# Indices 1 2 3 4 5 6 
#
# 1 0.050371 -0.020212 0.002240 0.000000 -0.020235 0.000000
# 2 -0.020212 0.022370 -0.007190 0.000000 -0.001870 0.000000
# 3 0.002240 -0.007190 0.015307 0.000000 -0.004270 0.000000
# 4 0.000000 0.000000 0.000000 0.033425 0.000000 -0.003431
# 5 -0.020235 -0.001870 -0.004270 0.000000 0.077959 0.000000
# 6 0.000000 0.000000 0.000000 -0.003431 0.000000 0.031434
#
#
# Mechanical properties :
#
#
# Convention : Reuss Voigt Hill
#
# Bulk Modulus (GPa) = 26.50849 50.38933 38.44891
# Shear Modulus (GPa) = 17.02043 24.02961 20.52502
#
# Velocity S-wave (km/s) = 3.06343 3.63996 3.36407
# Velocity P-wave (km/s) = 5.20854 6.74159 6.02404
#
# Compressibility (1/GPa) = 0.03772376
#
# Stress axis : x y z
#
# Youngs Moduli (GPa) = 19.85281 44.70173 65.32994
#
# Poissons Ratio (x) = 0.90352 -0.14635
# Poissons Ratio (y) = 0.40127 0.46974
# Poissons Ratio (z) = -0.04447 0.32142
#
# Static dielectric constant tensor:
#      x y z
#    x 1.618360 0.000000 0.010650 
#    y 0.000000 1.639370 0.000000 
#    z 0.010650 0.000000 1.605960 
# 
# From -- ./inp_files/31729.got.cif
#   From: 2010.05.17/outbox.cif.g08.bks.cpg/sg11_16_cif.got.tgz:31729.got - 2010.06.03 12:22:45.
