data_PCOD9159731
_publ_section_title
;
Structure prediction by ZEFSAII (Michael W. Deem and Ramdas Pophale) SiO2 
 PCOD9159731
Probable space group: P 21/M
;
_chemical_formula_sum "Si O2"
_cell_formula_units_Z 32
_cell_length_a 24.471929
_cell_length_b 9.033035
_cell_length_c 18.099028
_cell_angle_alpha 90.000000
_cell_angle_beta 149.138579
_cell_angle_gamma 90.000000
_cell_volume 2052.312576
_symmetry_space_group_name_H-M "P 21/M"
_symmetry_group_IT_number 11
_symmetry_cell_setting 'monoclinic'
loop_
_space_group_symop_operation_xyz
x,y,z
-x,1/2+y,-z
-x,-y,-z
x,1/2-y,z
loop_
_atom_site_type_symbol
_atom_site_label
_atom_site_fract_x
_atom_site_fract_y
_atom_site_fract_z
Si Si1 0.356778 0.071667 0.949196
Si Si2 0.318412 0.426632 0.156421
Si Si3 0.388259 0.427068 0.394361
Si Si4 0.744228 0.927934 0.325771
Si Si5 0.981752 0.928215 0.558701
Si Si6 0.434062 0.927631 0.593081
Si Si7 0.595737 0.428102 0.272589
Si Si8 0.201293 0.573075 0.889332
O O1 0.348184 0.250000 0.947786
O O2 0.318031 0.032484 0.822087
O O3 0.280404 0.996540 0.920394
O O4 0.479006 0.029634 0.106014
O O5 0.306051 0.250000 0.132227
O O6 0.311611 0.460434 0.235996
O O7 0.439883 0.462968 0.271549
O O8 0.237090 0.511080 0.009869
O O9 0.500000 0.500000 0.500000
O O10 0.399721 0.250000 0.411475
O O11 0.368108 0.493362 0.451679
O O12 0.740486 0.750000 0.328585
O O13 0.867167 0.973035 0.457869
O O14 0.686159 0.000444 0.327558
O O15 0.980101 0.750000 0.547800
O O16 0.081108 0.966702 0.726306
O O17 0.000000 0.000000 0.500000
O O18 0.425101 0.750000 0.574263
O O19 0.400484 0.969755 0.636665
O O20 0.602975 0.250000 0.276945
O O21 0.211180 0.750000 0.899595
#
# Coordination Sequence:
#
# PCOD9159731 Si02
#       8
#     4   4   4   4   4   4   4   4
#     4  10  19  34  51  67  96 134 162 195 245 290
#     4   9  17  31  47  66  98 133 159 189 240 293
#     4   9  17  28  44  67  96 129 161 193 233 285
#     4  10  21  35  51  69  93 129 167 203 246 288
#     4  10  21  36  52  71  95 124 163 208 249 288
#     4   9  17  30  47  68  97 131 160 191 237 288
#     4  10  20  33  49  71 100 130 164 200 237 288
#     4  11  21  30  48  76  98 123 164 207 241 282
#
# _framework density 15.592166000000001
#
# number of rings (size 3 to 8) (size 9 to 14) (size 15 to 20)
#    0.000    2.250    2.500    1.875    0.000    5.000 
#    0.000    0.000    0.000    0.000    0.000    0.875 
#    0.000    0.000    0.000    0.000    0.000    0.000 
#
# Total GULP energy -178428.759525 kJ/mol
# GULP energy per Si atom -5575.898735 kJ/mol
# Density = 1.555668 g / cm^3
# Si number density = 15.592166 Si / 1000 Ang^3
#
#
#
# Elastic Constant Matrix: (Units=GPa)
#
#
# Indices 1 2 3 4 5 6 
#
# 1 121.5645 39.6427 91.8721 0.0000 -9.0202 0.0000
# 2 39.6427 23.7251 43.2888 0.0000 -9.4700 0.0000
# 3 91.8721 43.2888 113.9894 0.0000 -19.1122 0.0000
# 4 0.0000 0.0000 0.0000 18.8687 0.0000 -5.4819
# 5 -9.0202 -9.4700 -19.1122 0.0000 28.0296 0.0000
# 6 0.0000 0.0000 0.0000 -5.4819 0.0000 29.7286
#
#
#
# Elastic Compliance Matrix: (Units=1/GPa)
#
#
# Indices 1 2 3 4 5 6 
#
# 1 0.023877 -0.017927 -0.013734 0.000000 -0.007737 0.000000
# 2 -0.017927 0.154532 -0.041156 0.000000 0.018378 0.000000
# 3 -0.013734 -0.041156 0.036581 0.000000 0.006619 0.000000
# 4 0.000000 0.000000 0.000000 0.055998 0.000000 0.010326
# 5 -0.007737 0.018378 0.006619 0.000000 0.043909 0.000000
# 6 0.000000 0.000000 0.000000 0.010326 0.000000 0.035542
#
#
# Mechanical properties :
#
#
# Convention : Reuss Voigt Hill
#
# Bulk Modulus (GPa) = 14.41792 67.65403 41.03598
# Shear Modulus (GPa) = 9.63040 20.95707 15.29373
#
# Velocity S-wave (km/s) = 2.48794 3.67014 3.13527
# Velocity P-wave (km/s) = 4.18570 7.83862 6.28347
#
# Compressibility (1/GPa) = 0.06935814
#
# Stress axis : x y z
#
# Youngs Moduli (GPa) = 41.88111 6.47115 27.33686
#
# Poissons Ratio (x) = 0.11601 0.37543
# Poissons Ratio (y) = 0.75079 1.12506
# Poissons Ratio (z) = 0.57518 0.26632
#
# Static dielectric constant tensor:
#      x y z
#    x 1.508160 0.000000 -0.022890 
#    y 0.000000 1.523920 0.000000 
#    z -0.022890 0.000000 1.522530 
# 
# From -- ./inp_files/42483.got.cif
#   From: 2010.05.17/outbox.cif.g08.bks.cpg/sg11_22_cif.got.tgz:42483.got - 2010.06.03 12:22:45.
