data_PCOD9159485
_publ_section_title
;
Structure prediction by ZEFSAII (Michael W. Deem and Ramdas Pophale) SiO2 
 PCOD9159485
Probable space group: P 21/M
;
_chemical_formula_sum "Si O2"
_cell_formula_units_Z 24
_cell_length_a 11.857683
_cell_length_b 14.110043
_cell_length_c 11.181417
_cell_angle_alpha 90.000000
_cell_angle_beta 146.953902
_cell_angle_gamma 90.000000
_cell_volume 1020.167217
_symmetry_space_group_name_H-M "P 21/M"
_symmetry_group_IT_number 11
_symmetry_cell_setting 'monoclinic'
loop_
_space_group_symop_operation_xyz
x,y,z
-x,1/2+y,-z
-x,-y,-z
x,1/2-y,z
loop_
_atom_site_type_symbol
_atom_site_label
_atom_site_fract_x
_atom_site_fract_y
_atom_site_fract_z
Si Si1 0.676546 0.855070 0.125659
Si Si2 0.266532 0.935039 0.844926
Si Si3 0.752544 0.855261 0.915226
Si Si4 0.480925 0.969053 0.296354
Si Si5 0.860721 0.141646 0.880182
Si Si6 0.894166 0.856477 0.651180
O O1 0.719188 0.750000 0.217406
O O2 0.757808 0.960271 0.234917
O O3 0.428491 0.872502 0.913790
O O4 0.755220 0.848767 0.060082
O O5 0.055606 0.883051 0.690650
O O6 0.379498 0.949821 0.074941
O O7 0.734569 0.750000 0.847164
O O8 0.969214 0.897904 0.061207
O O9 0.559603 0.921140 0.714549
O O10 0.710347 0.930949 0.495854
O O11 0.345771 0.914601 0.274889
O O12 0.812520 0.250000 0.802565
O O13 0.981329 0.142843 0.113957
O O14 0.810035 0.750000 0.561407
#
# Coordination Sequence:
#
# PCOD9159485 Si02
#       6
#     4   4   4   4   4   4
#     4   9  17  33  56  76 101 138 170 203 253 304
#     4   9  19  35  54  78 104 130 168 214 253 296
#     4   9  18  33  52  74 103 138 171 206 251 301
#     4  10  19  33  55  78 101 133 171 210 254 301
#     4   9  18  33  52  76 105 133 167 211 253 298
#     4  10  20  33  52  78 104 132 169 213 257 297
#
# _framework density 23.525555000000001
#
# number of rings (size 3 to 8) (size 9 to 14) (size 15 to 20)
#    0.000    2.667    0.000    1.500    0.000    2.667 
#    0.000    8.333    0.000   11.000    0.000    0.000 
#    0.000    0.000    0.000    0.000    0.000    0.000 
#
# Total GULP energy -134031.013392 kJ/mol
# GULP energy per Si atom -5584.625558 kJ/mol
# Density = 2.347201 g / cm^3
# Si number density = 23.525555 Si / 1000 Ang^3
#
#
#
# Elastic Constant Matrix: (Units=GPa)
#
#
# Indices 1 2 3 4 5 6 
#
# 1 123.4795 -0.6509 21.1800 0.0000 32.6164 0.0000
# 2 -0.6509 88.3935 -6.1768 0.0000 15.3911 0.0000
# 3 21.1800 -6.1768 32.9916 0.0000 12.4469 0.0000
# 4 0.0000 0.0000 0.0000-1457.5128 0.0000 -406.9057
# 5 32.6164 15.3911 12.4469 0.0000 50.4675 0.0000
# 6 0.0000 0.0000 0.0000 -406.9057 0.0000 -93.8681
#
#
#
# Elastic Compliance Matrix: (Units=1/GPa)
#
#
# Indices 1 2 3 4 5 6 
#
# 1 0.010400 0.000805 -0.004297 0.000000 -0.005907 0.000000
# 2 0.000805 0.012504 0.003814 0.000000 -0.005274 0.000000
# 3 -0.004297 0.003814 0.036578 0.000000 -0.007407 0.000000
# 4 0.000000 0.000000 0.000000 0.003264 0.000000 -0.014149
# 5 -0.005907 -0.005274 -0.007407 0.000000 0.027068 0.000000
# 6 0.000000 0.000000 0.000000 -0.014149 0.000000 0.050682
#
#
# Mechanical properties :
#
#
# Convention : Reuss Voigt Hill
#
# Bulk Modulus (GPa) = 16.63193 30.39658 23.51425
# Shear Modulus (GPa) = 31.27062 -284.81520 -126.77229
#
# Velocity S-wave (km/s) = 3.64980 -11.01495 -7.34874
# Velocity P-wave (km/s) = 4.98462 12.19932 7.87328
#
# Compressibility (1/GPa) = 0.06012532
#
# Stress axis : x y z
#
# Youngs Moduli (GPa) = 96.15207 79.97546 27.33863
#
# Poissons Ratio (x) = -0.06437 0.11749
# Poissons Ratio (y) = -0.07738 -0.10427
# Poissons Ratio (z) = 0.41321 -0.30504
#
# Static dielectric constant tensor:
#      x y z
#    x 1.895580 0.000000 -0.032880 
#    y 0.000000 1.955500 0.000000 
#    z -0.032880 0.000000 1.872910 
# 
# From -- ./inp_files/31319.got.cif
#   From: 2010.05.17/outbox.cif.g08.bks.cpg/sg11_16_cif.got.tgz:31319.got - 2010.06.03 12:22:45.
