data_PCOD9159081
_publ_section_title
;
Structure prediction by ZEFSAII (Michael W. Deem and Ramdas Pophale) SiO2 
 PCOD9159081
Probable space group: P 21/M
;
_chemical_formula_sum "Si O2"
_cell_formula_units_Z 32
_cell_length_a 11.708124
_cell_length_b 8.949752
_cell_length_c 32.398182
_cell_angle_alpha 90.000000
_cell_angle_beta 147.672417
_cell_angle_gamma 90.000000
_cell_volume 1815.420466
_symmetry_space_group_name_H-M "P 21/M"
_symmetry_group_IT_number 11
_symmetry_cell_setting 'monoclinic'
loop_
_space_group_symop_operation_xyz
x,y,z
-x,1/2+y,-z
-x,-y,-z
x,1/2-y,z
loop_
_atom_site_type_symbol
_atom_site_label
_atom_site_fract_x
_atom_site_fract_y
_atom_site_fract_z
Si Si1 0.362155 0.569842 0.149469
Si Si2 0.342125 0.571860 0.602035
Si Si3 0.023605 0.429122 0.443365
Si Si4 0.009131 0.429771 0.900400
Si Si5 0.877584 0.569966 0.225255
Si Si6 0.176613 0.929188 0.703661
Si Si7 0.610396 0.071368 0.937015
Si Si8 0.806293 0.430368 0.751594
O O1 0.387297 0.750000 0.159294
O O2 0.170560 0.524872 0.120972
O O3 0.585690 0.494977 0.230019
O O4 0.320415 0.531196 0.088780
O O5 0.360590 0.750000 0.605582
O O6 0.183010 0.534359 0.591436
O O7 0.572074 0.499627 0.678523
O O8 0.223996 0.509745 0.525322
O O9 0.055132 0.250000 0.455283
O O10 0.969752 0.470556 0.380040
O O11 0.022030 0.250000 0.904967
O O12 0.929554 0.476160 0.830906
O O13 0.234631 0.495155 0.983173
O O14 0.879828 0.750000 0.231326
O O15 0.905570 0.494117 0.278156
O O16 0.639526 0.530547 0.136487
O O17 0.054595 0.528060 0.245903
O O18 0.189373 0.750000 0.709474
O O19 0.626918 0.250000 0.946229
O O20 0.787979 0.250000 0.746734
#
# Coordination Sequence:
#
# PCOD9159081 Si02
#       8
#     4   4   4   4   4   4   4   4
#     4   9  18  32  49  73 107 138 164 202 255 310
#     4  10  20  34  55  82 108 134 166 203 245 299
#     4   9  19  35  54  80 112 137 159 198 253 304
#     4  10  20  32  50  76 101 132 173 210 251 307
#     4   9  20  38  54  70  99 138 174 210 256 302
#     4  10  19  32  54  80 102 130 171 212 249 295
#     4   9  18  32  49  70  99 135 171 211 257 298
#     4  10  21  37  54  72 101 138 172 210 256 301
#
# _framework density 17.626771999999999
#
# number of rings (size 3 to 8) (size 9 to 14) (size 15 to 20)
#    0.000    2.500    0.000    2.625    0.000    5.500 
#    0.000    0.625    0.000    0.000    0.000    0.000 
#    0.000    0.000    0.000    0.000    0.000    0.000 
#
# Total GULP energy -178573.844382 kJ/mol
# GULP energy per Si atom -5580.432637 kJ/mol
# Density = 1.758665 g / cm^3
# Si number density = 17.626772 Si / 1000 Ang^3
#
#
#
# Elastic Constant Matrix: (Units=GPa)
#
#
# Indices 1 2 3 4 5 6 
#
# 1 68.3110 26.9998 57.4238 0.0000 -5.5038 0.0000
# 2 26.9998 17.5974 39.4994 0.0000 -5.9881 0.0000
# 3 57.4238 39.4994 141.1599 0.0000 -27.1807 0.0000
# 4 0.0000 0.0000 0.0000 36.6918 0.0000 0.5698
# 5 -5.5038 -5.9881 -27.1807 0.0000 10.9226 0.0000
# 6 0.0000 0.0000 0.0000 0.5698 0.0000 18.6706
#
#
#
# Elastic Compliance Matrix: (Units=1/GPa)
#
#
# Indices 1 2 3 4 5 6 
#
# 1 0.039753 -0.061103 -0.003201 0.000000 -0.021431 0.000000
# 2 -0.061103 0.258265 -0.050067 0.000000 -0.013791 0.000000
# 3 -0.003201 -0.050067 0.032256 0.000000 0.051207 0.000000
# 4 0.000000 0.000000 0.000000 0.027267 0.000000 -0.000832
# 5 -0.021431 -0.013791 0.051207 0.000000 0.200622 0.000000
# 6 0.000000 0.000000 0.000000 -0.000832 0.000000 0.053585
#
#
# Mechanical properties :
#
#
# Convention : Reuss Voigt Hill
#
# Bulk Modulus (GPa) = 9.84889 52.76825 31.30857
# Shear Modulus (GPa) = 5.71865 20.13337 12.92601
#
# Velocity S-wave (km/s) = 1.80315 3.38332 2.71092
# Velocity P-wave (km/s) = 3.15194 6.72784 5.25350
#
# Compressibility (1/GPa) = 0.10153424
#
# Stress axis : x y z
#
# Youngs Moduli (GPa) = 25.15502 3.87200 31.00210
#
# Poissons Ratio (x) = 0.23659 0.09922
# Poissons Ratio (y) = 1.53704 1.55217
# Poissons Ratio (z) = 0.08051 0.19386
#
# Static dielectric constant tensor:
#      x y z
#    x 1.593370 0.000000 -0.010540 
#    y 0.000000 1.010130 0.000000 
#    z -0.010540 0.000000 1.574990 
# 
# From -- ./inp_files/73189.got.cif
#   From: 2010.05.17/outbox.cif.g08.bks.cpg/sg11_37_cif.got.tgz:73189.got - 2010.06.03 12:22:45.
