data_PCOD9159069
_publ_section_title
;
Structure prediction by ZEFSAII (Michael W. Deem and Ramdas Pophale) SiO2 
 PCOD9159069
Probable space group: P 21/M
;
_chemical_formula_sum "Si O2"
_cell_formula_units_Z 32
_cell_length_a 12.318036
_cell_length_b 8.713696
_cell_length_c 23.698214
_cell_angle_alpha 90.000000
_cell_angle_beta 136.672287
_cell_angle_gamma 90.000000
_cell_volume 1745.385632
_symmetry_space_group_name_H-M "P 21/M"
_symmetry_group_IT_number 11
_symmetry_cell_setting 'monoclinic'
loop_
_space_group_symop_operation_xyz
x,y,z
-x,1/2+y,-z
-x,-y,-z
x,1/2-y,z
loop_
_atom_site_type_symbol
_atom_site_label
_atom_site_fract_x
_atom_site_fract_y
_atom_site_fract_z
Si Si1 0.939867 0.932909 0.264586
Si Si2 0.240469 0.567168 0.588141
Si Si3 0.115103 0.435046 0.092542
Si Si4 0.974984 0.432668 0.159334
Si Si5 0.486028 0.433613 0.231408
Si Si6 0.020163 0.432170 0.415642
Si Si7 0.418558 0.430053 0.843851
Si Si8 0.633087 0.930228 0.009942
O O1 0.949486 0.750000 0.266929
O O2 0.751672 0.972958 0.194715
O O3 0.015662 0.998580 0.236022
O O4 0.007081 0.992723 0.349263
O O5 0.220096 0.750000 0.571845
O O6 0.421178 0.538894 0.674971
O O7 0.175805 0.481417 0.508958
O O8 0.124896 0.523928 0.597078
O O9 0.100965 0.250000 0.084750
O O10 0.301009 0.472979 0.157407
O O11 0.064747 0.485701 0.136639
O O12 0.000000 0.500000 0.000000
O O13 0.989858 0.250000 0.168509
O O14 0.794712 0.481456 0.079811
O O15 0.503764 0.250000 0.226656
O O16 0.579209 0.533337 0.220927
O O17 0.012985 0.250000 0.405739
O O18 0.447483 0.250000 0.866148
O O19 0.558947 0.534019 0.921274
O O20 0.655223 0.750000 0.028012
O O21 0.500000 0.000000 0.000000
#
# Coordination Sequence:
#
# PCOD9159069 Si02
#       8
#     4   4   4   4   4   4   4   4
#     4  11  22  35  54  80 114 150 185 226 279 338
#     4   9  18  32  53  81 114 150 185 225 277 339
#     4  10  23  41  61  84 111 149 193 240 282 327
#     4  11  23  39  58  81 111 146 190 235 284 338
#     4  10  20  37  59  82 111 149 192 233 281 335
#     4  10  19  32  53  82 117 151 183 225 282 340
#     4  11  22  34  51  80 113 144 183 229 278 332
#     4  12  23  35  52  75 106 143 181 225 277 334
#
# _framework density 18.334057000000001
#
# number of rings (size 3 to 8) (size 9 to 14) (size 15 to 20)
#    0.000    1.500    2.500    3.375    0.000    5.500 
#    0.000    0.000    0.000    0.750    0.000    0.000 
#    0.000    0.000    0.000    0.000    0.000    0.000 
#
# Total GULP energy -178579.491562 kJ/mol
# GULP energy per Si atom -5580.609111 kJ/mol
# Density = 1.829233 g / cm^3
# Si number density = 18.334057 Si / 1000 Ang^3
#
#
#
# Elastic Constant Matrix: (Units=GPa)
#
#
# Indices 1 2 3 4 5 6 
#
# 1 76.9743 22.8828 32.1302 0.0000 -14.2620 0.0000
# 2 22.8828 27.3194 31.9290 0.0000 -10.1739 0.0000
# 3 32.1302 31.9290 125.9893 0.0000 -15.2405 0.0000
# 4 0.0000 0.0000 0.0000 33.8777 0.0000 -5.2824
# 5 -14.2620 -10.1739 -15.2405 0.0000 31.5284 0.0000
# 6 0.0000 0.0000 0.0000 -5.2824 0.0000 17.4327
#
#
#
# Elastic Compliance Matrix: (Units=1/GPa)
#
#
# Indices 1 2 3 4 5 6 
#
# 1 0.017740 -0.012432 -0.000943 0.000000 0.003557 0.000000
# 2 -0.012432 0.064622 -0.012070 0.000000 0.009395 0.000000
# 3 -0.000943 -0.012070 0.011379 0.000000 0.001179 0.000000
# 4 0.000000 0.000000 0.000000 0.030982 0.000000 0.009388
# 5 0.003557 0.009395 0.001179 0.000000 0.036928 0.000000
# 6 0.000000 0.000000 0.000000 0.009388 0.000000 0.060208
#
#
# Mechanical properties :
#
#
# Convention : Reuss Voigt Hill
#
# Bulk Modulus (GPa) = 23.33668 44.90742 34.12205
# Shear Modulus (GPa) = 17.41955 26.12383 21.77169
#
# Velocity S-wave (km/s) = 3.08575 3.77885 3.44975
# Velocity P-wave (km/s) = 5.04500 6.60203 5.87532
#
# Compressibility (1/GPa) = 0.04285100
#
# Stress axis : x y z
#
# Youngs Moduli (GPa) = 56.37016 15.47449 87.87934
#
# Poissons Ratio (x) = 0.19238 0.08289
# Poissons Ratio (y) = 0.70079 1.06072
# Poissons Ratio (z) = 0.05317 0.18678
#
# Static dielectric constant tensor:
#      x y z
#    x 1.595930 0.000000 -0.007540 
#    y 0.000000 1.624380 0.000000 
#    z -0.007540 0.000000 1.670320 
# 
# From -- ./inp_files/64443.got.cif
#   From: 2010.05.17/outbox.cif.g08.bks.cpg/sg11_33_cif.got.tgz:64443.got - 2010.06.03 12:22:45.
