data_PCOD9159609
_publ_section_title
;
Structure prediction by ZEFSAII (Michael W. Deem and Ramdas Pophale) SiO2 
 PCOD9159609
Probable space group: P 21/M
;
_chemical_formula_sum "Si O2"
_cell_formula_units_Z 32
_cell_length_a 22.461854
_cell_length_b 8.685324
_cell_length_c 28.842512
_cell_angle_alpha 90.000000
_cell_angle_beta 18.765929
_cell_angle_gamma 90.000000
_cell_volume 1810.170273
_symmetry_space_group_name_H-M "P 21/M"
_symmetry_group_IT_number 11
_symmetry_cell_setting 'monoclinic'
loop_
_space_group_symop_operation_xyz
x,y,z
-x,1/2+y,-z
-x,-y,-z
x,1/2-y,z
loop_
_atom_site_type_symbol
_atom_site_label
_atom_site_fract_x
_atom_site_fract_y
_atom_site_fract_z
Si Si1 0.369364 0.434536 0.455239
Si Si2 0.339428 0.934952 0.839344
Si Si3 0.303946 0.435037 0.160766
Si Si4 0.375470 0.565367 0.302851
Si Si5 0.801047 0.435556 0.661612
Si Si6 0.546211 0.934980 0.415530
Si Si7 0.956653 0.935886 0.082575
Si Si8 0.080184 0.564284 0.599299
O O1 0.368680 0.250000 0.458588
O O2 0.536178 0.482493 0.297016
O O3 0.411856 0.504175 0.474065
O O4 0.182339 0.491975 0.568224
O O5 0.344801 0.750000 0.836863
O O6 0.441217 0.998926 0.809243
O O7 0.128358 0.984858 0.988180
O O8 0.309384 0.250000 0.157412
O O9 0.258243 0.496094 0.245697
O O10 0.131109 0.480928 0.255131
O O11 0.500000 0.500000 0.000000
O O12 0.383591 0.750000 0.298357
O O13 0.335669 0.519357 0.279616
O O14 0.204500 0.519223 0.462654
O O15 0.808208 0.250000 0.658913
O O16 0.000000 0.500000 0.500000
O O17 0.539781 0.750000 0.421070
O O18 0.755015 0.985033 0.248162
O O19 0.500000 0.000000 0.500000
O O20 0.957547 0.750000 0.079883
O O21 0.000000 0.000000 0.000000
O O22 0.088165 0.750000 0.597328
#
# Coordination Sequence:
#
# PCOD9159609 Si02
#       8
#     4   4   4   4   4   4   4   4
#     4  10  19  33  56  84 112 142 184 233 280 335
#     4   9  18  32  52  82 113 140 178 230 281 330
#     4  11  23  40  59  85 117 154 194 238 288 344
#     4   9  18  33  53  81 113 145 183 228 280 335
#     4  11  21  36  58  85 115 149 190 238 287 341
#     4  11  23  38  57  81 113 153 190 231 281 334
#     4  10  20  35  56  82 110 141 180 225 276 328
#     4   9  18  35  56  80 113 147 186 231 278 337
#
# _framework density 17.677893999999998
#
# number of rings (size 3 to 8) (size 9 to 14) (size 15 to 20)
#    0.000    2.000    2.500    1.500    0.000    3.500 
#    0.000    1.250    0.000    3.000    0.000    0.000 
#    0.000    0.000    0.000    0.000    0.000    0.000 
#
# Total GULP energy -178590.843853 kJ/mol
# GULP energy per Si atom -5580.963870 kJ/mol
# Density = 1.763766 g / cm^3
# Si number density = 17.677894 Si / 1000 Ang^3
#
#
#
# Elastic Constant Matrix: (Units=GPa)
#
#
# Indices 1 2 3 4 5 6 
#
# 1 176.2544 46.5379 87.3593 0.0000 -18.6995 0.0000
# 2 46.5379 35.2917 36.0326 0.0000 -4.5517 0.0000
# 3 87.3593 36.0326 125.8316 0.0000 -12.7462 0.0000
# 4 0.0000 0.0000 0.0000 23.9505 0.0000 -1.3161
# 5 -18.6995 -4.5517 -12.7462 0.0000 32.5776 0.0000
# 6 0.0000 0.0000 0.0000 -1.3161 0.0000 34.7072
#
#
#
# Elastic Compliance Matrix: (Units=1/GPa)
#
#
# Indices 1 2 3 4 5 6 
#
# 1 0.010591 -0.009016 -0.004459 0.000000 0.003075 0.000000
# 2 -0.009016 0.047760 -0.007565 0.000000 -0.001462 0.000000
# 3 -0.004459 -0.007565 0.013373 0.000000 0.001616 0.000000
# 4 0.000000 0.000000 0.000000 0.041840 0.000000 0.001587
# 5 0.003075 -0.001462 0.001616 0.000000 0.032889 0.000000
# 6 0.000000 0.000000 0.000000 0.001587 0.000000 0.028873
#
#
# Mechanical properties :
#
#
# Convention : Reuss Voigt Hill
#
# Bulk Modulus (GPa) = 33.73523 75.24858 54.49190
# Shear Modulus (GPa) = 21.99875 29.41026 25.70450
#
# Velocity S-wave (km/s) = 3.53146 4.08324 3.81733
# Velocity P-wave (km/s) = 5.97938 8.05539 7.09374
#
# Compressibility (1/GPa) = 0.02964261
#
# Stress axis : x y z
#
# Youngs Moduli (GPa) = 94.42311 20.93824 74.77750
#
# Poissons Ratio (x) = 0.18878 0.33346
# Poissons Ratio (y) = 0.85131 0.56569
# Poissons Ratio (z) = 0.42107 0.15840
#
# Static dielectric constant tensor:
#      x y z
#    x 1.593220 0.000000 -0.022610 
#    y 0.000000 1.590880 0.000000 
#    z -0.022610 0.000000 1.586380 
# 
# From -- ./inp_files/72005.got.cif
#   From: 2010.05.17/outbox.cif.g08.bks.cpg/sg11_37_cif.got.tgz:72005.got - 2010.06.03 12:22:45.
