data_PCOD9159674
_publ_section_title
;
Structure prediction by ZEFSAII (Michael W. Deem and Ramdas Pophale) SiO2 
 PCOD9159674
Probable space group: P 21/M
;
_chemical_formula_sum "Si O2"
_cell_formula_units_Z 32
_cell_length_a 12.457617
_cell_length_b 8.816518
_cell_length_c 29.522282
_cell_angle_alpha 90.000000
_cell_angle_beta 146.156053
_cell_angle_gamma 90.000000
_cell_volume 1805.863082
_symmetry_space_group_name_H-M "P 21/M"
_symmetry_group_IT_number 11
_symmetry_cell_setting 'monoclinic'
loop_
_space_group_symop_operation_xyz
x,y,z
-x,1/2+y,-z
-x,-y,-z
x,1/2-y,z
loop_
_atom_site_type_symbol
_atom_site_label
_atom_site_fract_x
_atom_site_fract_y
_atom_site_fract_z
Si Si1 0.748425 0.569542 0.632256
Si Si2 0.434753 0.931189 0.281474
Si Si3 0.815260 0.067992 0.459922
Si Si4 0.706317 0.431593 0.522016
Si Si5 0.234902 0.069092 0.128314
Si Si6 0.810105 0.930874 0.991065
Si Si7 0.318085 0.569126 0.962194
Si Si8 0.934260 0.069191 0.784430
O O1 0.772396 0.750000 0.644770
O O2 0.784789 0.515270 0.593802
O O3 0.522327 0.532962 0.562316
O O4 0.877583 0.485880 0.714532
O O5 0.456541 0.750000 0.287375
O O6 0.248556 0.966297 0.247428
O O7 0.622446 0.005344 0.369036
O O8 0.389045 0.996924 0.215978
O O9 0.816706 0.250000 0.457643
O O10 0.806762 0.026455 0.510174
O O11 0.000000 0.000000 0.500000
O O12 0.721380 0.250000 0.533983
O O13 0.224143 0.250000 0.131237
O O14 0.270901 0.040110 0.087716
O O15 0.027226 0.996414 0.067088
O O16 0.819180 0.750000 0.001491
O O17 0.693591 0.007849 0.990551
O O18 0.327179 0.750000 0.965147
O O19 0.122528 0.513072 0.869389
O O20 0.500000 0.500000 0.000000
O O21 0.964542 0.250000 0.796029
#
# Coordination Sequence:
#
# PCOD9159674 Si02
#       8
#     4   4   4   4   4   4   4   4
#     4  10  19  33  57  87 116 148 191 240 288 341
#     4  11  22  36  59  88 119 153 196 244 289 343
#     4  11  23  40  60  84 119 156 196 239 291 352
#     4   9  19  35  55  82 116 152 189 236 290 344
#     4  10  20  34  58  88 119 153 192 243 293 341
#     4  10  20  36  57  86 120 154 195 240 290 347
#     4  12  25  41  62  86 119 158 196 240 294 353
#     4  11  22  37  59  88 120 152 194 243 288 343
#
# _framework density 17.720058999999999
#
# number of rings (size 3 to 8) (size 9 to 14) (size 15 to 20)
#    0.000    1.500    2.500    3.375    0.000    4.000 
#    0.000    1.250    0.000    6.000    0.000    0.000 
#    0.000    0.000    0.000    0.000    0.000    0.000 
#
# Total GULP energy -178814.506218 kJ/mol
# GULP energy per Si atom -5587.953319 kJ/mol
# Density = 1.767973 g / cm^3
# Si number density = 17.720059 Si / 1000 Ang^3
#
#
#
# Elastic Constant Matrix: (Units=GPa)
#
#
# Indices 1 2 3 4 5 6 
#
# 1 160.0653 78.9939 73.2867 0.0000 -7.2772 0.0000
# 2 78.9939 92.1123 58.3779 0.0000 -2.0673 0.0000
# 3 73.2867 58.3779 88.6933 0.0000 -9.4437 0.0000
# 4 0.0000 0.0000 0.0000 33.9239 0.0000 -2.4997
# 5 -7.2772 -2.0673 -9.4437 0.0000 28.3446 0.0000
# 6 0.0000 0.0000 0.0000 -2.4997 0.0000 30.5638
#
#
#
# Elastic Compliance Matrix: (Units=1/GPa)
#
#
# Indices 1 2 3 4 5 6 
#
# 1 0.012231 -0.007071 -0.005362 0.000000 0.000838 0.000000
# 2 -0.007071 0.022936 -0.009609 0.000000 -0.003344 0.000000
# 3 -0.005362 -0.009609 0.022612 0.000000 0.005456 0.000000
# 4 0.000000 0.000000 0.000000 0.029656 0.000000 0.002425
# 5 0.000838 -0.003344 0.005456 0.000000 0.037069 0.000000
# 6 0.000000 0.000000 0.000000 0.002425 0.000000 0.032917
#
#
# Mechanical properties :
#
#
# Convention : Reuss Voigt Hill
#
# Bulk Modulus (GPa) = 73.03809 84.68754 78.86282
# Shear Modulus (GPa) = 24.26360 27.24730 25.75545
#
# Velocity S-wave (km/s) = 3.70438 3.92555 3.81657
# Velocity P-wave (km/s) = 7.72035 8.27298 8.00144
#
# Compressibility (1/GPa) = 0.01369149
#
# Stress axis : x y z
#
# Youngs Moduli (GPa) = 81.76246 43.60040 44.22515
#
# Poissons Ratio (x) = 0.30831 0.23716
# Poissons Ratio (y) = 0.57817 0.42497
# Poissons Ratio (z) = 0.43845 0.41897
#
# Static dielectric constant tensor:
#      x y z
#    x 1.599750 0.000000 -0.015300 
#    y 0.000000 1.587800 0.000000 
#    z -0.015300 0.000000 1.578260 
# 
# From -- ./inp_files/38250.got.cif
#   From: 2010.05.17/outbox.cif.g08.bks.cpg/sg11_20_cif.got.tgz:38250.got - 2010.06.03 12:22:45.
