data_PCOD9159143
_publ_section_title
;
Structure prediction by ZEFSAII (Michael W. Deem and Ramdas Pophale) SiO2 
 PCOD9159143
Probable space group: P 21/M
;
_chemical_formula_sum "Si O2"
_cell_formula_units_Z 32
_cell_length_a 28.719642
_cell_length_b 8.798154
_cell_length_c 22.602922
_cell_angle_alpha 90.000000
_cell_angle_beta 18.580425
_cell_angle_gamma 90.000000
_cell_volume 1819.823674
_symmetry_space_group_name_H-M "P 21/M"
_symmetry_group_IT_number 11
_symmetry_cell_setting 'monoclinic'
loop_
_space_group_symop_operation_xyz
x,y,z
-x,1/2+y,-z
-x,-y,-z
x,1/2-y,z
loop_
_atom_site_type_symbol
_atom_site_label
_atom_site_fract_x
_atom_site_fract_y
_atom_site_fract_z
Si Si1 0.766260 0.930519 0.794454
Si Si2 0.691190 0.931763 0.224451
Si Si3 0.993471 0.930640 0.413175
Si Si4 0.832396 0.067353 0.496458
Si Si5 0.523190 0.931672 0.906582
Si Si6 0.114006 0.069638 0.815490
Si Si7 0.625848 0.430618 0.430682
Si Si8 0.018393 0.567784 0.806341
O O1 0.745705 0.750000 0.826178
O O2 0.865244 0.955140 0.616388
O O3 0.860960 0.997789 0.734057
O O4 0.612869 0.012501 0.968848
O O5 0.686203 0.750000 0.242973
O O6 0.546679 0.967793 0.360724
O O7 0.678981 0.018593 0.301409
O O8 0.845658 0.966443 0.008669
O O9 0.010036 0.750000 0.385544
O O10 0.941960 0.008888 0.415154
O O11 0.820853 0.250000 0.513827
O O12 0.894075 0.024894 0.357796
O O13 0.675414 0.993721 0.698078
O O14 0.526637 0.750000 0.906282
O O15 0.500000 0.000000 0.000000
O O16 0.102925 0.250000 0.831641
O O17 0.274099 0.015408 0.642769
O O18 0.075696 0.010988 0.796514
O O19 0.000000 0.000000 0.000000
O O20 0.644345 0.250000 0.415002
O O21 0.031680 0.750000 0.798090
#
# Coordination Sequence:
#
# PCOD9159143 Si02
#       8
#     4   4   4   4   4   4   4   4
#     4  10  20  35  58  87 117 149 190 241 292 343
#     4   9  18  34  56  82 113 146 187 234 282 340
#     4  10  20  35  57  85 117 152 191 239 289 345
#     4  11  23  39  60  85 118 158 199 241 293 356
#     4  12  23  37  59  87 119 154 196 245 297 350
#     4  12  23  36  57  85 116 153 195 244 293 346
#     4  10  19  32  55  86 114 145 186 237 289 338
#     4  10  22  40  60  84 115 155 196 239 290 352
#
# _framework density 17.584121
#
# number of rings (size 3 to 8) (size 9 to 14) (size 15 to 20)
#    0.000    1.500    2.500    3.750    0.000    2.500 
#    0.000    1.250    0.000    6.000    0.000    0.000 
#    0.000    0.000    0.000    0.000    0.000    0.000 
#
# Total GULP energy -178781.364231 kJ/mol
# GULP energy per Si atom -5586.917632 kJ/mol
# Density = 1.754410 g / cm^3
# Si number density = 17.584121 Si / 1000 Ang^3
#
#
#
# Elastic Constant Matrix: (Units=GPa)
#
#
# Indices 1 2 3 4 5 6 
#
# 1 145.4558 76.6534 93.8555 0.0000 -14.3954 0.0000
# 2 76.6534 93.6703 71.1451 0.0000 -2.0710 0.0000
# 3 93.8555 71.1451 141.4832 0.0000 -10.2482 0.0000
# 4 0.0000 0.0000 0.0000 25.6219 0.0000 -5.7799
# 5 -14.3954 -2.0710 -10.2482 0.0000 26.7961 0.0000
# 6 0.0000 0.0000 0.0000 -5.7799 0.0000 33.1781
#
#
#
# Elastic Compliance Matrix: (Units=1/GPa)
#
#
# Indices 1 2 3 4 5 6 
#
# 1 0.015394 -0.008123 -0.005732 0.000000 0.005450 0.000000
# 2 -0.008123 0.021668 -0.005865 0.000000 -0.004932 0.000000
# 3 -0.005732 -0.005865 0.013950 0.000000 0.001802 0.000000
# 4 0.000000 0.000000 0.000000 0.040626 0.000000 0.007077
# 5 0.005450 -0.004932 0.001802 0.000000 0.040555 0.000000
# 6 0.000000 0.000000 0.000000 0.007077 0.000000 0.031373
#
#
# Mechanical properties :
#
#
# Convention : Reuss Voigt Hill
#
# Bulk Modulus (GPa) = 86.41242 95.99081 91.20161
# Shear Modulus (GPa) = 24.17053 26.38291 25.27672
#
# Velocity S-wave (km/s) = 3.71154 3.87768 3.79552
# Velocity P-wave (km/s) = 8.22291 8.64619 8.43720
#
# Compressibility (1/GPa) = 0.01157241
#
# Stress axis : x y z
#
# Youngs Moduli (GPa) = 64.96148 46.15041 71.68269
#
# Poissons Ratio (x) = 0.37487 0.41092
# Poissons Ratio (y) = 0.52767 0.42040
# Poissons Ratio (z) = 0.37239 0.27066
#
# Static dielectric constant tensor:
#      x y z
#    x 1.575400 0.000000 -0.017490 
#    y 0.000000 1.586250 0.000000 
#    z -0.017490 0.000000 1.594590 
# 
# From -- ./inp_files/67020.got.cif
#   From: 2010.05.17/outbox.cif.g08.bks.cpg/sg11_34_cif.got.tgz:67020.got - 2010.06.03 12:22:45.
