data_PCOD9159283
_publ_section_title
;
Structure prediction by ZEFSAII (Michael W. Deem and Ramdas Pophale) SiO2 
 PCOD9159283
Probable space group: P 21/M
;
_chemical_formula_sum "Si O2"
_cell_formula_units_Z 24
_cell_length_a 6.987154
_cell_length_b 15.078248
_cell_length_c 10.931128
_cell_angle_alpha 90.000000
_cell_angle_beta 118.129416
_cell_angle_gamma 90.000000
_cell_volume 1015.612642
_symmetry_space_group_name_H-M "P 21/M"
_symmetry_group_IT_number 11
_symmetry_cell_setting 'monoclinic'
loop_
_space_group_symop_operation_xyz
x,y,z
-x,1/2+y,-z
-x,-y,-z
x,1/2-y,z
loop_
_atom_site_type_symbol
_atom_site_label
_atom_site_fract_x
_atom_site_fract_y
_atom_site_fract_z
Si Si1 0.703741 0.528269 0.855623
Si Si2 0.872237 0.153845 0.305857
Si Si3 0.483073 0.646448 0.306054
Si Si4 0.129862 0.494655 0.851592
Si Si5 0.611441 0.852176 0.610987
Si Si6 0.976482 0.592421 0.416818
O O1 0.638886 0.425950 0.812523
O O2 0.576674 0.586877 0.718106
O O3 0.949463 0.541332 0.880744
O O4 0.710826 0.548838 0.001876
O O5 0.797553 0.250000 0.239345
O O6 0.132490 0.144657 0.353740
O O7 0.867842 0.150977 0.452173
O O8 0.769707 0.070178 0.205256
O O9 0.420808 0.750000 0.273046
O O10 0.478235 0.622053 0.449290
O O11 0.736902 0.634162 0.350449
O O12 0.004213 0.429884 0.720207
O O13 0.573262 0.750000 0.629262
O O14 0.000000 0.500000 0.500000
#
# Coordination Sequence:
#
# PCOD9159283 Si02
#       6
#     4   4   4   4   4   4
#     4  10  19  33  52  77 110 142 169 210 265 316
#     4   8  14  28  50  71  95 131 173 213 255 307
#     4  10  20  34  54  77 103 139 180 218 261 315
#     4   9  19  32  50  77 106 138 175 212 259 315
#     4   8  15  29  49  72  97 131 173 213 257 308
#     4   9  17  32  52  73  97 131 174 218 260 304
#
# _framework density 23.631056999999998
#
# number of rings (size 3 to 8) (size 9 to 14) (size 15 to 20)
#    0.000    3.000    0.000    3.000    0.000    1.333 
#    0.000    5.833    0.000    7.000    0.000    0.000 
#    0.000    0.000    0.000    0.000    0.000    0.000 
#
# Total GULP energy -133860.095112 kJ/mol
# GULP energy per Si atom -5577.503963 kJ/mol
# Density = 2.357727 g / cm^3
# Si number density = 23.631057 Si / 1000 Ang^3
#
#
#
# Elastic Constant Matrix: (Units=GPa)
#
#
# Indices 1 2 3 4 5 6 
#
# 1 59.7191 -9.4674 23.7277 0.0000 -3.6071 0.0000
# 2 -9.4674 84.4661 53.9345 0.0000 -3.3705 0.0000
# 3 23.7277 53.9345 169.7070 0.0000 -21.5870 0.0000
# 4 0.0000 0.0000 0.0000 20.1738 0.0000 4.4782
# 5 -3.6071 -3.3705 -21.5870 0.0000 38.3266 0.0000
# 6 0.0000 0.0000 0.0000 4.4782 0.0000 22.4542
#
#
#
# Elastic Compliance Matrix: (Units=1/GPa)
#
#
# Indices 1 2 3 4 5 6 
#
# 1 0.019193 0.004857 -0.004247 0.000000 -0.000159 0.000000
# 2 0.004857 0.016158 -0.006006 0.000000 -0.001505 0.000000
# 3 -0.004247 -0.006006 0.008916 0.000000 0.004094 0.000000
# 4 0.000000 0.000000 0.000000 0.051865 0.000000 -0.010344
# 5 -0.000159 -0.001505 0.004094 0.000000 0.028250 0.000000
# 6 0.000000 0.000000 0.000000 -0.010344 0.000000 0.046598
#
#
# Mechanical properties :
#
#
# Convention : Reuss Voigt Hill
#
# Bulk Modulus (GPa) = 29.87309 50.03130 39.95219
# Shear Modulus (GPa) = 25.91603 32.57075 29.24339
#
# Velocity S-wave (km/s) = 3.31523 3.71658 3.52163
# Velocity P-wave (km/s) = 5.22716 6.29564 5.78612
#
# Compressibility (1/GPa) = 0.03347494
#
# Stress axis : x y z
#
# Youngs Moduli (GPa) = 52.10240 61.88780 112.16104
#
# Poissons Ratio (x) = -0.30058 0.47638
# Poissons Ratio (y) = -0.25306 0.67361
# Poissons Ratio (z) = 0.22129 0.37168
#
# Static dielectric constant tensor:
#      x y z
#    x 2.007830 0.000000 -0.018150 
#    y 0.000000 1.898380 0.000000 
#    z -0.018150 0.000000 1.919900 
# 
# From -- ./inp_files/35314.got.cif
#   From: 2010.05.17/outbox.cif.g08.bks.cpg/sg11_18_cif.got.tgz:35314.got - 2010.06.03 12:22:45.
