data_PCOD9159342
_publ_section_title
;
Structure prediction by ZEFSAII (Michael W. Deem and Ramdas Pophale) SiO2 
 PCOD9159342
Probable space group: P 21/M
;
_chemical_formula_sum "Si O2"
_cell_formula_units_Z 32
_cell_length_a 12.357081
_cell_length_b 8.871387
_cell_length_c 31.952791
_cell_angle_alpha 90.000000
_cell_angle_beta 29.536271
_cell_angle_gamma 90.000000
_cell_volume 1726.794348
_symmetry_space_group_name_H-M "P 21/M"
_symmetry_group_IT_number 11
_symmetry_cell_setting 'monoclinic'
loop_
_space_group_symop_operation_xyz
x,y,z
-x,1/2+y,-z
-x,-y,-z
x,1/2-y,z
loop_
_atom_site_type_symbol
_atom_site_label
_atom_site_fract_x
_atom_site_fract_y
_atom_site_fract_z
Si Si1 0.060111 0.431335 0.362768
Si Si2 0.677601 0.428998 0.083092
Si Si3 0.836388 0.570494 0.114517
Si Si4 0.555152 0.430970 0.526312
Si Si5 0.227952 0.569493 0.219390
Si Si6 0.147385 0.431802 0.720341
Si Si7 0.202232 0.068469 0.406469
Si Si8 0.697143 0.069340 0.249313
O O1 0.078494 0.250000 0.351583
O O2 0.803234 0.470207 0.455158
O O3 0.145133 0.508087 0.292037
O O4 0.184453 0.474912 0.363431
O O5 0.647301 0.250000 0.096961
O O6 0.703031 0.499194 0.120783
O O7 0.468728 0.502459 0.131369
O O8 0.906784 0.457766 0.982278
O O9 0.801325 0.750000 0.127239
O O10 0.770096 0.496841 0.180375
O O11 0.500000 0.500000 0.500000
O O12 0.542896 0.250000 0.527143
O O13 0.370148 0.478859 0.621355
O O14 0.236226 0.750000 0.218257
O O15 0.055670 0.525870 0.241171
O O16 0.147765 0.250000 0.724428
O O17 0.154781 0.506072 0.763153
O O18 0.184544 0.250000 0.414312
O O19 0.442041 0.023754 0.342375
O O20 0.000000 0.000000 0.500000
O O21 0.706167 0.250000 0.244973
#
# Coordination Sequence:
#
# PCOD9159342 Si02
#       8
#     4   4   4   4   4   4   4   4
#     4  10  20  34  55  80 111 148 185 234 294 344
#     4  10  21  38  62  91 121 147 181 232 285 341
#     4  10  21  39  64  91 117 150 187 227 282 343
#     4  10  19  33  53  77 108 148 191 239 287 334
#     4  11  22  36  57  85 114 148 191 237 287 339
#     4  10  22  39  56  79 114 154 197 241 284 340
#     4  10  22  38  55  80 112 147 187 231 280 334
#     4  11  23  38  59  86 116 152 194 238 286 341
#
# _framework density 18.531448999999999
#
# number of rings (size 3 to 8) (size 9 to 14) (size 15 to 20)
#    0.000    1.750    1.250    3.000    0.000    6.500 
#    0.000    0.625    0.000    0.000    0.000    0.000 
#    0.000    0.000    0.000    0.000    0.000    0.000 
#
# Total GULP energy -178809.425130 kJ/mol
# GULP energy per Si atom -5587.794535 kJ/mol
# Density = 1.848927 g / cm^3
# Si number density = 18.531449 Si / 1000 Ang^3
#
#
#
# Elastic Constant Matrix: (Units=GPa)
#
#
# Indices 1 2 3 4 5 6 
#
# 1 126.0643 41.6423 50.5755 0.0000 -5.2749 0.0000
# 2 41.6423 35.7383 37.3764 0.0000 -3.7859 0.0000
# 3 50.5755 37.3764 76.1399 0.0000 -0.7286 0.0000
# 4 0.0000 0.0000 0.0000 32.1093 0.0000 2.0114
# 5 -5.2749 -3.7859 -0.7286 0.0000 34.0565 0.0000
# 6 0.0000 0.0000 0.0000 2.0114 0.0000 32.2263
#
#
#
# Elastic Compliance Matrix: (Units=1/GPa)
#
#
# Indices 1 2 3 4 5 6 
#
# 1 0.013133 -0.012584 -0.002541 0.000000 0.000581 0.000000
# 2 -0.012584 0.070725 -0.026308 0.000000 0.005350 0.000000
# 3 -0.002541 -0.026308 0.027710 0.000000 -0.002725 0.000000
# 4 0.000000 0.000000 0.000000 0.031266 0.000000 -0.001951
# 5 0.000581 0.005350 -0.002725 0.000000 0.029989 0.000000
# 6 0.000000 0.000000 0.000000 -0.001951 0.000000 0.031152
#
#
# Mechanical properties :
#
#
# Convention : Reuss Voigt Hill
#
# Bulk Modulus (GPa) = 34.84078 55.23676 45.03877
# Shear Modulus (GPa) = 16.86869 26.90164 21.88517
#
# Velocity S-wave (km/s) = 3.02035 3.81422 3.44026
# Velocity P-wave (km/s) = 5.56822 7.01922 6.33540
#
# Compressibility (1/GPa) = 0.02870199
#
# Stress axis : x y z
#
# Youngs Moduli (GPa) = 76.14565 14.13934 36.08848
#
# Poissons Ratio (x) = 0.17793 0.09168
# Poissons Ratio (y) = 0.95820 0.94943
# Poissons Ratio (z) = 0.19345 0.37198
#
# Static dielectric constant tensor:
#      x y z
#    x 1.621340 0.000000 -0.019780 
#    y 0.000000 1.616620 0.000000 
#    z -0.019780 0.000000 1.636480 
# 
# From -- ./inp_files/73098.got.cif
#   From: 2010.05.17/outbox.cif.g08.bks.cpg/sg11_37_cif.got.tgz:73098.got - 2010.06.03 12:22:45.
