data_PCOD9159475
_publ_section_title
;
Structure prediction by ZEFSAII (Michael W. Deem and Ramdas Pophale) SiO2 
 PCOD9159475
Probable space group: P 21/M
;
_chemical_formula_sum "Si O2"
_cell_formula_units_Z 32
_cell_length_a 29.099289
_cell_length_b 8.123404
_cell_length_c 22.493887
_cell_angle_alpha 90.000000
_cell_angle_beta 17.998600
_cell_angle_gamma 90.000000
_cell_volume 1642.988949
_symmetry_space_group_name_H-M "P 21/M"
_symmetry_group_IT_number 11
_symmetry_cell_setting 'monoclinic'
loop_
_space_group_symop_operation_xyz
x,y,z
-x,1/2+y,-z
-x,-y,-z
x,1/2-y,z
loop_
_atom_site_type_symbol
_atom_site_label
_atom_site_fract_x
_atom_site_fract_y
_atom_site_fract_z
Si Si1 0.779380 0.946181 0.308405
Si Si2 0.757640 0.450327 0.533918
Si Si3 0.100786 0.949029 0.961419
Si Si4 0.904545 0.055072 0.900474
Si Si5 0.958164 0.449140 0.485119
Si Si6 0.787694 0.553271 0.918428
Si Si7 0.334693 0.948153 0.220032
Si Si8 0.543557 0.447178 0.691818
O O1 0.776478 0.750000 0.316906
O O2 0.932860 0.006088 0.151116
O O3 0.637754 0.014912 0.516990
O O4 0.794496 0.994346 0.220972
O O5 0.767032 0.250000 0.520954
O O6 0.707264 0.500990 0.661638
O O7 0.640046 0.506836 0.629112
O O8 0.919886 0.519642 0.320603
O O9 0.098003 0.750000 0.965136
O O10 0.142598 0.006111 0.976039
O O11 0.879138 0.250000 0.929430
O O12 0.826908 0.978633 0.938679
O O13 0.956977 0.250000 0.484189
O O14 0.795041 0.507307 0.664839
O O15 0.000000 0.500000 0.500000
O O16 0.081893 0.509242 0.285495
O O17 0.784204 0.750000 0.914367
O O18 0.624051 0.486707 0.104528
O O19 0.330577 0.750000 0.224739
O O20 0.500000 0.000000 0.000000
O O21 0.534096 0.250000 0.709264
#
# Coordination Sequence:
#
# PCOD9159475 Si02
#       8
#     4   4   4   4   4   4   4   4
#     4  10  19  33  54  83 117 148 182 234 286 331
#     4  10  20  37  60  83 112 149 190 234 282 338
#     4   9  19  34  53  81 115 148 186 231 280 337
#     4  11  21  36  59  87 114 147 189 237 285 328
#     4  10  22  40  60  83 114 151 191 232 279 337
#     4  10  22  41  60  81 114 153 192 232 277 341
#     4  10  22  39  59  86 116 148 188 237 283 334
#     4  10  21  36  59  85 111 150 191 232 284 336
#
# _framework density 19.476697000000001
#
# number of rings (size 3 to 8) (size 9 to 14) (size 15 to 20)
#    0.000    2.000    2.500    0.750    1.750    3.500 
#    0.000    0.625    0.000    0.000    0.000    0.000 
#    0.000    0.000    0.000    0.000    0.000    0.000 
#
# Total GULP energy -178667.028563 kJ/mol
# GULP energy per Si atom -5583.344643 kJ/mol
# Density = 1.943237 g / cm^3
# Si number density = 19.476697 Si / 1000 Ang^3
#
#
#
# Elastic Constant Matrix: (Units=GPa)
#
#
# Indices 1 2 3 4 5 6 
#
# 1 131.2979 -2.8653 62.8657 0.0000 1.2864 0.0000
# 2 -2.8653 4.3678 3.3528 0.0000 -1.0590 0.0000
# 3 62.8657 3.3528 102.0217 0.0000 -13.8683 0.0000
# 4 0.0000 0.0000 0.0000 19.7772 0.0000 4.7374
# 5 1.2864 -1.0590 -13.8683 0.0000 30.9601 0.0000
# 6 0.0000 0.0000 0.0000 4.7374 0.0000 21.2265
#
#
#
# Elastic Compliance Matrix: (Units=1/GPa)
#
#
# Indices 1 2 3 4 5 6 
#
# 1 0.011909 0.013262 -0.008284 0.000000 -0.003752 0.000000
# 2 0.013262 0.250334 -0.016302 0.000000 0.000709 0.000000
# 3 -0.008284 -0.016302 0.016413 0.000000 0.007138 0.000000
# 4 0.000000 0.000000 0.000000 0.053419 0.000000 -0.011922
# 5 -0.003752 0.000709 0.007138 0.000000 0.035677 0.000000
# 6 0.000000 0.000000 0.000000 -0.011922 0.000000 0.049772
#
#
# Mechanical properties :
#
#
# Convention : Reuss Voigt Hill
#
# Bulk Modulus (GPa) = 3.90616 40.48819 22.19717
# Shear Modulus (GPa) = 9.51460 26.01505 17.76483
#
# Velocity S-wave (km/s) = 2.21263 3.65869 3.02339
# Velocity P-wave (km/s) = 2.92191 6.21942 4.85895
#
# Compressibility (1/GPa) = 0.25600604
#
# Stress axis : x y z
#
# Youngs Moduli (GPa) = 83.97085 3.99466 60.92875
#
# Poissons Ratio (x) = -0.05298 0.50474
# Poissons Ratio (y) = -1.11360 0.99328
# Poissons Ratio (z) = 0.69562 0.06512
#
# Static dielectric constant tensor:
#      x y z
#    x 1.677350 0.000000 -0.004070 
#    y 0.000000 1.689730 0.000000 
#    z -0.004070 0.000000 1.664870 
# 
# From -- ./inp_files/66957.got.cif
#   From: 2010.05.17/outbox.cif.g08.bks.cpg/sg11_34_cif.got.tgz:66957.got - 2010.06.03 12:22:45.
