data_PCOD9159749
_publ_section_title
;
Structure prediction by ZEFSAII (Michael W. Deem and Ramdas Pophale) SiO2 
 PCOD9159749
Probable space group: P 21/M
;
_chemical_formula_sum "Si O2"
_cell_formula_units_Z 32
_cell_length_a 16.007766
_cell_length_b 8.755965
_cell_length_c 14.571465
_cell_angle_alpha 90.000000
_cell_angle_beta 90.830548
_cell_angle_gamma 90.000000
_cell_volume 2042.172065
_symmetry_space_group_name_H-M "P 21/M"
_symmetry_group_IT_number 11
_symmetry_cell_setting 'monoclinic'
loop_
_space_group_symop_operation_xyz
x,y,z
-x,1/2+y,-z
-x,-y,-z
x,1/2-y,z
loop_
_atom_site_type_symbol
_atom_site_label
_atom_site_fract_x
_atom_site_fract_y
_atom_site_fract_z
Si Si1 0.180198 0.566555 0.606860
Si Si2 0.499162 0.934018 0.602160
Si Si3 0.821512 0.433316 0.609029
Si Si4 0.006241 0.433480 0.602819
Si Si5 0.599186 0.933377 0.908200
Si Si6 0.666401 0.933879 0.715160
Si Si7 0.341365 0.068072 0.709066
Si Si8 0.401560 0.568606 0.895254
O O1 0.180582 0.750000 0.610721
O O2 0.187725 0.521507 0.498771
O O3 0.091459 0.504177 0.642243
O O4 0.257244 0.498575 0.663678
O O5 0.494421 0.750000 0.600072
O O6 0.584499 0.978779 0.655481
O O7 0.500000 0.000000 0.500000
O O8 0.419906 0.998225 0.655455
O O9 0.814736 0.250000 0.611287
O O10 0.749072 0.503586 0.669008
O O11 0.915642 0.473493 0.643113
O O12 0.012907 0.250000 0.599796
O O13 0.000000 0.500000 0.500000
O O14 0.390743 0.750000 0.884757
O O15 0.651541 0.982248 0.820148
O O16 0.500992 0.964956 0.887141
O O17 0.622361 0.014759 0.003224
O O18 0.669226 0.750000 0.714733
O O19 0.342143 0.250000 0.701018
O O20 0.352720 0.017355 0.814504
O O21 0.393521 0.250000 0.080265
#
# Coordination Sequence:
#
# PCOD9159749 Si02
#       8
#     4   4   4   4   4   4   4   4
#     4  10  20  34  51  72 100 133 169 213 253 294
#     4  11  22  36  48  67  99 137 174 209 244 288
#     4   9  19  32  48  72 101 131 165 205 246 290
#     4   9  17  31  49  71  99 130 166 209 252 295
#     4   9  18  34  51  71  96 125 163 209 254 295
#     4  10  20  33  49  69  98 132 166 204 245 290
#     4  12  23  34  50  73  99 134 170 205 250 302
#     4  10  19  34  53  72  96 126 162 210 255 296
#
# _framework density 15.669591
#
# number of rings (size 3 to 8) (size 9 to 14) (size 15 to 20)
#    0.000    2.000    1.250    4.125    0.000    7.000 
#    0.000    0.000    0.000    0.000    0.000    0.875 
#    0.000    0.000    0.000    0.000    0.000    0.000 
#
# Total GULP energy -178539.712875 kJ/mol
# GULP energy per Si atom -5579.366027 kJ/mol
# Density = 1.563393 g / cm^3
# Si number density = 15.669591 Si / 1000 Ang^3
#
#
#
# Elastic Constant Matrix: (Units=GPa)
#
#
# Indices 1 2 3 4 5 6 
#
# 1 145.4851 48.3482 67.2497 0.0000 -6.4582 0.0000
# 2 48.3482 56.7461 37.2947 0.0000 -3.4167 0.0000
# 3 67.2497 37.2947 101.4090 0.0000 -6.3440 0.0000
# 4 0.0000 0.0000 0.0000 26.1742 0.0000 -1.6115
# 5 -6.4582 -3.4167 -6.3440 0.0000 5.5141 0.0000
# 6 0.0000 0.0000 0.0000 -1.6115 0.0000 29.0501
#
#
#
# Elastic Compliance Matrix: (Units=1/GPa)
#
#
# Indices 1 2 3 4 5 6 
#
# 1 0.011443 -0.006187 -0.005080 0.000000 0.003724 0.000000
# 2 -0.006187 0.026709 -0.005536 0.000000 0.002934 0.000000
# 3 -0.005080 -0.005536 0.015818 0.000000 0.008818 0.000000
# 4 0.000000 0.000000 0.000000 0.038337 0.000000 0.002127
# 5 0.003724 0.002934 0.008818 0.000000 0.197678 0.000000
# 6 0.000000 0.000000 0.000000 0.002127 0.000000 0.034541
#
#
# Mechanical properties :
#
#
# Convention : Reuss Voigt Hill
#
# Bulk Modulus (GPa) = 49.10849 67.71392 58.41120
# Shear Modulus (GPa) = 13.70166 22.19752 17.94959
#
# Velocity S-wave (km/s) = 2.96025 3.76786 3.38820
# Velocity P-wave (km/s) = 6.56446 7.88900 7.25701
#
# Compressibility (1/GPa) = 0.02036308
#
# Stress axis : x y z
#
# Youngs Moduli (GPa) = 87.38814 37.44116 63.21968
#
# Poissons Ratio (x) = 0.23163 0.32118
# Poissons Ratio (y) = 0.54063 0.35000
# Poissons Ratio (z) = 0.44397 0.20729
#
# Static dielectric constant tensor:
#      x y z
#    x 1.514420 0.000000 -0.008190 
#    y 0.000000 1.524140 0.000000 
#    z -0.008190 0.000000 1.501150 
# 
# From -- ./inp_files/51304.got.cif
#   From: 2010.05.17/outbox.cif.g08.bks.cpg/sg11_26_cif.got.tgz:51304.got - 2010.06.03 12:22:45.
