data_PCOD9159951
_publ_section_title
;
Structure prediction by ZEFSAII (Michael W. Deem and Ramdas Pophale) SiO2 
 PCOD9159951
Probable space group: P 21/M
;
_chemical_formula_sum "Si O2"
_cell_formula_units_Z 24
_cell_length_a 9.089216
_cell_length_b 8.966928
_cell_length_c 16.417624
_cell_angle_alpha 90.000000
_cell_angle_beta 75.464158
_cell_angle_gamma 90.000000
_cell_volume 1295.244188
_symmetry_space_group_name_H-M "P 21/M"
_symmetry_group_IT_number 11
_symmetry_cell_setting 'monoclinic'
loop_
_space_group_symop_operation_xyz
x,y,z
-x,1/2+y,-z
-x,-y,-z
x,1/2-y,z
loop_
_atom_site_type_symbol
_atom_site_label
_atom_site_fract_x
_atom_site_fract_y
_atom_site_fract_z
Si Si1 0.276817 0.920775 0.079326
Si Si2 0.055663 0.570220 0.576767
Si Si3 0.537750 0.073631 0.263861
Si Si4 0.370294 0.078836 0.909179
Si Si5 0.806620 0.926142 0.748336
Si Si6 0.377490 0.428613 0.577967
O O1 0.236288 0.750000 0.069078
O O2 0.453889 0.924347 0.084048
O O3 0.184594 0.986500 0.168056
O O4 0.272002 0.014865 0.997181
O O5 0.067888 0.750000 0.568151
O O6 0.215242 0.497197 0.577408
O O7 0.000000 0.500000 0.500000
O O8 0.934409 0.536179 0.664836
O O9 0.559308 0.250000 0.275413
O O10 0.359806 0.047702 0.267770
O O11 0.630818 0.020388 0.171691
O O12 0.582306 0.980005 0.336421
O O13 0.331923 0.250000 0.896464
O O14 0.815551 0.750000 0.765081
O O15 0.500000 0.500000 0.500000
O O16 0.377305 0.250000 0.570711
#
# Coordination Sequence:
#
# PCOD9159951 Si02
#       6
#     4   4   4   4   4   4
#     4   9  16  26  45  74 107 143 183 226 269 315
#     4  11  23  40  61  85 113 146 184 227 277 333
#     4  10  19  34  56  83 113 145 184 229 276 327
#     4   9  16  27  45  73 109 146 183 224 270 319
#     4   9  19  34  54  80 111 145 181 224 274 327
#     4  12  25  41  60  83 111 145 185 229 279 333
#
# _framework density 18.529325
#
# number of rings (size 3 to 8) (size 9 to 14) (size 15 to 20)
#    0.000    2.000    0.000    4.500    0.000    7.333 
#    0.000    0.000    0.000    1.000    0.000    0.000 
#    0.000    0.000    0.000    0.000    0.000    0.000 
#
# Total GULP energy -134029.143387 kJ/mol
# GULP energy per Si atom -5584.547641 kJ/mol
# Density = 1.848715 g / cm^3
# Si number density = 18.529325 Si / 1000 Ang^3
#
#
#
# Elastic Constant Matrix: (Units=GPa)
#
#
# Indices 1 2 3 4 5 6 
#
# 1 52.6292 53.3239 54.9874 0.0000 -15.7880 0.0000
# 2 53.3239 122.7330 83.9138 0.0000 -15.3776 0.0000
# 3 54.9874 83.9138 154.7202 0.0000 -20.0650 0.0000
# 4 0.0000 0.0000 0.0000 42.6263 0.0000 1.2266
# 5 -15.7880 -15.3776 -20.0650 0.0000 18.2069 0.0000
# 6 0.0000 0.0000 0.0000 1.2266 0.0000 22.7032
#
#
#
# Elastic Compliance Matrix: (Units=1/GPa)
#
#
# Indices 1 2 3 4 5 6 
#
# 1 0.044500 -0.012312 -0.006396 0.000000 0.021140 0.000000
# 2 -0.012312 0.016577 -0.004882 0.000000 -0.002055 0.000000
# 3 -0.006396 -0.004882 0.011819 0.000000 0.003356 0.000000
# 4 0.000000 0.000000 0.000000 0.023496 0.000000 -0.001269
# 5 0.021140 -0.002055 0.003356 0.000000 0.075219 0.000000
# 6 0.000000 0.000000 0.000000 -0.001269 0.000000 0.044115
#
#
# Mechanical properties :
#
#
# Convention : Reuss Voigt Hill
#
# Bulk Modulus (GPa) = 38.88515 79.39253 59.13884
# Shear Modulus (GPa) = 18.41770 25.89778 22.15774
#
# Velocity S-wave (km/s) = 3.15616 3.74259 3.46181
# Velocity P-wave (km/s) = 5.85774 7.84958 6.92564
#
# Compressibility (1/GPa) = 0.02571676
#
# Stress axis : x y z
#
# Youngs Moduli (GPa) = 22.47196 60.32417 84.60793
#
# Poissons Ratio (x) = 0.74272 0.54116
# Poissons Ratio (y) = 0.27668 0.41302
# Poissons Ratio (z) = 0.14373 0.29447
#
# Static dielectric constant tensor:
#      x y z
#    x 1.636070 0.000000 -0.003480 
#    y 0.000000 1.620880 0.000000 
#    z -0.003480 0.000000 1.618980 
# 
# From -- ./inp_files/25946.got.cif
#   From: 2010.05.17/outbox.cif.g08.bks.cpg/sg11_13_cif.got.tgz:25946.got - 2010.06.03 12:22:45.
