data_PCOD9159954
_publ_section_title
;
Structure prediction by ZEFSAII (Michael W. Deem and Ramdas Pophale) SiO2 
 PCOD9159954
Probable space group: P 21/M
;
_chemical_formula_sum "Si O2"
_cell_formula_units_Z 32
_cell_length_a 31.101901
_cell_length_b 8.706400
_cell_length_c 11.375748
_cell_angle_alpha 90.000000
_cell_angle_beta 145.743862
_cell_angle_gamma 90.000000
_cell_volume 1733.930670
_symmetry_space_group_name_H-M "P 21/M"
_symmetry_group_IT_number 11
_symmetry_cell_setting 'monoclinic'
loop_
_space_group_symop_operation_xyz
x,y,z
-x,1/2+y,-z
-x,-y,-z
x,1/2-y,z
loop_
_atom_site_type_symbol
_atom_site_label
_atom_site_fract_x
_atom_site_fract_y
_atom_site_fract_z
Si Si1 0.874297 0.434589 0.679436
Si Si2 0.799494 0.434446 0.157398
Si Si3 0.567066 0.064770 0.998756
Si Si4 0.053795 0.433110 0.396094
Si Si5 0.101355 0.433620 0.009937
Si Si6 0.282751 0.935855 0.789948
Si Si7 0.747546 0.933505 0.793337
Si Si8 0.595365 0.433086 0.336066
O O1 0.882326 0.250000 0.694518
O O2 0.919554 0.505303 0.671847
O O3 0.900635 0.498990 0.863211
O O4 0.785221 0.474824 0.454413
O O5 0.804914 0.250000 0.172485
O O6 0.883184 0.503545 0.371261
O O7 0.746379 0.484682 0.147615
O O8 0.764696 0.490811 0.957403
O O9 0.560071 0.250000 0.974617
O O10 0.484728 0.990839 0.791664
O O11 0.634840 0.009872 0.066711
O O12 0.591440 0.028573 0.188092
O O13 0.053752 0.250000 0.396921
O O14 0.969000 0.497473 0.222167
O O15 0.093963 0.250000 0.998043
O O16 0.182102 0.474131 0.133612
O O17 0.286383 0.750000 0.799861
O O18 0.746359 0.750000 0.803315
O O19 0.668181 0.990442 0.560245
O O20 0.601023 0.250000 0.359668
#
# Coordination Sequence:
#
# PCOD9159954 Si02
#       8
#     4   4   4   4   4   4   4   4
#     4  10  19  34  56  83 115 146 179 222 274 325
#     4  10  21  39  60  80 106 141 184 231 275 321
#     4   9  17  33  57  84 114 143 174 214 264 322
#     4  11  22  37  57  81 110 144 182 223 272 325
#     4  11  23  37  54  79 109 142 183 228 275 328
#     4   8  16  32  56  82 106 139 179 219 266 320
#     4  11  24  40  57  78 107 144 185 228 275 326
#     4  10  20  34  55  84 115 145 176 215 267 324
#
# _framework density 18.455179000000001
#
# number of rings (size 3 to 8) (size 9 to 14) (size 15 to 20)
#    0.000    2.000    0.000    4.875    0.000    4.000 
#    0.000    4.375    0.000    0.000    0.000    0.000 
#    0.000    0.000    0.000    0.000    0.000    0.000 
#
# Total GULP energy -178747.593282 kJ/mol
# GULP energy per Si atom -5585.862290 kJ/mol
# Density = 1.841317 g / cm^3
# Si number density = 18.455179 Si / 1000 Ang^3
#
#
#
# Elastic Constant Matrix: (Units=GPa)
#
#
# Indices 1 2 3 4 5 6 
#
# 1 26.4786 24.2752 54.6484 0.0000 4.5878 0.0000
# 2 24.2752 61.3387 52.1360 0.0000 3.8907 0.0000
# 3 54.6484 52.1360 148.2756 0.0000 16.5146 0.0000
# 4 0.0000 0.0000 0.0000 32.5897 0.0000 -3.9314
# 5 4.5878 3.8907 16.5146 0.0000 27.7922 0.0000
# 6 0.0000 0.0000 0.0000 -3.9314 0.0000 21.3007
#
#
#
# Elastic Compliance Matrix: (Units=1/GPa)
#
#
# Indices 1 2 3 4 5 6 
#
# 1 0.176075 -0.020330 -0.058711 0.000000 0.008667 0.000000
# 2 -0.020330 0.025676 -0.001616 0.000000 0.000722 0.000000
# 3 -0.058711 -0.001616 0.029820 0.000000 -0.007801 0.000000
# 4 0.000000 0.000000 0.000000 0.031383 0.000000 0.005792
# 5 0.008667 0.000722 -0.007801 0.000000 0.039085 0.000000
# 6 0.000000 0.000000 0.000000 0.005792 0.000000 0.048016
#
#
# Mechanical properties :
#
#
# Convention : Reuss Voigt Hill
#
# Bulk Modulus (GPa) = 14.23345 55.35690 34.79518
# Shear Modulus (GPa) = 9.34951 23.33874 16.34413
#
# Velocity S-wave (km/s) = 2.25323 3.56000 2.97915
# Velocity P-wave (km/s) = 3.80770 6.85264 5.54334
#
# Compressibility (1/GPa) = 0.07025705
#
# Stress axis : x y z
#
# Youngs Moduli (GPa) = 5.67941 38.94655 33.53495
#
# Poissons Ratio (x) = 0.79179 1.96887
# Poissons Ratio (y) = 0.11546 0.05418
# Poissons Ratio (z) = 0.33344 0.06292
#
# Static dielectric constant tensor:
#      x y z
#    x 1.633640 0.000000 0.019600 
#    y 0.000000 1.615200 0.000000 
#    z 0.019600 0.000000 1.618350 
# 
# From -- ./inp_files/45350.got.cif
#   From: 2010.05.17/outbox.cif.g08.bks.cpg/sg11_23_cif.got.tgz:45350.got - 2010.06.03 12:22:45.
