data_PCOD9159756
_publ_section_title
;
Structure prediction by ZEFSAII (Michael W. Deem and Ramdas Pophale) SiO2 
 PCOD9159756
Probable space group: P 21/M
;
_chemical_formula_sum "Si O2"
_cell_formula_units_Z 32
_cell_length_a 9.454571
_cell_length_b 12.454856
_cell_length_c 13.503997
_cell_angle_alpha 90.000000
_cell_angle_beta 90.764481
_cell_angle_gamma 90.000000
_cell_volume 1590.025948
_symmetry_space_group_name_H-M "P 21/M"
_symmetry_group_IT_number 11
_symmetry_cell_setting 'monoclinic'
loop_
_space_group_symop_operation_xyz
x,y,z
-x,1/2+y,-z
-x,-y,-z
x,1/2-y,z
loop_
_atom_site_type_symbol
_atom_site_label
_atom_site_fract_x
_atom_site_fract_y
_atom_site_fract_z
Si Si1 0.406447 0.366605 0.286673
Si Si2 0.174049 0.869683 0.331525
Si Si3 0.407537 0.626247 0.046678
Si Si4 0.607845 0.474355 0.154607
Si Si5 0.090030 0.619719 0.794625
Si Si6 0.199700 0.469957 0.149351
Si Si7 0.917355 0.980254 0.396592
Si Si8 0.336600 0.482681 0.476781
O O1 0.472431 0.250000 0.293536
O O2 0.526437 0.450209 0.255845
O O3 0.294571 0.375359 0.196384
O O4 0.331672 0.394512 0.389269
O O5 0.213889 0.750000 0.309285
O O6 0.202044 0.945014 0.239179
O O7 0.264893 0.913517 0.424604
O O8 0.007169 0.883556 0.350939
O O9 0.371257 0.750000 0.066867
O O10 0.542689 0.585101 0.111502
O O11 0.281378 0.539086 0.066920
O O12 0.439477 0.610146 0.931112
O O13 0.771354 0.447274 0.171761
O O14 0.105671 0.750000 0.800732
O O15 0.067153 0.579025 0.680548
O O16 0.957668 0.577424 0.859348
O O17 0.757958 0.957402 0.428494
O O18 0.000000 0.000000 0.500000
O O19 0.500000 0.500000 0.500000
#
# Coordination Sequence:
#
# PCOD9159756 Si02
#       8
#     4   4   4   4   4   4   4   4
#     4  10  19  34  53  75 108 146 185 232 285 337
#     4   9  18  34  51  67  98 142 181 219 270 332
#     4  10  20  39  62  83 118 158 192 237 289 341
#     4  10  22  37  59  90 115 149 200 237 280 352
#     4  11  21  37  60  86 120 152 186 244 299 335
#     4   9  20  34  54  82 107 141 188 229 276 343
#     4   9  20  35  51  77 108 145 189 225 272 346
#     4  10  20  32  49  77 106 132 176 232 279 335
#
# _framework density 20.125458999999999
#
# number of rings (size 3 to 8) (size 9 to 14) (size 15 to 20)
#    0.000    2.250    0.000    3.375    0.000    3.500 
#    0.000    3.750    0.000    1.500    0.000    0.000 
#    0.000    0.000    0.000    0.000    0.000    0.000 
#
# Total GULP energy -178146.983593 kJ/mol
# GULP energy per Si atom -5567.093237 kJ/mol
# Density = 2.007965 g / cm^3
# Si number density = 20.125459 Si / 1000 Ang^3
#
#
#
# Elastic Constant Matrix: (Units=GPa)
#
#
# Indices 1 2 3 4 5 6 
#
# 1 127.3428 10.2505 9.3971 0.0000 -11.4452 0.0000
# 2 10.2505 74.1075 17.5085 0.0000 -0.2495 0.0000
# 3 9.3971 17.5085 53.6461 0.0000 -13.4989 0.0000
# 4 0.0000 0.0000 0.0000 10.8045 0.0000 1.4696
# 5 -11.4452 -0.2495 -13.4989 0.0000 29.5452 0.0000
# 6 0.0000 0.0000 0.0000 1.4696 0.0000 14.0495
#
#
#
# Elastic Compliance Matrix: (Units=1/GPa)
#
#
# Indices 1 2 3 4 5 6 
#
# 1 0.008234 -0.001049 -0.000339 0.000000 0.003026 0.000000
# 2 -0.001049 0.014898 -0.005366 0.000000 -0.002732 0.000000
# 3 -0.000339 -0.005366 0.023058 0.000000 0.010358 0.000000
# 4 0.000000 0.000000 0.000000 0.093890 0.000000 -0.009821
# 5 0.003026 -0.002732 0.010358 0.000000 0.039728 0.000000
# 6 0.000000 0.000000 0.000000 -0.009821 0.000000 0.072204
#
#
# Mechanical properties :
#
#
# Convention : Reuss Voigt Hill
#
# Bulk Modulus (GPa) = 30.59695 36.60093 33.59894
# Shear Modulus (GPa) = 18.08892 25.40920 21.74906
#
# Velocity S-wave (km/s) = 3.00126 3.55708 3.29093
# Velocity P-wave (km/s) = 5.21979 5.92421 5.58312
#
# Compressibility (1/GPa) = 0.03268300
#
# Stress axis : x y z
#
# Youngs Moduli (GPa) = 121.44451 67.12530 43.36937
#
# Poissons Ratio (x) = 0.07040 0.01469
# Poissons Ratio (y) = 0.12737 0.23271
# Poissons Ratio (z) = 0.04112 0.36019
#
# Static dielectric constant tensor:
#      x y z
#    x 1.800820 0.000000 -0.015060 
#    y 0.000000 1.700600 0.000000 
#    z -0.015060 0.000000 1.751740 
# 
# From -- ./inp_files/47227.got.cif
#   From: 2010.05.17/outbox.cif.g08.bks.cpg/sg11_24_cif.got.tgz:47227.got - 2010.06.03 12:22:45.
