data_PCOD9159788
_publ_section_title
;
Structure prediction by ZEFSAII (Michael W. Deem and Ramdas Pophale) SiO2 
 PCOD9159788
Probable space group: P 21/M
;
_chemical_formula_sum "Si O2"
_cell_formula_units_Z 32
_cell_length_a 12.579814
_cell_length_b 8.240018
_cell_length_c 16.552256
_cell_angle_alpha 90.000000
_cell_angle_beta 98.180613
_cell_angle_gamma 90.000000
_cell_volume 1698.313045
_symmetry_space_group_name_H-M "P 21/M"
_symmetry_group_IT_number 11
_symmetry_cell_setting 'monoclinic'
loop_
_space_group_symop_operation_xyz
x,y,z
-x,1/2+y,-z
-x,-y,-z
x,1/2-y,z
loop_
_atom_site_type_symbol
_atom_site_label
_atom_site_fract_x
_atom_site_fract_y
_atom_site_fract_z
Si Si1 0.474283 0.943467 0.407596
Si Si2 0.699263 0.436143 0.023679
Si Si3 0.591827 0.444431 0.859218
Si Si4 0.400070 0.559973 0.731726
Si Si5 0.953013 0.446727 0.779768
Si Si6 0.107916 0.060809 0.052404
Si Si7 0.724889 0.447131 0.716769
Si Si8 0.200870 0.442606 0.797734
O O1 0.470143 0.750000 0.407326
O O2 0.360004 0.003948 0.359456
O O3 0.500000 0.000000 0.500000
O O4 0.561905 0.995961 0.350810
O O5 0.673633 0.250000 0.042495
O O6 0.744326 0.519261 0.109322
O O7 0.609343 0.508227 0.952602
O O8 0.799156 0.448319 0.972642
O O9 0.604047 0.250000 0.866624
O O10 0.476368 0.480857 0.808401
O O11 0.676422 0.503157 0.798989
O O12 0.419677 0.750000 0.736844
O O13 0.277885 0.521727 0.740010
O O14 0.955256 0.250000 0.790860
O O15 0.914723 0.532033 0.857024
O O16 0.849532 0.485640 0.712786
O O17 0.076241 0.496717 0.777801
O O18 0.130304 0.250000 0.036619
O O19 0.000000 0.000000 0.000000
O O20 0.719125 0.250000 0.719728
O O21 0.202062 0.250000 0.787228
#
# Coordination Sequence:
#
# PCOD9159788 Si02
#       8
#     4   4   4   4   4   4   4   4
#     4  10  20  38  65  94 118 140 169 212 270 332
#     4  11  21  34  52  74 105 145 191 241 288 329
#     4   9  18  34  55  76 105 144 186 236 287 330
#     4  11  23  39  58  80 111 146 184 227 273 330
#     4  10  19  34  54  77 105 144 188 230 277 327
#     4  12  22  31  46  71 104 144 191 243 283 321
#     4   8  15  31  55  83 112 140 171 218 277 326
#     4  11  23  36  53  76 108 150 194 233 274 328
#
# _framework density 18.842227000000001
#
# number of rings (size 3 to 8) (size 9 to 14) (size 15 to 20)
#    0.000    1.750    2.500    4.125    0.000    2.000 
#    0.000    0.625    0.000    0.750    0.000    0.000 
#    0.000    0.000    0.000    0.000    0.000    0.000 
#
# Total GULP energy -178405.578872 kJ/mol
# GULP energy per Si atom -5575.174340 kJ/mol
# Density = 1.879934 g / cm^3
# Si number density = 18.842227 Si / 1000 Ang^3
#
#
#
# Elastic Constant Matrix: (Units=GPa)
#
#
# Indices 1 2 3 4 5 6 
#
# 1 109.5325 7.5573 61.3581 0.0000 0.0847 0.0000
# 2 7.5573 33.9823 10.8885 0.0000 0.8213 0.0000
# 3 61.3581 10.8885 94.0329 0.0000 13.6687 0.0000
# 4 0.0000 0.0000 0.0000 24.2684 0.0000 -2.3764
# 5 0.0847 0.8213 13.6687 0.0000 17.1066 0.0000
# 6 0.0000 0.0000 0.0000 -2.3764 0.0000 16.6127
#
#
#
# Elastic Compliance Matrix: (Units=1/GPa)
#
#
# Indices 1 2 3 4 5 6 
#
# 1 0.015544 -0.000004 -0.011463 0.000000 0.009082 0.000000
# 2 -0.000004 0.030597 -0.003764 0.000000 0.001539 0.000000
# 3 -0.011463 -0.003764 0.020949 0.000000 -0.016501 0.000000
# 4 0.000000 0.000000 0.000000 0.041791 0.000000 0.005978
# 5 0.009082 0.001539 -0.016501 0.000000 0.071523 0.000000
# 6 0.000000 0.000000 0.000000 0.005978 0.000000 0.061050
#
#
# Mechanical properties :
#
#
# Convention : Reuss Voigt Hill
#
# Bulk Modulus (GPa) = 27.30104 44.12838 35.71471
# Shear Modulus (GPa) = 17.59795 22.11379 19.85587
#
# Velocity S-wave (km/s) = 3.05940 3.42954 3.24974
# Velocity P-wave (km/s) = 5.19621 6.25725 5.75125
#
# Compressibility (1/GPa) = 0.03662863
#
# Stress axis : x y z
#
# Youngs Moduli (GPa) = 64.33326 32.68314 47.73587
#
# Poissons Ratio (x) = 0.00012 0.54718
# Poissons Ratio (y) = 0.00023 0.17969
# Poissons Ratio (z) = 0.73742 0.12303
#
# Static dielectric constant tensor:
#      x y z
#    x 1.711720 0.000000 0.029700 
#    y 0.000000 1.659410 0.000000 
#    z 0.029700 0.000000 1.633680 
# 
# From -- ./inp_files/38187.got.cif
#   From: 2010.05.17/outbox.cif.g08.bks.cpg/sg11_20_cif.got.tgz:38187.got - 2010.06.03 12:22:45.
