data_PCOD9159642
_publ_section_title
;
Structure prediction by ZEFSAII (Michael W. Deem and Ramdas Pophale) SiO2 
 PCOD9159642
Probable space group: P 21/M
;
_chemical_formula_sum "Si O2"
_cell_formula_units_Z 30
_cell_length_a 27.799609
_cell_length_b 7.341281
_cell_length_c 18.785303
_cell_angle_alpha 90.000000
_cell_angle_beta 159.211737
_cell_angle_gamma 90.000000
_cell_volume 1360.672643
_symmetry_space_group_name_H-M "P 21/M"
_symmetry_group_IT_number 11
_symmetry_cell_setting 'monoclinic'
loop_
_space_group_symop_operation_xyz
x,y,z
-x,1/2+y,-z
-x,-y,-z
x,1/2-y,z
loop_
_atom_site_type_symbol
_atom_site_label
_atom_site_fract_x
_atom_site_fract_y
_atom_site_fract_z
Si Si1 0.212714 0.469301 0.431260
Si Si2 0.626854 0.459460 0.481586
Si Si3 0.916121 0.468963 0.082985
Si Si4 0.351593 0.033271 0.763644
Si Si5 0.893832 0.031351 0.219146
Si Si6 0.643826 0.956579 0.966043
Si Si7 0.179807 0.473106 0.659535
Si Si8 0.728421 0.750000 0.737946
O O1 0.220879 0.250000 0.437293
O O2 0.251967 0.541566 0.408458
O O3 0.316986 0.534498 0.636890
O O4 0.061874 0.512624 0.249411
O O5 0.599779 0.250000 0.466648
O O6 0.495782 0.532781 0.256898
O O7 0.662205 0.590814 0.594625
O O8 0.894113 0.250000 0.044437
O O9 0.918665 0.508655 0.170783
O O10 0.803751 0.590383 0.890096
O O11 0.333696 0.250000 0.734747
O O12 0.244478 0.969175 0.674130
O O13 0.500000 0.000000 0.000000
O O14 0.885470 0.250000 0.213892
O O15 0.023761 0.968511 0.444439
O O16 0.754546 0.955917 0.056682
O O17 0.609718 0.750000 0.940279
O O18 0.723129 0.038589 0.142964
O O19 0.178766 0.250000 0.660340
#
# Coordination Sequence:
#
# PCOD9159642 Si02
#       8
#     4   4   4   4   4   4   4   2
#     4  10  20  40  64  92 132 172 214 268 325 390
#     4  11  25  45  66  95 133 173 215 271 334 388
#     4  10  23  44  68  98 129 168 212 274 339 382
#     4  10  19  33  56  87 131 177 217 256 311 380
#     4  10  20  38  67  93 128 170 215 267 323 382
#     4  10  22  38  63  92 134 174 213 263 322 385
#     4   9  17  35  59  93 130 172 212 257 315 379
#     4  12  26  46  72  96 126 166 226 276 330 406
#
# _framework density 22.047919
#
# number of rings (size 3 to 8) (size 9 to 14) (size 15 to 20)
#    0.000    1.867    2.000    1.600    2.800    2.133 
#    0.000    2.000    0.000    0.000    0.000    0.000 
#    0.000    0.000    0.000    0.000    0.000    0.000 
#
# Total GULP energy -167151.183766 kJ/mol
# GULP energy per Si atom -5571.706126 kJ/mol
# Density = 2.199774 g / cm^3
# Si number density = 22.047919 Si / 1000 Ang^3
#
#
#
# Elastic Constant Matrix: (Units=GPa)
#
#
# Indices 1 2 3 4 5 6 
#
# 1 25.1259 4.7553 24.8661 0.0000 8.7890 0.0000
# 2 4.7553 109.3231 35.5995 0.0000 -16.5771 0.0000
# 3 24.8661 35.5995 88.6606 0.0000 -45.0757 0.0000
# 4 0.0000 0.0000 0.0000 -26.8540 0.0000 10.8998
# 5 8.7890 -16.5771 -45.0757 0.0000 22.3135 0.0000
# 6 0.0000 0.0000 0.0000 10.8998 0.0000 10.2675
#
#
#
# Elastic Compliance Matrix: (Units=1/GPa)
#
#
# Indices 1 2 3 4 5 6 
#
# 1 0.001324 -0.000654 0.022963 0.000000 0.045380 0.000000
# 2 -0.000654 0.010437 -0.002431 0.000000 0.003101 0.000000
# 3 0.022963 -0.002431 -0.011028 0.000000 -0.033129 0.000000
# 4 0.000000 0.000000 0.000000 -0.026025 0.000000 0.027627
# 5 0.045380 0.003101 -0.033129 0.000000 -0.037680 0.000000
# 6 0.000000 0.000000 0.000000 0.027627 0.000000 0.068066
#
#
# Mechanical properties :
#
#
# Convention : Reuss Voigt Hill
#
# Bulk Modulus (GPa) = 24.69823 39.28350 31.99086
# Shear Modulus (GPa) = -236.24236 11.67131 -112.28552
#
# Velocity S-wave (km/s) = -10.36253 2.30328 -7.14412
# Velocity P-wave (km/s) = 11.48694 4.99294 7.31506
#
# Compressibility (1/GPa) = 0.04048874
#
# Stress axis : x y z
#
# Youngs Moduli (GPa) = 755.31812 95.80875 -90.67580
#
# Poissons Ratio (x) = 0.06265 2.08218
# Poissons Ratio (y) = 0.49394 -0.22044
# Poissons Ratio (z) = -17.34429 0.23292
#
# Static dielectric constant tensor:
#      x y z
#    x 1.785790 0.000000 0.021950 
#    y 0.000000 1.838070 0.000000 
#    z 0.021950 0.000000 1.734840 
# 
# From -- ./inp_files/62360.got.cif
#   From: 2010.05.17/outbox.cif.g08.bks.cpg/sg11_32_cif.got.tgz:62360.got - 2010.06.03 12:22:45.
