data_PCOD9159728
_publ_section_title
;
Structure prediction by ZEFSAII (Michael W. Deem and Ramdas Pophale) SiO2 
 PCOD9159728
Probable space group: P 21/M
;
_chemical_formula_sum "Si O2"
_cell_formula_units_Z 30
_cell_length_a 6.836063
_cell_length_b 9.590309
_cell_length_c 20.513134
_cell_angle_alpha 90.000000
_cell_angle_beta 109.538622
_cell_angle_gamma 90.000000
_cell_volume 1267.399252
_symmetry_space_group_name_H-M "P 21/M"
_symmetry_group_IT_number 11
_symmetry_cell_setting 'monoclinic'
loop_
_space_group_symop_operation_xyz
x,y,z
-x,1/2+y,-z
-x,-y,-z
x,1/2-y,z
loop_
_atom_site_type_symbol
_atom_site_label
_atom_site_fract_x
_atom_site_fract_y
_atom_site_fract_z
Si Si1 0.417102 0.528714 0.902803
Si Si2 0.298528 0.411605 0.619820
Si Si3 0.288555 0.582630 0.493305
Si Si4 0.804198 0.093222 0.659939
Si Si5 0.342110 0.910614 0.748969
Si Si6 0.843801 0.911094 0.785299
Si Si7 0.899277 0.911559 0.932358
Si Si8 0.549903 0.250000 0.987272
O O1 0.308362 0.549525 0.820822
O O2 0.652201 0.583175 0.916542
O O3 0.347794 0.627909 0.953733
O O4 0.439936 0.372447 0.930309
O O5 0.231864 0.250000 0.606524
O O6 0.218946 0.509545 0.552210
O O7 0.551652 0.408686 0.639661
O O8 0.260959 0.481523 0.685848
O O9 0.500000 0.500000 0.500000
O O10 0.320533 0.750000 0.505430
O O11 0.157845 0.564673 0.412228
O O12 0.873326 0.250000 0.682969
O O13 0.886645 0.987609 0.722809
O O14 0.277417 0.750000 0.729542
O O15 0.593227 0.913515 0.766736
O O16 0.904620 0.750000 0.788931
O O17 0.932133 0.970060 0.863150
O O18 0.955175 0.750000 0.945410
O O19 0.000000 0.000000 0.000000
#
# Coordination Sequence:
#
# PCOD9159728 Si02
#       8
#     4   4   4   4   4   4   4   2
#     4  10  19  34  48  70  89 117 154 191 231 274
#     4   9  16  22  31  49  70  97 133 171 207 250
#     4   9  15  22  30  44  67  95 130 169 207 246
#     4   8  14  22  32  47  67  93 131 172 203 244
#     4   9  15  26  40  54  78 105 135 177 217 256
#     4   8  15  26  38  53  74 103 136 173 213 253
#     4  10  20  33  47  67  93 118 152 191 230 276
#     4  10  20  32  52  66  90 116 150 194 230 276
#
# _framework density 23.670521000000001
#
# number of rings (size 3 to 8) (size 9 to 14) (size 15 to 20)
#    0.000    2.933    1.333    2.400    1.867    4.267 
#    2.400    0.000    0.000    0.000    0.000    0.000 
#    0.000    0.000    0.000    0.000    0.000    8.000 
#
# Total GULP energy -167277.106490 kJ/mol
# GULP energy per Si atom -5575.903550 kJ/mol
# Density = 2.361665 g / cm^3
# Si number density = 23.670521 Si / 1000 Ang^3
#
#
#
# Elastic Constant Matrix: (Units=GPa)
#
#
# Indices 1 2 3 4 5 6 
#
# 1 77.3510 18.3685 22.8936 0.0000 -9.0533 0.0000
# 2 18.3685 211.3600 136.4140 0.0000 -9.3114 0.0000
# 3 22.8936 136.4140 213.4975 0.0000 -1.7578 0.0000
# 4 0.0000 0.0000 0.0000 51.4889 0.0000 -13.1413
# 5 -9.0533 -9.3114 -1.7578 0.0000 39.4923 0.0000
# 6 0.0000 0.0000 0.0000 -13.1413 0.0000 50.6542
#
#
#
# Elastic Compliance Matrix: (Units=1/GPa)
#
#
# Indices 1 2 3 4 5 6 
#
# 1 0.013722 -0.000213 -0.001310 0.000000 0.003037 0.000000
# 2 -0.000213 0.008167 -0.005182 0.000000 0.001646 0.000000
# 3 -0.001310 -0.005182 0.008126 0.000000 -0.001160 0.000000
# 4 0.000000 0.000000 0.000000 0.020799 0.000000 0.005396
# 5 0.003037 0.001646 -0.001160 0.000000 0.026354 0.000000
# 6 0.000000 0.000000 0.000000 0.005396 0.000000 0.021142
#
#
# Mechanical properties :
#
#
# Convention : Reuss Voigt Hill
#
# Bulk Modulus (GPa) = 60.22563 95.28453 77.75508
# Shear Modulus (GPa) = 42.64273 49.96257 46.30265
#
# Velocity S-wave (km/s) = 4.24903 4.59928 4.42762
# Velocity P-wave (km/s) = 7.04066 8.27927 7.68496
#
# Compressibility (1/GPa) = 0.01660423
#
# Stress axis : x y z
#
# Youngs Moduli (GPa) = 72.87601 122.45040 123.06722
#
# Poissons Ratio (x) = 0.02609 0.16125
# Poissons Ratio (y) = 0.01553 0.63769
# Poissons Ratio (z) = 0.09549 0.63449
#
# Static dielectric constant tensor:
#      x y z
#    x 2.105700 0.000000 -0.016210 
#    y 0.000000 1.786530 0.000000 
#    z -0.016210 0.000000 1.861110 
# 
# From -- ./inp_files/60764.got.cif
#   From: 2010.05.17/outbox.cif.g08.bks.cpg/sg11_31_cif.got.tgz:60764.got - 2010.06.03 12:22:45.
