data_PCOD9159972
_publ_section_title
;
Structure prediction by ZEFSAII (Michael W. Deem and Ramdas Pophale) SiO2 
 PCOD9159972
Probable space group: P 21/M
;
_chemical_formula_sum "Si O2"
_cell_formula_units_Z 28
_cell_length_a 12.076774
_cell_length_b 8.866419
_cell_length_c 15.950236
_cell_angle_alpha 90.000000
_cell_angle_beta 55.753264
_cell_angle_gamma 90.000000
_cell_volume 1411.799952
_symmetry_space_group_name_H-M "P 21/M"
_symmetry_group_IT_number 11
_symmetry_cell_setting 'monoclinic'
loop_
_space_group_symop_operation_xyz
x,y,z
-x,1/2+y,-z
-x,-y,-z
x,1/2-y,z
loop_
_atom_site_type_symbol
_atom_site_label
_atom_site_fract_x
_atom_site_fract_y
_atom_site_fract_z
Si Si1 0.155772 0.930207 0.643577
Si Si2 0.590854 0.929231 0.388888
Si Si3 0.143439 0.429726 0.164595
Si Si4 0.868258 0.070321 0.014312
Si Si5 0.855888 0.431410 0.541444
Si Si6 0.331032 0.931677 0.222444
Si Si7 0.598321 0.568278 0.196489
O O1 0.177441 0.750000 0.642562
O O2 0.185408 0.975846 0.534956
O O3 0.000476 0.960306 0.730259
O O4 0.257576 0.015659 0.660430
O O5 0.582479 0.750000 0.399857
O O6 0.550225 0.969410 0.311241
O O7 0.500000 0.000000 0.500000
O O8 0.154815 0.250000 0.147850
O O9 0.261539 0.488804 0.173835
O O10 0.143616 0.511641 0.075594
O O11 0.876850 0.250000 0.013159
O O12 0.736643 0.013095 0.118425
O O13 0.000000 0.000000 0.000000
O O14 0.866823 0.250000 0.536217
O O15 0.753483 0.473035 0.658261
O O16 0.000000 0.500000 0.500000
O O17 0.322666 0.750000 0.215809
O O18 0.484260 0.971327 0.177604
O O19 0.617453 0.750000 0.185464
#
# Coordination Sequence:
#
# PCOD9159972 Si02
#       7
#     4   4   4   4   4   4   4
#     4  10  21  37  58  87 124 162 205 257 308 362
#     4  11  23  39  62  90 123 162 205 252 304 367
#     4  11  23  40  64  93 125 161 205 256 309 370
#     4  12  26  45  69  95 123 158 204 257 313 372
#     4  10  19  34  56  86 124 165 205 249 302 359
#     4  10  21  38  62  90 126 166 208 257 311 369
#     4  10  23  44  66  90 124 167 210 256 310 365
#
# _framework density 19.832837000000001
#
# number of rings (size 3 to 8) (size 9 to 14) (size 15 to 20)
#    0.000    1.429    1.429    3.857    0.000    8.571 
#    0.000    1.429    0.000    0.000    0.000    0.000 
#    0.000    0.000    0.000    0.000    0.000    0.000 
#
# Total GULP energy -156576.570784 kJ/mol
# GULP energy per Si atom -5592.020385 kJ/mol
# Density = 1.978770 g / cm^3
# Si number density = 19.832837 Si / 1000 Ang^3
#
#
#
# Elastic Constant Matrix: (Units=GPa)
#
#
# Indices 1 2 3 4 5 6 
#
# 1 157.0865 63.8986 55.4329 0.0000 6.0478 0.0000
# 2 63.8986 62.8540 54.1829 0.0000 1.2687 0.0000
# 3 55.4329 54.1829 103.0557 0.0000 9.4357 0.0000
# 4 0.0000 0.0000 0.0000 30.0537 0.0000 -1.6943
# 5 6.0478 1.2687 9.4357 0.0000 36.8226 0.0000
# 6 0.0000 0.0000 0.0000 -1.6943 0.0000 35.7271
#
#
#
# Elastic Compliance Matrix: (Units=1/GPa)
#
#
# Indices 1 2 3 4 5 6 
#
# 1 0.010929 -0.011207 0.000146 0.000000 -0.001446 0.000000
# 2 -0.011207 0.040916 -0.015896 0.000000 0.004504 0.000000
# 3 0.000146 -0.015896 0.018365 0.000000 -0.004182 0.000000
# 4 0.000000 0.000000 0.000000 0.033363 0.000000 0.001582
# 5 -0.001446 0.004504 -0.004182 0.000000 0.028311 0.000000
# 6 0.000000 0.000000 0.000000 0.001582 0.000000 0.028065
#
#
# Mechanical properties :
#
#
# Convention : Reuss Voigt Hill
#
# Bulk Modulus (GPa) = 61.36618 74.44722 67.90670
# Shear Modulus (GPa) = 22.80032 30.48614 26.64323
#
# Velocity S-wave (km/s) = 3.39429 3.92491 3.66920
# Velocity P-wave (km/s) = 6.80959 7.62619 7.22943
#
# Compressibility (1/GPa) = 0.01629562
#
# Stress axis : x y z
#
# Youngs Moduli (GPa) = 91.50099 24.44049 54.45066
#
# Poissons Ratio (x) = 0.27391 -0.00797
# Poissons Ratio (y) = 1.02549 0.86555
# Poissons Ratio (z) = -0.01339 0.38851
#
# Static dielectric constant tensor:
#      x y z
#    x 1.680840 0.000000 -0.000380 
#    y 0.000000 1.660810 0.000000 
#    z -0.000380 0.000000 1.703900 
# 
# From -- ./inp_files/49119.got.cif
#   From: 2010.05.17/outbox.cif.g08.bks.cpg/sg11_25_cif.got.tgz:49119.got - 2010.06.03 12:22:45.
