data_PCOD9159394
_publ_section_title
;
Structure prediction by ZEFSAII (Michael W. Deem and Ramdas Pophale) SiO2 
 PCOD9159394
Probable space group: P 21/M
;
_chemical_formula_sum "Si O2"
_cell_formula_units_Z 20
_cell_length_a 7.219142
_cell_length_b 15.429932
_cell_length_c 9.303535
_cell_angle_alpha 90.000000
_cell_angle_beta 62.011782
_cell_angle_gamma 90.000000
_cell_volume 915.124099
_symmetry_space_group_name_H-M "P 21/M"
_symmetry_group_IT_number 11
_symmetry_cell_setting 'monoclinic'
loop_
_space_group_symop_operation_xyz
x,y,z
-x,1/2+y,-z
-x,-y,-z
x,1/2-y,z
loop_
_atom_site_type_symbol
_atom_site_label
_atom_site_fract_x
_atom_site_fract_y
_atom_site_fract_z
Si Si1 0.752196 0.501336 0.428930
Si Si2 0.359975 0.483820 0.216231
Si Si3 0.560707 0.649317 0.042972
Si Si4 0.834940 0.071009 0.121830
Si Si5 0.109835 0.157394 0.818285
O O1 0.500000 0.500000 0.500000
O O2 0.774521 0.508222 0.591303
O O3 0.837345 0.424493 0.294271
O O4 0.853239 0.583695 0.312362
O O5 0.373738 0.580375 0.143469
O O6 0.600098 0.459090 0.171117
O O7 0.310038 0.406057 0.123806
O O8 0.515138 0.750000 0.020943
O O9 0.695461 0.653114 0.140507
O O10 0.910021 0.149890 0.997314
O O11 0.000000 0.000000 0.000000
O O12 0.107432 0.250000 0.745433
#
# Coordination Sequence:
#
# PCOD9159394 Si02
#       5
#     4   4   4   4   4
#     4   9  16  32  53  78  98 131 177 214 258 309
#     4  10  19  34  57  77 104 139 176 217 262 306
#     4  10  20  33  51  77 108 141 173 212 263 315
#     4   9  16  32  53  76  98 130 172 210 257 312
#     4  10  19  33  54  76 106 138 174 216 260 312
#
# _framework density 21.854960999999999
#
# number of rings (size 3 to 8) (size 9 to 14) (size 15 to 20)
#    0.000    2.400    6.000    0.000    0.000    1.600 
#    0.000    5.000    0.000    0.000    0.000    0.000 
#    0.000    0.000    0.000    0.000    0.000    0.000 
#
# Total GULP energy -111346.271256 kJ/mol
# GULP energy per Si atom -5567.313563 kJ/mol
# Density = 2.180522 g / cm^3
# Si number density = 21.854961 Si / 1000 Ang^3
#
#
#
# Elastic Constant Matrix: (Units=GPa)
#
#
# Indices 1 2 3 4 5 6 
#
# 1 44.1323 17.0994 28.0039 0.0000 -18.3215 0.0000
# 2 17.0994 142.2086 50.6850 0.0000 3.1372 0.0000
# 3 28.0039 50.6850 205.0608 0.0000 5.9890 0.0000
# 4 0.0000 0.0000 0.0000 23.0832 0.0000 5.8387
# 5 -18.3215 3.1372 5.9890 0.0000 38.2999 0.0000
# 6 0.0000 0.0000 0.0000 5.8387 0.0000 14.2458
#
#
#
# Elastic Compliance Matrix: (Units=1/GPa)
#
#
# Indices 1 2 3 4 5 6 
#
# 1 0.033597 -0.002854 -0.004379 0.000000 0.016990 0.000000
# 2 -0.002854 0.007958 -0.001525 0.000000 -0.001779 0.000000
# 3 -0.004379 -0.001525 0.005936 0.000000 -0.002898 0.000000
# 4 0.000000 0.000000 0.000000 0.048332 0.000000 -0.019809
# 5 0.016990 -0.001779 -0.002898 0.000000 0.034836 0.000000
# 6 0.000000 0.000000 0.000000 -0.019809 0.000000 0.078315
#
#
# Mechanical properties :
#
#
# Convention : Reuss Voigt Hill
#
# Bulk Modulus (GPa) = 33.36111 64.77535 49.06823
# Shear Modulus (GPa) = 21.14322 34.83335 27.98828
#
# Velocity S-wave (km/s) = 3.11373 3.99663 3.58248
# Velocity P-wave (km/s) = 5.31272 7.14146 6.29386
#
# Compressibility (1/GPa) = 0.02997502
#
# Stress axis : x y z
#
# Youngs Moduli (GPa) = 29.76452 125.66059 168.45616
#
# Poissons Ratio (x) = 0.35862 0.73767
# Poissons Ratio (y) = 0.08494 0.25694
# Poissons Ratio (z) = 0.13034 0.19167
#
# Static dielectric constant tensor:
#      x y z
#    x 1.947170 0.000000 0.040510 
#    y 0.000000 1.892390 0.000000 
#    z 0.040510 0.000000 1.820740 
# 
# From -- ./inp_files/13093.got.cif
#   From: 2010.05.17/outbox.cif.g08.bks.cpg/sg11_7_cif.got.tgz:13093.got - 2010.06.03 12:22:45.
