data_PCOD9159865
_publ_section_title
;
Structure prediction by ZEFSAII (Michael W. Deem and Ramdas Pophale) SiO2 
 PCOD9159865
Probable space group: P 21/M
;
_chemical_formula_sum "Si O2"
_cell_formula_units_Z 24
_cell_length_a 9.081535
_cell_length_b 23.176912
_cell_length_c 7.606181
_cell_angle_alpha 90.000000
_cell_angle_beta 144.216856
_cell_angle_gamma 90.000000
_cell_volume 936.113967
_symmetry_space_group_name_H-M "P 21/M"
_symmetry_group_IT_number 11
_symmetry_cell_setting 'monoclinic'
loop_
_space_group_symop_operation_xyz
x,y,z
-x,1/2+y,-z
-x,-y,-z
x,1/2-y,z
loop_
_atom_site_type_symbol
_atom_site_label
_atom_site_fract_x
_atom_site_fract_y
_atom_site_fract_z
Si Si1 0.879650 0.184658 0.899415
Si Si2 0.210268 0.139952 0.715287
Si Si3 0.705726 0.159969 0.339766
Si Si4 0.904696 0.976870 0.222782
Si Si5 0.586269 0.037990 0.395995
Si Si6 0.618900 0.882250 0.499821
O O1 0.922910 0.250000 0.999016
O O2 0.137203 0.148993 0.177118
O O3 0.796703 0.184478 0.613683
O O4 0.634146 0.156490 0.751109
O O5 0.151988 0.090743 0.803421
O O6 0.436421 0.179275 0.004974
O O7 0.937127 0.168683 0.431376
O O8 0.295508 0.109880 0.618016
O O9 0.650240 0.091903 0.326820
O O10 0.134279 0.987328 0.312811
O O11 0.000000 0.000000 0.500000
O O12 0.632348 0.000118 0.904016
O O13 0.465990 0.065956 0.453387
#
# Coordination Sequence:
#
# PCOD9159865 Si02
#       6
#     4   4   4   4   4   4
#     4  11  22  38  58  81 108 144 184 226 273 327
#     4  10  20  35  56  81 108 143 183 223 273 326
#     4   9  18  35  56  76 102 141 184 215 257 330
#     4  10  19  34  55  81 110 144 187 233 269 313
#     4   9  18  33  54  76 105 147 182 211 266 337
#     4  11  21  37  58  81 112 147 181 222 278 341
#
# _framework density 25.637903999999999
#
# number of rings (size 3 to 8) (size 9 to 14) (size 15 to 20)
#    0.000    2.000    0.000    7.000    0.000    0.000 
#    0.000    6.667    0.000    0.000    0.000    3.500 
#    0.000    0.000    0.000    0.000    0.000    0.000 
#
# Total GULP energy -134170.045382 kJ/mol
# GULP energy per Si atom -5590.418558 kJ/mol
# Density = 2.557955 g / cm^3
# Si number density = 25.637904 Si / 1000 Ang^3
#
#
#
# Elastic Constant Matrix: (Units=GPa)
#
#
# Indices 1 2 3 4 5 6 
#
# 1 161.3158 21.1809 75.0300 0.0000 37.8818 0.0000
# 2 21.1809 51.5937 36.1257 0.0000 6.6932 0.0000
# 3 75.0300 36.1257 233.8680 0.0000 36.1316 0.0000
# 4 0.0000 0.0000 0.0000 3.6402 0.0000 6.3852
# 5 37.8818 6.6932 36.1316 0.0000 56.1216 0.0000
# 6 0.0000 0.0000 0.0000 6.3852 0.0000 4.4991
#
#
#
# Elastic Compliance Matrix: (Units=1/GPa)
#
#
# Indices 1 2 3 4 5 6 
#
# 1 0.008210 -0.001609 -0.001731 0.000000 -0.004235 0.000000
# 2 -0.001609 0.022060 -0.002946 0.000000 0.000352 0.000000
# 3 -0.001731 -0.002946 0.005609 0.000000 -0.002092 0.000000
# 4 0.000000 0.000000 0.000000 -0.184442 0.000000 0.261763
# 5 -0.004235 0.000352 -0.002092 0.000000 0.021982 0.000000
# 6 0.000000 0.000000 0.000000 0.261763 0.000000 -0.149231
#
#
# Mechanical properties :
#
#
# Convention : Reuss Voigt Hill
#
# Bulk Modulus (GPa) = 42.90426 79.05010 60.97718
# Shear Modulus (GPa) = -19.57169 33.81491 7.12161
#
# Velocity S-wave (km/s) = -2.76595 3.63566 1.66847
# Velocity P-wave (km/s) = 2.56328 6.96594 5.24856
#
# Compressibility (1/GPa) = 0.02330771
#
# Stress axis : x y z
#
# Youngs Moduli (GPa) = 121.80263 45.33155 178.27033
#
# Poissons Ratio (x) = 0.07294 0.30860
# Poissons Ratio (y) = 0.19597 0.52513
# Poissons Ratio (z) = 0.21085 0.13353
#
# Static dielectric constant tensor:
#      x y z
#    x 2.000740 0.000000 0.021750 
#    y 0.000000 2.175510 0.000000 
#    z 0.021750 0.000000 2.091280 
# 
# From -- ./inp_files/15417.got.cif
#   From: 2010.05.17/outbox.cif.g08.bks.cpg/sg11_8_cif.got.tgz:15417.got - 2010.06.03 12:22:45.
