data_PCOD9159715
_publ_section_title
;
Structure prediction by ZEFSAII (Michael W. Deem and Ramdas Pophale) SiO2 
 PCOD9159715
Probable space group: P 21/M
;
_chemical_formula_sum "Si O2"
_cell_formula_units_Z 28
_cell_length_a 10.949093
_cell_length_b 17.104023
_cell_length_c 13.895073
_cell_angle_alpha 90.000000
_cell_angle_beta 148.534506
_cell_angle_gamma 90.000000
_cell_volume 1358.298590
_symmetry_space_group_name_H-M "P 21/M"
_symmetry_group_IT_number 11
_symmetry_cell_setting 'monoclinic'
loop_
_space_group_symop_operation_xyz
x,y,z
-x,1/2+y,-z
-x,-y,-z
x,1/2-y,z
loop_
_atom_site_type_symbol
_atom_site_label
_atom_site_fract_x
_atom_site_fract_y
_atom_site_fract_z
Si Si1 0.470072 0.165404 0.519555
Si Si2 0.720677 0.491111 0.381682
Si Si3 0.338858 0.909470 0.865601
Si Si4 0.150822 0.067241 0.795874
Si Si5 0.046876 0.898195 0.132386
Si Si6 0.137489 0.336488 0.480568
Si Si7 0.687010 0.552229 0.748440
O O1 0.440576 0.250000 0.452949
O O2 0.733025 0.157359 0.735046
O O3 0.284458 0.159190 0.480494
O O4 0.435826 0.097580 0.419818
O O5 0.663935 0.449957 0.242595
O O6 0.789800 0.582625 0.417756
O O7 0.502027 0.485063 0.306676
O O8 0.936099 0.445285 0.577958
O O9 0.138997 0.844609 0.727256
O O10 0.242180 0.977569 0.871167
O O11 0.606896 0.889844 0.070337
O O12 0.054496 0.104913 0.828468
O O13 0.149348 0.985506 0.185941
O O14 0.844937 0.889886 0.918203
O O15 0.183145 0.250000 0.554528
#
# Coordination Sequence:
#
# PCOD9159715 Si02
#       7
#     4   4   4   4   4   4   4
#     4  11  23  40  60  85 122 157 192 248 306 355
#     4  11  19  37  64  86 117 153 199 246 290 342
#     4  10  21  36  58  89 113 153 197 241 286 344
#     4  10  19  33  60  85 112 146 197 243 280 337
#     4  11  21  36  61  92 116 152 201 247 293 351
#     4  10  21  38  60  85 116 156 191 239 298 351
#     4  11  21  35  62  92 116 153 198 247 294 353
#
# _framework density 20.614023
#
# number of rings (size 3 to 8) (size 9 to 14) (size 15 to 20)
#    0.000    1.429    4.286    3.857    0.000    0.571 
#    0.000    1.429    0.000   12.857    0.000    0.000 
#    0.000    0.000    0.000    0.000    0.000    0.000 
#
# Total GULP energy -156249.053485 kJ/mol
# GULP energy per Si atom -5580.323339 kJ/mol
# Density = 2.056710 g / cm^3
# Si number density = 20.614023 Si / 1000 Ang^3
#
#
#
# Elastic Constant Matrix: (Units=GPa)
#
#
# Indices 1 2 3 4 5 6 
#
# 1 72.3753 7.9384 20.2013 0.0000 19.4353 0.0000
# 2 7.9384 48.5030 11.4440 0.0000 -1.0344 0.0000
# 3 20.2013 11.4440 116.7712 0.0000 11.2642 0.0000
# 4 0.0000 0.0000 0.0000 12.9733 0.0000 -1.0412
# 5 19.4353 -1.0344 11.2642 0.0000 31.5334 0.0000
# 6 0.0000 0.0000 0.0000 -1.0412 0.0000 2.5413
#
#
#
# Elastic Compliance Matrix: (Units=1/GPa)
#
#
# Indices 1 2 3 4 5 6 
#
# 1 0.017318 -0.002635 -0.001760 0.000000 -0.010131 0.000000
# 2 -0.002635 0.021573 -0.001951 0.000000 0.003029 0.000000
# 3 -0.001760 -0.001951 0.009281 0.000000 -0.002294 0.000000
# 4 0.000000 0.000000 0.000000 0.079702 0.000000 0.032655
# 5 -0.010131 0.003029 -0.002294 0.000000 0.038876 0.000000
# 6 0.000000 0.000000 0.000000 0.032655 0.000000 0.406884
#
#
# Mechanical properties :
#
#
# Convention : Reuss Voigt Hill
#
# Bulk Modulus (GPa) = 28.18496 35.20188 31.69342
# Shear Modulus (GPa) = 8.35908 22.61396 15.48652
#
# Velocity S-wave (km/s) = 2.01590 3.31572 2.74389
# Velocity P-wave (km/s) = 4.37274 5.63670 5.04447
#
# Compressibility (1/GPa) = 0.03547991
#
# Stress axis : x y z
#
# Youngs Moduli (GPa) = 57.74378 46.35348 107.74956
#
# Poissons Ratio (x) = 0.12215 0.18969
# Poissons Ratio (y) = 0.15216 0.21017
# Poissons Ratio (z) = 0.10165 0.09041
#
# Static dielectric constant tensor:
#      x y z
#    x 1.728020 0.000000 0.009960 
#    y 0.000000 1.711630 0.000000 
#    z 0.009960 0.000000 1.783550 
# 
# From -- ./inp_files/50554.got.cif
#   From: 2010.05.17/outbox.cif.g08.bks.cpg/sg11_26_cif.got.tgz:50554.got - 2010.06.03 12:22:45.
