data_PCOD9159778
_publ_section_title
;
Structure prediction by ZEFSAII (Michael W. Deem and Ramdas Pophale) SiO2 
 PCOD9159778
Probable space group: P 21/M
;
_chemical_formula_sum "Si O2"
_cell_formula_units_Z 24
_cell_length_a 13.140661
_cell_length_b 7.631925
_cell_length_c 12.137692
_cell_angle_alpha 90.000000
_cell_angle_beta 88.831764
_cell_angle_gamma 90.000000
_cell_volume 1217.018378
_symmetry_space_group_name_H-M "P 21/M"
_symmetry_group_IT_number 11
_symmetry_cell_setting 'monoclinic'
loop_
_space_group_symop_operation_xyz
x,y,z
-x,1/2+y,-z
-x,-y,-z
x,1/2-y,z
loop_
_atom_site_type_symbol
_atom_site_label
_atom_site_fract_x
_atom_site_fract_y
_atom_site_fract_z
Si Si1 0.987457 0.458744 0.628612
Si Si2 0.620597 0.960773 0.378885
Si Si3 0.609790 0.539799 0.629951
Si Si4 0.208178 0.454862 0.228814
Si Si5 0.185111 0.464620 0.761933
Si Si6 0.880084 0.539165 0.997974
O O1 0.981230 0.250000 0.641676
O O2 0.885169 0.534415 0.683590
O O3 0.000000 0.500000 0.500000
O O4 0.086252 0.520058 0.694330
O O5 0.628161 0.750000 0.383126
O O6 0.628875 0.026958 0.504844
O O7 0.712120 0.024118 0.300266
O O8 0.507575 0.004045 0.339963
O O9 0.622771 0.750000 0.624945
O O10 0.691799 0.469240 0.714781
O O11 0.229762 0.250000 0.207632
O O12 0.170143 0.530682 0.113291
O O13 0.185607 0.250000 0.761797
O O14 0.171792 0.523123 0.888036
O O15 0.871652 0.750000 0.996559
O O16 0.000000 0.500000 0.000000
#
# Coordination Sequence:
#
# PCOD9159778 Si02
#       6
#     4   4   4   4   4   4
#     4  11  21  33  51  76 107 136 168 212 260 311
#     4   9  17  32  53  72  96 133 174 210 253 311
#     4   9  18  33  51  73 102 133 168 213 263 307
#     4  10  20  34  53  76 104 137 172 212 259 311
#     4   9  18  33  52  74 102 136 170 210 259 308
#     4  10  19  34  54  75 102 138 176 211 256 310
#
# _framework density 19.720327000000001
#
# number of rings (size 3 to 8) (size 9 to 14) (size 15 to 20)
#    0.000    2.333    1.667    1.500    0.000    3.333 
#    0.000    6.667    0.000    0.000    0.000    0.000 
#    0.000    0.000    0.000    0.000    0.000    0.000 
#
# Total GULP energy -133981.594541 kJ/mol
# GULP energy per Si atom -5582.566439 kJ/mol
# Density = 1.967544 g / cm^3
# Si number density = 19.720327 Si / 1000 Ang^3
#
#
#
# Elastic Constant Matrix: (Units=GPa)
#
#
# Indices 1 2 3 4 5 6 
#
# 1 139.8354 4.0295 65.5767 0.0000 25.7908 0.0000
# 2 4.0295 39.2136 7.3309 0.0000 3.3790 0.0000
# 3 65.5767 7.3309 114.5856 0.0000 29.4265 0.0000
# 4 0.0000 0.0000 0.0000 -2.9099 0.0000 -13.5317
# 5 25.7908 3.3790 29.4265 0.0000 34.1395 0.0000
# 6 0.0000 0.0000 0.0000 -13.5317 0.0000 12.2489
#
#
#
# Elastic Compliance Matrix: (Units=1/GPa)
#
#
# Indices 1 2 3 4 5 6 
#
# 1 0.010072 0.000174 -0.004902 0.000000 -0.003401 0.000000
# 2 0.000174 0.025869 -0.001366 0.000000 -0.001515 0.000000
# 3 -0.004902 -0.001366 0.013657 0.000000 -0.007933 0.000000
# 4 0.000000 0.000000 0.000000 -0.055995 0.000000 -0.061859
# 5 -0.003401 -0.001515 -0.007933 0.000000 0.038849 0.000000
# 6 0.000000 0.000000 0.000000 -0.061859 0.000000 0.013302
#
#
# Mechanical properties :
#
#
# Convention : Reuss Voigt Hill
#
# Bulk Modulus (GPa) = 26.72937 49.72321 38.22629
# Shear Modulus (GPa) = 71.00971 23.14221 47.07596
#
# Velocity S-wave (km/s) = 6.00721 3.42939 4.89118
# Velocity P-wave (km/s) = 7.85487 6.39921 7.16411
#
# Compressibility (1/GPa) = 0.03741203
#
# Stress axis : x y z
#
# Youngs Moduli (GPa) = 99.28121 38.65583 73.22096
#
# Poissons Ratio (x) = -0.00674 0.35894
# Poissons Ratio (y) = -0.01732 0.10001
# Poissons Ratio (z) = 0.48669 0.05280
#
# Static dielectric constant tensor:
#      x y z
#    x 1.660720 0.000000 0.018860 
#    y 0.000000 1.745950 0.000000 
#    z 0.018860 0.000000 1.691080 
# 
# From -- ./inp_files/33762.got.cif
#   From: 2010.05.17/outbox.cif.g08.bks.cpg/sg11_17_cif.got.tgz:33762.got - 2010.06.03 12:22:45.
