data_PCOD9159661
_publ_section_title
;
Structure prediction by ZEFSAII (Michael W. Deem and Ramdas Pophale) SiO2 
 PCOD9159661
Probable space group: P 21/M
;
_chemical_formula_sum "Si O2"
_cell_formula_units_Z 32
_cell_length_a 20.556399
_cell_length_b 19.045814
_cell_length_c 9.005447
_cell_angle_alpha 90.000000
_cell_angle_beta 29.662468
_cell_angle_gamma 90.000000
_cell_volume 1744.858219
_symmetry_space_group_name_H-M "P 21/M"
_symmetry_group_IT_number 11
_symmetry_cell_setting 'monoclinic'
loop_
_space_group_symop_operation_xyz
x,y,z
-x,1/2+y,-z
-x,-y,-z
x,1/2-y,z
loop_
_atom_site_type_symbol
_atom_site_label
_atom_site_fract_x
_atom_site_fract_y
_atom_site_fract_z
Si Si1 0.481003 0.036006 0.198422
Si Si2 0.916352 0.668786 0.064486
Si Si3 0.734349 0.050671 0.194369
Si Si4 0.629408 0.668443 0.734743
Si Si5 0.240641 0.952672 0.204478
Si Si6 0.212880 0.669786 0.480307
Si Si7 0.395498 0.667332 0.388804
Si Si8 0.024542 0.014211 0.125580
O O1 0.431274 0.115059 0.264393
O O2 0.370034 0.000153 0.518561
O O3 0.618668 0.027541 0.008254
O O4 0.500000 0.000000 0.000000
O O5 0.905295 0.750000 0.022272
O O6 0.787051 0.660831 0.423137
O O7 0.921903 0.595216 0.961155
O O8 0.063741 0.667692 0.838587
O O9 0.668177 0.126218 0.350842
O O10 0.756332 0.040405 0.977272
O O11 0.869320 0.037593 0.014639
O O12 0.600727 0.750000 0.754859
O O13 0.548083 0.653685 0.047027
O O14 0.218557 0.875296 0.319863
O O15 0.115944 0.993766 0.517166
O O16 0.246832 0.750000 0.381759
O O17 0.313197 0.643023 0.406015
O O18 0.376690 0.750000 0.441852
O O19 0.000000 0.000000 0.000000
#
# Coordination Sequence:
#
# PCOD9159661 Si02
#       8
#     4   4   4   4   4   4   4   4
#     4  12  21  38  59  83 111 152 199 239 283 340
#     4   9  18  32  53  84 109 137 184 241 283 324
#     4  12  23  38  55  83 122 149 185 243 298 350
#     4  10  19  33  57  85 109 141 194 244 277 325
#     4  11  24  36  54  85 118 151 187 237 304 345
#     4   9  17  34  57  80 108 144 195 235 275 344
#     4  10  20  36  58  84 111 147 190 238 282 338
#     4  11  22  38  61  86 110 154 198 238 283 349
#
# _framework density 18.339597999999999
#
# number of rings (size 3 to 8) (size 9 to 14) (size 15 to 20)
#    0.000    1.500    3.750    3.000    0.000    0.500 
#    0.000    0.000    0.000    0.000    0.000    2.625 
#    0.000    0.000    0.000    0.000    0.000    0.000 
#
# Total GULP energy -178231.987428 kJ/mol
# GULP energy per Si atom -5569.749607 kJ/mol
# Density = 1.829786 g / cm^3
# Si number density = 18.339598 Si / 1000 Ang^3
#
#
#
# Elastic Constant Matrix: (Units=GPa)
#
#
# Indices 1 2 3 4 5 6 
#
# 1 94.3395 12.9580 70.0079 0.0000 8.5892 0.0000
# 2 12.9580 56.8819 17.9213 0.0000 5.6040 0.0000
# 3 70.0079 17.9213 148.1023 0.0000 0.4963 0.0000
# 4 0.0000 0.0000 0.0000 27.7869 0.0000 -0.3358
# 5 8.5892 5.6040 0.4963 0.0000 34.7450 0.0000
# 6 0.0000 0.0000 0.0000 -0.3358 0.0000 13.2294
#
#
#
# Elastic Compliance Matrix: (Units=1/GPa)
#
#
# Indices 1 2 3 4 5 6 
#
# 1 0.016934 -0.000992 -0.007872 0.000000 -0.003914 0.000000
# 2 -0.000992 0.018636 -0.001777 0.000000 -0.002735 0.000000
# 3 -0.007872 -0.001777 0.010681 0.000000 0.002080 0.000000
# 4 0.000000 0.000000 0.000000 0.035999 0.000000 0.000914
# 5 -0.003914 -0.002735 0.002080 0.000000 0.030160 0.000000
# 6 0.000000 0.000000 0.000000 0.000914 0.000000 0.075613
#
#
# Mechanical properties :
#
#
# Convention : Reuss Voigt Hill
#
# Bulk Modulus (GPa) = 40.04876 55.67757 47.86317
# Shear Modulus (GPa) = 22.97515 28.38137 25.67826
#
# Velocity S-wave (km/s) = 3.54328 3.93815 3.74592
# Velocity P-wave (km/s) = 6.21486 7.14870 6.69807
#
# Compressibility (1/GPa) = 0.02496956
#
# Stress axis : x y z
#
# Youngs Moduli (GPa) = 59.05303 53.66085 93.62417
#
# Poissons Ratio (x) = 0.05323 0.73696
# Poissons Ratio (y) = 0.05858 0.16636
# Poissons Ratio (z) = 0.46484 0.09535
#
# Static dielectric constant tensor:
#      x y z
#    x 1.588120 0.000000 -0.030790 
#    y 0.000000 1.708670 0.000000 
#    z -0.030790 0.000000 1.653090 
# 
# From -- ./inp_files/27104.got.cif
#   From: 2010.05.17/outbox.cif.g08.bks.cpg/sg11_14_cif.got.tgz:27104.got - 2010.06.03 12:22:45.
