data_PCOD9159764
_publ_section_title
;
Structure prediction by ZEFSAII (Michael W. Deem and Ramdas Pophale) SiO2 
 PCOD9159764
Probable space group: P 21/M
;
_chemical_formula_sum "Si O2"
_cell_formula_units_Z 20
_cell_length_a 27.317214
_cell_length_b 8.471824
_cell_length_c 9.902550
_cell_angle_alpha 90.000000
_cell_angle_beta 28.511869
_cell_angle_gamma 90.000000
_cell_volume 1093.928482
_symmetry_space_group_name_H-M "P 21/M"
_symmetry_group_IT_number 11
_symmetry_cell_setting 'monoclinic'
loop_
_space_group_symop_operation_xyz
x,y,z
-x,1/2+y,-z
-x,-y,-z
x,1/2-y,z
loop_
_atom_site_type_symbol
_atom_site_label
_atom_site_fract_x
_atom_site_fract_y
_atom_site_fract_z
Si Si1 0.886195 0.060391 0.801210
Si Si2 0.293007 0.941708 0.966502
Si Si3 0.444401 0.561563 0.366894
Si Si4 0.671748 0.062136 0.815130
Si Si5 0.735339 0.936462 0.384116
O O1 0.885135 0.250000 0.809965
O O2 0.808858 0.010532 0.867880
O O3 0.000000 0.000000 0.500000
O O4 0.835151 0.993740 0.061140
O O5 0.294463 0.750000 0.964953
O O6 0.390043 0.989341 0.639143
O O7 0.299186 0.996009 0.105252
O O8 0.460517 0.750000 0.329920
O O9 0.361796 0.520552 0.451959
O O10 0.551880 0.476949 0.085466
O O11 0.686898 0.250000 0.771870
O O12 0.734143 0.982229 0.543444
O O13 0.723390 0.750000 0.396983
#
# Coordination Sequence:
#
# PCOD9159764 Si02
#       5
#     4   4   4   4   4
#     4  10  20  39  62  83 103 132 172 218 266 318
#     4   8  18  34  54  78 107 138 175 217 261 310
#     4  10  19  34  53  77 108 145 181 217 257 310
#     4  11  20  33  52  78 110 144 175 215 263 310
#     4  11  22  36  53  78 107 141 180 219 258 308
#
# _framework density 18.282730999999998
#
# number of rings (size 3 to 8) (size 9 to 14) (size 15 to 20)
#    0.000    2.000    0.000    6.000    0.000    0.000 
#    0.000   12.000    0.000    0.000    0.000    0.000 
#    0.000    0.000    0.000    0.000    0.000    0.000 
#
# Total GULP energy -111701.885612 kJ/mol
# GULP energy per Si atom -5585.094281 kJ/mol
# Density = 1.824112 g / cm^3
# Si number density = 18.282731 Si / 1000 Ang^3
#
#
#
# Elastic Constant Matrix: (Units=GPa)
#
#
# Indices 1 2 3 4 5 6 
#
# 1 47.5306 7.4550 55.4863 0.0000 27.8328 0.0000
# 2 7.4550 30.0279 11.7811 0.0000 4.6531 0.0000
# 3 55.4863 11.7811 127.0277 0.0000 11.6965 0.0000
# 4 0.0000 0.0000 0.0000 31.8137 0.0000 -1.1991
# 5 27.8328 4.6531 11.6965 0.0000 34.5390 0.0000
# 6 0.0000 0.0000 0.0000 -1.1991 0.0000 16.5661
#
#
#
# Elastic Compliance Matrix: (Units=1/GPa)
#
#
# Indices 1 2 3 4 5 6 
#
# 1 0.127195 0.000509 -0.047648 0.000000 -0.086431 0.000000
# 2 0.000509 0.035022 -0.003095 0.000000 -0.004080 0.000000
# 3 -0.047648 -0.003095 0.026216 0.000000 0.029936 0.000000
# 4 0.000000 0.000000 0.000000 0.031519 0.000000 0.002281
# 5 -0.086431 -0.004080 0.029936 0.000000 0.089014 0.000000
# 6 0.000000 0.000000 0.000000 0.002281 0.000000 0.060529
#
#
# Mechanical properties :
#
#
# Convention : Reuss Voigt Hill
#
# Bulk Modulus (GPa) = 11.36810 39.33676 25.35243
# Shear Modulus (GPa) = 10.01430 25.24133 17.62782
#
# Velocity S-wave (km/s) = 2.34294 3.71969 3.10849
# Velocity P-wave (km/s) = 3.68111 6.32539 5.17500
#
# Compressibility (1/GPa) = 0.08796542
#
# Stress axis : x y z
#
# Youngs Moduli (GPa) = 7.86194 28.55310 38.14488
#
# Poissons Ratio (x) = -0.01453 1.81753
# Poissons Ratio (y) = -0.00400 0.11805
# Poissons Ratio (z) = 0.37461 0.08836
#
# Static dielectric constant tensor:
#      x y z
#    x 1.634760 0.000000 0.025240 
#    y 0.000000 1.612530 0.000000 
#    z 0.025240 0.000000 1.607030 
# 
# From -- ./inp_files/15948.got.cif
#   From: 2010.05.17/outbox.cif.g08.bks.cpg/sg11_8_cif.got.tgz:15948.got - 2010.06.03 12:22:45.
