data_PCOD9159496
_publ_section_title
;
Structure prediction by ZEFSAII (Michael W. Deem and Ramdas Pophale) SiO2 
 PCOD9159496
Probable space group: P 21/M
;
_chemical_formula_sum "Si O2"
_cell_formula_units_Z 32
_cell_length_a 20.808623
_cell_length_b 7.438796
_cell_length_c 21.766205
_cell_angle_alpha 90.000000
_cell_angle_beta 26.516893
_cell_angle_gamma 90.000000
_cell_volume 1504.225236
_symmetry_space_group_name_H-M "P 21/M"
_symmetry_group_IT_number 11
_symmetry_cell_setting 'monoclinic'
loop_
_space_group_symop_operation_xyz
x,y,z
-x,1/2+y,-z
-x,-y,-z
x,1/2-y,z
loop_
_atom_site_type_symbol
_atom_site_label
_atom_site_fract_x
_atom_site_fract_y
_atom_site_fract_z
Si Si1 0.829082 0.468325 0.327636
Si Si2 0.074587 0.469895 0.340113
Si Si3 0.394118 0.970636 0.385738
Si Si4 0.011738 0.464726 0.061684
Si Si5 0.247733 0.961348 0.385283
Si Si6 0.717512 0.969613 0.090410
Si Si7 0.896317 0.967683 0.825003
Si Si8 0.638443 0.537346 0.838827
O O1 0.822921 0.250000 0.331079
O O2 0.685020 0.528987 0.484350
O O3 0.879348 0.530623 0.217451
O O4 0.958423 0.517019 0.263405
O O5 0.076661 0.250000 0.341386
O O6 0.102025 0.526387 0.246274
O O7 0.211113 0.535654 0.262127
O O8 0.912252 0.531109 0.495535
O O9 0.393135 0.750000 0.385497
O O10 0.308291 0.031538 0.398145
O O11 0.558343 0.029536 0.242082
O O12 0.013827 0.250000 0.066929
O O13 0.159669 0.529338 0.966790
O O14 0.000000 0.500000 0.000000
O O15 0.226173 0.750000 0.414153
O O16 0.360658 0.980094 0.233114
O O17 0.717477 0.750000 0.091013
O O18 0.766943 0.025081 0.979870
O O19 0.894073 0.750000 0.824976
O O20 0.650700 0.750000 0.827312
O O21 0.500000 0.500000 0.000000
#
# Coordination Sequence:
#
# PCOD9159496 Si02
#       8
#     4   4   4   4   4   4   4   4
#     4   8  13  24  43  69  97 120 151 196 239 277
#     4   9  17  30  50  75 101 128 163 207 255 303
#     4   9  15  25  46  77 101 119 154 208 252 287
#     4   9  17  30  48  70  97 130 161 194 234 283
#     4  10  19  33  55  80 101 128 165 207 260 315
#     4   8  15  24  41  70 100 123 153 201 245 276
#     4   8  12  22  40  66  95 119 150 197 243 280
#     4  11  24  38  51  71 102 138 173 213 257 304
#
# _framework density 21.273410999999999
#
# number of rings (size 3 to 8) (size 9 to 14) (size 15 to 20)
#    0.000    3.000    1.250    2.250    1.750    0.000 
#    0.000    1.250    0.000    1.500    0.000    0.000 
#    0.000    0.000    0.000    0.000    0.000    0.000 
#
# Total GULP energy -178488.181031 kJ/mol
# GULP energy per Si atom -5577.755657 kJ/mol
# Density = 2.122499 g / cm^3
# Si number density = 21.273411 Si / 1000 Ang^3
#
#
#
# Elastic Constant Matrix: (Units=GPa)
#
#
# Indices 1 2 3 4 5 6 
#
# 1 73.4805 -2.8821 60.4772 0.0000 23.4986 0.0000
# 2 -2.8821 62.5861 -3.5168 0.0000 -4.7523 0.0000
# 3 60.4772 -3.5168 196.7422 0.0000 11.4016 0.0000
# 4 0.0000 0.0000 0.0000 2.4237 0.0000 6.3880
# 5 23.4986 -4.7523 11.4016 0.0000 33.8571 0.0000
# 6 0.0000 0.0000 0.0000 6.3880 0.0000 6.4588
#
#
#
# Elastic Compliance Matrix: (Units=1/GPa)
#
#
# Indices 1 2 3 4 5 6 
#
# 1 0.023346 -0.000354 -0.006365 0.000000 -0.014110 0.000000
# 2 -0.000354 0.016160 0.000257 0.000000 0.002427 0.000000
# 3 -0.006365 0.000257 0.006921 0.000000 0.002123 0.000000
# 4 0.000000 0.000000 0.000000 -0.256789 0.000000 0.253976
# 5 -0.014110 0.002427 0.002123 0.000000 0.038954 0.000000
# 6 0.000000 0.000000 0.000000 0.253976 0.000000 -0.096364
#
#
# Mechanical properties :
#
#
# Convention : Reuss Voigt Hill
#
# Bulk Modulus (GPa) = 29.84775 48.99616 39.42196
# Shear Modulus (GPa) = -20.51875 27.12996 3.30560
#
# Velocity S-wave (km/s) = -3.10905 3.57501 1.24789
# Velocity P-wave (km/s) = 1.08293 6.33424 4.54397
#
# Compressibility (1/GPa) = 0.03350336
#
# Stress axis : x y z
#
# Youngs Moduli (GPa) = 42.83384 61.87949 144.48935
#
# Poissons Ratio (x) = 0.02190 0.91968
# Poissons Ratio (y) = 0.01516 -0.03713
# Poissons Ratio (z) = 0.27264 -0.01590
#
# Static dielectric constant tensor:
#      x y z
#    x 1.649080 0.000000 -0.154180 
#    y 0.000000 1.831110 0.000000 
#    z -0.154180 0.000000 1.498510 
# 
# From -- ./inp_files/60958.got.cif
#   From: 2010.05.17/outbox.cif.g08.bks.cpg/sg11_31_cif.got.tgz:60958.got - 2010.06.03 12:22:45.
