data_PCOD9159985
_publ_section_title
;
Structure prediction by ZEFSAII (Michael W. Deem and Ramdas Pophale) SiO2 
 PCOD9159985
Probable space group: P 21/M
;
_chemical_formula_sum "Si O2"
_cell_formula_units_Z 32
_cell_length_a 11.520658
_cell_length_b 9.118931
_cell_length_c 21.834063
_cell_angle_alpha 90.000000
_cell_angle_beta 128.243017
_cell_angle_gamma 90.000000
_cell_volume 1801.533969
_symmetry_space_group_name_H-M "P 21/M"
_symmetry_group_IT_number 11
_symmetry_cell_setting 'monoclinic'
loop_
_space_group_symop_operation_xyz
x,y,z
-x,1/2+y,-z
-x,-y,-z
x,1/2-y,z
loop_
_atom_site_type_symbol
_atom_site_label
_atom_site_fract_x
_atom_site_fract_y
_atom_site_fract_z
Si Si1 0.318784 0.926668 0.736477
Si Si2 0.669348 0.418574 0.120392
Si Si3 0.580518 0.426081 0.617482
Si Si4 0.013265 0.926310 0.570039
Si Si5 0.158643 0.574931 0.056180
Si Si6 0.276538 0.073953 0.450096
Si Si7 0.398100 0.926867 0.234067
Si Si8 0.687194 0.917381 0.005144
O O1 0.340682 0.750000 0.743398
O O2 0.296274 0.970107 0.799921
O O3 0.171165 0.962239 0.651037
O O4 0.461252 0.001836 0.753404
O O5 0.719966 0.250000 0.129246
O O6 0.727994 0.518613 0.084830
O O7 0.490878 0.417549 0.057288
O O8 0.596519 0.250000 0.619421
O O9 0.688298 0.499819 0.603296
O O10 0.413855 0.462071 0.540234
O O11 0.606019 0.471692 0.695999
O O12 0.004535 0.750000 0.560697
O O13 0.877180 0.971390 0.569211
O O14 0.000000 0.000000 0.500000
O O15 0.143891 0.750000 0.049816
O O16 0.251738 0.534899 0.147521
O O17 0.251239 0.518430 0.028344
O O18 0.000000 0.500000 0.000000
O O19 0.275154 0.250000 0.441843
O O20 0.414191 0.750000 0.237498
O O21 0.738596 0.750000 0.014261
#
# Coordination Sequence:
#
# PCOD9159985 Si02
#       8
#     4   4   4   4   4   4   4   4
#     4  10  20  35  56  82 112 145 183 228 274 329
#     4   9  18  33  54  80 110 142 179 225 274 325
#     4   9  18  34  56  79 105 141 181 224 266 311
#     4  10  21  36  55  81 115 148 182 223 272 325
#     4  11  23  39  58  80 110 145 183 229 281 333
#     4   9  18  34  54  78 110 144 179 218 262 316
#     4  10  21  37  58  82 109 140 181 229 274 327
#     4  10  19  34  57  81 108 141 180 223 274 331
#
# _framework density 17.762640000000001
#
# number of rings (size 3 to 8) (size 9 to 14) (size 15 to 20)
#    0.000    2.250    1.250    1.500    0.000    4.000 
#    2.250    2.500    0.000    0.000    0.000    0.000 
#    0.000    0.000    0.000    0.000    0.000    0.000 
#
# Total GULP energy -178558.908383 kJ/mol
# GULP energy per Si atom -5579.965887 kJ/mol
# Density = 1.772221 g / cm^3
# Si number density = 17.762640 Si / 1000 Ang^3
#
#
#
# Elastic Constant Matrix: (Units=GPa)
#
#
# Indices 1 2 3 4 5 6 
#
# 1 70.9425 29.4109 62.7801 0.0000 -3.7510 0.0000
# 2 29.4109 33.3688 47.3920 0.0000 -2.2215 0.0000
# 3 62.7801 47.3920 156.5987 0.0000 -23.8814 0.0000
# 4 0.0000 0.0000 0.0000 23.1811 0.0000 -5.5295
# 5 -3.7510 -2.2215 -23.8814 0.0000 30.3862 0.0000
# 6 0.0000 0.0000 0.0000 -5.5295 0.0000 33.3015
#
#
#
# Elastic Compliance Matrix: (Units=1/GPa)
#
#
# Indices 1 2 3 4 5 6 
#
# 1 0.025187 -0.012979 -0.006635 0.000000 -0.003055 0.000000
# 2 -0.012979 0.061969 -0.014888 0.000000 -0.008773 0.000000
# 3 -0.006635 -0.014888 0.015066 0.000000 0.009934 0.000000
# 4 0.000000 0.000000 0.000000 0.044918 0.000000 0.007458
# 5 -0.003055 -0.008773 0.009934 0.000000 0.039698 0.000000
# 6 0.000000 0.000000 0.000000 0.007458 0.000000 0.031267
#
#
# Mechanical properties :
#
#
# Convention : Reuss Voigt Hill
#
# Bulk Modulus (GPa) = 30.10537 60.00845 45.05691
# Shear Modulus (GPa) = 16.76816 25.46224 21.11520
#
# Velocity S-wave (km/s) = 3.07581 3.79023 3.45155
# Velocity P-wave (km/s) = 5.44056 7.28089 6.42693
#
# Compressibility (1/GPa) = 0.03321667
#
# Stress axis : x y z
#
# Youngs Moduli (GPa) = 39.70274 16.13706 66.37254
#
# Poissons Ratio (x) = 0.20945 0.44041
# Poissons Ratio (y) = 0.51531 0.98819
# Poissons Ratio (z) = 0.26344 0.24026
#
# Static dielectric constant tensor:
#      x y z
#    x 1.579820 0.000000 0.003190 
#    y 0.000000 1.600730 0.000000 
#    z 0.003190 0.000000 1.606550 
# 
# From -- ./inp_files/64416.got.cif
#   From: 2010.05.17/outbox.cif.g08.bks.cpg/sg11_33_cif.got.tgz:64416.got - 2010.06.03 12:22:45.
