data_PCOD9159530
_publ_section_title
;
Structure prediction by ZEFSAII (Michael W. Deem and Ramdas Pophale) SiO2 
 PCOD9159530
Probable space group: P 21/M
;
_chemical_formula_sum "Si O2"
_cell_formula_units_Z 28
_cell_length_a 29.085728
_cell_length_b 8.622017
_cell_length_c 9.802882
_cell_angle_alpha 90.000000
_cell_angle_beta 40.512171
_cell_angle_gamma 90.000000
_cell_volume 1596.963526
_symmetry_space_group_name_H-M "P 21/M"
_symmetry_group_IT_number 11
_symmetry_cell_setting 'monoclinic'
loop_
_space_group_symop_operation_xyz
x,y,z
-x,1/2+y,-z
-x,-y,-z
x,1/2-y,z
loop_
_atom_site_type_symbol
_atom_site_label
_atom_site_fract_x
_atom_site_fract_y
_atom_site_fract_z
Si Si1 0.096380 0.065802 0.897521
Si Si2 0.644210 0.061741 0.502447
Si Si3 0.802172 0.437489 0.122303
Si Si4 0.434598 0.936410 0.057921
Si Si5 0.945391 0.933012 0.315163
Si Si6 0.493853 0.563278 0.359746
Si Si7 0.922353 0.433428 0.643735
O O1 0.092890 0.250000 0.928892
O O2 0.089628 0.037098 0.751917
O O3 0.165833 0.994993 0.807479
O O4 0.026837 0.987892 0.120372
O O5 0.643016 0.250000 0.500348
O O6 0.721864 0.008535 0.282709
O O7 0.629544 0.020850 0.694758
O O8 0.579960 0.011790 0.547921
O O9 0.801709 0.250000 0.121216
O O10 0.859481 0.493140 0.881809
O O11 0.437778 0.750000 0.040925
O O12 0.500000 0.000000 0.000000
O O13 0.445057 0.005803 0.883371
O O14 0.944607 0.750000 0.344619
O O15 0.907888 0.023208 0.520577
O O16 0.500000 0.500000 0.500000
O O17 0.494880 0.750000 0.361195
O O18 0.926523 0.250000 0.652323
O O19 0.000000 0.500000 0.500000
#
# Coordination Sequence:
#
# PCOD9159530 Si02
#       7
#     4   4   4   4   4   4   4
#     4  10  20  33  51  74  98 127 166 214 266 310
#     4   8  17  34  54  76 103 137 176 215 256 309
#     4  10  20  35  54  75 101 136 176 216 262 316
#     4   9  16  30  53  78 104 135 173 214 254 303
#     4  10  20  34  51  71  97 129 168 213 260 313
#     4  10  19  33  55  82 111 141 176 217 258 308
#     4  11  21  32  51  76 102 133 175 221 265 314
#
# _framework density 17.533275
#
# number of rings (size 3 to 8) (size 9 to 14) (size 15 to 20)
#    0.000    2.286    1.429    3.000    0.000    2.286 
#    0.000    5.714    0.000    6.857    0.000    0.000 
#    0.000    0.000    0.000    0.000    0.000    0.000 
#
# Total GULP energy -156030.518062 kJ/mol
# GULP energy per Si atom -5572.518502 kJ/mol
# Density = 1.749337 g / cm^3
# Si number density = 17.533275 Si / 1000 Ang^3
#
#
#
# Elastic Constant Matrix: (Units=GPa)
#
#
# Indices 1 2 3 4 5 6 
#
# 1 80.1707 21.1538 57.4629 0.0000 4.9025 0.0000
# 2 21.1538 29.7811 33.2321 0.0000 6.2874 0.0000
# 3 57.4629 33.2321 127.3064 0.0000 4.1924 0.0000
# 4 0.0000 0.0000 0.0000 22.7941 0.0000 7.5128
# 5 4.9025 6.2874 4.1924 0.0000 28.0894 0.0000
# 6 0.0000 0.0000 0.0000 7.5128 0.0000 27.3377
#
#
#
# Elastic Compliance Matrix: (Units=1/GPa)
#
#
# Indices 1 2 3 4 5 6 
#
# 1 0.019100 -0.005305 -0.007201 0.000000 -0.001071 0.000000
# 2 -0.005305 0.051123 -0.010656 0.000000 -0.008927 0.000000
# 3 -0.007201 -0.010656 0.013835 0.000000 0.001577 0.000000
# 4 0.000000 0.000000 0.000000 0.048241 0.000000 -0.013257
# 5 -0.001071 -0.008927 0.001577 0.000000 0.037550 0.000000
# 6 0.000000 0.000000 0.000000 -0.013257 0.000000 0.040223
#
#
# Mechanical properties :
#
#
# Convention : Reuss Voigt Hill
#
# Bulk Modulus (GPa) = 26.50239 51.21733 38.85986
# Shear Modulus (GPa) = 18.58907 24.00486 21.29696
#
# Velocity S-wave (km/s) = 3.25963 3.70415 3.48898
# Velocity P-wave (km/s) = 5.41435 6.89705 6.20018
#
# Compressibility (1/GPa) = 0.03773245
#
# Stress axis : x y z
#
# Youngs Moduli (GPa) = 52.35530 19.56079 72.27864
#
# Poissons Ratio (x) = 0.10377 0.52049
# Poissons Ratio (y) = 0.27776 0.77023
# Poissons Ratio (z) = 0.37702 0.20845
#
# Static dielectric constant tensor:
#      x y z
#    x 1.602620 0.000000 0.015830 
#    y 0.000000 1.595230 0.000000 
#    z 0.015830 0.000000 1.633990 
# 
# From -- ./inp_files/28356.got.cif
#   From: 2010.05.17/outbox.cif.g08.bks.cpg/sg11_15_cif.got.tgz:28356.got - 2010.06.03 12:22:45.
