data_PCOD9159436
_publ_section_title
;
Structure prediction by ZEFSAII (Michael W. Deem and Ramdas Pophale) SiO2 
 PCOD9159436
Probable space group: P 21/M
;
_chemical_formula_sum "Si O2"
_cell_formula_units_Z 28
_cell_length_a 13.512371
_cell_length_b 8.131392
_cell_length_c 20.626704
_cell_angle_alpha 90.000000
_cell_angle_beta 30.367187
_cell_angle_gamma 90.000000
_cell_volume 1145.728147
_symmetry_space_group_name_H-M "P 21/M"
_symmetry_group_IT_number 11
_symmetry_cell_setting 'monoclinic'
loop_
_space_group_symop_operation_xyz
x,y,z
-x,1/2+y,-z
-x,-y,-z
x,1/2-y,z
loop_
_atom_site_type_symbol
_atom_site_label
_atom_site_fract_x
_atom_site_fract_y
_atom_site_fract_z
Si Si1 0.810285 0.442725 0.288640
Si Si2 0.134028 0.067315 0.008436
Si Si3 0.495497 0.554304 0.732255
Si Si4 0.793292 0.939775 0.797970
Si Si5 0.170548 0.052633 0.357668
Si Si6 0.602823 0.446318 0.530763
Si Si7 0.651230 0.429577 0.004034
O O1 0.864669 0.250000 0.260315
O O2 0.779135 0.498147 0.381835
O O3 0.592718 0.464586 0.383706
O O4 0.954703 0.514680 0.150830
O O5 0.075676 0.250000 0.020471
O O6 0.290168 0.067896 0.979160
O O7 0.267418 0.991748 0.875522
O O8 0.504764 0.750000 0.720288
O O9 0.629808 0.505860 0.718305
O O10 0.596455 0.479095 0.611191
O O11 0.851060 0.750000 0.778674
O O12 0.886928 0.012914 0.680882
O O13 0.790049 0.045098 0.864013
O O14 0.567129 0.934819 0.900018
O O15 0.178401 0.250000 0.345349
O O16 0.000000 0.000000 0.500000
O O17 0.583845 0.250000 0.532096
O O18 0.678401 0.250000 0.019689
#
# Coordination Sequence:
#
# PCOD9159436 Si02
#       7
#     4   4   4   4   4   4   4
#     4   9  21  41  63  89 121 154 193 243 294 350
#     4  11  22  37  60  90 122 156 197 244 297 351
#     4  11  23  41  61  86 122 159 197 244 296 350
#     4   9  18  35  53  74 107 145 188 234 282 334
#     4  10  22  39  57  80 113 152 195 242 290 344
#     4  10  21  40  65  91 118 154 198 239 293 356
#     4  10  19  33  54  80 110 144 186 234 286 339
#
# _framework density 24.438607000000001
#
# number of rings (size 3 to 8) (size 9 to 14) (size 15 to 20)
#    0.000    2.000    1.429    1.714    0.000    5.714 
#    0.000    4.286    0.000    0.000    0.000    0.000 
#    0.000    0.000    0.000    0.000    0.000    0.000 
#
# Total GULP energy -156130.463324 kJ/mol
# GULP energy per Si atom -5576.087976 kJ/mol
# Density = 2.438298 g / cm^3
# Si number density = 24.438607 Si / 1000 Ang^3
#
#
#
# Elastic Constant Matrix: (Units=GPa)
#
#
# Indices 1 2 3 4 5 6 
#
# 1 45.3080 4.0127 9.9843 0.0000 21.9403 0.0000
# 2 4.0127 31.5015 10.9572 0.0000 3.3005 0.0000
# 3 9.9843 10.9572 167.2612 0.0000 5.1180 0.0000
# 4 0.0000 0.0000 0.0000 22.9474 0.0000 3.1884
# 5 21.9403 3.3005 5.1180 0.0000 45.2004 0.0000
# 6 0.0000 0.0000 0.0000 3.1884 0.0000 20.3980
#
#
#
# Elastic Compliance Matrix: (Units=1/GPa)
#
#
# Indices 1 2 3 4 5 6 
#
# 1 0.029241 -0.001849 -0.001198 0.000000 -0.013923 0.000000
# 2 -0.001849 0.032809 -0.002000 0.000000 -0.001272 0.000000
# 3 -0.001198 -0.002000 0.006180 0.000000 0.000028 0.000000
# 4 0.000000 0.000000 0.000000 0.044545 0.000000 -0.006963
# 5 -0.013923 -0.001272 0.000028 0.000000 0.028972 0.000000
# 6 0.000000 0.000000 0.000000 -0.006963 0.000000 0.050113
#
#
# Mechanical properties :
#
#
# Convention : Reuss Voigt Hill
#
# Bulk Modulus (GPa) = 17.20121 32.66435 24.93278
# Shear Modulus (GPa) = 22.59032 32.31693 27.45363
#
# Velocity S-wave (km/s) = 3.04364 3.64039 3.35531
# Velocity P-wave (km/s) = 4.40517 5.57358 5.02346
#
# Compressibility (1/GPa) = 0.05813544
#
# Stress axis : x y z
#
# Youngs Moduli (GPa) = 34.19846 30.47943 161.80265
#
# Poissons Ratio (x) = 0.05636 0.19389
# Poissons Ratio (y) = 0.06324 0.32361
# Poissons Ratio (z) = 0.04098 0.06096
#
# Static dielectric constant tensor:
#      x y z
#    x 1.884400 0.000000 -0.000370 
#    y 0.000000 1.888770 0.000000 
#    z -0.000370 0.000000 2.052480 
# 
# From -- ./inp_files/54453.got.cif
#   From: 2010.05.17/outbox.cif.g08.bks.cpg/sg11_28_cif.got.tgz:54453.got - 2010.06.03 12:22:45.
