data_PCOD9159404
_publ_section_title
;
Structure prediction by ZEFSAII (Michael W. Deem and Ramdas Pophale) SiO2 
 PCOD9159404
Probable space group: P 21/M
;
_chemical_formula_sum "Si O2"
_cell_formula_units_Z 32
_cell_length_a 16.137835
_cell_length_b 8.817667
_cell_length_c 21.680463
_cell_angle_alpha 90.000000
_cell_angle_beta 35.149211
_cell_angle_gamma 90.000000
_cell_volume 1776.108890
_symmetry_space_group_name_H-M "P 21/M"
_symmetry_group_IT_number 11
_symmetry_cell_setting 'monoclinic'
loop_
_space_group_symop_operation_xyz
x,y,z
-x,1/2+y,-z
-x,-y,-z
x,1/2-y,z
loop_
_atom_site_type_symbol
_atom_site_label
_atom_site_fract_x
_atom_site_fract_y
_atom_site_fract_z
Si Si1 0.004759 0.930629 0.691742
Si Si2 0.563298 0.066497 0.227221
Si Si3 0.147702 0.431359 0.093615
Si Si4 0.543271 0.069114 0.095047
Si Si5 0.730177 0.421613 0.790240
Si Si6 0.874766 0.931618 0.034656
Si Si7 0.151386 0.577211 0.419339
Si Si8 0.278220 0.428929 0.459250
O O1 0.004120 0.750000 0.683739
O O2 0.972822 0.966709 0.782575
O O3 0.865687 0.997824 0.740380
O O4 0.157516 0.994007 0.575339
O O5 0.569592 0.250000 0.223426
O O6 0.525730 0.021087 0.178614
O O7 0.444454 0.020063 0.350690
O O8 0.718568 0.997529 0.146853
O O9 0.173980 0.250000 0.079315
O O10 0.297439 0.512562 0.019041
O O11 0.104980 0.472140 0.049997
O O12 0.534880 0.250000 0.098964
O O13 0.423348 0.004178 0.121553
O O14 0.715405 0.250000 0.823428
O O15 0.772860 0.414409 0.692285
O O16 0.873756 0.750000 0.040410
O O17 0.000000 0.000000 0.000000
O O18 0.139688 0.750000 0.451024
O O19 0.226252 0.467547 0.422002
O O20 0.000000 0.500000 0.500000
O O21 0.275072 0.250000 0.473119
#
# Coordination Sequence:
#
# PCOD9159404 Si02
#       8
#     4   4   4   4   4   4   4   4
#     4  11  23  37  53  73 104 147 192 228 266 317
#     4   9  19  34  54  82 113 140 172 217 269 317
#     4   9  21  40  57  78 108 142 177 219 268 323
#     4  10  19  33  54  77 103 140 184 232 278 321
#     4  11  22  33  48  72 104 143 189 235 278 318
#     4  10  20  37  64  92 115 135 164 208 263 323
#     4  11  21  31  47  70 101 141 188 238 278 314
#     4  11  21  34  52  76 109 144 182 227 273 319
#
# _framework density 18.016915000000001
#
# number of rings (size 3 to 8) (size 9 to 14) (size 15 to 20)
#    0.000    1.750    2.500    2.250    0.000    4.500 
#    0.000    0.000    0.000    0.750    0.000    0.000 
#    0.000    0.000    0.000    0.000    0.000    0.000 
#
# Total GULP energy -178459.548069 kJ/mol
# GULP energy per Si atom -5576.860877 kJ/mol
# Density = 1.797591 g / cm^3
# Si number density = 18.016915 Si / 1000 Ang^3
#
#
#
# Elastic Constant Matrix: (Units=GPa)
#
#
# Indices 1 2 3 4 5 6 
#
# 1 75.3350 30.7326 68.7089 0.0000 -17.9680 0.0000
# 2 30.7326 42.5661 46.4464 0.0000 -5.3974 0.0000
# 3 68.7089 46.4464 144.8541 0.0000 -6.9611 0.0000
# 4 0.0000 0.0000 0.0000 25.1738 0.0000 -4.2917
# 5 -17.9680 -5.3974 -6.9611 0.0000 23.4873 0.0000
# 6 0.0000 0.0000 0.0000 -4.2917 0.0000 20.6849
#
#
#
# Elastic Compliance Matrix: (Units=1/GPa)
#
#
# Indices 1 2 3 4 5 6 
#
# 1 0.031439 -0.007729 -0.011528 0.000000 0.018858 0.000000
# 2 -0.007729 0.038610 -0.008696 0.000000 0.000383 0.000000
# 3 -0.011528 -0.008696 0.014852 0.000000 -0.006416 0.000000
# 4 0.000000 0.000000 0.000000 0.041181 0.000000 0.008544
# 5 0.018858 0.000383 -0.006416 0.000000 0.055190 0.000000
# 6 0.000000 0.000000 0.000000 0.008544 0.000000 0.050117
#
#
# Mechanical properties :
#
#
# Convention : Reuss Voigt Hill
#
# Bulk Modulus (GPa) = 34.48801 61.61458 48.05129
# Shear Modulus (GPa) = 16.83744 21.66035 19.24889
#
# Velocity S-wave (km/s) = 3.06033 3.47107 3.27215
# Velocity P-wave (km/s) = 5.62771 7.09485 6.40343
#
# Compressibility (1/GPa) = 0.02899558
#
# Stress axis : x y z
#
# Youngs Moduli (GPa) = 31.80766 25.90021 67.33306
#
# Poissons Ratio (x) = 0.20017 0.77623
# Poissons Ratio (y) = 0.24583 0.58550
# Poissons Ratio (z) = 0.36668 0.22522
#
# Static dielectric constant tensor:
#      x y z
#    x 1.602540 0.000000 0.008240 
#    y 0.000000 1.614610 0.000000 
#    z 0.008240 0.000000 1.663530 
# 
# From -- ./inp_files/69440.got.cif
#   From: 2010.05.17/outbox.cif.g08.bks.cpg/sg11_35_cif.got.tgz:69440.got - 2010.06.03 12:22:45.
