data_PCOD9159979
_publ_section_title
;
Structure prediction by ZEFSAII (Michael W. Deem and Ramdas Pophale) SiO2 
 PCOD9159979
Probable space group: P 21/M
;
_chemical_formula_sum "Si O2"
_cell_formula_units_Z 28
_cell_length_a 8.311959
_cell_length_b 10.150902
_cell_length_c 26.650266
_cell_angle_alpha 90.000000
_cell_angle_beta 39.064517
_cell_angle_gamma 90.000000
_cell_volume 1417.048083
_symmetry_space_group_name_H-M "P 21/M"
_symmetry_group_IT_number 11
_symmetry_cell_setting 'monoclinic'
loop_
_space_group_symop_operation_xyz
x,y,z
-x,1/2+y,-z
-x,-y,-z
x,1/2-y,z
loop_
_atom_site_type_symbol
_atom_site_label
_atom_site_fract_x
_atom_site_fract_y
_atom_site_fract_z
Si Si1 0.705184 0.592928 0.423701
Si Si2 0.546906 0.898652 0.795410
Si Si3 0.944766 0.606042 0.946466
Si Si4 0.470073 0.605264 0.122825
Si Si5 0.729477 0.404794 0.667926
Si Si6 0.066529 0.899938 0.137323
Si Si7 0.341869 0.092713 0.680928
O O1 0.500000 0.500000 0.500000
O O2 0.639605 0.750000 0.440882
O O3 0.710518 0.549918 0.363462
O O4 0.974666 0.579646 0.387946
O O5 0.649567 0.750000 0.766181
O O6 0.247238 0.888682 0.880085
O O7 0.647682 0.989771 0.815784
O O8 0.586887 0.988705 0.737061
O O9 0.871135 0.750000 0.942627
O O10 0.901769 0.489345 0.918349
O O11 0.769193 0.592017 0.038045
O O12 0.423150 0.750000 0.157614
O O13 0.329570 0.604093 0.103867
O O14 0.665337 0.250000 0.693957
O O15 0.623197 0.429623 0.637130
O O16 0.993964 0.750000 0.140953
O O17 0.858718 0.952805 0.227940
O O18 0.301643 0.250000 0.688630
#
# Coordination Sequence:
#
# PCOD9159979 Si02
#       7
#     4   4   4   4   4   4   4
#     4  10  22  40  62  90 120 148 184 226 276 343
#     4  11  22  35  53  80 112 146 190 242 291 336
#     4  10  21  35  50  76 113 147 186 241 296 343
#     4  10  21  35  52  75 108 152 196 238 290 349
#     4  10  20  38  63  84 112 155 192 231 284 339
#     4  10  19  34  57  80 103 143 196 239 281 339
#     4   9  18  35  59  85 112 147 190 231 274 336
#
# _framework density 19.759385999999999
#
# number of rings (size 3 to 8) (size 9 to 14) (size 15 to 20)
#    0.000    2.000    1.429    2.143    0.000    5.143 
#    0.000    1.429    0.000    0.000    0.000    0.000 
#    0.000    0.000    0.000    0.000    0.000    0.000 
#
# Total GULP energy -155980.434869 kJ/mol
# GULP energy per Si atom -5570.729817 kJ/mol
# Density = 1.971441 g / cm^3
# Si number density = 19.759386 Si / 1000 Ang^3
#
#
#
# Elastic Constant Matrix: (Units=GPa)
#
#
# Indices 1 2 3 4 5 6 
#
# 1 68.8257 28.5599 13.6728 0.0000 -6.5709 0.0000
# 2 28.5599 102.2188 35.9782 0.0000 2.3301 0.0000
# 3 13.6728 35.9782 52.7372 0.0000 -2.6615 0.0000
# 4 0.0000 0.0000 0.0000 31.0736 0.0000 3.0324
# 5 -6.5709 2.3301 -2.6615 0.0000 23.7363 0.0000
# 6 0.0000 0.0000 0.0000 3.0324 0.0000 15.2052
#
#
#
# Elastic Compliance Matrix: (Units=1/GPa)
#
#
# Indices 1 2 3 4 5 6 
#
# 1 0.017100 -0.004504 -0.001106 0.000000 0.005052 0.000000
# 2 -0.004504 0.014182 -0.008690 0.000000 -0.003613 0.000000
# 3 -0.001106 -0.008690 0.025348 0.000000 0.003389 0.000000
# 4 0.000000 0.000000 0.000000 0.032820 0.000000 -0.006546
# 5 0.005052 -0.003613 0.003389 0.000000 0.044263 0.000000
# 6 0.000000 0.000000 0.000000 -0.006546 0.000000 0.067073
#
#
# Mechanical properties :
#
#
# Convention : Reuss Voigt Hill
#
# Bulk Modulus (GPa) = 35.67449 42.24485 38.95967
# Shear Modulus (GPa) = 20.94414 23.70774 22.32594
#
# Velocity S-wave (km/s) = 3.25923 3.46760 3.36503
# Velocity P-wave (km/s) = 5.67953 6.12033 5.90405
#
# Compressibility (1/GPa) = 0.02803123
#
# Stress axis : x y z
#
# Youngs Moduli (GPa) = 58.47834 70.51027 39.45036
#
# Poissons Ratio (x) = 0.31756 0.04363
# Poissons Ratio (y) = 0.26337 0.34283
# Poissons Ratio (z) = 0.06468 0.61274
#
# Static dielectric constant tensor:
#      x y z
#    x 1.739510 0.000000 -0.030380 
#    y 0.000000 1.716410 0.000000 
#    z -0.030380 0.000000 1.712600 
# 
# From -- ./inp_files/29076.got.cif
#   From: 2010.05.17/outbox.cif.g08.bks.cpg/sg11_15_cif.got.tgz:29076.got - 2010.06.03 12:22:45.
