data_PCOD9159359
_publ_section_title
;
Structure prediction by ZEFSAII (Michael W. Deem and Ramdas Pophale) SiO2 
 PCOD9159359
Probable space group: P 21/M
;
_chemical_formula_sum "Si O2"
_cell_formula_units_Z 28
_cell_length_a 14.299338
_cell_length_b 13.201161
_cell_length_c 9.550909
_cell_angle_alpha 90.000000
_cell_angle_beta 122.691765
_cell_angle_gamma 90.000000
_cell_volume 1517.303705
_symmetry_space_group_name_H-M "P 21/M"
_symmetry_group_IT_number 11
_symmetry_cell_setting 'monoclinic'
loop_
_space_group_symop_operation_xyz
x,y,z
-x,1/2+y,-z
-x,-y,-z
x,1/2-y,z
loop_
_atom_site_type_symbol
_atom_site_label
_atom_site_fract_x
_atom_site_fract_y
_atom_site_fract_z
Si Si1 0.905784 0.869106 0.516656
Si Si2 0.261537 0.366149 0.366932
Si Si3 0.636593 0.424656 0.227074
Si Si4 0.466324 0.031018 0.626484
Si Si5 0.851229 0.047638 0.259565
Si Si6 0.699112 0.528788 0.895430
Si Si7 0.596207 0.641771 0.054209
O O1 0.891413 0.750000 0.473865
O O2 0.829213 0.895015 0.589213
O O3 0.033703 0.893397 0.656046
O O4 0.874358 0.942237 0.361734
O O5 0.242032 0.250000 0.310277
O O6 0.381446 0.377344 0.539421
O O7 0.264934 0.435324 0.229784
O O8 0.605119 0.439432 0.362861
O O9 0.758222 0.394261 0.277373
O O10 0.624511 0.541820 0.164578
O O11 0.535833 0.363606 0.078112
O O12 0.500000 0.000000 0.500000
O O13 0.585302 0.038829 0.799750
O O14 0.794298 0.024359 0.064107
O O15 0.657422 0.623961 0.955308
O O16 0.627964 0.750000 0.140944
#
# Coordination Sequence:
#
# PCOD9159359 Si02
#       7
#     4   4   4   4   4   4   4
#     4  10  22  37  55  78 103 138 183 230 273 314
#     4  10  19  33  53  79 107 138 178 220 262 313
#     4   9  17  30  47  72 101 131 170 204 254 314
#     4   9  17  32  50  75 107 137 165 208 259 317
#     4  10  20  37  56  75 107 140 179 227 267 319
#     4   9  19  33  54  78 105 140 175 213 261 324
#     4   9  17  28  46  75 105 129 161 208 256 307
#
# _framework density 18.453787999999999
#
# number of rings (size 3 to 8) (size 9 to 14) (size 15 to 20)
#    0.000    2.571    1.429    1.286    0.000    4.571 
#    0.000    0.714    0.000    0.000    0.000    0.000 
#    0.000    0.000    0.000    0.000    0.000    0.000 
#
# Total GULP energy -155905.179686 kJ/mol
# GULP energy per Si atom -5568.042132 kJ/mol
# Density = 1.841179 g / cm^3
# Si number density = 18.453788 Si / 1000 Ang^3
#
#
#
# Elastic Constant Matrix: (Units=GPa)
#
#
# Indices 1 2 3 4 5 6 
#
# 1 124.6868 19.4043 38.7998 0.0000 5.4248 0.0000
# 2 19.4043 38.9171 6.3830 0.0000 -3.7682 0.0000
# 3 38.7998 6.3830 85.8294 0.0000 4.5618 0.0000
# 4 0.0000 0.0000 0.0000 8.4917 0.0000 -1.9494
# 5 5.4248 -3.7682 4.5618 0.0000 40.0805 0.0000
# 6 0.0000 0.0000 0.0000 -1.9494 0.0000 9.8846
#
#
#
# Elastic Compliance Matrix: (Units=1/GPa)
#
#
# Indices 1 2 3 4 5 6 
#
# 1 0.010062 -0.004464 -0.004147 0.000000 -0.001310 0.000000
# 2 -0.004464 0.028283 -0.000261 0.000000 0.003293 0.000000
# 3 -0.004147 -0.000261 0.013599 0.000000 -0.001011 0.000000
# 4 0.000000 0.000000 0.000000 0.123347 0.000000 0.024327
# 5 -0.001310 0.003293 -0.001011 0.000000 0.025552 0.000000
# 6 0.000000 0.000000 0.000000 0.024327 0.000000 0.105966
#
#
# Mechanical properties :
#
#
# Convention : Reuss Voigt Hill
#
# Bulk Modulus (GPa) = 29.23872 42.06750 35.65311
# Shear Modulus (GPa) = 14.88310 24.01443 19.44876
#
# Velocity S-wave (km/s) = 2.84299 3.61131 3.24993
# Velocity P-wave (km/s) = 5.16289 6.34305 5.78316
#
# Compressibility (1/GPa) = 0.03420123
#
# Stress axis : x y z
#
# Youngs Moduli (GPa) = 99.38153 35.35715 73.53550
#
# Poissons Ratio (x) = 0.15782 0.30496
# Poissons Ratio (y) = 0.44361 0.01916
# Poissons Ratio (z) = 0.41215 0.00921
#
# Static dielectric constant tensor:
#      x y z
#    x 1.686600 0.000000 -0.012430 
#    y 0.000000 1.634920 0.000000 
#    z -0.012430 0.000000 1.683090 
# 
# From -- ./inp_files/21940.got.cif
#   From: 2010.05.17/outbox.cif.g08.bks.cpg/sg11_11_cif.got.tgz:21940.got - 2010.06.03 12:22:45.
