data_PCOD9159608
_publ_section_title
;
Structure prediction by ZEFSAII (Michael W. Deem and Ramdas Pophale) SiO2 
 PCOD9159608
Probable space group: P 21/M
;
_chemical_formula_sum "Si O2"
_cell_formula_units_Z 32
_cell_length_a 23.425627
_cell_length_b 9.059735
_cell_length_c 11.424114
_cell_angle_alpha 90.000000
_cell_angle_beta 42.967008
_cell_angle_gamma 90.000000
_cell_volume 1652.510583
_symmetry_space_group_name_H-M "P 21/M"
_symmetry_group_IT_number 11
_symmetry_cell_setting 'monoclinic'
loop_
_space_group_symop_operation_xyz
x,y,z
-x,1/2+y,-z
-x,-y,-z
x,1/2-y,z
loop_
_atom_site_type_symbol
_atom_site_label
_atom_site_fract_x
_atom_site_fract_y
_atom_site_fract_z
Si Si1 0.249479 0.078594 0.199360
Si Si2 0.592657 0.575439 0.637387
Si Si3 0.428244 0.420465 0.800470
Si Si4 0.323785 0.073815 0.736333
Si Si5 0.129228 0.422965 0.752302
Si Si6 0.278475 0.924879 0.401180
Si Si7 0.045375 0.923387 0.097183
Si Si8 0.172246 0.925211 0.097947
O O1 0.229196 0.250000 0.250829
O O2 0.253429 0.990837 0.313651
O O3 0.187664 0.008773 0.196149
O O4 0.342038 0.071129 0.002653
O O5 0.594386 0.750000 0.655857
O O6 0.499749 0.521364 0.746726
O O7 0.647687 0.544512 0.438076
O O8 0.634428 0.491581 0.682841
O O9 0.457129 0.250000 0.757559
O O10 0.399973 0.460528 0.711131
O O11 0.306396 0.250000 0.775248
O O12 0.243893 0.983716 0.901083
O O13 0.151816 0.250000 0.723313
O O14 0.207600 0.518952 0.596894
O O15 0.053499 0.443501 0.772990
O O16 0.091692 0.476328 0.931855
O O17 0.282499 0.750000 0.391279
O O18 0.062751 0.750000 0.044357
O O19 0.084144 0.953766 0.165790
O O20 0.182305 0.750000 0.099887
#
# Coordination Sequence:
#
# PCOD9159608 Si02
#       8
#     4   4   4   4   4   4   4   4
#     4  10  22  41  60  78 105 142 184 228 273 321
#     4  11  22  35  55  82 110 143 183 225 273 327
#     4   9  19  36  56  79 108 140 177 225 275 322
#     4   9  19  34  52  79 114 148 181 219 266 320
#     4  10  20  36  58  84 116 149 181 221 269 319
#     4  12  25  40  57  78 107 143 185 229 275 325
#     4   9  19  35  57  87 119 148 179 218 266 322
#     4  10  19  33  56  84 111 142 181 222 268 321
#
# _framework density 19.364474999999999
#
# number of rings (size 3 to 8) (size 9 to 14) (size 15 to 20)
#    0.000    2.000    0.000    4.500    0.000    7.500 
#    0.000    0.625    0.000    0.000    0.000    0.000 
#    0.000    0.000    0.000    0.000    0.000    0.000 
#
# Total GULP energy -178785.197401 kJ/mol
# GULP energy per Si atom -5587.037419 kJ/mol
# Density = 1.932040 g / cm^3
# Si number density = 19.364475 Si / 1000 Ang^3
#
#
#
# Elastic Constant Matrix: (Units=GPa)
#
#
# Indices 1 2 3 4 5 6 
#
# 1 124.5314 60.3338 9.2511 0.0000 -5.0695 0.0000
# 2 60.3338 95.7827 11.4999 0.0000 -1.9029 0.0000
# 3 9.2511 11.4999 5.8190 0.0000 1.2023 0.0000
# 4 0.0000 0.0000 0.0000 28.7018 0.0000 0.5366
# 5 -5.0695 -1.9029 1.2023 0.0000 12.8416 0.0000
# 6 0.0000 0.0000 0.0000 0.5366 0.0000 30.9166
#
#
#
# Elastic Compliance Matrix: (Units=1/GPa)
#
#
# Indices 1 2 3 4 5 6 
#
# 1 0.011910 -0.006600 -0.006792 0.000000 0.004359 0.000000
# 2 -0.006600 0.017624 -0.024818 0.000000 0.002330 0.000000
# 3 -0.006792 -0.024818 0.237606 0.000000 -0.028605 0.000000
# 4 0.000000 0.000000 0.000000 0.034852 0.000000 -0.000605
# 5 0.004359 0.002330 -0.028605 0.000000 0.082616 0.000000
# 6 0.000000 0.000000 0.000000 -0.000605 0.000000 0.032356
#
#
# Mechanical properties :
#
#
# Convention : Reuss Voigt Hill
#
# Bulk Modulus (GPa) = 5.24327 43.14475 24.19401
# Shear Modulus (GPa) = 8.97737 24.16189 16.56963
#
# Velocity S-wave (km/s) = 2.15547 3.53617 2.92836
# Velocity P-wave (km/s) = 2.98468 6.24511 4.89437
#
# Compressibility (1/GPa) = 0.19072080
#
# Stress axis : x y z
#
# Youngs Moduli (GPa) = 83.96541 56.74235 4.20864
#
# Poissons Ratio (x) = 0.37449 0.02858
# Poissons Ratio (y) = 0.55416 0.10445
# Poissons Ratio (z) = 0.57028 1.40821
#
# Static dielectric constant tensor:
#      x y z
#    x 1.692690 0.000000 -0.000780 
#    y 0.000000 1.644590 0.000000 
#    z -0.000780 0.000000 1.662120 
# 
# From -- ./inp_files/42811.got.cif
#   From: 2010.05.17/outbox.cif.g08.bks.cpg/sg11_22_cif.got.tgz:42811.got - 2010.06.03 12:22:45.
