data_PCOD9159233
_publ_section_title
;
Structure prediction by ZEFSAII (Michael W. Deem and Ramdas Pophale) SiO2 
 PCOD9159233
Probable space group: P 21/M
;
_chemical_formula_sum "Si O2"
_cell_formula_units_Z 32
_cell_length_a 25.331402
_cell_length_b 8.051914
_cell_length_c 15.742494
_cell_angle_alpha 90.000000
_cell_angle_beta 150.729139
_cell_angle_gamma 90.000000
_cell_volume 1569.952322
_symmetry_space_group_name_H-M "P 21/M"
_symmetry_group_IT_number 11
_symmetry_cell_setting 'monoclinic'
loop_
_space_group_symop_operation_xyz
x,y,z
-x,1/2+y,-z
-x,-y,-z
x,1/2-y,z
loop_
_atom_site_type_symbol
_atom_site_label
_atom_site_fract_x
_atom_site_fract_y
_atom_site_fract_z
Si Si1 0.270991 0.050163 0.379666
Si Si2 0.842925 0.547110 0.951048
Si Si3 0.482771 0.549019 0.238580
Si Si4 0.122359 0.949539 0.665277
Si Si5 0.573381 0.442605 0.027439
Si Si6 0.908967 0.048860 0.734464
Si Si7 0.814279 0.053991 0.425282
Si Si8 0.731352 0.553148 0.970300
O O1 0.275680 0.250000 0.387202
O O2 0.235988 0.996933 0.236194
O O3 0.392920 0.991052 0.573085
O O4 0.172506 0.003385 0.304786
O O5 0.846872 0.750000 0.960121
O O6 0.793517 0.489448 0.972408
O O7 0.965181 0.494757 0.095875
O O8 0.485293 0.750000 0.242396
O O9 0.390724 0.504174 0.178645
O O10 0.442537 0.483831 0.089220
O O11 0.138113 0.750000 0.685243
O O12 0.146070 0.023241 0.606017
O O13 0.000000 0.000000 0.500000
O O14 0.195761 0.011827 0.845160
O O15 0.551830 0.250000 0.982769
O O16 0.688773 0.457251 0.232654
O O17 0.500000 0.500000 0.000000
O O18 0.910360 0.250000 0.739269
O O19 0.855052 0.986772 0.571167
O O20 0.846265 0.250000 0.471387
O O21 0.726154 0.750000 0.953313
#
# Coordination Sequence:
#
# PCOD9159233 Si02
#       8
#     4   4   4   4   4   4   4   4
#     4  10  21  38  59  82 113 152 191 240 301 355
#     4   9  20  38  58  82 114 152 192 240 303 356
#     4  10  21  38  57  80 116 155 190 239 299 347
#     4  11  21  37  58  83 117 154 191 230 281 339
#     4  10  19  33  51  75 107 143 181 224 276 336
#     4  10  19  35  59  84 112 146 188 237 288 350
#     4   9  18  33  53  75 108 148 178 212 275 338
#     4  11  22  38  60  85 115 154 200 243 286 346
#
# _framework density 20.382784000000001
#
# number of rings (size 3 to 8) (size 9 to 14) (size 15 to 20)
#    0.000    2.000    1.250    2.625    0.000    3.500 
#    0.000    5.000    0.000    0.000    0.000    0.000 
#    0.000    0.000    0.000    0.000    0.000    0.000 
#
# Total GULP energy -178237.858344 kJ/mol
# GULP energy per Si atom -5569.933073 kJ/mol
# Density = 2.033639 g / cm^3
# Si number density = 20.382784 Si / 1000 Ang^3
#
#
#
# Elastic Constant Matrix: (Units=GPa)
#
#
# Indices 1 2 3 4 5 6 
#
# 1 154.8299 16.2284 43.8220 0.0000 -1.5136 0.0000
# 2 16.2284 25.4473 0.9157 0.0000 -6.7794 0.0000
# 3 43.8220 0.9157 133.9207 0.0000 9.9220 0.0000
# 4 0.0000 0.0000 0.0000 -32.2191 0.0000 -7.9674
# 5 -1.5136 -6.7794 9.9220 0.0000 48.9262 0.0000
# 6 0.0000 0.0000 0.0000 -7.9674 0.0000 22.3949
#
#
#
# Elastic Compliance Matrix: (Units=1/GPa)
#
#
# Indices 1 2 3 4 5 6 
#
# 1 0.007662 -0.004776 -0.002480 0.000000 0.000078 0.000000
# 2 -0.004776 0.043847 0.000836 0.000000 0.005758 0.000000
# 3 -0.002480 0.000836 0.008396 0.000000 -0.001664 0.000000
# 4 0.000000 0.000000 0.000000 -0.028528 0.000000 -0.010149
# 5 0.000078 0.005758 -0.001664 0.000000 0.021577 0.000000
# 6 0.000000 0.000000 0.000000 -0.010149 0.000000 0.041042
#
#
# Mechanical properties :
#
#
# Convention : Reuss Voigt Hill
#
# Bulk Modulus (GPa) = 21.24724 48.45889 34.85307
# Shear Modulus (GPa) = 40.80802 24.70252 32.75527
#
# Velocity S-wave (km/s) = 4.47932 3.48506 4.01310
# Velocity P-wave (km/s) = 6.09911 6.32615 6.21367
#
# Compressibility (1/GPa) = 0.04706493
#
# Stress axis : x y z
#
# Youngs Moduli (GPa) = 130.51243 22.80668 119.10055
#
# Poissons Ratio (x) = 0.10893 0.29541
# Poissons Ratio (y) = 0.62336 -0.09962
# Poissons Ratio (z) = 0.32372 -0.01908
#
# Static dielectric constant tensor:
#      x y z
#    x 1.702910 0.000000 -0.018990 
#    y 0.000000 1.733360 0.000000 
#    z -0.018990 0.000000 1.716980 
# 
# From -- ./inp_files/55700.got.cif
#   From: 2010.05.17/outbox.cif.g08.bks.cpg/sg11_28_cif.got.tgz:55700.got - 2010.06.03 12:22:45.
