data_PCOD9159917
_publ_section_title
;
Structure prediction by ZEFSAII (Michael W. Deem and Ramdas Pophale) SiO2 
 PCOD9159917
Probable space group: P 21/M
;
_chemical_formula_sum "Si O2"
_cell_formula_units_Z 24
_cell_length_a 17.057493
_cell_length_b 8.627298
_cell_length_c 23.824744
_cell_angle_alpha 90.000000
_cell_angle_beta 22.916332
_cell_angle_gamma 90.000000
_cell_volume 1365.209029
_symmetry_space_group_name_H-M "P 21/M"
_symmetry_group_IT_number 11
_symmetry_cell_setting 'monoclinic'
loop_
_space_group_symop_operation_xyz
x,y,z
-x,1/2+y,-z
-x,-y,-z
x,1/2-y,z
loop_
_atom_site_type_symbol
_atom_site_label
_atom_site_fract_x
_atom_site_fract_y
_atom_site_fract_z
Si Si1 0.978191 0.064136 0.951854
Si Si2 0.287202 0.936721 0.161207
Si Si3 0.361182 0.435609 0.903418
Si Si4 0.277901 0.436349 0.655495
Si Si5 0.790756 0.062669 0.660489
Si Si6 0.084430 0.937097 0.183315
O O1 0.979051 0.250000 0.952646
O O2 0.772230 0.008392 0.058043
O O3 0.160380 0.013677 0.789849
O O4 0.000000 0.000000 0.000000
O O5 0.298366 0.750000 0.155253
O O6 0.240085 0.990593 0.254931
O O7 0.123713 0.980084 0.221715
O O8 0.500000 0.000000 0.000000
O O9 0.352770 0.250000 0.904387
O O10 0.594069 0.484722 0.754353
O O11 0.253200 0.487010 0.032426
O O12 0.500000 0.500000 0.500000
O O13 0.288390 0.250000 0.650032
O O14 0.129723 0.481283 0.701992
O O15 0.795461 0.250000 0.657259
O O16 0.000000 0.000000 0.500000
O O17 0.103195 0.750000 0.165669
#
# Coordination Sequence:
#
# PCOD9159917 Si02
#       6
#     4   4   4   4   4   4
#     4  10  21  38  59  83 109 142 184 226 269 323
#     4  10  19  34  56  81 107 137 180 227 266 318
#     4  10  19  34  56  81 110 141 181 226 269 324
#     4   9  19  35  54  79 110 140 174 218 269 321
#     4  10  22  37  53  78 113 147 181 224 273 323
#     4   9  18  33  55  80 107 139 180 223 268 323
#
# _framework density 17.579725
#
# number of rings (size 3 to 8) (size 9 to 14) (size 15 to 20)
#    0.000    2.333    1.667    2.000    0.000    5.333 
#    3.000    0.000    0.000    0.000    0.000    0.000 
#    0.000    0.000    0.000    0.000    0.000    0.000 
#
# Total GULP energy -133852.872507 kJ/mol
# GULP energy per Si atom -5577.203021 kJ/mol
# Density = 1.753971 g / cm^3
# Si number density = 17.579725 Si / 1000 Ang^3
#
#
#
# Elastic Constant Matrix: (Units=GPa)
#
#
# Indices 1 2 3 4 5 6 
#
# 1 166.1967 35.7568 96.1748 0.0000 -2.1503 0.0000
# 2 35.7568 20.6264 28.1048 0.0000 -4.0406 0.0000
# 3 96.1748 28.1048 155.6684 0.0000 -18.9746 0.0000
# 4 0.0000 0.0000 0.0000 32.7107 0.0000 -1.5766
# 5 -2.1503 -4.0406 -18.9746 0.0000 27.2528 0.0000
# 6 0.0000 0.0000 0.0000 -1.5766 0.0000 25.8937
#
#
#
# Elastic Compliance Matrix: (Units=1/GPa)
#
#
# Indices 1 2 3 4 5 6 
#
# 1 0.012381 -0.014845 -0.005593 0.000000 -0.005118 0.000000
# 2 -0.014845 0.082162 -0.004721 0.000000 0.007724 0.000000
# 3 -0.005593 -0.004721 0.011575 0.000000 0.006918 0.000000
# 4 0.000000 0.000000 0.000000 0.030661 0.000000 0.001867
# 5 -0.005118 0.007724 0.006918 0.000000 0.042251 0.000000
# 6 0.000000 0.000000 0.000000 0.001867 0.000000 0.038733
#
#
# Mechanical properties :
#
#
# Convention : Reuss Voigt Hill
#
# Bulk Modulus (GPa) = 17.92111 73.61826 45.76968
# Shear Modulus (GPa) = 17.44099 29.33510 23.38805
#
# Velocity S-wave (km/s) = 3.15319 4.08939 3.65142
# Velocity P-wave (km/s) = 4.84491 8.01656 6.62338
#
# Compressibility (1/GPa) = 0.05580013
#
# Stress axis : x y z
#
# Youngs Moduli (GPa) = 80.76744 12.17112 86.39412
#
# Poissons Ratio (x) = 0.18068 0.48320
# Poissons Ratio (y) = 1.19901 0.40783
# Poissons Ratio (z) = 0.45173 0.05745
#
# Static dielectric constant tensor:
#      x y z
#    x 1.614900 0.000000 -0.008320 
#    y 0.000000 1.596390 0.000000 
#    z -0.008320 0.000000 1.569600 
# 
# From -- ./inp_files/20619.got.cif
#   From: 2010.05.17/outbox.cif.g08.bks.cpg/sg11_11_cif.got.tgz:20619.got - 2010.06.03 12:22:45.
