data_PCOD9159507
_publ_section_title
;
Structure prediction by ZEFSAII (Michael W. Deem and Ramdas Pophale) SiO2 
 PCOD9159507
Probable space group: P 21/M
;
_chemical_formula_sum "Si O2"
_cell_formula_units_Z 32
_cell_length_a 12.456131
_cell_length_b 7.801593
_cell_length_c 20.300553
_cell_angle_alpha 90.000000
_cell_angle_beta 47.168860
_cell_angle_gamma 90.000000
_cell_volume 1446.744466
_symmetry_space_group_name_H-M "P 21/M"
_symmetry_group_IT_number 11
_symmetry_cell_setting 'monoclinic'
loop_
_space_group_symop_operation_xyz
x,y,z
-x,1/2+y,-z
-x,-y,-z
x,1/2-y,z
loop_
_atom_site_type_symbol
_atom_site_label
_atom_site_fract_x
_atom_site_fract_y
_atom_site_fract_z
Si Si1 0.431459 0.049851 0.842466
Si Si2 0.114305 0.551717 0.153698
Si Si3 0.888168 0.444428 0.990312
Si Si4 0.542697 0.042006 0.315841
Si Si5 0.011054 0.544240 0.418681
Si Si6 0.726311 0.460743 0.784208
Si Si7 0.709160 0.957658 0.477887
Si Si8 0.205882 0.950473 0.696817
O O1 0.406062 0.250000 0.867246
O O2 0.562944 0.985095 0.833549
O O3 0.277394 0.956796 0.915186
O O4 0.481820 0.030106 0.746101
O O5 0.161855 0.750000 0.127404
O O6 0.216138 0.478248 0.168808
O O7 0.946935 0.546005 0.248113
O O8 0.111454 0.469412 0.082204
O O9 0.931958 0.250000 0.959178
O O10 0.000000 0.500000 0.000000
O O11 0.541329 0.250000 0.312920
O O12 0.417851 0.988635 0.419271
O O13 0.699475 0.989339 0.280427
O O14 0.011570 0.750000 0.413714
O O15 0.865211 0.483997 0.442059
O O16 0.000000 0.500000 0.500000
O O17 0.156742 0.483183 0.320266
O O18 0.726995 0.250000 0.783528
O O19 0.707561 0.750000 0.475401
O O20 0.697652 0.026630 0.408902
O O21 0.173203 0.750000 0.718953
#
# Coordination Sequence:
#
# PCOD9159507 Si02
#       8
#     4   4   4   4   4   4   4   4
#     4  11  23  39  62  89 120 156 193 242 300 354
#     4  10  21  41  65  85 113 158 202 241 296 361
#     4  11  24  42  67  94 121 155 196 243 296 358
#     4  10  22  38  56  83 120 158 200 250 299 351
#     4  10  19  33  55  80 112 154 199 246 289 341
#     4   9  19  38  60  84 116 154 198 244 290 348
#     4  10  20  36  57  80 113 160 202 243 299 357
#     4  11  22  35  55  86 120 152 193 250 300 349
#
# _framework density 22.118628000000001
#
# number of rings (size 3 to 8) (size 9 to 14) (size 15 to 20)
#    0.000    1.750    1.250    3.000    0.000    5.500 
#    0.000    1.875    0.000    0.000    0.000    0.000 
#    0.000    0.000    0.000    0.000    0.000    0.000 
#
# Total GULP energy -178841.387015 kJ/mol
# GULP energy per Si atom -5588.793344 kJ/mol
# Density = 2.206828 g / cm^3
# Si number density = 22.118628 Si / 1000 Ang^3
#
#
#
# Elastic Constant Matrix: (Units=GPa)
#
#
# Indices 1 2 3 4 5 6 
#
# 1 185.0086 10.6411 53.9138 0.0000 6.8529 0.0000
# 2 10.6411 25.0780 -6.3401 0.0000 3.2438 0.0000
# 3 53.9138 -6.3401 87.0214 0.0000 15.3245 0.0000
# 4 0.0000 0.0000 0.0000 18.8309 0.0000 7.3085
# 5 6.8529 3.2438 15.3245 0.0000 37.5903 0.0000
# 6 0.0000 0.0000 0.0000 7.3085 0.0000 3.9287
#
#
#
# Elastic Compliance Matrix: (Units=1/GPa)
#
#
# Indices 1 2 3 4 5 6 
#
# 1 0.007033 -0.004353 -0.004864 0.000000 0.001076 0.000000
# 2 -0.004353 0.044238 0.006952 0.000000 -0.005858 0.000000
# 3 -0.004864 0.006952 0.016118 0.000000 -0.006284 0.000000
# 4 0.000000 0.000000 0.000000 0.191022 0.000000 -0.355354
# 5 0.001076 -0.005858 -0.006284 0.000000 0.029474 0.000000
# 6 0.000000 0.000000 0.000000 -0.355354 0.000000 0.915597
#
#
# Mechanical properties :
#
#
# Convention : Reuss Voigt Hill
#
# Bulk Modulus (GPa) = 15.90893 45.94860 30.92877
# Shear Modulus (GPa) = 4.06846 27.99619 16.03233
#
# Velocity S-wave (km/s) = 1.35771 3.56157 2.69519
# Velocity P-wave (km/s) = 3.10902 6.14262 4.86815
#
# Compressibility (1/GPa) = 0.06285776
#
# Stress axis : x y z
#
# Youngs Moduli (GPa) = 142.18449 22.60505 62.04229
#
# Poissons Ratio (x) = 0.09841 0.30178
# Poissons Ratio (y) = 0.61896 -0.43130
# Poissons Ratio (z) = 0.69159 -0.15714
#
# Static dielectric constant tensor:
#      x y z
#    x 1.812460 0.000000 0.021310 
#    y 0.000000 1.766240 0.000000 
#    z 0.021310 0.000000 1.808290 
# 
# From -- ./inp_files/64338.got.cif
#   From: 2010.05.17/outbox.cif.g08.bks.cpg/sg11_33_cif.got.tgz:64338.got - 2010.06.03 12:22:45.
