data_PCOD9159480
_publ_section_title
;
Structure prediction by ZEFSAII (Michael W. Deem and Ramdas Pophale) SiO2 
 PCOD9159480
Probable space group: P 21/M
;
_chemical_formula_sum "Si O2"
_cell_formula_units_Z 28
_cell_length_a 8.225612
_cell_length_b 22.583454
_cell_length_c 11.719963
_cell_angle_alpha 90.000000
_cell_angle_beta 36.661953
_cell_angle_gamma 90.000000
_cell_volume 1299.949600
_symmetry_space_group_name_H-M "P 21/M"
_symmetry_group_IT_number 11
_symmetry_cell_setting 'monoclinic'
loop_
_space_group_symop_operation_xyz
x,y,z
-x,1/2+y,-z
-x,-y,-z
x,1/2-y,z
loop_
_atom_site_type_symbol
_atom_site_label
_atom_site_fract_x
_atom_site_fract_y
_atom_site_fract_z
Si Si1 0.547783 0.858334 0.182831
Si Si2 0.605855 0.183789 0.481525
Si Si3 0.350462 0.436685 0.555681
Si Si4 0.821201 0.451601 0.718557
Si Si5 0.462233 0.426921 0.150471
Si Si6 0.988012 0.430998 0.982626
Si Si7 0.754160 0.686696 0.837491
O O1 0.501378 0.824741 0.327547
O O2 0.304714 0.905363 0.300314
O O3 0.833713 0.894637 0.028042
O O4 0.575797 0.820078 0.053007
O O5 0.515753 0.250000 0.491468
O O6 0.524459 0.124204 0.457912
O O7 0.931170 0.185034 0.305333
O O8 0.500000 0.500000 0.500000
O O9 0.136637 0.444206 0.573128
O O10 0.156995 0.423543 0.772243
O O11 0.738355 0.517488 0.728381
O O12 0.648746 0.440017 0.932734
O O13 0.307372 0.367123 0.210602
O O14 0.674028 0.418262 0.134184
O O15 0.000000 0.500000 0.000000
O O16 0.693813 0.750000 0.816892
#
# Coordination Sequence:
#
# PCOD9159480 Si02
#       7
#     4   4   4   4   4   4   4
#     4  10  20  37  59  84 111 146 192 227 282 346
#     4  10  22  40  57  82 118 151 189 236 284 340
#     4  10  21  35  55  84 115 149 190 237 286 338
#     4   9  17  32  55  82 110 143 181 229 290 322
#     4   9  17  32  55  81 113 142 180 235 278 337
#     4  10  19  33  54  86 113 145 179 237 295 330
#     4  10  21  38  60  80 108 155 190 227 282 336
#
# _framework density 21.539297000000001
#
# number of rings (size 3 to 8) (size 9 to 14) (size 15 to 20)
#    0.000    2.286    1.429    1.286    4.000    0.000 
#    2.571   15.000    0.000    3.429    0.000    0.000 
#    0.000    0.000    0.000    0.000    0.000    0.000 
#
# Total GULP energy -156286.478563 kJ/mol
# GULP energy per Si atom -5581.659949 kJ/mol
# Density = 2.149027 g / cm^3
# Si number density = 21.539297 Si / 1000 Ang^3
#
#
#
# Elastic Constant Matrix: (Units=GPa)
#
#
# Indices 1 2 3 4 5 6 
#
# 1 83.5993 58.4769 22.3352 0.0000 -30.5297 0.0000
# 2 58.4769 190.1243 43.3412 0.0000 -34.8627 0.0000
# 3 22.3352 43.3412 65.8486 0.0000 -17.3513 0.0000
# 4 0.0000 0.0000 0.0000 20.6545 0.0000 -2.6344
# 5 -30.5297 -34.8627 -17.3513 0.0000 41.6643 0.0000
# 6 0.0000 0.0000 0.0000 -2.6344 0.0000 24.9126
#
#
#
# Elastic Compliance Matrix: (Units=1/GPa)
#
#
# Indices 1 2 3 4 5 6 
#
# 1 0.018440 -0.003543 -0.001284 0.000000 0.010012 0.000000
# 2 -0.003543 0.007493 -0.003103 0.000000 0.002382 0.000000
# 3 -0.001284 -0.003103 0.018795 0.000000 0.004290 0.000000
# 4 0.000000 0.000000 0.000000 0.049078 0.000000 0.005190
# 5 0.010012 0.002382 0.004290 0.000000 0.035118 0.000000
# 6 0.000000 0.000000 0.000000 0.005190 0.000000 0.040689
#
#
# Mechanical properties :
#
#
# Convention : Reuss Voigt Hill
#
# Bulk Modulus (GPa) = 34.64088 65.31990 49.98039
# Shear Modulus (GPa) = 25.62861 31.80752 28.71807
#
# Velocity S-wave (km/s) = 3.45317 3.84698 3.65538
# Velocity P-wave (km/s) = 5.65833 7.07984 6.40862
#
# Compressibility (1/GPa) = 0.02886763
#
# Stress axis : x y z
#
# Youngs Moduli (GPa) = 54.23138 133.44929 53.20674
#
# Poissons Ratio (x) = 0.47278 0.06834
# Poissons Ratio (y) = 0.19213 0.16509
# Poissons Ratio (z) = 0.06966 0.41407
#
# Static dielectric constant tensor:
#      x y z
#    x 1.811240 0.000000 0.032680 
#    y 0.000000 1.785740 0.000000 
#    z 0.032680 0.000000 1.793660 
# 
# From -- ./inp_files/23195.got.cif
#   From: 2010.05.17/outbox.cif.g08.bks.cpg/sg11_12_cif.got.tgz:23195.got - 2010.06.03 12:22:45.
