data_PCOD9159003
_publ_section_title
;
Structure prediction by ZEFSAII (Michael W. Deem and Ramdas Pophale) SiO2 
 PCOD9159003
Probable space group: P 21/M
;
_chemical_formula_sum "Si O2"
_cell_formula_units_Z 26
_cell_length_a 12.116016
_cell_length_b 23.638112
_cell_length_c 8.193699
_cell_angle_alpha 90.000000
_cell_angle_beta 146.070840
_cell_angle_gamma 90.000000
_cell_volume 1309.836673
_symmetry_space_group_name_H-M "P 21/M"
_symmetry_group_IT_number 11
_symmetry_cell_setting 'monoclinic'
loop_
_space_group_symop_operation_xyz
x,y,z
-x,1/2+y,-z
-x,-y,-z
x,1/2-y,z
loop_
_atom_site_type_symbol
_atom_site_label
_atom_site_fract_x
_atom_site_fract_y
_atom_site_fract_z
Si Si1 0.082077 0.250000 0.177630
Si Si2 0.246360 0.250000 0.011112
Si Si3 0.899032 0.468737 0.525690
Si Si4 0.039046 0.845700 0.324057
Si Si5 0.607665 0.523696 0.387137
Si Si6 0.295130 0.750000 0.502282
Si Si7 0.907857 0.625918 0.793988
Si Si8 0.783957 0.035420 0.915175
O O1 0.123189 0.189640 0.310834
O O2 0.851524 0.250000 0.835527
O O3 0.204102 0.250000 0.155460
O O4 0.130737 0.305852 0.808434
O O5 0.476230 0.250000 0.257453
O O6 0.903791 0.401883 0.511467
O O7 0.690900 0.494143 0.327047
O O8 0.000000 0.500000 0.500000
O O9 0.050933 0.487268 0.856299
O O10 0.224677 0.805061 0.515708
O O11 0.957603 0.864923 0.046326
O O12 0.377533 0.533913 0.139201
O O13 0.673780 0.480301 0.612534
O O14 0.724703 0.583125 0.548888
O O15 0.096698 0.593773 0.949860
#
# Coordination Sequence:
#
# PCOD9159003 Si02
#       8
#     2   2   4   4   4   2   4   4
#     4   8  18  26  44  76 104 120 166 204 250 306
#     4   8  16  28  46  69  98 130 160 204 250 291
#     4  11  21  35  51  73 107 135 166 216 252 296
#     4   9  17  30  46  75 101 125 168 200 248 306
#     4  10  19  32  53  74  98 135 169 200 248 303
#     4   8  16  28  46  69  98 130 160 204 250 291
#     4   9  15  31  48  71 105 128 164 207 248 301
#     4  10  19  32  53  74  98 135 169 200 248 303
#
# _framework density 19.849803999999999
#
# number of rings (size 3 to 8) (size 9 to 14) (size 15 to 20)
#    0.000    3.077    3.077    0.923    0.000    6.769 
#    0.000    0.000    0.000    7.385    0.000    0.000 
#    0.000    0.000    0.000    0.000    0.000    0.000 
#
# Total GULP energy -144880.648486 kJ/mol
# GULP energy per Si atom -5572.332634 kJ/mol
# Density = 1.980462 g / cm^3
# Si number density = 19.849804 Si / 1000 Ang^3
#
#
#
# Elastic Constant Matrix: (Units=GPa)
#
#
# Indices 1 2 3 4 5 6 
#
# 1 95.5243 46.0096 35.8535 0.0000 37.0399 0.0000
# 2 46.0096 187.2426 29.1695 0.0000 27.2926 0.0000
# 3 35.8535 29.1695 52.8084 0.0000 36.2425 0.0000
# 4 0.0000 0.0000 0.0000 6.6812 0.0000 -0.4968
# 5 37.0399 27.2926 36.2425 0.0000 44.0108 0.0000
# 6 0.0000 0.0000 0.0000 -0.4968 0.0000 9.5526
#
#
#
# Elastic Compliance Matrix: (Units=1/GPa)
#
#
# Indices 1 2 3 4 5 6 
#
# 1 0.016566 -0.002113 -0.003245 0.000000 -0.009960 0.000000
# 2 -0.002113 0.006209 -0.001318 0.000000 -0.000987 0.000000
# 3 -0.003245 -0.001318 0.044688 0.000000 -0.033253 0.000000
# 4 0.000000 0.000000 0.000000 0.150255 0.000000 0.007814
# 5 -0.009960 -0.000987 -0.033253 0.000000 0.059099 0.000000
# 6 0.000000 0.000000 0.000000 0.007814 0.000000 0.105090
#
#
# Mechanical properties :
#
#
# Convention : Reuss Voigt Hill
#
# Bulk Modulus (GPa) = 18.48001 61.96006 40.22003
# Shear Modulus (GPa) = 12.09782 27.01841 19.55812
#
# Velocity S-wave (km/s) = 2.47142 3.69337 3.14236
# Velocity P-wave (km/s) = 4.18019 7.03350 5.78551
#
# Compressibility (1/GPa) = 0.05411253
#
# Stress axis : x y z
#
# Youngs Moduli (GPa) = 60.36370 161.05450 22.37713
#
# Poissons Ratio (x) = 0.34039 0.07260
# Poissons Ratio (y) = 0.12758 0.02948
# Poissons Ratio (z) = 0.19586 0.21220
#
# Static dielectric constant tensor:
#      x y z
#    x 1.720580 0.000000 -0.045570 
#    y 0.000000 1.722830 0.000000 
#    z -0.045570 0.000000 1.732510 
# 
# From -- ./inp_files/19635.got.cif
#   From: 2010.05.17/outbox.cif.g08.bks.cpg/sg11_10_cif.got.tgz:19635.got - 2010.06.03 12:22:45.
