data_PCOD9159780
_publ_section_title
;
Structure prediction by ZEFSAII (Michael W. Deem and Ramdas Pophale) SiO2 
 PCOD9159780
Probable space group: P 21/M
;
_chemical_formula_sum "Si O2"
_cell_formula_units_Z 24
_cell_length_a 19.036690
_cell_length_b 8.613888
_cell_length_c 25.441508
_cell_angle_alpha 90.000000
_cell_angle_beta 160.859281
_cell_angle_gamma 90.000000
_cell_volume 1367.920474
_symmetry_space_group_name_H-M "P 21/M"
_symmetry_group_IT_number 11
_symmetry_cell_setting 'monoclinic'
loop_
_space_group_symop_operation_xyz
x,y,z
-x,1/2+y,-z
-x,-y,-z
x,1/2-y,z
loop_
_atom_site_type_symbol
_atom_site_label
_atom_site_fract_x
_atom_site_fract_y
_atom_site_fract_z
Si Si1 0.239099 0.565809 0.168108
Si Si2 0.549418 0.062570 0.477590
Si Si3 0.060790 0.937725 0.486113
Si Si4 0.427807 0.570201 0.672103
Si Si5 0.916700 0.429770 0.667335
Si Si6 0.261668 0.438340 0.834932
O O1 0.235198 0.750000 0.170811
O O2 0.372745 0.493208 0.310903
O O3 0.369564 0.520529 0.207392
O O4 0.000000 0.500000 0.000000
O O5 0.552654 0.250000 0.479612
O O6 0.780371 0.003577 0.619035
O O7 0.500000 0.000000 0.500000
O O8 0.067112 0.750000 0.491438
O O9 0.292439 0.988507 0.626525
O O10 0.879229 0.983940 0.315448
O O11 0.000000 0.000000 0.500000
O O12 0.489378 0.750000 0.724164
O O13 0.251392 0.569890 0.500271
O O14 0.961983 0.250000 0.712462
O O15 0.133290 0.496969 0.795911
O O16 0.262409 0.250000 0.837156
O O17 0.500000 0.500000 0.000000
#
# Coordination Sequence:
#
# PCOD9159780 Si02
#       6
#     4   4   4   4   4   4
#     4  11  21  34  53  77 102 131 166 208 254 304
#     4  10  19  34  54  76 101 132 168 207 249 298
#     4   9  18  32  51  73 100 131 165 204 248 296
#     4   8  15  31  51  70  94 129 168 206 246 294
#     4   7  13  28  49  67  91 127 163 195 236 288
#     4   9  17  31  49  71  96 126 161 198 239 286
#
# _framework density 17.544881
#
# number of rings (size 3 to 8) (size 9 to 14) (size 15 to 20)
#    0.000    3.000    0.000    5.000    0.000    1.333 
#    0.000    9.167    0.000    6.000    0.000    0.000 
#    0.000    0.000    0.000    0.000    0.000    0.000 
#
# Total GULP energy -133621.798345 kJ/mol
# GULP energy per Si atom -5567.574931 kJ/mol
# Density = 1.750495 g / cm^3
# Si number density = 17.544881 Si / 1000 Ang^3
#
#
#
# Elastic Constant Matrix: (Units=GPa)
#
#
# Indices 1 2 3 4 5 6 
#
# 1 184.8098 37.6013 70.5229 0.0000 36.7582 0.0000
# 2 37.6013 50.7400 28.7682 0.0000 11.5048 0.0000
# 3 70.5229 28.7682 93.6825 0.0000 38.2184 0.0000
# 4 0.0000 0.0000 0.0000 25.5979 0.0000 3.2378
# 5 36.7582 11.5048 38.2184 0.0000 30.5508 0.0000
# 6 0.0000 0.0000 0.0000 3.2378 0.0000 30.6530
#
#
#
# Elastic Compliance Matrix: (Units=1/GPa)
#
#
# Indices 1 2 3 4 5 6 
#
# 1 0.008244 -0.003162 -0.003420 0.000000 -0.004451 0.000000
# 2 -0.003162 0.025077 -0.006168 0.000000 0.002076 0.000000
# 3 -0.003420 -0.006168 0.025562 0.000000 -0.025540 0.000000
# 4 0.000000 0.000000 0.000000 0.039595 0.000000 -0.004182
# 5 -0.004451 0.002076 -0.025540 0.000000 0.069257 0.000000
# 6 0.000000 0.000000 0.000000 -0.004182 0.000000 0.033065
#
#
# Mechanical properties :
#
#
# Convention : Reuss Voigt Hill
#
# Bulk Modulus (GPa) = 29.95261 67.00190 48.47725
# Shear Modulus (GPa) = 21.05913 30.18301 25.62107
#
# Velocity S-wave (km/s) = 3.46829 4.15219 3.82555
# Velocity P-wave (km/s) = 5.75741 7.82683 6.87048
#
# Compressibility (1/GPa) = 0.03338607
#
# Stress axis : x y z
#
# Youngs Moduli (GPa) = 121.29394 39.87650 39.12062
#
# Poissons Ratio (x) = 0.12607 0.13378
# Poissons Ratio (y) = 0.38348 0.24129
# Poissons Ratio (z) = 0.41477 0.24595
#
# Static dielectric constant tensor:
#      x y z
#    x 1.632150 0.000000 0.029930 
#    y 0.000000 1.623650 0.000000 
#    z 0.029930 0.000000 1.580740 
# 
# From -- ./inp_files/69533.got.cif
#   From: 2010.05.17/outbox.cif.g08.bks.cpg/sg11_35_cif.got.tgz:69533.got - 2010.06.03 12:22:45.
