data_PCOD9159547
_publ_section_title
;
Structure prediction by ZEFSAII (Michael W. Deem and Ramdas Pophale) SiO2 
 PCOD9159547
Probable space group: P 21/M
;
_chemical_formula_sum "Si O2"
_cell_formula_units_Z 32
_cell_length_a 19.201876
_cell_length_b 15.085342
_cell_length_c 14.043440
_cell_angle_alpha 90.000000
_cell_angle_beta 20.786068
_cell_angle_gamma 90.000000
_cell_volume 1443.621724
_symmetry_space_group_name_H-M "P 21/M"
_symmetry_group_IT_number 11
_symmetry_cell_setting 'monoclinic'
loop_
_space_group_symop_operation_xyz
x,y,z
-x,1/2+y,-z
-x,-y,-z
x,1/2-y,z
loop_
_atom_site_type_symbol
_atom_site_label
_atom_site_fract_x
_atom_site_fract_y
_atom_site_fract_z
Si Si1 0.384970 0.154432 0.108143
Si Si2 0.014381 0.350171 0.344633
Si Si3 0.077876 0.394341 0.629023
Si Si4 0.045926 0.352127 0.881342
Si Si5 0.280353 0.522694 0.638479
Si Si6 0.663527 0.350418 0.936468
Si Si7 0.280200 0.573180 0.419525
Si Si8 0.302702 0.986651 0.942505
O O1 0.420956 0.250000 0.017872
O O2 0.160959 0.149164 0.427210
O O3 0.504317 0.149646 0.055183
O O4 0.495833 0.088001 0.897639
O O5 0.092058 0.250000 0.251366
O O6 0.869663 0.366650 0.618967
O O7 0.867474 0.356767 0.440778
O O8 0.179846 0.425427 0.127240
O O9 0.202556 0.484019 0.471692
O O10 0.112488 0.348495 0.685805
O O11 0.853690 0.422122 0.907074
O O12 0.038260 0.250000 0.926427
O O13 0.184022 0.423764 0.760172
O O14 0.840168 0.406374 0.146030
O O15 0.257718 0.561724 0.560145
O O16 0.511505 0.513296 0.358290
O O17 0.664040 0.250000 0.976473
O O18 0.623525 0.426388 0.063840
#
# Coordination Sequence:
#
# PCOD9159547 Si02
#       8
#     4   4   4   4   4   4   4   4
#     4  10  19  33  55  83 116 153 195 236 275 329
#     4   9  19  35  53  79 119 161 194 228 280 340
#     4  10  21  35  55  81 112 151 189 228 283 341
#     4  10  22  43  65  83 110 147 192 243 284 330
#     4  10  23  40  62  90 112 143 192 238 287 343
#     4   9  18  32  52  80 116 160 202 235 273 326
#     4   9  18  35  57  81 111 148 191 237 279 329
#     4  11  22  35  55  83 119 150 183 236 290 341
#
# _framework density 22.166473
#
# number of rings (size 3 to 8) (size 9 to 14) (size 15 to 20)
#    0.000    2.250    0.000    3.750    0.000    7.500 
#    0.000    1.250    0.000    0.000    0.000    0.000 
#    0.000    0.000    0.000    0.000    0.000    0.000 
#
# Total GULP energy -178628.072058 kJ/mol
# GULP energy per Si atom -5582.127252 kJ/mol
# Density = 2.211602 g / cm^3
# Si number density = 22.166473 Si / 1000 Ang^3
#
#
#
# Elastic Constant Matrix: (Units=GPa)
#
#
# Indices 1 2 3 4 5 6 
#
# 1 39.7881 17.7361 6.2576 0.0000 -1.6762 0.0000
# 2 17.7361 118.5869 45.0172 0.0000 8.3706 0.0000
# 3 6.2576 45.0172 128.1356 0.0000 -8.4322 0.0000
# 4 0.0000 0.0000 0.0000 8.9580 0.0000 -1.8351
# 5 -1.6762 8.3706 -8.4322 0.0000 24.6797 0.0000
# 6 0.0000 0.0000 0.0000 -1.8351 0.0000 14.4240
#
#
#
# Elastic Compliance Matrix: (Units=1/GPa)
#
#
# Indices 1 2 3 4 5 6 
#
# 1 0.027214 -0.004505 0.000487 0.000000 0.003543 0.000000
# 2 -0.004505 0.011008 -0.004003 0.000000 -0.005407 0.000000
# 3 0.000487 -0.004003 0.009492 0.000000 0.004634 0.000000
# 4 0.000000 0.000000 0.000000 0.114620 0.000000 0.014582
# 5 0.003543 -0.005407 0.004634 0.000000 0.044177 0.000000
# 6 0.000000 0.000000 0.000000 0.014582 0.000000 0.071184
#
#
# Mechanical properties :
#
#
# Convention : Reuss Voigt Hill
#
# Bulk Modulus (GPa) = 31.57474 47.17027 39.37251
# Shear Modulus (GPa) = 16.43150 24.11232 20.27191
#
# Velocity S-wave (km/s) = 2.72559 3.30173 3.02740
# Velocity P-wave (km/s) = 4.91736 5.98844 5.47914
#
# Compressibility (1/GPa) = 0.03167089
#
# Stress axis : x y z
#
# Youngs Moduli (GPa) = 36.74579 90.84518 105.35420
#
# Poissons Ratio (x) = 0.40926 -0.05129
# Poissons Ratio (y) = 0.16554 0.42175
# Poissons Ratio (z) = -0.01789 0.36366
#
# Static dielectric constant tensor:
#      x y z
#    x 1.843430 0.000000 -0.035650 
#    y 0.000000 1.842970 0.000000 
#    z -0.035650 0.000000 1.861490 
# 
# From -- ./inp_files/31878.got.cif
#   From: 2010.05.17/outbox.cif.g08.bks.cpg/sg11_16_cif.got.tgz:31878.got - 2010.06.03 12:22:45.
