data_PCOD9159219
_publ_section_title
;
Structure prediction by ZEFSAII (Michael W. Deem and Ramdas Pophale) SiO2 
 PCOD9159219
Probable space group: P 21/M
;
_chemical_formula_sum "Si O2"
_cell_formula_units_Z 32
_cell_length_a 14.911764
_cell_length_b 7.700747
_cell_length_c 28.954918
_cell_angle_alpha 90.000000
_cell_angle_beta 150.806859
_cell_angle_gamma 90.000000
_cell_volume 1621.758137
_symmetry_space_group_name_H-M "P 21/M"
_symmetry_group_IT_number 11
_symmetry_cell_setting 'monoclinic'
loop_
_space_group_symop_operation_xyz
x,y,z
-x,1/2+y,-z
-x,-y,-z
x,1/2-y,z
loop_
_atom_site_type_symbol
_atom_site_label
_atom_site_fract_x
_atom_site_fract_y
_atom_site_fract_z
Si Si1 0.302227 0.961859 0.298316
Si Si2 0.431554 0.946507 0.019804
Si Si3 0.267025 0.041095 0.086586
Si Si4 0.031036 0.959493 0.696303
Si Si5 0.612695 0.540821 0.503940
Si Si6 0.382425 0.947062 0.806099
Si Si7 0.123251 0.959287 0.123018
Si Si8 0.936938 0.543651 0.184061
O O1 0.308953 0.750000 0.299875
O O2 0.493059 0.021304 0.406381
O O3 0.234733 0.022334 0.217791
O O4 0.140752 0.010713 0.261344
O O5 0.488273 0.750000 0.054559
O O6 0.514909 0.058154 0.098171
O O7 0.500000 0.000000 0.000000
O O8 0.212777 0.961278 0.916829
O O9 0.272827 0.250000 0.083011
O O10 0.463099 0.970701 0.157453
O O11 0.224463 0.003291 0.120757
O O12 0.087766 0.977123 0.977524
O O13 0.028755 0.750000 0.691104
O O14 0.183043 0.025809 0.728259
O O15 0.822086 0.025284 0.598142
O O16 0.096152 0.999906 0.777545
O O17 0.500000 0.500000 0.500000
O O18 0.622935 0.750000 0.506233
O O19 0.349524 0.750000 0.774773
O O20 0.112915 0.750000 0.122031
O O21 0.921310 0.750000 0.171178
#
# Coordination Sequence:
#
# PCOD9159219 Si02
#       8
#     4   4   4   4   4   4   4   4
#     4   9  18  32  52  75 101 135 170 209 263 314
#     4  12  23  33  46  69 101 136 172 208 246 296
#     4   9  18  33  53  75 101 130 164 209 261 313
#     4  10  20  32  49  72 100 133 172 212 249 301
#     4  10  19  33  51  74 102 134 175 217 258 305
#     4  10  20  35  52  71 100 138 172 207 257 310
#     4   9  17  32  53  75  98 128 168 211 255 311
#     4  11  20  32  50  71 100 137 171 207 253 305
#
# _framework density 19.731673000000001
#
# number of rings (size 3 to 8) (size 9 to 14) (size 15 to 20)
#    0.000    2.000    2.500    2.250    0.000    2.500 
#    0.000    4.375    0.000    0.750    0.000    0.000 
#    0.000    0.000    0.000    0.000    0.000    0.000 
#
# Total GULP energy -178585.556799 kJ/mol
# GULP energy per Si atom -5580.798650 kJ/mol
# Density = 1.968676 g / cm^3
# Si number density = 19.731673 Si / 1000 Ang^3
#
#
#
# Elastic Constant Matrix: (Units=GPa)
#
#
# Indices 1 2 3 4 5 6 
#
# 1 120.5848 -0.7325 59.9136 0.0000 20.2637 0.0000
# 2 -0.7325 46.2259 -0.0186 0.0000 3.4064 0.0000
# 3 59.9136 -0.0186 124.3720 0.0000 18.1089 0.0000
# 4 0.0000 0.0000 0.0000 11.2812 0.0000 -2.3894
# 5 20.2637 3.4064 18.1089 0.0000 35.1532 0.0000
# 6 0.0000 0.0000 0.0000 -2.3894 0.0000 19.0547
#
#
#
# Elastic Compliance Matrix: (Units=1/GPa)
#
#
# Indices 1 2 3 4 5 6 
#
# 1 0.011423 0.000481 -0.004905 0.000000 -0.004104 0.000000
# 2 0.000481 0.021822 0.000129 0.000000 -0.002459 0.000000
# 3 -0.004905 0.000129 0.010804 0.000000 -0.002751 0.000000
# 4 0.000000 0.000000 0.000000 0.091062 0.000000 0.011419
# 5 -0.004104 -0.002459 -0.002751 0.000000 0.032468 0.000000
# 6 0.000000 0.000000 0.000000 0.011419 0.000000 0.053912
#
#
# Mechanical properties :
#
#
# Convention : Reuss Voigt Hill
#
# Bulk Modulus (GPa) = 28.20090 45.50086 36.85088
# Shear Modulus (GPa) = 20.66980 28.56582 24.61781
#
# Velocity S-wave (km/s) = 3.24009 3.80901 3.53601
# Velocity P-wave (km/s) = 5.32173 6.51572 5.94876
#
# Compressibility (1/GPa) = 0.03545987
#
# Stress axis : x y z
#
# Youngs Moduli (GPa) = 87.54560 45.82579 92.56035
#
# Poissons Ratio (x) = -0.02206 0.45400
# Poissons Ratio (y) = -0.04215 -0.01197
# Poissons Ratio (z) = 0.42941 -0.00593
#
# Static dielectric constant tensor:
#      x y z
#    x 1.703680 0.000000 0.044500 
#    y 0.000000 1.731190 0.000000 
#    z 0.044500 0.000000 1.716110 
# 
# From -- ./inp_files/71621.got.cif
#   From: 2010.05.17/outbox.cif.g08.bks.cpg/sg11_36_cif.got.tgz:71621.got - 2010.06.03 12:22:45.
