data_PCOD9159110
_publ_section_title
;
Structure prediction by ZEFSAII (Michael W. Deem and Ramdas Pophale) SiO2 
 PCOD9159110
Probable space group: P 21/M
;
_chemical_formula_sum "Si O2"
_cell_formula_units_Z 32
_cell_length_a 9.667417
_cell_length_b 19.292354
_cell_length_c 16.620489
_cell_angle_alpha 90.000000
_cell_angle_beta 149.728809
_cell_angle_gamma 90.000000
_cell_volume 1562.609689
_symmetry_space_group_name_H-M "P 21/M"
_symmetry_group_IT_number 11
_symmetry_cell_setting 'monoclinic'
loop_
_space_group_symop_operation_xyz
x,y,z
-x,1/2+y,-z
-x,-y,-z
x,1/2-y,z
loop_
_atom_site_type_symbol
_atom_site_label
_atom_site_fract_x
_atom_site_fract_y
_atom_site_fract_z
Si Si1 0.621713 0.476866 0.864599
Si Si2 0.488626 0.531810 0.364065
Si Si3 0.902756 0.076811 0.383301
Si Si4 0.749659 0.543321 0.085946
Si Si5 0.076602 0.672376 0.448070
Si Si6 0.386203 0.830280 0.892176
Si Si7 0.427008 0.673934 0.097139
Si Si8 0.302227 0.914312 0.426160
O O1 0.679504 0.485700 0.800195
O O2 0.324275 0.515187 0.730071
O O3 0.634483 0.394621 0.884578
O O4 0.800288 0.510167 0.024941
O O5 0.496290 0.463718 0.423145
O O6 0.393101 0.591194 0.378904
O O7 0.792575 0.550694 0.483899
O O8 0.891997 0.117166 0.463587
O O9 0.817176 0.131041 0.270643
O O10 0.012002 0.544847 0.274159
O O11 0.500000 0.500000 0.000000
O O12 0.657386 0.622300 0.025586
O O13 0.147021 0.750000 0.511540
O O14 0.249386 0.650968 0.456372
O O15 0.758934 0.673362 0.260887
O O16 0.425823 0.750000 0.891207
O O17 0.307387 0.833251 0.946965
O O18 0.345782 0.750000 0.088461
#
# Coordination Sequence:
#
# PCOD9159110 Si02
#       8
#     4   4   4   4   4   4   4   4
#     4  11  20  35  59  86 113 151 195 247 289 338
#     4  11  23  37  58  83 122 153 189 247 292 350
#     4  11  21  35  61  88 114 150 198 246 289 343
#     4  11  20  34  61  85 112 148 198 242 289 343
#     4  11  20  36  60  85 116 152 196 242 290 349
#     4  10  20  33  54  86 115 141 187 246 292 341
#     4  10  19  32  54  85 113 141 188 243 293 338
#     4  11  23  39  54  87 119 155 195 237 300 352
#
# _framework density 20.478563000000001
#
# number of rings (size 3 to 8) (size 9 to 14) (size 15 to 20)
#    0.000    1.250    5.000    3.000    0.000    0.500 
#    0.000    1.875    0.000    0.000    0.000    0.000 
#    0.000    0.000    0.000    0.000    0.000    0.000 
#
# Total GULP energy -178505.563704 kJ/mol
# GULP energy per Si atom -5578.298866 kJ/mol
# Density = 2.043195 g / cm^3
# Si number density = 20.478563 Si / 1000 Ang^3
#
#
#
# Elastic Constant Matrix: (Units=GPa)
#
#
# Indices 1 2 3 4 5 6 
#
# 1 80.0297 12.6578 15.1950 0.0000 -15.1154 0.0000
# 2 12.6578 91.6234 19.6692 0.0000 -12.8674 0.0000
# 3 15.1950 19.6692 63.9024 0.0000 -30.4774 0.0000
# 4 0.0000 0.0000 0.0000 29.2855 0.0000 -10.9701
# 5 -15.1154 -12.8674 -30.4774 0.0000 36.5571 0.0000
# 6 0.0000 0.0000 0.0000 -10.9701 0.0000 19.4968
#
#
#
# Elastic Compliance Matrix: (Units=1/GPa)
#
#
# Indices 1 2 3 4 5 6 
#
# 1 0.013685 -0.001084 -0.000670 0.000000 0.004718 0.000000
# 2 -0.001084 0.011848 -0.002679 0.000000 0.001488 0.000000
# 3 -0.000670 -0.002679 0.026646 0.000000 0.020994 0.000000
# 4 0.000000 0.000000 0.000000 0.043266 0.000000 0.024344
# 5 0.004718 0.001488 0.020994 0.000000 0.047332 0.000000
# 6 0.000000 0.000000 0.000000 0.024344 0.000000 0.064988
#
#
# Mechanical properties :
#
#
# Convention : Reuss Voigt Hill
#
# Bulk Modulus (GPa) = 23.08819 36.73328 29.91074
# Shear Modulus (GPa) = 21.63855 29.60345 25.62100
#
# Velocity S-wave (km/s) = 3.25413 3.80621 3.54094
# Velocity P-wave (km/s) = 5.04162 6.10677 5.59958
#
# Compressibility (1/GPa) = 0.04331218
#
# Stress axis : x y z
#
# Youngs Moduli (GPa) = 73.07164 84.40094 37.52932
#
# Poissons Ratio (x) = 0.09150 0.02515
# Poissons Ratio (y) = 0.07922 0.10055
# Poissons Ratio (z) = 0.04897 0.22613
#
# Static dielectric constant tensor:
#      x y z
#    x 1.763110 0.000000 -0.008010 
#    y 0.000000 1.741760 0.000000 
#    z -0.008010 0.000000 1.765740 
# 
# From -- ./inp_files/48255.got.cif
#   From: 2010.05.17/outbox.cif.g08.bks.cpg/sg11_25_cif.got.tgz:48255.got - 2010.06.03 12:22:45.
