data_PCOD9159065
_publ_section_title
;
Structure prediction by ZEFSAII (Michael W. Deem and Ramdas Pophale) SiO2 
 PCOD9159065
Probable space group: P 21/M
;
_chemical_formula_sum "Si O2"
_cell_formula_units_Z 32
_cell_length_a 21.281064
_cell_length_b 8.250550
_cell_length_c 26.131081
_cell_angle_alpha 90.000000
_cell_angle_beta 157.447153
_cell_angle_gamma 90.000000
_cell_volume 1759.701827
_symmetry_space_group_name_H-M "P 21/M"
_symmetry_group_IT_number 11
_symmetry_cell_setting 'monoclinic'
loop_
_space_group_symop_operation_xyz
x,y,z
-x,1/2+y,-z
-x,-y,-z
x,1/2-y,z
loop_
_atom_site_type_symbol
_atom_site_label
_atom_site_fract_x
_atom_site_fract_y
_atom_site_fract_z
Si Si1 0.990608 0.446068 0.648422
Si Si2 0.496146 0.446226 0.659198
Si Si3 0.598506 0.443010 0.922106
Si Si4 0.355326 0.057569 0.927631
Si Si5 0.136025 0.554249 0.062426
Si Si6 0.341889 0.944112 0.650175
Si Si7 0.165723 0.054299 0.362667
Si Si8 0.090274 0.551916 0.911549
O O1 0.990846 0.250000 0.647982
O O2 0.845009 0.499585 0.500908
O O3 0.936549 0.500588 0.664455
O O4 0.174169 0.506209 0.776223
O O5 0.495914 0.250000 0.659583
O O6 0.679725 0.501095 0.785165
O O7 0.443183 0.502176 0.676001
O O8 0.351991 0.501317 0.512518
O O9 0.611775 0.250000 0.935967
O O10 0.611295 0.512622 0.988417
O O11 0.432131 0.486941 0.767500
O O12 0.750222 0.500705 0.000759
O O13 0.347951 0.250000 0.918195
O O14 0.500000 0.000000 0.000000
O O15 0.137747 0.750000 0.062937
O O16 0.098423 0.497855 0.976256
O O17 0.000000 0.500000 0.000000
O O18 0.343652 0.750000 0.654318
O O19 0.166835 0.250000 0.362787
O O20 0.070654 0.999029 0.240635
O O21 0.092754 0.750000 0.913967
#
# Coordination Sequence:
#
# PCOD9159065 Si02
#       8
#     4   4   4   4   4   4   4   4
#     4   9  19  34  52  78 112 141 171 217 268 315
#     4   9  17  31  51  75 104 135 174 218 263 315
#     4  11  20  35  57  83 110 140 180 225 269 316
#     4  11  23  39  57  81 112 147 181 220 269 322
#     4  10  20  35  50  71 104 141 177 217 264 317
#     4  10  19  32  53  82 111 139 174 219 268 317
#     4   9  16  29  53  79 100 132 173 216 264 315
#     4   9  17  31  52  77 104 132 171 218 262 310
#
# _framework density 18.184899000000001
#
# number of rings (size 3 to 8) (size 9 to 14) (size 15 to 20)
#    0.000    2.250    2.500    1.125    0.000    1.500 
#    0.000    1.875    0.000    0.000    0.000    0.000 
#    0.000    0.000    0.000    0.000    0.000    0.000 
#
# Total GULP energy -178487.580998 kJ/mol
# GULP energy per Si atom -5577.736906 kJ/mol
# Density = 1.814351 g / cm^3
# Si number density = 18.184899 Si / 1000 Ang^3
#
#
#
# Elastic Constant Matrix: (Units=GPa)
#
#
# Indices 1 2 3 4 5 6 
#
# 1 106.2622 10.5574 79.2445 0.0000 9.8362 0.0000
# 2 10.5574 10.3963 16.9331 0.0000 3.3127 0.0000
# 3 79.2445 16.9331 176.9295 0.0000 9.5883 0.0000
# 4 0.0000 0.0000 0.0000 17.7619 0.0000 1.1871
# 5 9.8362 3.3127 9.5883 0.0000 26.0860 0.0000
# 6 0.0000 0.0000 0.0000 1.1871 0.0000 27.0988
#
#
#
# Elastic Compliance Matrix: (Units=1/GPa)
#
#
# Indices 1 2 3 4 5 6 
#
# 1 0.014521 -0.004167 -0.005956 0.000000 -0.002757 0.000000
# 2 -0.004167 0.118136 -0.008889 0.000000 -0.010164 0.000000
# 3 -0.005956 -0.008889 0.009170 0.000000 0.000004 0.000000
# 4 0.000000 0.000000 0.000000 0.056465 0.000000 -0.002474
# 5 -0.002757 -0.010164 0.000004 0.000000 0.040664 0.000000
# 6 0.000000 0.000000 0.000000 -0.002474 0.000000 0.037010
#
#
# Mechanical properties :
#
#
# Convention : Reuss Voigt Hill
#
# Bulk Modulus (GPa) = 9.63359 56.33978 32.98668
# Shear Modulus (GPa) = 14.34340 26.64622 20.49481
#
# Velocity S-wave (km/s) = 2.81152 3.83207 3.36076
# Velocity P-wave (km/s) = 3.98103 7.11537 5.76529
#
# Compressibility (1/GPa) = 0.10380348
#
# Stress axis : x y z
#
# Youngs Moduli (GPa) = 68.86406 8.46480 109.05202
#
# Poissons Ratio (x) = 0.03528 0.64948
# Poissons Ratio (y) = 0.28699 0.96936
# Poissons Ratio (z) = 0.41013 0.07524
#
# Static dielectric constant tensor:
#      x y z
#    x 1.579880 0.000000 0.003370 
#    y 0.000000 1.630480 0.000000 
#    z 0.003370 0.000000 1.681890 
# 
# From -- ./inp_files/72189.got.cif
#   From: 2010.05.17/outbox.cif.g08.bks.cpg/sg11_37_cif.got.tgz:72189.got - 2010.06.03 12:22:45.
