data_PCOD9159714
_publ_section_title
;
Structure prediction by ZEFSAII (Michael W. Deem and Ramdas Pophale) SiO2 
 PCOD9159714
Probable space group: P 21/M
;
_chemical_formula_sum "Si O2"
_cell_formula_units_Z 32
_cell_length_a 19.021818
_cell_length_b 14.055705
_cell_length_c 14.484992
_cell_angle_alpha 90.000000
_cell_angle_beta 21.608710
_cell_angle_gamma 90.000000
_cell_volume 1426.213069
_symmetry_space_group_name_H-M "P 21/M"
_symmetry_group_IT_number 11
_symmetry_cell_setting 'monoclinic'
loop_
_space_group_symop_operation_xyz
x,y,z
-x,1/2+y,-z
-x,-y,-z
x,1/2-y,z
loop_
_atom_site_type_symbol
_atom_site_label
_atom_site_fract_x
_atom_site_fract_y
_atom_site_fract_z
Si Si1 0.149909 0.638192 0.839776
Si Si2 0.779370 0.552291 0.697279
Si Si3 0.710801 0.855623 0.312119
Si Si4 0.570110 0.645681 0.685049
Si Si5 0.202266 0.002538 0.936723
Si Si6 0.235020 0.553462 0.545762
Si Si7 0.195953 0.948060 0.149415
Si Si8 0.376239 0.858166 0.195503
O O1 0.191382 0.750000 0.786873
O O2 0.256262 0.583152 0.626863
O O3 0.186232 0.592485 0.894780
O O4 0.923430 0.625074 0.093928
O O5 0.797385 0.533019 0.784584
O O6 0.742920 0.445772 0.702165
O O7 0.979551 0.588895 0.413941
O O8 0.595791 0.616937 0.903429
O O9 0.713193 0.750000 0.269742
O O10 0.578493 0.856470 0.563133
O O11 0.669241 0.927848 0.281479
O O12 0.643930 0.750000 0.622814
O O13 0.686133 0.552079 0.572163
O O14 0.355030 0.629203 0.981024
O O15 0.253723 0.985753 0.978751
O O16 0.991122 0.050104 0.196472
O O17 0.338974 0.626003 0.350348
O O18 0.328244 0.750000 0.228623
#
# Coordination Sequence:
#
# PCOD9159714 Si02
#       8
#     4   4   4   4   4   4   4   4
#     4  10  19  33  59  93 130 164 209 264 312 368
#     4  10  24  47  65  93 128 161 208 274 324 367
#     4   9  18  35  58  90 126 166 214 257 305 370
#     4  11  22  38  63  92 128 174 213 251 313 382
#     4  11  20  36  63  91 124 172 206 261 316 368
#     4  11  19  40  64  98 127 163 211 270 313 362
#     4  11  24  42  63  86 134 171 203 258 324 381
#     4  11  23  44  76  99 116 159 220 267 318 380
#
# _framework density 22.437041000000001
#
# number of rings (size 3 to 8) (size 9 to 14) (size 15 to 20)
#    0.000    1.500    5.000    1.125    0.000    2.500 
#    0.000    2.500    0.000    0.000    0.000    0.000 
#    0.000    0.000    0.000    0.000    0.000    0.000 
#
# Total GULP energy -178895.833067 kJ/mol
# GULP energy per Si atom -5590.494783 kJ/mol
# Density = 2.238597 g / cm^3
# Si number density = 22.437041 Si / 1000 Ang^3
#
#
#
# Elastic Constant Matrix: (Units=GPa)
#
#
# Indices 1 2 3 4 5 6 
#
# 1 57.8189 9.6509 -2.7095 0.0000 23.0454 0.0000
# 2 9.6509 104.5445 28.7436 0.0000 10.2116 0.0000
# 3 -2.7095 28.7436 95.6813 0.0000 -3.3401 0.0000
# 4 0.0000 0.0000 0.0000 20.5216 0.0000 0.5781
# 5 23.0454 10.2116 -3.3401 0.0000 31.2066 0.0000
# 6 0.0000 0.0000 0.0000 0.5781 0.0000 14.3519
#
#
#
# Elastic Compliance Matrix: (Units=1/GPa)
#
#
# Indices 1 2 3 4 5 6 
#
# 1 0.024541 -0.000584 0.000245 0.000000 -0.017906 0.000000
# 2 -0.000584 0.010900 -0.003413 0.000000 -0.003501 0.000000
# 3 0.000245 -0.003413 0.011559 0.000000 0.002173 0.000000
# 4 0.000000 0.000000 0.000000 0.048784 0.000000 -0.001965
# 5 -0.017906 -0.003501 0.002173 0.000000 0.046646 0.000000
# 6 0.000000 0.000000 0.000000 -0.001965 0.000000 0.069756
#
#
# Mechanical properties :
#
#
# Convention : Reuss Voigt Hill
#
# Bulk Modulus (GPa) = 25.31846 36.60163 30.96004
# Shear Modulus (GPa) = 21.47251 28.04000 24.75626
#
# Velocity S-wave (km/s) = 3.09692 3.53897 3.32530
# Velocity P-wave (km/s) = 4.90883 5.74870 5.34528
#
# Compressibility (1/GPa) = 0.03949688
#
# Stress axis : x y z
#
# Youngs Moduli (GPa) = 40.74772 91.74704 86.50913
#
# Poissons Ratio (x) = 0.05358 -0.02122
# Poissons Ratio (y) = 0.02379 0.29526
# Poissons Ratio (z) = -0.01000 0.31314
#
# Static dielectric constant tensor:
#      x y z
#    x 1.880500 0.000000 -0.008010 
#    y 0.000000 1.803640 0.000000 
#    z -0.008010 0.000000 1.857310 
# 
# From -- ./inp_files/55004.got.cif
#   From: 2010.05.17/outbox.cif.g08.bks.cpg/sg11_28_cif.got.tgz:55004.got - 2010.06.03 12:22:45.
