data_PCOD9159295
_publ_section_title
;
Structure prediction by ZEFSAII (Michael W. Deem and Ramdas Pophale) SiO2 
 PCOD9159295
Probable space group: P 21/M
;
_chemical_formula_sum "Si O2"
_cell_formula_units_Z 24
_cell_length_a 11.579231
_cell_length_b 8.684172
_cell_length_c 26.903188
_cell_angle_alpha 90.000000
_cell_angle_beta 29.386764
_cell_angle_gamma 90.000000
_cell_volume 1327.486563
_symmetry_space_group_name_H-M "P 21/M"
_symmetry_group_IT_number 11
_symmetry_cell_setting 'monoclinic'
loop_
_space_group_symop_operation_xyz
x,y,z
-x,1/2+y,-z
-x,-y,-z
x,1/2-y,z
loop_
_atom_site_type_symbol
_atom_site_label
_atom_site_fract_x
_atom_site_fract_y
_atom_site_fract_z
Si Si1 0.864633 0.436786 0.883561
Si Si2 0.737773 0.574749 0.392430
Si Si3 0.851306 0.569995 0.703498
Si Si4 0.895227 0.933377 0.488538
Si Si5 0.625710 0.925277 0.318908
Si Si6 0.427426 0.934602 0.105740
O O1 0.867357 0.250000 0.883983
O O2 0.760845 0.479594 0.867548
O O3 0.131862 0.489408 0.795559
O O4 0.675053 0.501827 0.993200
O O5 0.500000 0.500000 0.500000
O O6 0.777195 0.750000 0.396545
O O7 0.711051 0.584595 0.343816
O O8 0.937225 0.463810 0.337603
O O9 0.812750 0.750000 0.710052
O O10 0.638354 0.496829 0.814976
O O11 0.947525 0.496161 0.616366
O O12 0.904663 0.750000 0.484666
O O13 0.621139 0.986031 0.588805
O O14 0.000000 0.000000 0.500000
O O15 0.580822 0.750000 0.317762
O O16 0.426134 0.750000 0.107736
#
# Coordination Sequence:
#
# PCOD9159295 Si02
#       6
#     4   4   4   4   4   4
#     4   9  18  33  52  80 118 156 189 227 275 331
#     4  11  20  32  51  81 116 150 185 227 280 341
#     4  12  23  36  56  82 116 153 191 233 283 339
#     4  12  26  43  62  83 110 145 192 240 291 343
#     4  10  20  36  57  82 117 152 188 231 281 338
#     4  10  19  33  52  81 118 155 193 230 275 332
#
# _framework density 18.079280000000001
#
# number of rings (size 3 to 8) (size 9 to 14) (size 15 to 20)
#    0.000    1.333    3.333    4.000    0.000    2.000 
#    0.000    0.000    0.000    1.000    0.000    0.000 
#    0.000    0.000    0.000    0.000    0.000    0.000 
#
# Total GULP energy -133799.148080 kJ/mol
# GULP energy per Si atom -5574.964503 kJ/mol
# Density = 1.803813 g / cm^3
# Si number density = 18.079280 Si / 1000 Ang^3
#
#
#
# Elastic Constant Matrix: (Units=GPa)
#
#
# Indices 1 2 3 4 5 6 
#
# 1 69.3681 29.0601 50.2949 0.0000 14.0184 0.0000
# 2 29.0601 90.5477 58.5769 0.0000 8.4060 0.0000
# 3 50.2949 58.5769 172.3371 0.0000 16.4869 0.0000
# 4 0.0000 0.0000 0.0000 23.4259 0.0000 0.4818
# 5 14.0184 8.4060 16.4869 0.0000 10.9408 0.0000
# 6 0.0000 0.0000 0.0000 0.4818 0.0000 24.4307
#
#
#
# Elastic Compliance Matrix: (Units=1/GPa)
#
#
# Indices 1 2 3 4 5 6 
#
# 1 0.022511 -0.002970 -0.003528 0.000000 -0.021246 0.000000
# 2 -0.002970 0.014719 -0.003994 0.000000 -0.001484 0.000000
# 3 -0.003528 -0.003994 0.008721 0.000000 -0.005553 0.000000
# 4 0.000000 0.000000 0.000000 0.042705 0.000000 -0.000842
# 5 -0.021246 -0.001484 -0.005553 0.000000 0.128131 0.000000
# 6 0.000000 0.000000 0.000000 -0.000842 0.000000 0.040949
#
#
# Mechanical properties :
#
#
# Convention : Reuss Voigt Hill
#
# Bulk Modulus (GPa) = 40.05269 67.56854 53.81061
# Shear Modulus (GPa) = 17.41904 24.71422 21.06663
#
# Velocity S-wave (km/s) = 3.10737 3.70130 3.41726
# Velocity P-wave (km/s) = 5.92253 7.46463 6.73784
#
# Compressibility (1/GPa) = 0.02496711
#
# Stress axis : x y z
#
# Youngs Moduli (GPa) = 44.42201 67.94047 114.66730
#
# Poissons Ratio (x) = 0.20180 0.40450
# Poissons Ratio (y) = 0.13195 0.45798
# Poissons Ratio (z) = 0.15670 0.27136
#
# Static dielectric constant tensor:
#      x y z
#    x 1.614110 0.000000 0.007080 
#    y 0.000000 1.621050 0.000000 
#    z 0.007080 0.000000 1.677420 
# 
# From -- ./inp_files/44440.got.cif
#   From: 2010.05.17/outbox.cif.g08.bks.cpg/sg11_23_cif.got.tgz:44440.got - 2010.06.03 12:22:45.
