data_PCOD9159812
_publ_section_title
;
Structure prediction by ZEFSAII (Michael W. Deem and Ramdas Pophale) SiO2 
 PCOD9159812
Probable space group: P 21/M
;
_chemical_formula_sum "Si O2"
_cell_formula_units_Z 32
_cell_length_a 12.196417
_cell_length_b 7.767878
_cell_length_c 15.272407
_cell_angle_alpha 90.000000
_cell_angle_beta 86.997764
_cell_angle_gamma 90.000000
_cell_volume 1444.926206
_symmetry_space_group_name_H-M "P 21/M"
_symmetry_group_IT_number 11
_symmetry_cell_setting 'monoclinic'
loop_
_space_group_symop_operation_xyz
x,y,z
-x,1/2+y,-z
-x,-y,-z
x,1/2-y,z
loop_
_atom_site_type_symbol
_atom_site_label
_atom_site_fract_x
_atom_site_fract_y
_atom_site_fract_z
Si Si1 0.627895 0.542539 0.504921
Si Si2 0.560893 0.449721 0.830538
Si Si3 0.308849 0.539053 0.014993
Si Si4 0.327520 0.947666 0.814889
Si Si5 0.069511 0.956614 0.082831
Si Si6 0.734244 0.544682 0.682602
Si Si7 0.020737 0.541694 0.278835
Si Si8 0.207447 0.050892 0.649255
O O1 0.500000 0.500000 0.500000
O O2 0.633316 0.750000 0.503646
O O3 0.678664 0.483539 0.594916
O O4 0.705622 0.475138 0.423203
O O5 0.529741 0.250000 0.839402
O O6 0.457814 0.544317 0.792769
O O7 0.667801 0.463347 0.765665
O O8 0.594642 0.519732 0.924472
O O9 0.312235 0.750000 0.015280
O O10 0.314000 0.483770 0.914204
O O11 0.193523 0.482530 0.061212
O O12 0.289971 0.750000 0.815069
O O13 0.262018 0.044256 0.742807
O O14 0.073958 0.750000 0.088821
O O15 0.022482 0.020447 0.177439
O O16 0.000000 0.000000 0.000000
O O17 0.720678 0.750000 0.689297
O O18 0.862739 0.503645 0.683821
O O19 0.012507 0.750000 0.276616
O O20 0.914288 0.474584 0.334997
O O21 0.192528 0.250000 0.623872
#
# Coordination Sequence:
#
# PCOD9159812 Si02
#       8
#     4   4   4   4   4   4   4   4
#     4  10  23  42  63  89 120 153 194 243 297 357
#     4  11  21  38  60  82 115 158 199 241 293 356
#     4   9  19  35  54  78 115 154 192 237 290 349
#     4  11  22  36  56  86 120 153 193 247 300 347
#     4  10  19  34  54  80 113 153 198 240 284 340
#     4  11  23  39  61  90 121 153 196 250 301 351
#     4  10  21  39  62  86 118 157 200 242 291 356
#     4  10  22  41  62  86 117 156 198 240 290 355
#
# _framework density 22.146460000000001
#
# number of rings (size 3 to 8) (size 9 to 14) (size 15 to 20)
#    0.000    1.750    1.250    3.000    0.000    5.000 
#    0.000    2.500    0.000    0.000    0.000    0.000 
#    0.000    0.000    0.000    0.000    0.000    0.000 
#
# Total GULP energy -178871.745496 kJ/mol
# GULP energy per Si atom -5589.742047 kJ/mol
# Density = 2.209605 g / cm^3
# Si number density = 22.146460 Si / 1000 Ang^3
#
#
#
# Elastic Constant Matrix: (Units=GPa)
#
#
# Indices 1 2 3 4 5 6 
#
# 1 138.0436 -5.6696 61.2225 0.0000 -13.4270 0.0000
# 2 -5.6696 37.3762 1.6214 0.0000 -6.3177 0.0000
# 3 61.2225 1.6214 125.5235 0.0000 -2.3718 0.0000
# 4 0.0000 0.0000 0.0000 10.5130 0.0000 -10.5790
# 5 -13.4270 -6.3177 -2.3718 0.0000 36.6239 0.0000
# 6 0.0000 0.0000 0.0000 -10.5790 0.0000 -3.4778
#
#
#
# Elastic Compliance Matrix: (Units=1/GPa)
#
#
# Indices 1 2 3 4 5 6 
#
# 1 0.009800 0.002315 -0.004740 0.000000 0.003685 0.000000
# 2 0.002315 0.028114 -0.001386 0.000000 0.005609 0.000000
# 3 -0.004740 -0.001386 0.010272 0.000000 -0.001312 0.000000
# 4 0.000000 0.000000 0.000000 0.023423 0.000000 -0.071250
# 5 0.003685 0.005609 -0.001312 0.000000 0.029538 0.000000
# 6 0.000000 0.000000 0.000000 -0.071250 0.000000 -0.070806
#
#
# Mechanical properties :
#
#
# Convention : Reuss Voigt Hill
#
# Bulk Modulus (GPa) = 24.65284 46.14354 35.39819
# Shear Modulus (GPa) = 97.11540 24.98308 61.04924
#
# Velocity S-wave (km/s) = 6.62923 3.36234 5.25604
# Velocity P-wave (km/s) = 8.35173 5.99622 7.27001
#
# Compressibility (1/GPa) = 0.04056328
#
# Stress axis : x y z
#
# Youngs Moduli (GPa) = 102.04273 35.56900 97.35547
#
# Poissons Ratio (x) = -0.08234 0.46147
# Poissons Ratio (y) = -0.23623 0.13497
# Poissons Ratio (z) = 0.48368 0.04931
#
# Static dielectric constant tensor:
#      x y z
#    x 1.801450 0.000000 -0.027910 
#    y 0.000000 1.817530 0.000000 
#    z -0.027910 0.000000 1.811160 
# 
# From -- ./inp_files/49376.got.cif
#   From: 2010.05.17/outbox.cif.g08.bks.cpg/sg11_25_cif.got.tgz:49376.got - 2010.06.03 12:22:45.
