data_PCOD9159558
_publ_section_title
;
Structure prediction by ZEFSAII (Michael W. Deem and Ramdas Pophale) SiO2 
 PCOD9159558
Probable space group: P 21/M
;
_chemical_formula_sum "Si O2"
_cell_formula_units_Z 32
_cell_length_a 10.179473
_cell_length_b 17.209599
_cell_length_c 12.219167
_cell_angle_alpha 90.000000
_cell_angle_beta 128.458903
_cell_angle_gamma 90.000000
_cell_volume 1676.214604
_symmetry_space_group_name_H-M "P 21/M"
_symmetry_group_IT_number 11
_symmetry_cell_setting 'monoclinic'
loop_
_space_group_symop_operation_xyz
x,y,z
-x,1/2+y,-z
-x,-y,-z
x,1/2-y,z
loop_
_atom_site_type_symbol
_atom_site_label
_atom_site_fract_x
_atom_site_fract_y
_atom_site_fract_z
Si Si1 0.603789 0.069777 0.418972
Si Si2 0.138930 0.843044 0.586237
Si Si3 0.812052 0.843678 0.275635
Si Si4 0.920678 0.660720 0.678067
Si Si5 0.390831 0.113065 0.628983
Si Si6 0.215652 0.067700 0.196124
Si Si7 0.115360 0.338785 0.932261
Si Si8 0.746070 0.109446 0.730556
O O1 0.697412 0.112261 0.368286
O O2 0.407980 0.089694 0.323668
O O3 0.691787 0.094266 0.577175
O O4 0.615836 0.977184 0.409892
O O5 0.162351 0.750000 0.590593
O O6 0.987734 0.865477 0.425101
O O7 0.069786 0.860618 0.671537
O O8 0.801136 0.750000 0.276021
O O9 0.665775 0.877995 0.275035
O O10 0.816829 0.865098 0.151144
O O11 0.942179 0.750000 0.724935
O O12 0.750745 0.655441 0.516960
O O13 0.900319 0.604157 0.769686
O O14 0.579325 0.140984 0.703354
O O15 0.208911 0.974678 0.194988
O O16 0.171757 0.104963 0.057783
O O17 0.170725 0.250000 0.981438
O O18 0.913221 0.340555 0.821263
#
# Coordination Sequence:
#
# PCOD9159558 Si02
#       8
#     4   4   4   4   4   4   4   4
#     4  11  20  36  60  87 116 145 189 238 284 336
#     4   9  19  33  52  82 113 144 187 235 278 332
#     4   9  19  36  55  80 116 151 188 231 278 337
#     4  10  19  33  55  84 118 147 183 236 289 329
#     4  10  19  35  57  87 113 142 189 236 286 328
#     4  11  22  40  57  85 117 152 186 234 289 341
#     4  11  24  40  58  82 114 154 194 229 281 345
#     4  11  21  39  59  85 117 148 192 236 278 338
#
# _framework density 19.090633
#
# number of rings (size 3 to 8) (size 9 to 14) (size 15 to 20)
#    0.000    1.750    3.750    2.625    0.000    5.000 
#    0.000    3.750    0.000    1.500    0.000    0.000 
#    0.000    0.000    0.000    0.000    0.000    0.000 
#
# Total GULP energy -178718.770749 kJ/mol
# GULP energy per Si atom -5584.961586 kJ/mol
# Density = 1.904718 g / cm^3
# Si number density = 19.090633 Si / 1000 Ang^3
#
#
#
# Elastic Constant Matrix: (Units=GPa)
#
#
# Indices 1 2 3 4 5 6 
#
# 1 97.5805 16.4685 -1.2090 0.0000 -16.9508 0.0000
# 2 16.4685 20.4485 5.4551 0.0000 -3.4800 0.0000
# 3 -1.2090 5.4551 40.0700 0.0000 -13.4815 0.0000
# 4 0.0000 0.0000 0.0000 13.2475 0.0000 2.6308
# 5 -16.9508 -3.4800 -13.4815 0.0000 22.7227 0.0000
# 6 0.0000 0.0000 0.0000 2.6308 0.0000 34.1792
#
#
#
# Elastic Compliance Matrix: (Units=1/GPa)
#
#
# Indices 1 2 3 4 5 6 
#
# 1 0.014414 -0.011102 0.006237 0.000000 0.012753 0.000000
# 2 -0.011102 0.059684 -0.010209 0.000000 -0.005199 0.000000
# 3 0.006237 -0.010209 0.034451 0.000000 0.023529 0.000000
# 4 0.000000 0.000000 0.000000 0.076658 0.000000 -0.005900
# 5 0.012753 -0.005199 0.023529 0.000000 0.066686 0.000000
# 6 0.000000 0.000000 0.000000 -0.005900 0.000000 0.029712
#
#
# Mechanical properties :
#
#
# Convention : Reuss Voigt Hill
#
# Bulk Modulus (GPa) = 12.75522 22.16980 17.46251
# Shear Modulus (GPa) = 14.79788 23.18883 18.99336
#
# Velocity S-wave (km/s) = 2.78715 3.48899 3.15763
# Velocity P-wave (km/s) = 4.12959 5.27910 4.73933
#
# Compressibility (1/GPa) = 0.07839929
#
# Stress axis : x y z
#
# Youngs Moduli (GPa) = 69.37562 16.75504 29.02708
#
# Poissons Ratio (x) = 0.18602 -0.18104
# Poissons Ratio (y) = 0.77023 0.29635
# Poissons Ratio (z) = -0.43270 0.17106
#
# Static dielectric constant tensor:
#      x y z
#    x 1.670620 0.000000 -0.003210 
#    y 0.000000 1.649980 0.000000 
#    z -0.003210 0.000000 1.648140 
# 
# From -- ./inp_files/32668.got.cif
#   From: 2010.05.17/outbox.cif.g08.bks.cpg/sg11_17_cif.got.tgz:32668.got - 2010.06.03 12:22:45.
