data_PCOD9159894
_publ_section_title
;
Structure prediction by ZEFSAII (Michael W. Deem and Ramdas Pophale) SiO2 
 PCOD9159894
Probable space group: P 21/M
;
_chemical_formula_sum "Si O2"
_cell_formula_units_Z 32
_cell_length_a 29.093017
_cell_length_b 8.677949
_cell_length_c 22.992584
_cell_angle_alpha 90.000000
_cell_angle_beta 161.490453
_cell_angle_gamma 90.000000
_cell_volume 1842.834345
_symmetry_space_group_name_H-M "P 21/M"
_symmetry_group_IT_number 11
_symmetry_cell_setting 'monoclinic'
loop_
_space_group_symop_operation_xyz
x,y,z
-x,1/2+y,-z
-x,-y,-z
x,1/2-y,z
loop_
_atom_site_type_symbol
_atom_site_label
_atom_site_fract_x
_atom_site_fract_y
_atom_site_fract_z
Si Si1 0.050691 0.436084 0.499490
Si Si2 0.690121 0.434821 0.490810
Si Si3 0.347637 0.435507 0.796654
Si Si4 0.409734 0.564520 0.214372
Si Si5 0.798467 0.563704 0.499127
Si Si6 0.152687 0.934965 0.203131
Si Si7 0.451547 0.564820 0.503589
Si Si8 0.094241 0.937366 0.793622
O O1 0.048154 0.250000 0.498334
O O2 0.213677 0.483621 0.677157
O O3 0.000000 0.500000 0.500000
O O4 0.948223 0.485533 0.322736
O O5 0.677998 0.250000 0.477416
O O6 0.535033 0.506020 0.321512
O O7 0.746453 0.491180 0.496534
O O8 0.799116 0.481591 0.673886
O O9 0.352878 0.250000 0.804175
O O10 0.303218 0.479952 0.677584
O O11 0.500000 0.500000 0.000000
O O12 0.412194 0.750000 0.219264
O O13 0.449720 0.499133 0.325704
O O14 0.251325 0.512043 0.003350
O O15 0.795484 0.750000 0.500424
O O16 0.961520 0.517232 0.676348
O O17 0.144549 0.750000 0.192402
O O18 0.286604 0.980876 0.322184
O O19 0.000000 0.000000 0.000000
O O20 0.500000 0.500000 0.500000
O O21 0.458700 0.750000 0.512195
O O22 0.094794 0.750000 0.793978
#
# Coordination Sequence:
#
# PCOD9159894 Si02
#       8
#     4   4   4   4   4   4   4   4
#     4   9  18  34  52  73 101 133 167 208 253 301
#     4  10  21  36  51  75 108 136 165 208 254 301
#     4   9  19  34  52  74 102 133 169 209 253 302
#     4  10  19  34  56  79 101 133 172 210 253 302
#     4   9  18  35  55  74  98 134 173 209 250 301
#     4   9  20  36  53  74 102 133 168 207 250 298
#     4  10  21  37  54  77 107 137 169 209 253 302
#     4   8  17  34  54  74 100 131 169 212 252 297
#
# _framework density 17.364556
#
# number of rings (size 3 to 8) (size 9 to 14) (size 15 to 20)
#    0.000    2.750    0.000    3.375    0.000    6.000 
#    0.000   11.875    0.000    0.000    0.000    0.000 
#    0.000    0.000    0.000    0.000    0.000    0.000 
#
# Total GULP energy -178455.119897 kJ/mol
# GULP energy per Si atom -5576.722497 kJ/mol
# Density = 1.732503 g / cm^3
# Si number density = 17.364556 Si / 1000 Ang^3
#
#
#
# Elastic Constant Matrix: (Units=GPa)
#
#
# Indices 1 2 3 4 5 6 
#
# 1 194.6104 43.3242 109.1471 0.0000 -0.6862 0.0000
# 2 43.3242 33.2050 41.5081 0.0000 0.3348 0.0000
# 3 109.1471 41.5081 200.8977 0.0000 4.9072 0.0000
# 4 0.0000 0.0000 0.0000 27.4631 0.0000 -2.2268
# 5 -0.6862 0.3348 4.9072 0.0000 6.3676 0.0000
# 6 0.0000 0.0000 0.0000 -2.2268 0.0000 33.9280
#
#
#
# Elastic Compliance Matrix: (Units=1/GPa)
#
#
# Indices 1 2 3 4 5 6 
#
# 1 0.008580 -0.007131 -0.003282 0.000000 0.003829 0.000000
# 2 -0.007131 0.046652 -0.005795 0.000000 0.001245 0.000000
# 3 -0.003282 -0.005795 0.008112 0.000000 -0.006300 0.000000
# 4 0.000000 0.000000 0.000000 0.036607 0.000000 0.002403
# 5 0.003829 0.001245 -0.006300 0.000000 0.162247 0.000000
# 6 0.000000 0.000000 0.000000 0.002403 0.000000 0.029632
#
#
# Mechanical properties :
#
#
# Convention : Reuss Voigt Hill
#
# Bulk Modulus (GPa) = 32.33311 90.74132 61.53721
# Shear Modulus (GPa) = 14.94526 29.20066 22.07296
#
# Velocity S-wave (km/s) = 2.93691 4.10521 3.56919
# Velocity P-wave (km/s) = 5.49192 8.65104 7.24574
#
# Compressibility (1/GPa) = 0.03092805
#
# Stress axis : x y z
#
# Youngs Moduli (GPa) = 116.55022 21.43548 123.27789
#
# Poissons Ratio (x) = 0.15286 0.40455
# Poissons Ratio (y) = 0.83113 0.71439
# Poissons Ratio (z) = 0.38247 0.12422
#
# Static dielectric constant tensor:
#      x y z
#    x 1.564970 0.000000 0.000730 
#    y 0.000000 1.591630 0.000000 
#    z 0.000730 0.000000 1.579710 
# 
# From -- ./inp_files/67160.got.cif
#   From: 2010.05.17/outbox.cif.g08.bks.cpg/sg11_34_cif.got.tgz:67160.got - 2010.06.03 12:22:45.
