data_PCOD9159021
_publ_section_title
;
Structure prediction by ZEFSAII (Michael W. Deem and Ramdas Pophale) SiO2 
 PCOD9159021
Probable space group: P 21/M
;
_chemical_formula_sum "Si O2"
_cell_formula_units_Z 28
_cell_length_a 25.891351
_cell_length_b 10.956611
_cell_length_c 5.178467
_cell_angle_alpha 90.000000
_cell_angle_beta 103.619773
_cell_angle_gamma 90.000000
_cell_volume 1427.725516
_symmetry_space_group_name_H-M "P 21/M"
_symmetry_group_IT_number 11
_symmetry_cell_setting 'monoclinic'
loop_
_space_group_symop_operation_xyz
x,y,z
-x,1/2+y,-z
-x,-y,-z
x,1/2-y,z
loop_
_atom_site_type_symbol
_atom_site_label
_atom_site_fract_x
_atom_site_fract_y
_atom_site_fract_z
Si Si1 0.920131 0.618426 0.957993
Si Si2 0.980662 0.120706 0.620802
Si Si3 0.229113 0.109788 0.638247
Si Si4 0.301394 0.390569 0.223322
Si Si5 0.384284 0.611566 0.350037
Si Si6 0.459019 0.888256 0.937608
Si Si7 0.880414 0.500063 0.415382
O O1 0.899672 0.750000 0.019783
O O2 0.903585 0.598736 0.646243
O O3 0.894802 0.525334 0.133955
O O4 0.983664 0.618704 0.078620
O O5 0.994384 0.250000 0.509470
O O6 0.917100 0.111277 0.556311
O O7 0.000000 0.000000 0.500000
O O8 0.208280 0.250000 0.635502
O O9 0.257190 0.098145 0.395174
O O10 0.182167 0.012553 0.621710
O O11 0.272793 0.096353 0.913625
O O12 0.322758 0.250000 0.265849
O O13 0.343421 0.499215 0.307739
O O14 0.360425 0.750000 0.330853
O O15 0.424257 0.601712 0.637863
O O16 0.419085 0.603448 0.131813
O O17 0.483049 0.750000 0.970816
O O18 0.500000 0.000000 0.000000
#
# Coordination Sequence:
#
# PCOD9159021 Si02
#       7
#     4   4   4   4   4   4   4
#     4  10  19  32  53  78 104 136 173 210 261 328
#     4   9  20  37  56  81 109 139 176 217 264 330
#     4  10  20  34  54  80 108 136 179 233 279 323
#     4  10  21  37  57  82 108 142 189 236 275 320
#     4  10  21  38  58  82 115 154 190 228 275 327
#     4  10  21  36  57  87 121 154 190 229 272 322
#     4  11  20  34  53  78 106 139 173 219 274 326
#
# _framework density 19.611612999999998
#
# number of rings (size 3 to 8) (size 9 to 14) (size 15 to 20)
#    0.000    2.000    0.000    3.857    0.000    3.429 
#    0.000    7.143    0.000    0.000    0.000    0.000 
#    0.000    0.000    0.000    0.000    0.000    0.000 
#
# Total GULP energy -155990.028092 kJ/mol
# GULP energy per Si atom -5571.072432 kJ/mol
# Density = 1.956698 g / cm^3
# Si number density = 19.611613 Si / 1000 Ang^3
#
#
#
# Elastic Constant Matrix: (Units=GPa)
#
#
# Indices 1 2 3 4 5 6 
#
# 1 62.2592 52.9152 15.4125 0.0000 3.8260 0.0000
# 2 52.9152 133.0074 16.8668 0.0000 18.1420 0.0000
# 3 15.4125 16.8668 86.3586 0.0000 -7.5593 0.0000
# 4 0.0000 0.0000 0.0000 21.4166 0.0000 0.8994
# 5 3.8260 18.1420 -7.5593 0.0000 27.4248 0.0000
# 6 0.0000 0.0000 0.0000 0.8994 0.0000 33.9460
#
#
#
# Elastic Compliance Matrix: (Units=1/GPa)
#
#
# Indices 1 2 3 4 5 6 
#
# 1 0.024955 -0.009977 -0.002287 0.000000 0.002488 0.000000
# 2 -0.009977 0.012660 -0.001335 0.000000 -0.007351 0.000000
# 3 -0.002287 -0.001335 0.012659 0.000000 0.004692 0.000000
# 4 0.000000 0.000000 0.000000 0.046745 0.000000 -0.001238
# 5 0.002488 -0.007351 0.004692 0.000000 0.042272 0.000000
# 6 0.000000 0.000000 0.000000 -0.001238 0.000000 0.029491
#
#
# Mechanical properties :
#
#
# Convention : Reuss Voigt Hill
#
# Bulk Modulus (GPa) = 43.33848 50.22379 46.78113
# Shear Modulus (GPa) = 24.54902 29.65286 27.10094
#
# Velocity S-wave (km/s) = 3.54186 3.89267 3.72140
# Velocity P-wave (km/s) = 6.23480 6.77264 6.50928
#
# Compressibility (1/GPa) = 0.02307419
#
# Stress axis : x y z
#
# Youngs Moduli (GPa) = 40.07175 78.99049 78.99305
#
# Poissons Ratio (x) = 0.78812 0.18068
# Poissons Ratio (y) = 0.39981 0.10548
# Poissons Ratio (z) = 0.09165 0.10548
#
# Static dielectric constant tensor:
#      x y z
#    x 1.734800 0.000000 -0.081230 
#    y 0.000000 1.748480 0.000000 
#    z -0.081230 0.000000 1.935980 
# 
# From -- ./inp_files/8845.got.cif
#   From: 2010.05.17/outbox.cif.g08.bks.cpg/sg11_5_cif.got.tgz:8845.got - 2010.06.03 12:22:45.
