data_PCOD9159280
_publ_section_title
;
Structure prediction by ZEFSAII (Michael W. Deem and Ramdas Pophale) SiO2 
 PCOD9159280
Probable space group: P 21/M
;
_chemical_formula_sum "Si O2"
_cell_formula_units_Z 28
_cell_length_a 19.755194
_cell_length_b 8.941694
_cell_length_c 14.717440
_cell_angle_alpha 90.000000
_cell_angle_beta 40.992115
_cell_angle_gamma 90.000000
_cell_volume 1705.326454
_symmetry_space_group_name_H-M "P 21/M"
_symmetry_group_IT_number 11
_symmetry_cell_setting 'monoclinic'
loop_
_space_group_symop_operation_xyz
x,y,z
-x,1/2+y,-z
-x,-y,-z
x,1/2-y,z
loop_
_atom_site_type_symbol
_atom_site_label
_atom_site_fract_x
_atom_site_fract_y
_atom_site_fract_z
Si Si1 0.624817 0.070911 0.786874
Si Si2 0.789474 0.429870 0.927784
Si Si3 0.877558 0.428654 0.032156
Si Si4 0.123137 0.427357 0.776525
Si Si5 0.820240 0.429007 0.466012
Si Si6 0.005864 0.930029 0.393986
Si Si7 0.611585 0.928406 0.994802
O O1 0.626950 0.250000 0.800592
O O2 0.713403 0.034907 0.625211
O O3 0.509285 0.031157 0.871620
O O4 0.643834 0.990393 0.863321
O O5 0.780242 0.250000 0.935576
O O6 0.886102 0.468671 0.764669
O O7 0.817733 0.474754 0.001920
O O8 0.686337 0.502117 0.993685
O O9 0.865614 0.250000 0.056872
O O10 0.845802 0.512542 0.155958
O O11 0.999741 0.456197 0.892920
O O12 0.139064 0.250000 0.753551
O O13 0.177413 0.511231 0.638830
O O14 0.834273 0.250000 0.453209
O O15 0.913096 0.506339 0.427030
O O16 0.998840 0.750000 0.405991
O O17 0.000000 0.000000 0.500000
O O18 0.620178 0.750000 0.987005
#
# Coordination Sequence:
#
# PCOD9159280 Si02
#       7
#     4   4   4   4   4   4   4
#     4   9  20  37  53  73 103 137 173 214 258 301
#     4  10  20  35  52  72 105 139 167 205 257 307
#     4   9  18  34  52  73 102 138 170 204 254 310
#     4  10  19  33  52  77 105 133 168 214 255 301
#     4  11  21  34  53  75 102 139 173 207 255 309
#     4  11  22  35  48  72 107 139 169 207 253 305
#     4  10  20  34  54  78 101 131 176 220 254 297
#
# _framework density 16.419143999999999
#
# number of rings (size 3 to 8) (size 9 to 14) (size 15 to 20)
#    0.000    2.000    1.429    2.571    0.000    7.429 
#    0.000    0.000    0.000    0.857    0.000    0.000 
#    0.000    0.000    0.000    0.000    0.000    0.000 
#
# Total GULP energy -156315.872793 kJ/mol
# GULP energy per Si atom -5582.709743 kJ/mol
# Density = 1.638177 g / cm^3
# Si number density = 16.419144 Si / 1000 Ang^3
#
#
#
# Elastic Constant Matrix: (Units=GPa)
#
#
# Indices 1 2 3 4 5 6 
#
# 1 138.3034 38.0112 43.8556 0.0000 8.9479 0.0000
# 2 38.0112 31.7025 27.2069 0.0000 2.1364 0.0000
# 3 43.8556 27.2069 55.8602 0.0000 6.0602 0.0000
# 4 0.0000 0.0000 0.0000 23.7250 0.0000 2.7974
# 5 8.9479 2.1364 6.0602 0.0000 19.4946 0.0000
# 6 0.0000 0.0000 0.0000 2.7974 0.0000 33.7901
#
#
#
# Elastic Compliance Matrix: (Units=1/GPa)
#
#
# Indices 1 2 3 4 5 6 
#
# 1 0.011421 -0.010439 -0.003558 0.000000 -0.002992 0.000000
# 2 -0.010439 0.063842 -0.023450 0.000000 0.005085 0.000000
# 3 -0.003558 -0.023450 0.032766 0.000000 -0.005983 0.000000
# 4 0.000000 0.000000 0.000000 0.042565 0.000000 -0.003524
# 5 -0.002992 0.005085 -0.005983 0.000000 0.053972 0.000000
# 6 0.000000 0.000000 0.000000 -0.003524 0.000000 0.029886
#
#
# Mechanical properties :
#
#
# Convention : Reuss Voigt Hill
#
# Bulk Modulus (GPa) = 30.18014 49.33482 39.75748
# Shear Modulus (GPa) = 15.60588 23.18812 19.39700
#
# Velocity S-wave (km/s) = 3.08631 3.76208 3.44083
# Velocity P-wave (km/s) = 5.57866 6.99881 6.32870
#
# Compressibility (1/GPa) = 0.03313437
#
# Stress axis : x y z
#
# Youngs Moduli (GPa) = 87.55538 15.66364 30.51981
#
# Poissons Ratio (x) = 0.16352 0.10858
# Poissons Ratio (y) = 0.91401 0.71570
# Poissons Ratio (z) = 0.31150 0.36732
#
# Static dielectric constant tensor:
#      x y z
#    x 1.535390 0.000000 -0.002070 
#    y 0.000000 1.547180 0.000000 
#    z -0.002070 0.000000 1.535740 
# 
# From -- ./inp_files/37146.got.cif
#   From: 2010.05.17/outbox.cif.g08.bks.cpg/sg11_19_cif.got.tgz:37146.got - 2010.06.03 12:22:45.
