data_PCOD9159543
_publ_section_title
;
Structure prediction by ZEFSAII (Michael W. Deem and Ramdas Pophale) SiO2 
 PCOD9159543
Probable space group: P 21/M
;
_chemical_formula_sum "Si O2"
_cell_formula_units_Z 28
_cell_length_a 9.894419
_cell_length_b 14.633064
_cell_length_c 15.893414
_cell_angle_alpha 90.000000
_cell_angle_beta 39.524804
_cell_angle_gamma 90.000000
_cell_volume 1464.472653
_symmetry_space_group_name_H-M "P 21/M"
_symmetry_group_IT_number 11
_symmetry_cell_setting 'monoclinic'
loop_
_space_group_symop_operation_xyz
x,y,z
-x,1/2+y,-z
-x,-y,-z
x,1/2-y,z
loop_
_atom_site_type_symbol
_atom_site_label
_atom_site_fract_x
_atom_site_fract_y
_atom_site_fract_z
Si Si1 0.056984 0.352954 0.481772
Si Si2 0.336237 0.535684 0.326350
Si Si3 0.730314 0.851068 0.446580
Si Si4 0.980084 0.513045 0.215492
Si Si5 0.659181 0.420565 0.256081
Si Si6 0.359141 0.031711 0.144433
Si Si7 0.285868 0.645755 0.959996
O O1 0.110005 0.250000 0.427161
O O2 0.204374 0.439007 0.386415
O O3 0.088628 0.351728 0.567591
O O4 0.821115 0.384749 0.570647
O O5 0.537713 0.514395 0.286798
O O6 0.390862 0.543627 0.202399
O O7 0.722507 0.750000 0.412543
O O8 0.796696 0.927571 0.348732
O O9 0.513460 0.869648 0.602420
O O10 0.867539 0.440906 0.209001
O O11 0.122390 0.467755 0.221087
O O12 0.126854 0.578895 0.087020
O O13 0.709362 0.373008 0.142765
O O14 0.476285 0.122231 0.121729
O O15 0.500000 0.000000 0.000000
O O16 0.230361 0.750000 0.003333
#
# Coordination Sequence:
#
# PCOD9159543 Si02
#       7
#     4   4   4   4   4   4   4
#     4   9  17  30  53  76 102 143 186 225 268 319
#     4   9  17  33  51  76 106 140 182 224 265 331
#     4  10  19  33  55  83 111 146 186 230 277 326
#     4  11  20  36  58  84 109 147 183 228 278 335
#     4  10  21  35  58  79 115 150 185 216 281 338
#     4   9  19  34  56  79 105 136 181 228 275 322
#     4  10  21  39  59  80 107 146 192 231 270 332
#
# _framework density 19.119509999999998
#
# number of rings (size 3 to 8) (size 9 to 14) (size 15 to 20)
#    0.000    2.286    1.429    1.714    0.000    3.429 
#    0.000    2.857    0.000    0.000    0.000    0.000 
#    0.000    0.000    0.000    0.000    0.000    0.000 
#
# Total GULP energy -155906.357153 kJ/mol
# GULP energy per Si atom -5568.084184 kJ/mol
# Density = 1.907599 g / cm^3
# Si number density = 19.119510 Si / 1000 Ang^3
#
#
#
# Elastic Constant Matrix: (Units=GPa)
#
#
# Indices 1 2 3 4 5 6 
#
# 1 80.2209 11.4673 -7.0246 0.0000 -1.7597 0.0000
# 2 11.4673 59.0774 8.4545 0.0000 0.1114 0.0000
# 3 -7.0246 8.4545 56.5190 0.0000 11.2441 0.0000
# 4 0.0000 0.0000 0.0000 18.7349 0.0000 -1.1190
# 5 -1.7597 0.1114 11.2441 0.0000 22.5562 0.0000
# 6 0.0000 0.0000 0.0000 -1.1190 0.0000 10.4134
#
#
#
# Elastic Compliance Matrix: (Units=1/GPa)
#
#
# Indices 1 2 3 4 5 6 
#
# 1 0.013048 -0.002825 0.002042 0.000000 0.000014 0.000000
# 2 -0.002825 0.017945 -0.003301 0.000000 0.001337 0.000000
# 3 0.002042 -0.003301 0.020432 0.000000 -0.010010 0.000000
# 4 0.000000 0.000000 0.000000 0.053721 0.000000 0.005773
# 5 0.000014 0.001337 -0.010010 0.000000 0.049318 0.000000
# 6 0.000000 0.000000 0.000000 0.005773 0.000000 0.096650
#
#
# Mechanical properties :
#
#
# Convention : Reuss Voigt Hill
#
# Bulk Modulus (GPa) = 23.11813 24.62351 23.87082
# Shear Modulus (GPa) = 18.26794 22.53558 20.40176
#
# Velocity S-wave (km/s) = 3.09441 3.43690 3.27014
# Velocity P-wave (km/s) = 4.98846 5.35317 5.17403
#
# Compressibility (1/GPa) = 0.04325609
#
# Stress axis : x y z
#
# Youngs Moduli (GPa) = 76.63731 55.72508 48.94253
#
# Poissons Ratio (x) = 0.15742 -0.09992
# Poissons Ratio (y) = 0.21650 0.16158
# Poissons Ratio (z) = -0.15646 0.18397
#
# Static dielectric constant tensor:
#      x y z
#    x 1.717210 0.000000 0.028730 
#    y 0.000000 1.696590 0.000000 
#    z 0.028730 0.000000 1.756300 
# 
# From -- ./inp_files/47561.got.cif
#   From: 2010.05.17/outbox.cif.g08.bks.cpg/sg11_24_cif.got.tgz:47561.got - 2010.06.03 12:22:45.
