data_PCOD9159918
_publ_section_title
;
Structure prediction by ZEFSAII (Michael W. Deem and Ramdas Pophale) SiO2 
 PCOD9159918
Probable space group: P 21/M
;
_chemical_formula_sum "Si O2"
_cell_formula_units_Z 32
_cell_length_a 14.434742
_cell_length_b 8.708086
_cell_length_c 35.683428
_cell_angle_alpha 90.000000
_cell_angle_beta 157.107651
_cell_angle_gamma 90.000000
_cell_volume 1744.813251
_symmetry_space_group_name_H-M "P 21/M"
_symmetry_group_IT_number 11
_symmetry_cell_setting 'monoclinic'
loop_
_space_group_symop_operation_xyz
x,y,z
-x,1/2+y,-z
-x,-y,-z
x,1/2-y,z
loop_
_atom_site_type_symbol
_atom_site_label
_atom_site_fract_x
_atom_site_fract_y
_atom_site_fract_z
Si Si1 0.061997 0.065973 0.717215
Si Si2 0.852810 0.933280 0.479738
Si Si3 0.246773 0.065481 0.107875
Si Si4 0.704598 0.066113 0.724478
Si Si5 0.856622 0.434653 0.561270
Si Si6 0.299012 0.433574 0.357119
Si Si7 0.943889 0.934822 0.886713
Si Si8 0.560972 0.565530 0.896945
O O1 0.071281 0.250000 0.721510
O O2 0.997761 0.016563 0.650846
O O3 0.317556 0.997264 0.823111
O O4 0.858139 0.008384 0.669145
O O5 0.869725 0.750000 0.485522
O O6 0.573154 0.976883 0.372337
O O7 0.935695 0.993271 0.551355
O O8 0.000000 0.000000 0.500000
O O9 0.238022 0.250000 0.104321
O O10 0.433006 0.019447 0.145226
O O11 0.244743 0.018892 0.150585
O O12 0.000000 0.000000 0.000000
O O13 0.718422 0.250000 0.727145
O O14 0.779426 0.992686 0.712927
O O15 0.860501 0.005108 0.816742
O O16 0.870679 0.250000 0.563117
O O17 0.578634 0.475465 0.464371
O O18 0.279854 0.250000 0.352055
O O19 0.950588 0.750000 0.887080
O O20 0.202752 0.995957 0.995947
O O21 0.571191 0.750000 0.903305
#
# Coordination Sequence:
#
# PCOD9159918 Si02
#       8
#     4   4   4   4   4   4   4   4
#     4  11  22  36  55  81 111 142 176 223 276 323
#     4  10  21  36  56  82 115 149 183 224 269 316
#     4   8  16  30  49  72 100 133 171 212 255 303
#     4  10  21  37  56  80 108 143 183 223 268 322
#     4   9  20  37  57  81 110 143 181 221 267 323
#     4  10  20  37  59  81 105 138 179 224 271 324
#     4  10  19  34  56  81 108 143 183 223 268 320
#     4  10  20  35  53  78 111 145 182 224 267 317
#
# _framework density 18.340070999999998
#
# number of rings (size 3 to 8) (size 9 to 14) (size 15 to 20)
#    0.000    2.250    0.000    2.625    0.000    5.000 
#    0.000    3.125    0.000    0.000    0.000    0.000 
#    0.000    0.000    0.000    0.000    0.000    0.000 
#
# Total GULP energy -178526.422814 kJ/mol
# GULP energy per Si atom -5578.950713 kJ/mol
# Density = 1.829833 g / cm^3
# Si number density = 18.340071 Si / 1000 Ang^3
#
#
#
# Elastic Constant Matrix: (Units=GPa)
#
#
# Indices 1 2 3 4 5 6 
#
# 1 115.6734 25.8211 45.1914 0.0000 -3.8998 0.0000
# 2 25.8211 33.4168 19.9077 0.0000 -1.0924 0.0000
# 3 45.1914 19.9077 65.8908 0.0000 -16.2959 0.0000
# 4 0.0000 0.0000 0.0000 24.2450 0.0000 -1.2945
# 5 -3.8998 -1.0924 -16.2959 0.0000 28.5665 0.0000
# 6 0.0000 0.0000 0.0000 -1.2945 0.0000 33.0590
#
#
#
# Elastic Compliance Matrix: (Units=1/GPa)
#
#
# Indices 1 2 3 4 5 6 
#
# 1 0.012824 -0.005278 -0.007937 0.000000 -0.002979 0.000000
# 2 -0.005278 0.039480 -0.009446 0.000000 -0.004599 0.000000
# 3 -0.007937 -0.009446 0.026914 0.000000 0.013909 0.000000
# 4 0.000000 0.000000 0.000000 0.041332 0.000000 0.001618
# 5 -0.002979 -0.004599 0.013909 0.000000 0.042358 0.000000
# 6 0.000000 0.000000 0.000000 0.001618 0.000000 0.030312
#
#
# Mechanical properties :
#
#
# Convention : Reuss Voigt Hill
#
# Bulk Modulus (GPa) = 29.50197 44.09125 36.79661
# Shear Modulus (GPa) = 20.01275 25.44482 22.72878
#
# Velocity S-wave (km/s) = 3.30692 3.72881 3.52418
# Velocity P-wave (km/s) = 5.54093 6.52930 6.05532
#
# Compressibility (1/GPa) = 0.03389604
#
# Stress axis : x y z
#
# Youngs Moduli (GPa) = 77.98068 25.32925 37.15498
#
# Poissons Ratio (x) = 0.13368 0.29491
# Poissons Ratio (y) = 0.41155 0.35096
# Poissons Ratio (z) = 0.61897 0.23926
#
# Static dielectric constant tensor:
#      x y z
#    x 1.636460 0.000000 0.001050 
#    y 0.000000 1.608460 0.000000 
#    z 0.001050 0.000000 1.614530 
# 
# From -- ./inp_files/51417.got.cif
#   From: 2010.05.17/outbox.cif.g08.bks.cpg/sg11_26_cif.got.tgz:51417.got - 2010.06.03 12:22:45.
