data_PCOD9159759
_publ_section_title
;
Structure prediction by ZEFSAII (Michael W. Deem and Ramdas Pophale) SiO2 
 PCOD9159759
Probable space group: P 21/M
;
_chemical_formula_sum "Si O2"
_cell_formula_units_Z 32
_cell_length_a 14.776419
_cell_length_b 8.147452
_cell_length_c 28.937612
_cell_angle_alpha 90.000000
_cell_angle_beta 150.684314
_cell_angle_gamma 90.000000
_cell_volume 1705.744168
_symmetry_space_group_name_H-M "P 21/M"
_symmetry_group_IT_number 11
_symmetry_cell_setting 'monoclinic'
loop_
_space_group_symop_operation_xyz
x,y,z
-x,1/2+y,-z
-x,-y,-z
x,1/2-y,z
loop_
_atom_site_type_symbol
_atom_site_label
_atom_site_fract_x
_atom_site_fract_y
_atom_site_fract_z
Si Si1 0.737958 0.556194 0.409144
Si Si2 0.285422 0.949117 0.792259
Si Si3 0.197493 0.939806 0.106272
Si Si4 0.121713 0.553007 0.622932
Si Si5 0.647446 0.560511 0.730426
Si Si6 0.288412 0.948714 0.895859
Si Si7 0.025672 0.550735 0.862328
Si Si8 0.682863 0.555373 0.933641
O O1 0.759629 0.750000 0.413181
O O2 0.741156 0.484066 0.358702
O O3 0.550971 0.523597 0.353823
O O4 0.920278 0.491378 0.516771
O O5 0.268001 0.750000 0.784445
O O6 0.184002 0.010450 0.700828
O O7 0.229861 0.006419 0.818508
O O8 0.502285 0.985939 0.882734
O O9 0.189938 0.750000 0.116996
O O10 0.267172 0.044432 0.180167
O O11 0.324937 0.962631 0.118255
O O12 0.000000 0.000000 0.000000
O O13 0.112077 0.750000 0.622551
O O14 0.615768 0.750000 0.704835
O O15 0.812414 0.495146 0.771145
O O16 0.285972 0.750000 0.895075
O O17 0.145181 0.004776 0.871463
O O18 0.500000 0.000000 0.000000
O O19 0.023627 0.750000 0.862243
O O20 0.137513 0.491547 0.957076
O O21 0.683946 0.750000 0.924822
#
# Coordination Sequence:
#
# PCOD9159759 Si02
#       8
#     4   4   4   4   4   4   4   4
#     4  10  20  34  55  82 107 137 176 220 269 320
#     4   9  18  32  53  78 103 134 172 215 268 322
#     4  12  23  34  48  71 103 139 176 214 255 308
#     4   9  18  35  57  80 108 139 173 217 269 326
#     4  11  22  36  52  72 102 144 181 217 265 314
#     4  10  19  34  53  76 103 136 178 222 267 317
#     4  10  21  34  50  71 101 139 179 217 259 311
#     4  11  20  31  50  75 104 139 174 212 260 312
#
# _framework density 18.760138999999999
#
# number of rings (size 3 to 8) (size 9 to 14) (size 15 to 20)
#    0.000    1.750    2.500    3.000    0.000    2.000 
#    0.000    1.250    0.000    0.750    0.000    0.000 
#    0.000    0.000    0.000    0.000    0.000    0.500 
#
# Total GULP energy -178589.233242 kJ/mol
# GULP energy per Si atom -5580.913539 kJ/mol
# Density = 1.871744 g / cm^3
# Si number density = 18.760139 Si / 1000 Ang^3
#
#
#
# Elastic Constant Matrix: (Units=GPa)
#
#
# Indices 1 2 3 4 5 6 
#
# 1 129.7548 1.4137 44.1450 0.0000 5.1541 0.0000
# 2 1.4137 13.9809 1.6832 0.0000 0.7666 0.0000
# 3 44.1450 1.6832 81.4911 0.0000 5.1152 0.0000
# 4 0.0000 0.0000 0.0000 18.6504 0.0000 3.6095
# 5 5.1541 0.7666 5.1152 0.0000 29.4331 0.0000
# 6 0.0000 0.0000 0.0000 3.6095 0.0000 17.9129
#
#
#
# Elastic Compliance Matrix: (Units=1/GPa)
#
#
# Indices 1 2 3 4 5 6 
#
# 1 0.009467 -0.000304 -0.005074 0.000000 -0.000768 0.000000
# 2 -0.000304 0.071792 -0.001217 0.000000 -0.001605 0.000000
# 3 -0.005074 -0.001217 0.015153 0.000000 -0.001713 0.000000
# 4 0.000000 0.000000 0.000000 0.055794 0.000000 -0.011243
# 5 -0.000768 -0.001605 -0.001713 0.000000 0.034449 0.000000
# 6 0.000000 0.000000 0.000000 -0.011243 0.000000 0.058091
#
#
# Mechanical properties :
#
#
# Convention : Reuss Voigt Hill
#
# Bulk Modulus (GPa) = 12.01633 35.52341 23.76987
# Shear Modulus (GPa) = 17.50232 25.06494 21.28363
#
# Velocity S-wave (km/s) = 3.05774 3.65920 3.37191
# Velocity P-wave (km/s) = 4.34575 6.06875 5.27803
#
# Compressibility (1/GPa) = 0.08322007
#
# Stress axis : x y z
#
# Youngs Moduli (GPa) = 105.63131 13.92922 65.99551
#
# Poissons Ratio (x) = 0.00424 0.33485
# Poissons Ratio (y) = 0.03214 0.08034
# Poissons Ratio (z) = 0.53596 0.01696
#
# Static dielectric constant tensor:
#      x y z
#    x 1.688190 0.000000 0.019550 
#    y 0.000000 1.663710 0.000000 
#    z 0.019550 0.000000 1.655350 
# 
# From -- ./inp_files/73329.got.cif
#   From: 2010.05.17/outbox.cif.g08.bks.cpg/sg11_37_cif.got.tgz:73329.got - 2010.06.03 12:22:45.
