data_PCOD9159632
_publ_section_title
;
Structure prediction by ZEFSAII (Michael W. Deem and Ramdas Pophale) SiO2 
 PCOD9159632
Probable space group: P 21/M
;
_chemical_formula_sum "Si O2"
_cell_formula_units_Z 28
_cell_length_a 10.534271
_cell_length_b 8.672764
_cell_length_c 30.990807
_cell_angle_alpha 90.000000
_cell_angle_beta 33.460287
_cell_angle_gamma 90.000000
_cell_volume 1561.094755
_symmetry_space_group_name_H-M "P 21/M"
_symmetry_group_IT_number 11
_symmetry_cell_setting 'monoclinic'
loop_
_space_group_symop_operation_xyz
x,y,z
-x,1/2+y,-z
-x,-y,-z
x,1/2-y,z
loop_
_atom_site_type_symbol
_atom_site_label
_atom_site_fract_x
_atom_site_fract_y
_atom_site_fract_z
Si Si1 0.597702 0.562203 0.756107
Si Si2 0.641822 0.566779 0.580994
Si Si3 0.157796 0.067000 0.737113
Si Si4 0.636679 0.064985 0.002513
Si Si5 0.129078 0.564573 0.842054
Si Si6 0.299545 0.063539 0.175794
Si Si7 0.070918 0.435323 0.413749
O O1 0.596700 0.750000 0.756052
O O2 0.353706 0.513876 0.805118
O O3 0.636471 0.512527 0.794119
O O4 0.802193 0.514488 0.665838
O O5 0.607287 0.750000 0.588923
O O6 0.398288 0.483106 0.647593
O O7 0.828321 0.513513 0.492979
O O8 0.758939 0.529933 0.594248
O O9 0.145316 0.250000 0.744710
O O10 0.148604 0.993124 0.787417
O O11 0.940735 0.005519 0.771966
O O12 0.644012 0.250000 0.997364
O O13 0.495552 0.022003 0.085451
O O14 0.500000 0.000000 0.000000
O O15 0.893557 0.999256 0.928647
O O16 0.122121 0.750000 0.843506
O O17 0.280229 0.250000 0.181115
O O18 0.040294 0.250000 0.421726
#
# Coordination Sequence:
#
# PCOD9159632 Si02
#       7
#     4   4   4   4   4   4   4
#     4   9  19  38  61  85 114 152 191 232 287 343
#     4  10  19  33  56  86 116 147 188 233 284 336
#     4  12  23  36  57  86 116 149 194 239 282 336
#     4  11  22  36  57  86 117 150 194 239 284 335
#     4  11  21  37  61  86 114 150 191 237 287 340
#     4  10  22  40  61  82 113 154 192 234 288 343
#     4   9  17  33  56  84 116 147 185 233 283 335
#
# _framework density 17.936129999999999
#
# number of rings (size 3 to 8) (size 9 to 14) (size 15 to 20)
#    0.000    1.714    2.857    2.571    0.000    1.714 
#    0.000    2.857    0.000    0.000    0.000    0.000 
#    0.000    0.000    0.000    0.000    0.000    0.000 
#
# Total GULP energy -156398.496930 kJ/mol
# GULP energy per Si atom -5585.660605 kJ/mol
# Density = 1.789531 g / cm^3
# Si number density = 17.936130 Si / 1000 Ang^3
#
#
#
# Elastic Constant Matrix: (Units=GPa)
#
#
# Indices 1 2 3 4 5 6 
#
# 1 141.7113 34.8543 90.9855 0.0000 5.6461 0.0000
# 2 34.8543 39.0907 42.8452 0.0000 -0.7385 0.0000
# 3 90.9855 42.8452 173.6581 0.0000 0.6251 0.0000
# 4 0.0000 0.0000 0.0000 32.0078 0.0000 -4.3824
# 5 5.6461 -0.7385 0.6251 0.0000 30.1173 0.0000
# 6 0.0000 0.0000 0.0000 -4.3824 0.0000 8.1234
#
#
#
# Elastic Compliance Matrix: (Units=1/GPa)
#
#
# Indices 1 2 3 4 5 6 
#
# 1 0.011421 -0.005036 -0.004733 0.000000 -0.002166 0.000000
# 2 -0.005036 0.037316 -0.006576 0.000000 0.001996 0.000000
# 3 -0.004733 -0.006576 0.009859 0.000000 0.000522 0.000000
# 4 0.000000 0.000000 0.000000 0.033734 0.000000 0.018199
# 5 -0.002166 0.001996 0.000522 0.000000 0.033648 0.000000
# 6 0.000000 0.000000 0.000000 0.018199 0.000000 0.132919
#
#
# Mechanical properties :
#
#
# Convention : Reuss Voigt Hill
#
# Bulk Modulus (GPa) = 38.60047 76.87002 57.73525
# Shear Modulus (GPa) = 16.65437 26.43470 21.54454
#
# Velocity S-wave (km/s) = 3.05050 3.84321 3.46957
# Velocity P-wave (km/s) = 5.82882 7.91482 6.95052
#
# Compressibility (1/GPa) = 0.02590642
#
# Stress axis : x y z
#
# Youngs Moduli (GPa) = 87.56155 26.79789 101.43145
#
# Poissons Ratio (x) = 0.13495 0.48011
# Poissons Ratio (y) = 0.44094 0.66696
# Poissons Ratio (z) = 0.41446 0.17621
#
# Static dielectric constant tensor:
#      x y z
#    x 1.587680 0.000000 0.007060 
#    y 0.000000 1.609350 0.000000 
#    z 0.007060 0.000000 1.605350 
# 
# From -- ./inp_files/72712.got.cif
#   From: 2010.05.17/outbox.cif.g08.bks.cpg/sg11_37_cif.got.tgz:72712.got - 2010.06.03 12:22:45.
