data_PCOD9159326
_publ_section_title
;
Structure prediction by ZEFSAII (Michael W. Deem and Ramdas Pophale) SiO2 
 PCOD9159326
Probable space group: P 21/M
;
_chemical_formula_sum "Si O2"
_cell_formula_units_Z 28
_cell_length_a 13.757702
_cell_length_b 10.092534
_cell_length_c 10.109763
_cell_angle_alpha 90.000000
_cell_angle_beta 110.669441
_cell_angle_gamma 90.000000
_cell_volume 1313.385927
_symmetry_space_group_name_H-M "P 21/M"
_symmetry_group_IT_number 11
_symmetry_cell_setting 'monoclinic'
loop_
_space_group_symop_operation_xyz
x,y,z
-x,1/2+y,-z
-x,-y,-z
x,1/2-y,z
loop_
_atom_site_type_symbol
_atom_site_label
_atom_site_fract_x
_atom_site_fract_y
_atom_site_fract_z
Si Si1 0.994019 0.598546 0.199478
Si Si2 0.719513 0.601362 0.274160
Si Si3 0.483960 0.521411 0.708782
Si Si4 0.646964 0.106117 0.587675
Si Si5 0.835750 0.409714 0.514297
Si Si6 0.850284 0.097445 0.975916
Si Si7 0.677888 0.601948 0.943001
O O1 0.950426 0.750000 0.182127
O O2 0.051998 0.571590 0.365685
O O3 0.914408 0.485974 0.116325
O O4 0.080148 0.599217 0.123368
O O5 0.753929 0.750000 0.325403
O O6 0.604613 0.575397 0.279063
O O7 0.800077 0.494028 0.370990
O O8 0.703545 0.591953 0.109887
O O9 0.418683 0.614744 0.580327
O O10 0.569341 0.458842 0.652639
O O11 0.555372 0.583447 0.856595
O O12 0.675756 0.250000 0.654088
O O13 0.753212 0.042316 0.587504
O O14 0.821904 0.250000 0.488439
O O15 0.831066 0.250000 0.005352
O O16 0.746124 0.012077 0.907222
O O17 0.706714 0.750000 0.909304
#
# Coordination Sequence:
#
# PCOD9159326 Si02
#       7
#     4   4   4   4   4   4   4
#     4   9  18  36  60  85 113 140 168 214 274 327
#     4  10  22  37  53  77 108 143 186 229 265 309
#     4  10  19  33  53  76 105 143 183 218 263 319
#     4   9  17  30  50  79 110 136 169 216 265 316
#     4   9  18  34  56  80 108 142 176 214 267 324
#     4  10  21  36  57  86 112 137 175 219 266 324
#     4  11  23  38  54  75 108 148 185 223 267 314
#
# _framework density 21.318943999999998
#
# number of rings (size 3 to 8) (size 9 to 14) (size 15 to 20)
#    0.000    2.286    0.000    2.571    0.000    4.571 
#    0.000    5.714    0.000    0.000    0.000    0.000 
#    0.000    0.000    0.000    0.000    0.000    0.000 
#
# Total GULP energy -156146.241839 kJ/mol
# GULP energy per Si atom -5576.651494 kJ/mol
# Density = 2.127042 g / cm^3
# Si number density = 21.318944 Si / 1000 Ang^3
#
#
#
# Elastic Constant Matrix: (Units=GPa)
#
#
# Indices 1 2 3 4 5 6 
#
# 1 53.8065 25.3112 16.8646 0.0000 14.7823 0.0000
# 2 25.3112 117.2738 49.5067 0.0000 16.2916 0.0000
# 3 16.8646 49.5067 109.0672 0.0000 29.6015 0.0000
# 4 0.0000 0.0000 0.0000 12.8454 0.0000 4.8866
# 5 14.7823 16.2916 29.6015 0.0000 37.1400 0.0000
# 6 0.0000 0.0000 0.0000 4.8866 0.0000 19.3910
#
#
#
# Elastic Compliance Matrix: (Units=1/GPa)
#
#
# Indices 1 2 3 4 5 6 
#
# 1 0.022378 -0.003943 0.000354 0.000000 -0.007459 0.000000
# 2 -0.003943 0.011274 -0.004583 0.000000 0.000277 0.000000
# 3 0.000354 -0.004583 0.013637 0.000000 -0.008999 0.000000
# 4 0.000000 0.000000 0.000000 0.086104 0.000000 -0.021698
# 5 -0.007459 0.000277 -0.008999 0.000000 0.036945 0.000000
# 6 0.000000 0.000000 0.000000 -0.021698 0.000000 0.057039
#
#
# Mechanical properties :
#
#
# Convention : Reuss Voigt Hill
#
# Bulk Modulus (GPa) = 32.31490 51.50138 41.90814
# Shear Modulus (GPa) = 19.68227 26.43961 23.06094
#
# Velocity S-wave (km/s) = 3.04176 3.52546 3.29251
# Velocity P-wave (km/s) = 5.24664 6.38606 5.84419
#
# Compressibility (1/GPa) = 0.03094548
#
# Stress axis : x y z
#
# Youngs Moduli (GPa) = 44.68597 88.69708 73.33207
#
# Poissons Ratio (x) = 0.34975 -0.02597
# Poissons Ratio (y) = 0.17620 0.33607
# Poissons Ratio (z) = -0.01582 0.40649
#
# Static dielectric constant tensor:
#      x y z
#    x 1.785950 0.000000 -0.002900 
#    y 0.000000 1.767170 0.000000 
#    z -0.002900 0.000000 1.805030 
# 
# From -- ./inp_files/21625.got.cif
#   From: 2010.05.17/outbox.cif.g08.bks.cpg/sg11_11_cif.got.tgz:21625.got - 2010.06.03 12:22:45.
