data_PCOD9159116
_publ_section_title
;
Structure prediction by ZEFSAII (Michael W. Deem and Ramdas Pophale) SiO2 
 PCOD9159116
Probable space group: P 21/M
;
_chemical_formula_sum "Si O2"
_cell_formula_units_Z 30
_cell_length_a 5.181517
_cell_length_b 11.997853
_cell_length_c 24.171929
_cell_angle_alpha 90.000000
_cell_angle_beta 111.036177
_cell_angle_gamma 90.000000
_cell_volume 1402.549347
_symmetry_space_group_name_H-M "P 21/M"
_symmetry_group_IT_number 11
_symmetry_cell_setting 'monoclinic'
loop_
_space_group_symop_operation_xyz
x,y,z
-x,1/2+y,-z
-x,-y,-z
x,1/2-y,z
loop_
_atom_site_type_symbol
_atom_site_label
_atom_site_fract_x
_atom_site_fract_y
_atom_site_fract_z
Si Si1 0.590044 0.874327 0.570331
Si Si2 0.122113 0.377574 0.197418
Si Si3 0.758255 0.121733 0.277487
Si Si4 0.179663 0.984415 0.923683
Si Si5 0.402891 0.459646 0.642831
Si Si6 0.334302 0.750000 0.364116
Si Si7 0.859831 0.086602 0.550649
Si Si8 0.763419 0.624392 0.974327
O O1 0.695298 0.750000 0.583323
O O2 0.297347 0.872292 0.515542
O O3 0.552130 0.936580 0.625222
O O4 0.781390 0.956709 0.549920
O O5 0.058281 0.250000 0.173795
O O6 0.451054 0.387443 0.227851
O O7 0.982811 0.390404 0.246660
O O8 0.990339 0.464628 0.144897
O O9 0.777891 0.250000 0.301297
O O10 0.770029 0.021304 0.322460
O O11 0.497760 0.950665 0.938883
O O12 0.027685 0.905573 0.957454
O O13 0.173820 0.100363 0.956356
O O14 0.581674 0.352365 0.672267
O O15 0.187384 0.405101 0.581811
O O16 0.255368 0.654028 0.405469
O O17 0.681904 0.750000 0.957953
#
# Coordination Sequence:
#
# PCOD9159116 Si02
#       8
#     4   4   4   4   4   2   4   4
#     4  10  21  36  57  86 115 142 179 227 292 358
#     4  10  20  37  59  85 120 152 193 244 289 343
#     4  10  23  39  62  89 114 149 194 252 302 340
#     4  10  20  33  56  86 118 159 196 234 290 347
#     4  11  23  39  60  83 110 149 191 241 289 352
#     4  10  22  38  62  80 110 148 188 236 282 350
#     4  10  21  39  57  83 113 146 180 230 288 357
#     4  10  19  32  54  87 122 155 194 237 284 346
#
# _framework density 21.389620000000001
#
# number of rings (size 3 to 8) (size 9 to 14) (size 15 to 20)
#    0.000    1.867    0.667    3.200    3.733    2.133 
#    0.000    0.000    2.933    0.000    0.000    0.000 
#    0.000    0.000    0.000    0.000    0.000    0.000 
#
# Total GULP energy -167003.000724 kJ/mol
# GULP energy per Si atom -5566.766691 kJ/mol
# Density = 2.134094 g / cm^3
# Si number density = 21.389620 Si / 1000 Ang^3
#
#
#
# Elastic Constant Matrix: (Units=GPa)
#
#
# Indices 1 2 3 4 5 6 
#
# 1 65.4685 2.1408 9.5454 0.0000 5.8532 0.0000
# 2 2.1408 112.9786 8.8723 0.0000 -9.9507 0.0000
# 3 9.5454 8.8723 61.0241 0.0000 10.3571 0.0000
# 4 0.0000 0.0000 0.0000 25.3597 0.0000 -7.9356
# 5 5.8532 -9.9507 10.3571 0.0000 28.7797 0.0000
# 6 0.0000 0.0000 0.0000 -7.9356 0.0000 9.4362
#
#
#
# Elastic Compliance Matrix: (Units=1/GPa)
#
#
# Indices 1 2 3 4 5 6 
#
# 1 0.015810 -0.000377 -0.001971 0.000000 -0.002637 0.000000
# 2 -0.000377 0.009370 -0.001987 0.000000 0.004031 0.000000
# 3 -0.001971 -0.001987 0.018141 0.000000 -0.006815 0.000000
# 4 0.000000 0.000000 0.000000 0.053516 0.000000 0.045006
# 5 -0.002637 0.004031 -0.006815 0.000000 0.039129 0.000000
# 6 0.000000 0.000000 0.000000 0.045006 0.000000 0.143823
#
#
# Mechanical properties :
#
#
# Convention : Reuss Voigt Hill
#
# Bulk Modulus (GPa) = 28.86020 31.17649 30.01834
# Shear Modulus (GPa) = 16.66616 27.30930 21.98773
#
# Velocity S-wave (km/s) = 2.79439 3.57705 3.20966
# Velocity P-wave (km/s) = 4.89218 5.62739 5.27261
#
# Compressibility (1/GPa) = 0.03464980
#
# Stress axis : x y z
#
# Youngs Moduli (GPa) = 63.25153 106.72890 55.12438
#
# Poissons Ratio (x) = 0.04024 0.10863
# Poissons Ratio (y) = 0.02385 0.10956
# Poissons Ratio (z) = 0.12465 0.21212
#
# Static dielectric constant tensor:
#      x y z
#    x 1.838870 0.000000 0.011060 
#    y 0.000000 1.779360 0.000000 
#    z 0.011060 0.000000 1.810470 
# 
# From -- ./inp_files/9550.got.cif
#   From: 2010.05.17/outbox.cif.g08.bks.cpg/sg11_5_cif.got.tgz:9550.got - 2010.06.03 12:22:45.
