data_PCOD9159440
_publ_section_title
;
Structure prediction by ZEFSAII (Michael W. Deem and Ramdas Pophale) SiO2 
 PCOD9159440
Probable space group: P 21/M
;
_chemical_formula_sum "Si O2"
_cell_formula_units_Z 32
_cell_length_a 12.452650
_cell_length_b 7.780226
_cell_length_c 14.844827
_cell_angle_alpha 90.000000
_cell_angle_beta 87.562380
_cell_angle_gamma 90.000000
_cell_volume 1436.931193
_symmetry_space_group_name_H-M "P 21/M"
_symmetry_group_IT_number 11
_symmetry_cell_setting 'monoclinic'
loop_
_space_group_symop_operation_xyz
x,y,z
-x,1/2+y,-z
-x,-y,-z
x,1/2-y,z
loop_
_atom_site_type_symbol
_atom_site_label
_atom_site_fract_x
_atom_site_fract_y
_atom_site_fract_z
Si Si1 0.878152 0.943763 0.020051
Si Si2 0.751037 0.051722 0.853031
Si Si3 0.573400 0.456229 0.582672
Si Si4 0.524167 0.461225 0.785845
Si Si5 0.814476 0.458384 0.528039
Si Si6 0.845135 0.458575 0.320833
Si Si7 0.707082 0.951886 0.162799
Si Si8 0.081920 0.450504 0.296393
O O1 0.890345 0.750000 0.051922
O O2 0.813983 0.954192 0.928791
O O3 0.798948 0.031791 0.095556
O O4 0.000000 0.000000 0.000000
O O5 0.741742 0.250000 0.882025
O O6 0.632829 0.985235 0.832642
O O7 0.824738 0.044178 0.761312
O O8 0.500000 0.500000 0.500000
O O9 0.577937 0.250000 0.587824
O O10 0.530763 0.517742 0.681069
O O11 0.695169 0.515982 0.561414
O O12 0.524303 0.250000 0.785452
O O13 0.413738 0.522509 0.834920
O O14 0.819223 0.250000 0.531424
O O15 0.834884 0.511636 0.424922
O O16 0.897203 0.529312 0.598156
O O17 0.841011 0.250000 0.318300
O O18 0.751426 0.530602 0.262248
O O19 0.961920 0.513156 0.279796
O O20 0.696736 0.750000 0.139837
O O21 0.088296 0.250000 0.272110
#
# Coordination Sequence:
#
# PCOD9159440 Si02
#       8
#     4   4   4   4   4   4   4   4
#     4  11  24  42  64  93 122 153 195 244 295 356
#     4  11  22  40  65  88 117 159 196 242 302 357
#     4  10  19  33  54  80 112 153 197 241 285 341
#     4   9  19  38  60  84 116 154 195 239 293 351
#     4  10  20  36  55  80 115 156 198 241 295 352
#     4  10  22  37  55  83 120 155 194 246 297 347
#     4  10  22  40  62  86 116 152 194 241 292 353
#     4  11  22  36  56  85 119 155 198 248 293 348
#
# _framework density 22.269680999999999
#
# number of rings (size 3 to 8) (size 9 to 14) (size 15 to 20)
#    0.000    1.750    1.250    3.000    0.000    5.500 
#    0.000    1.250    0.000    0.000    0.000    0.000 
#    0.000    0.000    0.000    0.000    0.000    0.000 
#
# Total GULP energy -178848.168055 kJ/mol
# GULP energy per Si atom -5589.005252 kJ/mol
# Density = 2.221899 g / cm^3
# Si number density = 22.269681 Si / 1000 Ang^3
#
#
#
# Elastic Constant Matrix: (Units=GPa)
#
#
# Indices 1 2 3 4 5 6 
#
# 1 177.5235 8.4345 37.6697 0.0000 -13.4071 0.0000
# 2 8.4345 29.5039 -10.2355 0.0000 -9.1533 0.0000
# 3 37.6697 -10.2355 73.4016 0.0000 -5.8045 0.0000
# 4 0.0000 0.0000 0.0000 17.7848 0.0000 0.6902
# 5 -13.4071 -9.1533 -5.8045 0.0000 35.7590 0.0000
# 6 0.0000 0.0000 0.0000 0.6902 0.0000 3.4622
#
#
#
# Elastic Compliance Matrix: (Units=1/GPa)
#
#
# Indices 1 2 3 4 5 6 
#
# 1 0.006643 -0.002825 -0.003711 0.000000 0.001165 0.000000
# 2 -0.002825 0.040782 0.007981 0.000000 0.010675 0.000000
# 3 -0.003711 0.007981 0.016910 0.000000 0.003396 0.000000
# 4 0.000000 0.000000 0.000000 0.056666 0.000000 -0.011297
# 5 0.001165 0.010675 0.003396 0.000000 0.031686 0.000000
# 6 0.000000 0.000000 0.000000 -0.011297 0.000000 0.291086
#
#
# Mechanical properties :
#
#
# Convention : Reuss Voigt Hill
#
# Bulk Modulus (GPa) = 14.87555 39.12959 27.00257
# Shear Modulus (GPa) = 10.79238 27.70521 19.24879
#
# Velocity S-wave (km/s) = 2.20380 3.53097 2.94317
# Velocity P-wave (km/s) = 3.62903 5.85087 4.86839
#
# Compressibility (1/GPa) = 0.06722440
#
# Stress axis : x y z
#
# Youngs Moduli (GPa) = 150.54163 24.52062 59.13825
#
# Poissons Ratio (x) = 0.06927 0.21945
# Poissons Ratio (y) = 0.42526 -0.47197
# Poissons Ratio (z) = 0.55863 -0.19569
#
# Static dielectric constant tensor:
#      x y z
#    x 1.824100 0.000000 -0.034910 
#    y 0.000000 1.841280 0.000000 
#    z -0.034910 0.000000 1.814490 
# 
# From -- ./inp_files/49387.got.cif
#   From: 2010.05.17/outbox.cif.g08.bks.cpg/sg11_25_cif.got.tgz:49387.got - 2010.06.03 12:22:45.
