data_PCOD9159473
_publ_section_title
;
Structure prediction by ZEFSAII (Michael W. Deem and Ramdas Pophale) SiO2 
 PCOD9159473
Probable space group: P 21/M
;
_chemical_formula_sum "Si O2"
_cell_formula_units_Z 28
_cell_length_a 15.285274
_cell_length_b 8.778526
_cell_length_c 15.221962
_cell_angle_alpha 90.000000
_cell_angle_beta 138.574393
_cell_angle_gamma 90.000000
_cell_volume 1351.424655
_symmetry_space_group_name_H-M "P 21/M"
_symmetry_group_IT_number 11
_symmetry_cell_setting 'monoclinic'
loop_
_space_group_symop_operation_xyz
x,y,z
-x,1/2+y,-z
-x,-y,-z
x,1/2-y,z
loop_
_atom_site_type_symbol
_atom_site_label
_atom_site_fract_x
_atom_site_fract_y
_atom_site_fract_z
Si Si1 0.284106 0.570670 0.714937
Si Si2 0.610761 0.569081 0.385580
Si Si3 0.882146 0.932802 0.661135
Si Si4 0.935930 0.924879 0.344918
Si Si5 0.948071 0.566602 0.052055
Si Si6 0.646907 0.566606 0.863553
Si Si7 0.648871 0.574688 0.060950
O O1 0.290705 0.750000 0.705164
O O2 0.332845 0.482217 0.666794
O O3 0.136145 0.517636 0.631251
O O4 0.371424 0.524685 0.866537
O O5 0.595967 0.750000 0.375844
O O6 0.726843 0.525892 0.540741
O O7 0.467985 0.492730 0.286166
O O8 0.893497 0.750000 0.671261
O O9 0.949213 0.994844 0.622397
O O10 0.960662 0.003962 0.801077
O O11 0.965831 0.750000 0.391281
O O12 0.810671 0.918010 0.182671
O O13 0.952908 0.750000 0.055338
O O14 0.000000 0.500000 0.000000
O O15 0.794866 0.519908 0.950320
O O16 0.642342 0.750000 0.862942
O O17 0.614384 0.514403 0.938892
O O18 0.605435 0.750000 0.040749
#
# Coordination Sequence:
#
# PCOD9159473 Si02
#       7
#     4   4   4   4   4   4   4
#     4  10  19  33  54  83 115 161 214 254 298 352
#     4  11  25  40  56  84 125 165 203 249 299 357
#     4  11  23  40  62  90 122 159 202 247 301 358
#     4   9  17  33  56  82 116 156 201 254 301 341
#     4  11  23  43  72 101 124 148 190 242 295 360
#     4  10  21  40  63  89 120 157 198 245 300 357
#     4   8  16  33  55  81 115 153 200 254 298 339
#
# _framework density 20.718878
#
# number of rings (size 3 to 8) (size 9 to 14) (size 15 to 20)
#    0.857    1.143    1.429    2.571    0.000    5.143 
#    0.000    0.714    0.000    0.000    0.000    0.000 
#    0.000    0.000    0.000    0.000    0.000    0.000 
#
# Total GULP energy -156359.856150 kJ/mol
# GULP energy per Si atom -5584.280577 kJ/mol
# Density = 2.067172 g / cm^3
# Si number density = 20.718878 Si / 1000 Ang^3
#
#
#
# Elastic Constant Matrix: (Units=GPa)
#
#
# Indices 1 2 3 4 5 6 
#
# 1 90.1046 19.5770 58.5827 0.0000 6.2872 0.0000
# 2 19.5770 41.5374 31.7715 0.0000 6.6935 0.0000
# 3 58.5827 31.7715 142.2745 0.0000 24.8377 0.0000
# 4 0.0000 0.0000 0.0000 31.2466 0.0000 4.1170
# 5 6.2872 6.6935 24.8377 0.0000 25.7752 0.0000
# 6 0.0000 0.0000 0.0000 4.1170 0.0000 27.7947
#
#
#
# Elastic Compliance Matrix: (Units=1/GPa)
#
#
# Indices 1 2 3 4 5 6 
#
# 1 0.015637 -0.003050 -0.006288 0.000000 0.003037 0.000000
# 2 -0.003050 0.029681 -0.004997 0.000000 -0.002148 0.000000
# 3 -0.006288 -0.004997 0.012310 0.000000 -0.009031 0.000000
# 4 0.000000 0.000000 0.000000 0.032640 0.000000 -0.004835
# 5 0.003037 -0.002148 -0.009031 0.000000 0.047317 0.000000
# 6 0.000000 0.000000 0.000000 -0.004835 0.000000 0.036694
#
#
# Mechanical properties :
#
#
# Convention : Reuss Voigt Hill
#
# Bulk Modulus (GPa) = 34.53240 54.86431 44.69835
# Shear Modulus (GPa) = 23.51820 27.89567 25.70694
#
# Velocity S-wave (km/s) = 3.37279 3.67330 3.52625
# Velocity P-wave (km/s) = 5.64544 6.67298 6.18060
#
# Compressibility (1/GPa) = 0.02895831
#
# Stress axis : x y z
#
# Youngs Moduli (GPa) = 63.95085 33.69208 81.23331
#
# Poissons Ratio (x) = 0.10275 0.51078
# Poissons Ratio (y) = 0.19504 0.40594
# Poissons Ratio (z) = 0.40211 0.16837
#
# Static dielectric constant tensor:
#      x y z
#    x 1.732630 0.000000 0.057040 
#    y 0.000000 1.691320 0.000000 
#    z 0.057040 0.000000 1.873040 
# 
# From -- ./inp_files/51975.got.cif
#   From: 2010.05.17/outbox.cif.g08.bks.cpg/sg11_26_cif.got.tgz:51975.got - 2010.06.03 12:22:45.
