data_PCOD9159823
_publ_section_title
;
Structure prediction by ZEFSAII (Michael W. Deem and Ramdas Pophale) SiO2 
 PCOD9159823
Probable space group: P 21/M
;
_chemical_formula_sum "Si O2"
_cell_formula_units_Z 32
_cell_length_a 7.159107
_cell_length_b 18.597785
_cell_length_c 17.159493
_cell_angle_alpha 90.000000
_cell_angle_beta 52.258437
_cell_angle_gamma 90.000000
_cell_volume 1806.675058
_symmetry_space_group_name_H-M "P 21/M"
_symmetry_group_IT_number 11
_symmetry_cell_setting 'monoclinic'
loop_
_space_group_symop_operation_xyz
x,y,z
-x,1/2+y,-z
-x,-y,-z
x,1/2-y,z
loop_
_atom_site_type_symbol
_atom_site_label
_atom_site_fract_x
_atom_site_fract_y
_atom_site_fract_z
Si Si1 0.898033 0.663710 0.879611
Si Si2 0.185680 0.164625 0.277591
Si Si3 0.295764 0.911107 0.583764
Si Si4 0.336441 0.419505 0.758750
Si Si5 0.228012 0.666000 0.313042
Si Si6 0.609424 0.412512 0.257761
Si Si7 0.354709 0.166299 0.899031
Si Si8 0.214726 0.077575 0.618284
O O1 0.937210 0.750000 0.869246
O O2 0.806800 0.644509 0.816474
O O3 0.145484 0.624059 0.831054
O O4 0.719208 0.646362 0.995310
O O5 0.214935 0.250000 0.276888
O O6 0.387802 0.124964 0.274170
O O7 0.925279 0.140874 0.371765
O O8 0.388633 0.904382 0.648973
O O9 0.521326 0.899042 0.472236
O O10 0.204092 0.993297 0.598574
O O11 0.581266 0.375741 0.682866
O O12 0.390075 0.502769 0.760251
O O13 0.235115 0.382018 0.862284
O O14 0.186593 0.415526 0.718529
O O15 0.204688 0.750000 0.338454
O O16 0.367501 0.660798 0.193956
O O17 0.982916 0.624871 0.372554
O O18 0.290382 0.250000 0.903276
#
# Coordination Sequence:
#
# PCOD9159823 Si02
#       8
#     4   4   4   4   4   4   4   4
#     4   9  18  35  54  74 104 136 173 214 255 304
#     4  10  20  35  54  76 103 135 173 215 259 305
#     4   9  21  36  54  77 104 134 174 218 254 299
#     4   9  19  34  53  76 108 134 168 213 254 302
#     4   9  19  34  52  75 106 137 169 210 252 302
#     4  10  19  34  55  77 103 136 173 214 257 306
#     4   8  17  36  53  73 107 137 164 214 260 297
#     4  10  19  36  57  75 100 142 176 204 257 314
#
# _framework density 17.712095000000001
#
# number of rings (size 3 to 8) (size 9 to 14) (size 15 to 20)
#    0.750    2.000    0.000    1.125    0.000    3.500 
#    2.250    5.625    0.000    0.000    0.000    0.000 
#    0.000    0.000    0.000    0.000    0.000    0.000 
#
# Total GULP energy -178145.771023 kJ/mol
# GULP energy per Si atom -5567.055344 kJ/mol
# Density = 1.767178 g / cm^3
# Si number density = 17.712095 Si / 1000 Ang^3
#
#
#
# Elastic Constant Matrix: (Units=GPa)
#
#
# Indices 1 2 3 4 5 6 
#
# 1 47.0320 28.8106 -1.6314 0.0000 -2.5226 0.0000
# 2 28.8106 47.4883 10.0682 0.0000 0.1118 0.0000
# 3 -1.6314 10.0682 48.6297 0.0000 -0.1557 0.0000
# 4 0.0000 0.0000 0.0000 18.5233 0.0000 0.2888
# 5 -2.5226 0.1118 -0.1557 0.0000 8.3703 0.0000
# 6 0.0000 0.0000 0.0000 0.2888 0.0000 23.7142
#
#
#
# Elastic Compliance Matrix: (Units=1/GPa)
#
#
# Indices 1 2 3 4 5 6 
#
# 1 0.036438 -0.023428 0.006109 0.000000 0.011408 0.000000
# 2 -0.023428 0.037090 -0.008490 0.000000 -0.007714 0.000000
# 3 0.006109 -0.008490 0.022534 0.000000 0.002374 0.000000
# 4 0.000000 0.000000 0.000000 0.053996 0.000000 -0.000658
# 5 0.011408 -0.007714 0.002374 0.000000 0.123055 0.000000
# 6 0.000000 0.000000 0.000000 -0.000658 0.000000 0.042177
#
#
# Mechanical properties :
#
#
# Convention : Reuss Voigt Hill
#
# Bulk Modulus (GPa) = 22.50028 24.18276 23.34152
# Shear Modulus (GPa) = 13.09858 17.18174 15.14016
#
# Velocity S-wave (km/s) = 2.72238 3.11795 2.92685
# Velocity P-wave (km/s) = 4.75528 5.16188 4.96275
#
# Compressibility (1/GPa) = 0.04444389
#
# Stress axis : x y z
#
# Youngs Moduli (GPa) = 27.44422 26.96177 44.37784
#
# Poissons Ratio (x) = 0.63167 -0.27112
# Poissons Ratio (y) = 0.64297 0.37675
# Poissons Ratio (z) = -0.16767 0.22889
#
# Static dielectric constant tensor:
#      x y z
#    x 1.573070 0.000000 0.012610 
#    y 0.000000 1.597070 0.000000 
#    z 0.012610 0.000000 1.623820 
# 
# From -- ./inp_files/57214.got.cif
#   From: 2010.05.17/outbox.cif.g08.bks.cpg/sg11_29_cif.got.tgz:57214.got - 2010.06.03 12:22:45.
