data_PCOD9159712
_publ_section_title
;
Structure prediction by ZEFSAII (Michael W. Deem and Ramdas Pophale) SiO2 
 PCOD9159712
Probable space group: P 21/M
;
_chemical_formula_sum "Si O2"
_cell_formula_units_Z 32
_cell_length_a 15.767966
_cell_length_b 13.571945
_cell_length_c 22.366203
_cell_angle_alpha 90.000000
_cell_angle_beta 18.497434
_cell_angle_gamma 90.000000
_cell_volume 1518.547354
_symmetry_space_group_name_H-M "P 21/M"
_symmetry_group_IT_number 11
_symmetry_cell_setting 'monoclinic'
loop_
_space_group_symop_operation_xyz
x,y,z
-x,1/2+y,-z
-x,-y,-z
x,1/2-y,z
loop_
_atom_site_type_symbol
_atom_site_label
_atom_site_fract_x
_atom_site_fract_y
_atom_site_fract_z
Si Si1 0.445780 0.861303 0.779079
Si Si2 0.018984 0.866053 0.617813
Si Si3 0.582149 0.862926 0.555524
Si Si4 0.540261 0.868478 0.846921
Si Si5 0.367512 0.134958 0.803085
Si Si6 0.893258 0.064003 0.200004
Si Si7 0.193097 0.356700 0.782271
Si Si8 0.936184 0.507869 0.790529
O O1 0.555587 0.750000 0.703040
O O2 0.495458 0.900717 0.679603
O O3 0.561668 0.901753 0.763398
O O4 0.127737 0.853426 0.999896
O O5 0.022964 0.750000 0.632116
O O6 0.812999 0.877924 0.701254
O O7 0.322445 0.891290 0.396375
O O8 0.924766 0.930535 0.737175
O O9 0.671795 0.750000 0.498649
O O10 0.328128 0.867661 0.681712
O O11 0.819805 0.932307 0.377459
O O12 0.464830 0.750000 0.898099
O O13 0.319659 0.939848 0.023863
O O14 0.329666 0.250000 0.846111
O O15 0.303109 0.130295 0.775560
O O16 0.154370 0.071851 0.982717
O O17 0.757740 0.955545 0.286663
O O18 0.993584 0.078044 0.200134
O O19 0.286735 0.250000 0.696120
#
# Coordination Sequence:
#
# PCOD9159712 Si02
#       8
#     4   4   4   4   4   4   4   4
#     4   9  18  36  63  91 118 154 200 256 309 354
#     4  10  24  44  64  88 123 165 210 260 308 360
#     4  11  24  41  61  94 132 163 201 254 311 371
#     4  10  21  43  68  90 121 162 211 262 307 358
#     4  10  21  39  63  88 117 158 206 258 314 366
#     4  12  23  37  61  93 126 166 201 248 309 372
#     4  10  19  33  59  90 121 156 199 252 310 365
#     4  12  25  39  61  92 126 170 210 245 304 372
#
# _framework density 21.072769999999998
#
# number of rings (size 3 to 8) (size 9 to 14) (size 15 to 20)
#    0.000    1.500    2.500    2.625    1.750    1.500 
#    0.000    5.000    0.000    3.000    0.000    0.000 
#    0.000    0.000    0.000    0.000    0.000    0.000 
#
# Total GULP energy -178785.715138 kJ/mol
# GULP energy per Si atom -5587.053598 kJ/mol
# Density = 2.102481 g / cm^3
# Si number density = 21.072770 Si / 1000 Ang^3
#
#
#
# Elastic Constant Matrix: (Units=GPa)
#
#
# Indices 1 2 3 4 5 6 
#
# 1 126.2498 34.0961 58.7690 0.0000 -21.1522 0.0000
# 2 34.0961 86.9658 22.4270 0.0000 0.0370 0.0000
# 3 58.7690 22.4270 55.7688 0.0000 -12.4037 0.0000
# 4 0.0000 0.0000 0.0000 24.5998 0.0000 -8.2234
# 5 -21.1522 0.0370 -12.4037 0.0000 25.1193 0.0000
# 6 0.0000 0.0000 0.0000 -8.2234 0.0000 50.2793
#
#
#
# Elastic Compliance Matrix: (Units=1/GPa)
#
#
# Indices 1 2 3 4 5 6 
#
# 1 0.016825 -0.002689 -0.015162 0.000000 0.006685 0.000000
# 2 -0.002689 0.013448 -0.003462 0.000000 -0.003994 0.000000
# 3 -0.015162 -0.003462 0.036467 0.000000 0.005245 0.000000
# 4 0.000000 0.000000 0.000000 0.043002 0.000000 0.007033
# 5 0.006685 -0.003994 0.005245 0.000000 0.048035 0.000000
# 6 0.000000 0.000000 0.000000 0.007033 0.000000 0.021039
#
#
# Mechanical properties :
#
#
# Convention : Reuss Voigt Hill
#
# Bulk Modulus (GPa) = 41.47049 55.50763 48.48906
# Shear Modulus (GPa) = 21.78837 30.24583 26.01710
#
# Velocity S-wave (km/s) = 3.21901 3.79265 3.51754
# Velocity P-wave (km/s) = 5.79124 6.75108 6.28949
#
# Compressibility (1/GPa) = 0.02411353
#
# Stress axis : x y z
#
# Youngs Moduli (GPa) = 59.43603 74.36211 27.42179
#
# Poissons Ratio (x) = 0.19998 0.41576
# Poissons Ratio (y) = 0.15984 0.09494
# Poissons Ratio (z) = 0.90115 0.25746
#
# Static dielectric constant tensor:
#      x y z
#    x 1.746860 0.000000 0.021950 
#    y 0.000000 1.851870 0.000000 
#    z 0.021950 0.000000 1.727710 
# 
# From -- ./inp_files/55027.got.cif
#   From: 2010.05.17/outbox.cif.g08.bks.cpg/sg11_28_cif.got.tgz:55027.got - 2010.06.03 12:22:45.
