data_PCOD9159032
_publ_section_title
;
Structure prediction by ZEFSAII (Michael W. Deem and Ramdas Pophale) SiO2 
 PCOD9159032
Probable space group: P 21/M
;
_chemical_formula_sum "Si O2"
_cell_formula_units_Z 28
_cell_length_a 29.241548
_cell_length_b 7.819089
_cell_length_c 9.919469
_cell_angle_alpha 90.000000
_cell_angle_beta 39.180940
_cell_angle_gamma 90.000000
_cell_volume 1432.863942
_symmetry_space_group_name_H-M "P 21/M"
_symmetry_group_IT_number 11
_symmetry_cell_setting 'monoclinic'
loop_
_space_group_symop_operation_xyz
x,y,z
-x,1/2+y,-z
-x,-y,-z
x,1/2-y,z
loop_
_atom_site_type_symbol
_atom_site_label
_atom_site_fract_x
_atom_site_fract_y
_atom_site_fract_z
Si Si1 0.099145 0.955810 0.883343
Si Si2 0.301278 0.044937 0.747250
Si Si3 0.055059 0.042978 0.680012
Si Si4 0.740231 0.455865 0.446520
Si Si5 0.818424 0.948180 0.786099
Si Si6 0.583577 0.954224 0.298181
Si Si7 0.296380 0.951092 0.172530
O O1 0.099385 0.750000 0.893825
O O2 0.176903 0.020119 0.753709
O O3 0.088405 0.998021 0.749949
O O4 0.027891 0.019134 0.124751
O O5 0.299107 0.250000 0.767164
O O6 0.368982 0.983765 0.681865
O O7 0.303687 0.005390 0.585054
O O8 0.227040 0.975462 0.985649
O O9 0.054341 0.250000 0.673324
O O10 0.107263 0.976138 0.442477
O O11 0.742250 0.250000 0.445700
O O12 0.709355 0.513246 0.661173
O O13 0.833353 0.750000 0.784505
O O14 0.761143 0.956560 0.793219
O O15 0.589470 0.750000 0.278740
O O16 0.500000 0.000000 0.500000
O O17 0.625063 0.025605 0.072843
O O18 0.277263 0.750000 0.213075
#
# Coordination Sequence:
#
# PCOD9159032 Si02
#       7
#     4   4   4   4   4   4   4
#     4   9  17  29  44  69 102 133 170 219 264 303
#     4   9  20  35  52  74 104 135 168 208 251 303
#     4   9  16  27  47  70  96 132 174 220 267 306
#     4  10  20  33  49  74 107 139 174 212 256 305
#     4   9  17  31  49  73  99 132 178 222 261 306
#     4  10  21  39  61  85 107 131 165 205 248 301
#     4  10  19  32  53  79 105 136 171 211 251 298
#
# _framework density 19.541283
#
# number of rings (size 3 to 8) (size 9 to 14) (size 15 to 20)
#    0.000    2.571    1.429    1.714    0.000    4.571 
#    0.000    1.429    0.000    0.000    0.000    0.000 
#    0.000    0.000    0.000    0.000    0.000    0.000 
#
# Total GULP energy -156120.259725 kJ/mol
# GULP energy per Si atom -5575.723562 kJ/mol
# Density = 1.949681 g / cm^3
# Si number density = 19.541283 Si / 1000 Ang^3
#
#
#
# Elastic Constant Matrix: (Units=GPa)
#
#
# Indices 1 2 3 4 5 6 
#
# 1 71.3373 -3.8233 46.3390 0.0000 2.7402 0.0000
# 2 -3.8233 27.7718 -7.4226 0.0000 -1.7602 0.0000
# 3 46.3390 -7.4226 97.1033 0.0000 -4.9945 0.0000
# 4 0.0000 0.0000 0.0000 18.9194 0.0000 3.9826
# 5 2.7402 -1.7602 -4.9945 0.0000 31.5405 0.0000
# 6 0.0000 0.0000 0.0000 3.9826 0.0000 12.4532
#
#
#
# Elastic Compliance Matrix: (Units=1/GPa)
#
#
# Indices 1 2 3 4 5 6 
#
# 1 0.020668 -0.000053 -0.010041 0.000000 -0.003389 0.000000
# 2 -0.000053 0.036958 0.002981 0.000000 0.002539 0.000000
# 3 -0.010041 0.002981 0.015498 0.000000 0.003493 0.000000
# 4 0.000000 0.000000 0.000000 0.056671 0.000000 -0.018124
# 5 -0.003389 0.002539 0.003493 0.000000 0.032694 0.000000
# 6 0.000000 0.000000 0.000000 -0.018124 0.000000 0.086097
#
#
# Mechanical properties :
#
#
# Convention : Reuss Voigt Hill
#
# Bulk Modulus (GPa) = 16.97889 29.59985 23.28937
# Shear Modulus (GPa) = 17.70257 23.32391 20.51324
#
# Velocity S-wave (km/s) = 3.01309 3.45856 3.24348
# Velocity P-wave (km/s) = 4.56208 5.57934 5.09616
#
# Compressibility (1/GPa) = 0.05889667
#
# Stress axis : x y z
#
# Youngs Moduli (GPa) = 48.38441 27.05769 64.52580
#
# Poissons Ratio (x) = 0.00144 0.64792
# Poissons Ratio (y) = 0.00257 -0.19236
# Poissons Ratio (z) = 0.48584 -0.08066
#
# Static dielectric constant tensor:
#      x y z
#    x 1.663250 0.000000 -0.013260 
#    y 0.000000 1.716350 0.000000 
#    z -0.013260 0.000000 1.717000 
# 
# From -- ./inp_files/28449.got.cif
#   From: 2010.05.17/outbox.cif.g08.bks.cpg/sg11_15_cif.got.tgz:28449.got - 2010.06.03 12:22:45.
