data_PCOD9159867
_publ_section_title
;
Structure prediction by ZEFSAII (Michael W. Deem and Ramdas Pophale) SiO2 
 PCOD9159867
Probable space group: P 21/M
;
_chemical_formula_sum "Si O2"
_cell_formula_units_Z 32
_cell_length_a 25.247853
_cell_length_b 13.382581
_cell_length_c 5.620850
_cell_angle_alpha 90.000000
_cell_angle_beta 50.462229
_cell_angle_gamma 90.000000
_cell_volume 1464.657971
_symmetry_space_group_name_H-M "P 21/M"
_symmetry_group_IT_number 11
_symmetry_cell_setting 'monoclinic'
loop_
_space_group_symop_operation_xyz
x,y,z
-x,1/2+y,-z
-x,-y,-z
x,1/2-y,z
loop_
_atom_site_type_symbol
_atom_site_label
_atom_site_fract_x
_atom_site_fract_y
_atom_site_fract_z
Si Si1 0.164199 0.365523 0.026098
Si Si2 0.181617 0.634608 0.464263
Si Si3 0.556948 0.460008 0.155993
Si Si4 0.368222 0.862628 0.683468
Si Si5 0.754568 0.063882 0.234726
Si Si6 0.081135 0.022781 0.621753
Si Si7 0.014424 0.365071 0.205941
Si Si8 0.515942 0.644996 0.019798
O O1 0.186772 0.250000 0.953298
O O2 0.219776 0.449815 0.798887
O O3 0.138844 0.403374 0.355745
O O4 0.090873 0.372176 0.097586
O O5 0.160797 0.750000 0.510626
O O6 0.211095 0.604451 0.115276
O O7 0.119923 0.556326 0.677987
O O8 0.226950 0.620901 0.573766
O O9 0.500000 0.500000 0.500000
O O10 0.625031 0.426847 0.096416
O O11 0.561952 0.550482 0.954261
O O12 0.518324 0.369250 0.138692
O O13 0.341477 0.750000 0.799830
O O14 0.447016 0.853681 0.375855
O O15 0.324300 0.917348 0.608981
O O16 0.042646 0.945992 0.550521
O O17 0.027476 0.096558 0.899763
O O18 0.992544 0.250000 0.290616
O O19 0.552800 0.750000 0.939062
#
# Coordination Sequence:
#
# PCOD9159867 Si02
#       8
#     4   4   4   4   4   4   4   4
#     4  10  21  39  59  80 112 158 201 246 298 359
#     4  11  22  39  58  85 122 157 195 246 308 358
#     4   9  18  33  53  83 116 151 191 236 288 344
#     4  10  20  34  56  85 116 151 192 237 291 346
#     4  11  24  40  59  90 120 160 201 249 295 361
#     4  10  20  34  56  83 113 146 198 249 302 363
#     4  10  19  34  55  81 111 148 194 247 307 364
#     4   9  18  33  56  84 116 152 191 237 291 346
#
# _framework density 21.848103999999999
#
# number of rings (size 3 to 8) (size 9 to 14) (size 15 to 20)
#    0.000    2.000    1.250    2.625    1.750    0.500 
#    0.000    0.625    0.000    3.750    0.000    0.000 
#    0.000    0.000    0.000    0.000    0.000    0.000 
#
# Total GULP energy -178148.517622 kJ/mol
# GULP energy per Si atom -5567.141176 kJ/mol
# Density = 2.179838 g / cm^3
# Si number density = 21.848104 Si / 1000 Ang^3
#
#
#
# Elastic Constant Matrix: (Units=GPa)
#
#
# Indices 1 2 3 4 5 6 
#
# 1 126.5171 57.4576 2.0641 0.0000 25.2949 0.0000
# 2 57.4576 159.8692 5.6962 0.0000 8.2999 0.0000
# 3 2.0641 5.6962 36.6641 0.0000 8.7426 0.0000
# 4 0.0000 0.0000 0.0000 19.1650 0.0000 -1.9627
# 5 25.2949 8.2999 8.7426 0.0000 25.1739 0.0000
# 6 0.0000 0.0000 0.0000 -1.9627 0.0000 23.8330
#
#
#
# Elastic Compliance Matrix: (Units=1/GPa)
#
#
# Indices 1 2 3 4 5 6 
#
# 1 0.011901 -0.003768 0.002694 0.000000 -0.011651 0.000000
# 2 -0.003768 0.007567 -0.001386 0.000000 0.001773 0.000000
# 3 0.002694 -0.001386 0.030392 0.000000 -0.012804 0.000000
# 4 0.000000 0.000000 0.000000 0.052622 0.000000 0.004334
# 5 -0.011651 0.001773 -0.012804 0.000000 0.055293 0.000000
# 6 0.000000 0.000000 0.000000 0.004334 0.000000 0.042316
#
#
# Mechanical properties :
#
#
# Convention : Reuss Voigt Hill
#
# Bulk Modulus (GPa) = 22.25305 50.38734 36.32020
# Shear Modulus (GPa) = 22.72816 30.82320 26.77568
#
# Velocity S-wave (km/s) = 3.22884 3.76013 3.50457
# Velocity P-wave (km/s) = 4.90999 6.47797 5.74770
#
# Compressibility (1/GPa) = 0.04493766
#
# Stress axis : x y z
#
# Youngs Moduli (GPa) = 84.02666 132.15607 32.90386
#
# Poissons Ratio (x) = 0.49801 -0.08863
# Poissons Ratio (y) = 0.31664 0.04561
# Poissons Ratio (z) = -0.22635 0.18320
#
# Static dielectric constant tensor:
#      x y z
#    x 1.864290 0.000000 0.038030 
#    y 0.000000 1.765610 0.000000 
#    z 0.038030 0.000000 1.972240 
# 
# From -- ./inp_files/9351.got.cif
#   From: 2010.05.17/outbox.cif.g08.bks.cpg/sg11_5_cif.got.tgz:9351.got - 2010.06.03 12:22:45.
