data_PCOD9159439
_publ_section_title
;
Structure prediction by ZEFSAII (Michael W. Deem and Ramdas Pophale) SiO2 
 PCOD9159439
Probable space group: P 21/M
;
_chemical_formula_sum "Si O2"
_cell_formula_units_Z 24
_cell_length_a 16.464858
_cell_length_b 8.507395
_cell_length_c 11.961532
_cell_angle_alpha 90.000000
_cell_angle_beta 144.541257
_cell_angle_gamma 90.000000
_cell_volume 971.978537
_symmetry_space_group_name_H-M "P 21/M"
_symmetry_group_IT_number 11
_symmetry_cell_setting 'monoclinic'
loop_
_space_group_symop_operation_xyz
x,y,z
-x,1/2+y,-z
-x,-y,-z
x,1/2-y,z
loop_
_atom_site_type_symbol
_atom_site_label
_atom_site_fract_x
_atom_site_fract_y
_atom_site_fract_z
Si Si1 0.842848 0.566783 0.435194
Si Si2 0.966747 0.066337 0.780179
Si Si3 0.396167 0.068653 0.254635
Si Si4 0.204272 0.565444 0.203482
Si Si5 0.559736 0.439206 0.226982
Si Si6 0.732326 0.432463 0.098196
O O1 0.836846 0.750000 0.402883
O O2 0.960687 0.530637 0.659335
O O3 0.701606 0.510248 0.340197
O O4 0.841332 0.474043 0.316809
O O5 0.957605 0.250000 0.741033
O O6 0.835298 0.025159 0.713987
O O7 0.096494 0.031883 0.006195
O O8 0.394924 0.250000 0.284956
O O9 0.531212 0.036041 0.328537
O O10 0.353345 0.966471 0.312943
O O11 0.277264 0.036191 0.024570
O O12 0.173237 0.750000 0.157305
O O13 0.554998 0.250000 0.203556
O O14 0.422141 0.525947 0.023794
O O15 0.738650 0.250000 0.075170
#
# Coordination Sequence:
#
# PCOD9159439 Si02
#       6
#     4   4   4   4   4   4
#     4  12  22  34  53  81 113 143 182 224 267 316
#     4  10  22  38  58  81 107 141 179 223 270 317
#     4   9  19  34  56  81 108 144 181 218 263 320
#     4  10  20  38  61  82 105 137 181 224 268 321
#     4   9  19  34  53  80 111 146 181 216 264 318
#     4  10  19  33  54  80 111 146 180 217 266 318
#
# _framework density 24.691903
#
# number of rings (size 3 to 8) (size 9 to 14) (size 15 to 20)
#    1.000    1.000    0.000    5.000    0.000    2.000 
#    0.000    1.667    0.000    0.000    0.000    0.000 
#    0.000    0.000    0.000    0.000    0.000    0.000 
#
# Total GULP energy -134148.005341 kJ/mol
# GULP energy per Si atom -5589.500223 kJ/mol
# Density = 2.463570 g / cm^3
# Si number density = 24.691903 Si / 1000 Ang^3
#
#
#
# Elastic Constant Matrix: (Units=GPa)
#
#
# Indices 1 2 3 4 5 6 
#
# 1 95.1529 6.7109 6.1259 0.0000 -12.3618 0.0000
# 2 6.7109 66.8242 -0.2401 0.0000 -12.7970 0.0000
# 3 6.1259 -0.2401 81.6135 0.0000 -8.8139 0.0000
# 4 0.0000 0.0000 0.0000 24.6072 0.0000 -3.8122
# 5 -12.3618 -12.7970 -8.8139 0.0000 46.3594 0.0000
# 6 0.0000 0.0000 0.0000 -3.8122 0.0000 30.2374
#
#
#
# Elastic Compliance Matrix: (Units=1/GPa)
#
#
# Indices 1 2 3 4 5 6 
#
# 1 0.010930 -0.000592 -0.000536 0.000000 0.002649 0.000000
# 2 -0.000592 0.015854 0.000558 0.000000 0.004325 0.000000
# 3 -0.000536 0.000558 0.012554 0.000000 0.002398 0.000000
# 4 0.000000 0.000000 0.000000 0.041448 0.000000 0.005226
# 5 0.002649 0.004325 0.002398 0.000000 0.023927 0.000000
# 6 0.000000 0.000000 0.000000 0.005226 0.000000 0.033730
#
#
# Mechanical properties :
#
#
# Convention : Reuss Voigt Hill
#
# Bulk Modulus (GPa) = 26.17972 29.86487 28.02230
# Shear Modulus (GPa) = 32.82652 35.64039 34.23346
#
# Velocity S-wave (km/s) = 3.65011 3.80334 3.72751
# Velocity P-wave (km/s) = 5.32823 5.60432 5.46802
#
# Compressibility (1/GPa) = 0.03819750
#
# Stress axis : x y z
#
# Youngs Moduli (GPa) = 91.49266 63.07441 79.65770
#
# Poissons Ratio (x) = 0.03736 0.04270
# Poissons Ratio (y) = 0.05419 -0.04446
# Poissons Ratio (z) = 0.04904 -0.03520
#
# Static dielectric constant tensor:
#      x y z
#    x 2.107070 0.000000 0.112110 
#    y 0.000000 1.751410 0.000000 
#    z 0.112110 0.000000 2.087780 
# 
# From -- ./inp_files/42658.got.cif
#   From: 2010.05.17/outbox.cif.g08.bks.cpg/sg11_22_cif.got.tgz:42658.got - 2010.06.03 12:22:45.
