data_PCOD9159729
_publ_section_title
;
Structure prediction by ZEFSAII (Michael W. Deem and Ramdas Pophale) SiO2 
 PCOD9159729
Probable space group: P 21/M
;
_chemical_formula_sum "Si O2"
_cell_formula_units_Z 28
_cell_length_a 17.706665
_cell_length_b 15.025998
_cell_length_c 7.963187
_cell_angle_alpha 90.000000
_cell_angle_beta 144.954661
_cell_angle_gamma 90.000000
_cell_volume 1216.602495
_symmetry_space_group_name_H-M "P 21/M"
_symmetry_group_IT_number 11
_symmetry_cell_setting 'monoclinic'
loop_
_space_group_symop_operation_xyz
x,y,z
-x,1/2+y,-z
-x,-y,-z
x,1/2-y,z
loop_
_atom_site_type_symbol
_atom_site_label
_atom_site_fract_x
_atom_site_fract_y
_atom_site_fract_z
Si Si1 0.194525 0.514281 0.519907
Si Si2 0.514729 0.117531 0.762168
Si Si3 0.347160 0.652684 0.629168
Si Si4 0.247817 0.349768 0.127273
Si Si5 0.410564 0.416532 0.102458
Si Si6 0.934133 0.483965 0.195775
Si Si7 0.221006 0.850218 0.886712
O O1 0.242496 0.572120 0.449109
O O2 0.307208 0.442001 0.766315
O O3 0.051477 0.471333 0.276684
O O4 0.194966 0.587433 0.675060
O O5 0.620828 0.153706 0.822360
O O6 0.573646 0.142207 0.049927
O O7 0.368410 0.150552 0.475813
O O8 0.521497 0.012099 0.743634
O O9 0.284695 0.750000 0.506515
O O10 0.466779 0.644293 0.718356
O O11 0.193217 0.250000 0.010128
O O12 0.320105 0.381262 0.087352
O O13 0.144451 0.425685 0.985316
O O14 0.000000 0.500000 0.500000
O O15 0.839641 0.400911 0.065011
O O16 0.169865 0.750000 0.774533
#
# Coordination Sequence:
#
# PCOD9159729 Si02
#       7
#     4   4   4   4   4   4   4
#     4   9  17  33  50  73 107 142 185 219 267 327
#     4  10  19  35  54  79 115 145 181 226 283 336
#     4  10  19  34  57  83 106 144 190 226 273 333
#     4  12  22  33  54  88 115 142 181 236 287 325
#     4  10  19  35  56  79 112 144 181 232 278 328
#     4  10  19  34  48  77 111 144 181 226 270 328
#     4   9  16  29  50  73 102 142 181 221 270 327
#
# _framework density 23.014913
#
# number of rings (size 3 to 8) (size 9 to 14) (size 15 to 20)
#    0.000    2.286    4.286    5.143    0.000    2.857 
#    0.000    0.000    0.000    3.429    0.000    0.000 
#    0.000    0.000    0.000    0.000    0.000    0.000 
#
# Total GULP energy -156316.745950 kJ/mol
# GULP energy per Si atom -5582.740927 kJ/mol
# Density = 2.296253 g / cm^3
# Si number density = 23.014913 Si / 1000 Ang^3
#
#
#
# Elastic Constant Matrix: (Units=GPa)
#
#
# Indices 1 2 3 4 5 6 
#
# 1 74.5224 -2.7307 11.5318 0.0000 16.5793 0.0000
# 2 -2.7307 96.3739 -2.5771 0.0000 7.4698 0.0000
# 3 11.5318 -2.5771 43.4028 0.0000 10.9561 0.0000
# 4 0.0000 0.0000 0.0000 -14.5243 0.0000 -42.6887
# 5 16.5793 7.4698 10.9561 0.0000 38.0851 0.0000
# 6 0.0000 0.0000 0.0000 -42.6887 0.0000 -94.2739
#
#
#
# Elastic Compliance Matrix: (Units=1/GPa)
#
#
# Indices 1 2 3 4 5 6 
#
# 1 0.015178 0.000835 -0.002452 0.000000 -0.006066 0.000000
# 2 0.000835 0.010644 0.001110 0.000000 -0.002770 0.000000
# 3 -0.002452 0.001110 0.025386 0.000000 -0.006453 0.000000
# 4 0.000000 0.000000 0.000000 0.208079 0.000000 -0.094221
# 5 -0.006066 -0.002770 -0.006453 0.000000 0.031297 0.000000
# 6 0.000000 0.000000 0.000000 -0.094221 0.000000 0.032058
#
#
# Mechanical properties :
#
#
# Convention : Reuss Voigt Hill
#
# Bulk Modulus (GPa) = 19.92302 25.19412 22.55857
# Shear Modulus (GPa) = 14.68907 -0.27094 7.20907
#
# Velocity S-wave (km/s) = 2.52909 -0.34348 1.77176
# Velocity P-wave (km/s) = 4.14774 3.28836 3.74280
#
# Compressibility (1/GPa) = 0.05019319
#
# Stress axis : x y z
#
# Youngs Moduli (GPa) = 65.88367 93.94712 39.39129
#
# Poissons Ratio (x) = -0.07841 0.09659
# Poissons Ratio (y) = -0.05499 -0.04371
# Poissons Ratio (z) = 0.16155 -0.10424
#
# Static dielectric constant tensor:
#      x y z
#    x 1.913600 0.000000 -0.045060 
#    y 0.000000 1.901080 0.000000 
#    z -0.045060 0.000000 1.962830 
# 
# From -- ./inp_files/26939.got.cif
#   From: 2010.05.17/outbox.cif.g08.bks.cpg/sg11_14_cif.got.tgz:26939.got - 2010.06.03 12:22:45.
