data_PCOD9159175
_publ_section_title
;
Structure prediction by ZEFSAII (Michael W. Deem and Ramdas Pophale) SiO2 
 PCOD9159175
Probable space group: P 21/M
;
_chemical_formula_sum "Si O2"
_cell_formula_units_Z 24
_cell_length_a 17.810502
_cell_length_b 8.758994
_cell_length_c 14.394299
_cell_angle_alpha 90.000000
_cell_angle_beta 143.988872
_cell_angle_gamma 90.000000
_cell_volume 1320.248451
_symmetry_space_group_name_H-M "P 21/M"
_symmetry_group_IT_number 11
_symmetry_cell_setting 'monoclinic'
loop_
_space_group_symop_operation_xyz
x,y,z
-x,1/2+y,-z
-x,-y,-z
x,1/2-y,z
loop_
_atom_site_type_symbol
_atom_site_label
_atom_site_fract_x
_atom_site_fract_y
_atom_site_fract_z
Si Si1 0.146055 0.432043 0.038439
Si Si2 0.010429 0.066527 0.408152
Si Si3 0.753886 0.433016 0.043048
Si Si4 0.269623 0.434160 0.561120
Si Si5 0.863542 0.566617 0.758969
Si Si6 0.512080 0.567992 0.908542
O O1 0.151825 0.250000 0.033253
O O2 0.235454 0.510820 0.052100
O O3 0.000184 0.488270 0.878069
O O4 0.177894 0.470474 0.177531
O O5 0.009399 0.250000 0.411933
O O6 0.887494 0.020424 0.225095
O O7 0.142655 0.022437 0.491612
O O8 0.000000 0.000000 0.500000
O O9 0.743310 0.250000 0.035226
O O10 0.638341 0.505659 0.984311
O O11 0.286128 0.250000 0.584068
O O12 0.237152 0.473128 0.421788
O O13 0.391078 0.514686 0.726792
O O14 0.884725 0.750000 0.774634
O O15 0.516851 0.750000 0.919559
O O16 0.500000 0.500000 0.000000
#
# Coordination Sequence:
#
# PCOD9159175 Si02
#       6
#     4   4   4   4   4   4
#     4  10  19  32  57  91 122 154 193 242 293 348
#     4  10  21  35  56  83 112 144 189 240 290 343
#     4  11  22  40  61  85 117 157 197 241 294 350
#     4  10  20  39  61  84 115 156 197 242 293 346
#     4   9  18  35  58  86 121 157 196 239 292 350
#     4  12  26  43  61  86 117 156 200 242 294 356
#
# _framework density 18.178397
#
# number of rings (size 3 to 8) (size 9 to 14) (size 15 to 20)
#    0.000    1.667    1.667    3.500    0.000    6.000 
#    0.000    0.833    0.000    0.000    0.000    0.000 
#    0.000    0.000    0.000    0.000    0.000    0.000 
#
# Total GULP energy -134078.305552 kJ/mol
# GULP energy per Si atom -5586.596065 kJ/mol
# Density = 1.813702 g / cm^3
# Si number density = 18.178397 Si / 1000 Ang^3
#
#
#
# Elastic Constant Matrix: (Units=GPa)
#
#
# Indices 1 2 3 4 5 6 
#
# 1 141.9615 53.9388 47.5482 0.0000 -6.8770 0.0000
# 2 53.9388 61.1426 38.0565 0.0000 -1.8372 0.0000
# 3 47.5482 38.0565 80.0422 0.0000 -7.0133 0.0000
# 4 0.0000 0.0000 0.0000 24.5059 0.0000 -1.0043
# 5 -6.8770 -1.8372 -7.0133 0.0000 34.9356 0.0000
# 6 0.0000 0.0000 0.0000 -1.0043 0.0000 34.4151
#
#
#
# Elastic Compliance Matrix: (Units=1/GPa)
#
#
# Indices 1 2 3 4 5 6 
#
# 1 0.011051 -0.008086 -0.002613 0.000000 0.001226 0.000000
# 2 -0.008086 0.029181 -0.009239 0.000000 -0.001912 0.000000
# 3 -0.002613 -0.009239 0.018679 0.000000 0.002750 0.000000
# 4 0.000000 0.000000 0.000000 0.040855 0.000000 0.001192
# 5 0.001226 -0.001912 0.002750 0.000000 0.029317 0.000000
# 6 0.000000 0.000000 0.000000 0.001192 0.000000 0.029092
#
#
# Mechanical properties :
#
#
# Convention : Reuss Voigt Hill
#
# Bulk Modulus (GPa) = 52.53021 62.47036 57.50028
# Shear Modulus (GPa) = 24.46244 28.34484 26.40364
#
# Velocity S-wave (km/s) = 3.67234 3.95303 3.81527
# Velocity P-wave (km/s) = 6.85137 7.43472 7.14900
#
# Compressibility (1/GPa) = 0.01903666
#
# Stress axis : x y z
#
# Youngs Moduli (GPa) = 90.49035 34.26866 53.53607
#
# Poissons Ratio (x) = 0.27709 0.13988
# Poissons Ratio (y) = 0.73168 0.49460
# Poissons Ratio (z) = 0.23644 0.31659
#
# Static dielectric constant tensor:
#      x y z
#    x 1.613700 0.000000 -0.020380 
#    y 0.000000 1.616280 0.000000 
#    z -0.020380 0.000000 1.609860 
# 
# From -- ./inp_files/53338.got.cif
#   From: 2010.05.17/outbox.cif.g08.bks.cpg/sg11_27_cif.got.tgz:53338.got - 2010.06.03 12:22:45.
