data_PCOD9159345
_publ_section_title
;
Structure prediction by ZEFSAII (Michael W. Deem and Ramdas Pophale) SiO2 
 PCOD9159345
Probable space group: P 21/M
;
_chemical_formula_sum "Si O2"
_cell_formula_units_Z 28
_cell_length_a 31.660136
_cell_length_b 7.536508
_cell_length_c 10.469520
_cell_angle_alpha 90.000000
_cell_angle_beta 33.423136
_cell_angle_gamma 90.000000
_cell_volume 1375.997620
_symmetry_space_group_name_H-M "P 21/M"
_symmetry_group_IT_number 11
_symmetry_cell_setting 'monoclinic'
loop_
_space_group_symop_operation_xyz
x,y,z
-x,1/2+y,-z
-x,-y,-z
x,1/2-y,z
loop_
_atom_site_type_symbol
_atom_site_label
_atom_site_fract_x
_atom_site_fract_y
_atom_site_fract_z
Si Si1 0.334299 0.039880 0.167864
Si Si2 0.338372 0.964758 0.667947
Si Si3 0.091943 0.034218 0.136691
Si Si4 0.251276 0.040618 0.627494
Si Si5 0.764260 0.464964 0.832283
Si Si6 0.503271 0.963062 0.340793
Si Si7 0.076733 0.959198 0.473692
O O1 0.345574 0.250000 0.160957
O O2 0.294949 0.965022 0.394458
O O3 0.417815 0.966586 0.918644
O O4 0.278004 0.018408 0.189943
O O5 0.338606 0.750000 0.669392
O O6 0.285526 0.024354 0.919788
O O7 0.425118 0.027811 0.472498
O O8 0.302126 0.020953 0.625940
O O9 0.091447 0.250000 0.136784
O O10 0.009531 0.969674 0.293012
O O11 0.096811 0.980432 0.272994
O O12 0.166529 0.969112 0.873290
O O13 0.240271 0.250000 0.631002
O O14 0.765661 0.250000 0.832430
O O15 0.851434 0.530974 0.628222
O O16 0.503738 0.750000 0.326516
O O17 0.500000 0.000000 0.500000
O O18 0.072308 0.750000 0.512624
#
# Coordination Sequence:
#
# PCOD9159345 Si02
#       7
#     4   4   4   4   4   4   4
#     4  10  22  37  53  74 105 139 170 208 254 305
#     4  10  20  34  54  78 103 132 170 214 254 299
#     4   9  17  30  50  74 102 134 166 205 251 298
#     4  10  21  36  52  76 107 138 170 205 253 308
#     4  10  19  33  53  78 104 132 171 213 253 300
#     4  10  20  35  54  76 102 132 170 213 254 297
#     4   9  17  30  50  76 102 129 167 212 251 292
#
# _framework density 20.348872
#
# number of rings (size 3 to 8) (size 9 to 14) (size 15 to 20)
#    0.000    2.286    2.857    0.000    0.000    2.857 
#    0.000    0.714    0.000    0.000    0.000    0.000 
#    0.000    0.000    0.000    0.000    0.000    0.000 
#
# Total GULP energy -156294.499812 kJ/mol
# GULP energy per Si atom -5581.946422 kJ/mol
# Density = 2.030256 g / cm^3
# Si number density = 20.348872 Si / 1000 Ang^3
#
#
#
# Elastic Constant Matrix: (Units=GPa)
#
#
# Indices 1 2 3 4 5 6 
#
# 1 101.1566 -8.1902 103.9640 0.0000 -13.7967 0.0000
# 2 -8.1902 46.0238 -0.5855 0.0000 -5.6560 0.0000
# 3 103.9640 -0.5855 198.5989 0.0000 -18.2866 0.0000
# 4 0.0000 0.0000 0.0000 8.2655 0.0000 3.7273
# 5 -13.7967 -5.6560 -18.2866 0.0000 41.6196 0.0000
# 6 0.0000 0.0000 0.0000 3.7273 0.0000 22.5112
#
#
#
# Elastic Compliance Matrix: (Units=1/GPa)
#
#
# Indices 1 2 3 4 5 6 
#
# 1 0.022375 0.004201 -0.011428 0.000000 0.002967 0.000000
# 2 0.004201 0.022910 -0.001789 0.000000 0.003720 0.000000
# 3 -0.011428 -0.001789 0.011090 0.000000 0.000841 0.000000
# 4 0.000000 0.000000 0.000000 0.130747 0.000000 -0.021648
# 5 0.002967 0.003720 0.000841 0.000000 0.025886 0.000000
# 6 0.000000 0.000000 0.000000 -0.021648 0.000000 0.048007
#
#
# Mechanical properties :
#
#
# Convention : Reuss Voigt Hill
#
# Bulk Modulus (GPa) = 26.08005 59.57288 42.82647
# Shear Modulus (GPa) = 17.13347 31.18533 24.15940
#
# Velocity S-wave (km/s) = 2.90485 3.91901 3.44940
# Velocity P-wave (km/s) = 4.90868 7.05815 6.07917
#
# Compressibility (1/GPa) = 0.03834348
#
# Stress axis : x y z
#
# Youngs Moduli (GPa) = 44.69244 43.64928 90.17451
#
# Poissons Ratio (x) = -0.18337 1.03047
# Poissons Ratio (y) = -0.18776 0.16134
# Poissons Ratio (z) = 0.51072 0.07809
#
# Static dielectric constant tensor:
#      x y z
#    x 1.678970 0.000000 -0.039860 
#    y 0.000000 1.774010 0.000000 
#    z -0.039860 0.000000 1.739920 
# 
# From -- ./inp_files/28249.got.cif
#   From: 2010.05.17/outbox.cif.g08.bks.cpg/sg11_15_cif.got.tgz:28249.got - 2010.06.03 12:22:45.
