data_PCOD9159703
_publ_section_title
;
Structure prediction by ZEFSAII (Michael W. Deem and Ramdas Pophale) SiO2 
 PCOD9159703
Probable space group: P 21/M
;
_chemical_formula_sum "Si O2"
_cell_formula_units_Z 32
_cell_length_a 18.464880
_cell_length_b 21.505033
_cell_length_c 12.631443
_cell_angle_alpha 90.000000
_cell_angle_beta 160.910699
_cell_angle_gamma 90.000000
_cell_volume 1640.372033
_symmetry_space_group_name_H-M "P 21/M"
_symmetry_group_IT_number 11
_symmetry_cell_setting 'monoclinic'
loop_
_space_group_symop_operation_xyz
x,y,z
-x,1/2+y,-z
-x,-y,-z
x,1/2-y,z
loop_
_atom_site_type_symbol
_atom_site_label
_atom_site_fract_x
_atom_site_fract_y
_atom_site_fract_z
Si Si1 0.595896 0.181003 0.700732
Si Si2 0.285019 0.175642 0.615805
Si Si3 0.022236 0.176983 0.440476
Si Si4 0.206412 0.824909 0.667814
Si Si5 0.541420 0.937367 0.624690
Si Si6 0.247206 0.506215 0.392569
Si Si7 0.961605 0.091766 0.748553
Si Si8 0.210383 0.130455 0.299083
O O1 0.600129 0.250000 0.656950
O O2 0.561427 0.123685 0.573464
O O3 0.388679 0.176366 0.494712
O O4 0.811041 0.174053 0.070956
O O5 0.260591 0.250000 0.586419
O O6 0.214658 0.149661 0.633028
O O7 0.137218 0.152994 0.313333
O O8 0.541542 0.162069 0.950012
O O9 0.071549 0.250000 0.527530
O O10 0.955878 0.151782 0.462996
O O11 0.186100 0.750000 0.629018
O O12 0.152665 0.858878 0.484820
O O13 0.414207 0.950011 0.558510
O O14 0.500000 0.000000 0.500000
O O15 0.806550 0.928033 0.986027
O O16 0.327144 0.435733 0.486380
O O17 0.194963 0.533872 0.435740
O O18 0.000000 0.500000 0.000000
O O19 0.030570 0.120756 0.958330
#
# Coordination Sequence:
#
# PCOD9159703 Si02
#       8
#     4   4   4   4   4   4   4   4
#     4  10  19  33  58  91 118 144 196 256 293 339
#     4  10  20  35  60  86 113 152 198 245 298 351
#     4   9  19  34  57  82 111 158 198 237 300 355
#     4  10  21  40  58  82 124 161 190 240 304 362
#     4  11  20  37  60  86 117 163 195 234 299 359
#     4  10  20  37  57  86 116 161 196 236 296 361
#     4  10  23  36  58  90 115 155 200 240 292 360
#     4  10  19  35  61  88 114 150 194 245 291 345
#
# _framework density 19.507770000000001
#
# number of rings (size 3 to 8) (size 9 to 14) (size 15 to 20)
#    0.000    2.000    5.000    0.375    3.500    3.500 
#    0.000    1.250    0.000    3.750    0.000    0.000 
#    0.000    0.000    0.000    0.000    0.000    0.000 
#
# Total GULP energy -178216.475995 kJ/mol
# GULP energy per Si atom -5569.264875 kJ/mol
# Density = 1.946337 g / cm^3
# Si number density = 19.507770 Si / 1000 Ang^3
#
#
#
# Elastic Constant Matrix: (Units=GPa)
#
#
# Indices 1 2 3 4 5 6 
#
# 1 119.9267 28.2715 19.3473 0.0000 -2.2063 0.0000
# 2 28.2715 82.0357 17.7594 0.0000 -9.6647 0.0000
# 3 19.3473 17.7594 22.1714 0.0000 -2.5627 0.0000
# 4 0.0000 0.0000 0.0000 -13.9128 0.0000 20.3992
# 5 -2.2063 -9.6647 -2.5627 0.0000 22.7312 0.0000
# 6 0.0000 0.0000 0.0000 20.3992 0.0000 5.7587
#
#
#
# Elastic Compliance Matrix: (Units=1/GPa)
#
#
# Indices 1 2 3 4 5 6 
#
# 1 0.009946 -0.001949 -0.007196 0.000000 -0.000675 0.000000
# 2 -0.001949 0.015713 -0.010268 0.000000 0.005334 0.000000
# 3 -0.007196 -0.010268 0.059801 0.000000 0.001678 0.000000
# 4 0.000000 0.000000 0.000000 -0.011605 0.000000 0.041107
# 5 -0.000675 0.005334 0.001678 0.000000 0.046384 0.000000
# 6 0.000000 0.000000 0.000000 0.041107 0.000000 0.028036
#
#
# Mechanical properties :
#
#
# Convention : Reuss Voigt Hill
#
# Bulk Modulus (GPa) = 21.44401 39.43223 30.43812
# Shear Modulus (GPa) = 24.67328 13.49914 19.08621
#
# Velocity S-wave (km/s) = 3.56025 2.63342 3.13132
# Velocity P-wave (km/s) = 5.28365 5.43176 5.35821
#
# Compressibility (1/GPa) = 0.04663308
#
# Stress axis : x y z
#
# Youngs Moduli (GPa) = 100.53806 63.64154 16.72200
#
# Poissons Ratio (x) = 0.12407 0.12033
# Poissons Ratio (y) = 0.19600 0.17171
# Poissons Ratio (z) = 0.72347 0.65350
#
# Static dielectric constant tensor:
#      x y z
#    x 1.748180 0.000000 0.032990 
#    y 0.000000 1.725280 0.000000 
#    z 0.032990 0.000000 1.678390 
# 
# From -- ./inp_files/42034.got.cif
#   From: 2010.05.17/outbox.cif.g08.bks.cpg/sg11_22_cif.got.tgz:42034.got - 2010.06.03 12:22:45.
