data_PCOD9159330
_publ_section_title
;
Structure prediction by ZEFSAII (Michael W. Deem and Ramdas Pophale) SiO2 
 PCOD9159330
Probable space group: P 21/M
;
_chemical_formula_sum "Si O2"
_cell_formula_units_Z 32
_cell_length_a 31.940855
_cell_length_b 8.891120
_cell_length_c 12.326422
_cell_angle_alpha 90.000000
_cell_angle_beta 149.860803
_cell_angle_gamma 90.000000
_cell_volume 1757.650051
_symmetry_space_group_name_H-M "P 21/M"
_symmetry_group_IT_number 11
_symmetry_cell_setting 'monoclinic'
loop_
_space_group_symop_operation_xyz
x,y,z
-x,1/2+y,-z
-x,-y,-z
x,1/2-y,z
loop_
_atom_site_type_symbol
_atom_site_label
_atom_site_fract_x
_atom_site_fract_y
_atom_site_fract_z
Si Si1 0.591530 0.929839 0.692878
Si Si2 0.252137 0.068706 0.816874
Si Si3 0.279698 0.068589 0.638797
Si Si4 0.774131 0.431148 0.707546
Si Si5 0.471946 0.069286 0.050637
Si Si6 0.929039 0.069013 0.199586
Si Si7 0.626719 0.068670 0.544727
Si Si8 0.105963 0.570485 0.630771
O O1 0.583610 0.750000 0.673393
O O2 0.500000 0.000000 0.500000
O O3 0.631886 0.988676 0.671579
O O4 0.655535 0.970790 0.932580
O O5 0.246029 0.250000 0.807898
O O6 0.240709 0.021812 0.666307
O O7 0.183051 0.999044 0.739829
O O8 0.275888 0.250000 0.623621
O O9 0.377252 0.024732 0.861375
O O10 0.240200 0.000577 0.442313
O O11 0.771991 0.250000 0.694030
O O12 0.699380 0.473253 0.622781
O O13 0.861352 0.475015 0.958266
O O14 0.474720 0.250000 0.048037
O O15 0.538294 0.028152 0.291706
O O16 0.500000 0.000000 0.000000
O O17 0.939564 0.250000 0.219605
O O18 0.893804 0.031118 0.240534
O O19 0.018490 0.991826 0.389304
O O20 0.630067 0.250000 0.567546
O O21 0.108211 0.750000 0.627400
#
# Coordination Sequence:
#
# PCOD9159330 Si02
#       8
#     4   4   4   4   4   4   4   4
#     4  11  23  38  57  81 111 147 187 230 277 331
#     4  10  22  40  58  78 111 152 186 224 280 330
#     4  10  21  36  54  77 109 148 188 230 274 326
#     4  10  20  35  56  82 111 145 181 224 277 327
#     4  10  19  33  53  76 108 147 185 229 274 321
#     4   9  19  36  58  85 117 144 171 219 281 333
#     4  10  20  35  55  80 113 146 181 231 284 330
#     4  10  20  36  61  89 111 140 182 224 269 329
#
# _framework density 18.206126000000001
#
# number of rings (size 3 to 8) (size 9 to 14) (size 15 to 20)
#    0.000    2.000    1.250    2.250    0.000    6.500 
#    0.000    1.875    0.000    0.000    0.000    0.000 
#    0.000    0.000    0.000    0.000    0.000    0.000 
#
# Total GULP energy -178698.727462 kJ/mol
# GULP energy per Si atom -5584.335233 kJ/mol
# Density = 1.816469 g / cm^3
# Si number density = 18.206126 Si / 1000 Ang^3
#
#
#
# Elastic Constant Matrix: (Units=GPa)
#
#
# Indices 1 2 3 4 5 6 
#
# 1 105.9680 33.6879 60.7671 0.0000 -2.6584 0.0000
# 2 33.6879 19.7595 38.4579 0.0000 -1.9338 0.0000
# 3 60.7671 38.4579 134.1605 0.0000 -9.6789 0.0000
# 4 0.0000 0.0000 0.0000 26.7582 0.0000 -0.2780
# 5 -2.6584 -1.9338 -9.6789 0.0000 31.1202 0.0000
# 6 0.0000 0.0000 0.0000 -0.2780 0.0000 32.8628
#
#
#
# Elastic Compliance Matrix: (Units=1/GPa)
#
#
# Indices 1 2 3 4 5 6 
#
# 1 0.020771 -0.038673 0.001670 0.000000 -0.000109 0.000000
# 2 -0.038673 0.186789 -0.036242 0.000000 -0.002969 0.000000
# 3 0.001670 -0.036242 0.017323 0.000000 0.003278 0.000000
# 4 0.000000 0.000000 0.000000 0.037375 0.000000 0.000316
# 5 -0.000109 -0.002969 0.003278 0.000000 0.032959 0.000000
# 6 0.000000 0.000000 0.000000 0.000316 0.000000 0.030432
#
#
# Mechanical properties :
#
#
# Convention : Reuss Voigt Hill
#
# Bulk Modulus (GPa) = 12.75623 58.41263 35.58443
# Shear Modulus (GPa) = 10.03473 26.61324 18.32398
#
# Velocity S-wave (km/s) = 2.35025 3.82746 3.17594
# Velocity P-wave (km/s) = 3.79298 7.18932 5.74774
#
# Compressibility (1/GPa) = 0.07839308
#
# Stress axis : x y z
#
# Youngs Moduli (GPa) = 48.14433 5.35363 57.72769
#
# Poissons Ratio (x) = 0.20704 -0.09640
# Poissons Ratio (y) = 1.86190 2.09214
# Poissons Ratio (z) = -0.08040 0.19402
#
# Static dielectric constant tensor:
#      x y z
#    x 1.605950 0.000000 -0.003910 
#    y 0.000000 1.611260 0.000000 
#    z -0.003910 0.000000 1.623450 
# 
# From -- ./inp_files/42818.got.cif
#   From: 2010.05.17/outbox.cif.g08.bks.cpg/sg11_22_cif.got.tgz:42818.got - 2010.06.03 12:22:45.
