data_PCOD9159367
_publ_section_title
;
Structure prediction by ZEFSAII (Michael W. Deem and Ramdas Pophale) SiO2 
 PCOD9159367
Probable space group: P 21/M
;
_chemical_formula_sum "Si O2"
_cell_formula_units_Z 32
_cell_length_a 18.604294
_cell_length_b 14.000088
_cell_length_c 13.013459
_cell_angle_alpha 90.000000
_cell_angle_beta 150.929572
_cell_angle_gamma 90.000000
_cell_volume 1646.909014
_symmetry_space_group_name_H-M "P 21/M"
_symmetry_group_IT_number 11
_symmetry_cell_setting 'monoclinic'
loop_
_space_group_symop_operation_xyz
x,y,z
-x,1/2+y,-z
-x,-y,-z
x,1/2-y,z
loop_
_atom_site_type_symbol
_atom_site_label
_atom_site_fract_x
_atom_site_fract_y
_atom_site_fract_z
Si Si1 0.819696 0.642270 0.252272
Si Si2 0.360693 0.965568 0.891599
Si Si3 0.324724 0.362309 0.338307
Si Si4 0.892118 0.006824 0.704027
Si Si5 0.011642 0.862140 0.001418
Si Si6 0.407755 0.358816 0.215603
Si Si7 0.098432 0.639661 0.473554
Si Si8 0.433450 0.033108 0.670199
O O1 0.800878 0.750000 0.272431
O O2 0.746533 0.556837 0.224133
O O3 0.989832 0.626498 0.434925
O O4 0.734463 0.641932 0.036290
O O5 0.264046 0.885422 0.715550
O O6 0.435094 0.932718 0.091639
O O7 0.500000 0.000000 0.000000
O O8 0.355153 0.250000 0.378224
O O9 0.151335 0.372375 0.149776
O O10 0.363229 0.396636 0.272242
O O11 0.417005 0.411550 0.543163
O O12 0.942449 0.066842 0.668723
O O13 0.995762 0.921405 0.875538
O O14 0.728226 0.965160 0.480027
O O15 0.883356 0.081035 0.789099
O O16 0.044495 0.750000 0.030593
O O17 0.460272 0.250000 0.290523
O O18 0.525931 0.424777 0.307541
O O19 0.084075 0.750000 0.421529
#
# Coordination Sequence:
#
# PCOD9159367 Si02
#       8
#     4   4   4   4   4   4   4   4
#     4   9  20  38  60  84 109 143 188 238 287 340
#     4  11  22  39  56  82 117 149 191 240 290 338
#     4   9  17  31  51  74 103 140 181 223 275 339
#     4  10  19  33  53  79 111 144 187 238 285 342
#     4   9  18  32  52  78 109 144 184 232 285 342
#     4   9  17  30  51  78 106 136 176 225 278 338
#     4  11  22  37  60  84 109 149 198 241 287 338
#     4  10  20  33  50  75 112 143 184 227 285 335
#
# _framework density 19.430337999999999
#
# number of rings (size 3 to 8) (size 9 to 14) (size 15 to 20)
#    0.000    2.250    1.250    1.875    0.000    4.000 
#    0.000    0.625    0.000    0.750    0.000    0.000 
#    0.000    0.000    0.000    0.000    0.000    0.000 
#
# Total GULP energy -178467.204696 kJ/mol
# GULP energy per Si atom -5577.100147 kJ/mol
# Density = 1.938611 g / cm^3
# Si number density = 19.430338 Si / 1000 Ang^3
#
#
#
# Elastic Constant Matrix: (Units=GPa)
#
#
# Indices 1 2 3 4 5 6 
#
# 1 33.6727 2.6779 -9.2816 0.0000 -1.9302 0.0000
# 2 2.6779 58.9438 5.3680 0.0000 -4.1756 0.0000
# 3 -9.2816 5.3680 53.8422 0.0000 -0.1134 0.0000
# 4 0.0000 0.0000 0.0000 24.6480 0.0000 -3.7210
# 5 -1.9302 -4.1756 -0.1134 0.0000 23.3665 0.0000
# 6 0.0000 0.0000 0.0000 -3.7210 0.0000 23.4381
#
#
#
# Elastic Compliance Matrix: (Units=1/GPa)
#
#
# Indices 1 2 3 4 5 6 
#
# 1 0.031520 -0.001780 0.005616 0.000000 0.002313 0.000000
# 2 -0.001780 0.017442 -0.002039 0.000000 0.002960 0.000000
# 3 0.005616 -0.002039 0.019745 0.000000 0.000195 0.000000
# 4 0.000000 0.000000 0.000000 0.041567 0.000000 0.006599
# 5 0.002313 0.002960 0.000195 0.000000 0.043517 0.000000
# 6 0.000000 0.000000 0.000000 0.006599 0.000000 0.043713
#
#
# Mechanical properties :
#
#
# Convention : Reuss Voigt Hill
#
# Bulk Modulus (GPa) = 13.83136 15.99860 14.91498
# Shear Modulus (GPa) = 22.93471 24.13681 23.53576
#
# Velocity S-wave (km/s) = 3.43936 3.52834 3.48413
# Velocity P-wave (km/s) = 4.78603 4.98504 4.88655
#
# Compressibility (1/GPa) = 0.07229949
#
# Stress axis : x y z
#
# Youngs Moduli (GPa) = 31.72617 57.33421 50.64669
#
# Poissons Ratio (x) = 0.10203 -0.28442
# Poissons Ratio (y) = 0.05646 0.10329
# Poissons Ratio (z) = -0.17817 0.11693
#
# Static dielectric constant tensor:
#      x y z
#    x 1.686350 0.000000 -0.009510 
#    y 0.000000 1.673520 0.000000 
#    z -0.009510 0.000000 1.709140 
# 
# From -- ./inp_files/41734.got.cif
#   From: 2010.05.17/outbox.cif.g08.bks.cpg/sg11_21_cif.got.tgz:41734.got - 2010.06.03 12:22:45.
