data_PCOD9159281
_publ_section_title
;
Structure prediction by ZEFSAII (Michael W. Deem and Ramdas Pophale) SiO2 
 PCOD9159281
Probable space group: P 21/M
;
_chemical_formula_sum "Si O2"
_cell_formula_units_Z 28
_cell_length_a 30.292541
_cell_length_b 8.578953
_cell_length_c 9.392291
_cell_angle_alpha 90.000000
_cell_angle_beta 140.817110
_cell_angle_gamma 90.000000
_cell_volume 1542.125365
_symmetry_space_group_name_H-M "P 21/M"
_symmetry_group_IT_number 11
_symmetry_cell_setting 'monoclinic'
loop_
_space_group_symop_operation_xyz
x,y,z
-x,1/2+y,-z
-x,-y,-z
x,1/2-y,z
loop_
_atom_site_type_symbol
_atom_site_label
_atom_site_fract_x
_atom_site_fract_y
_atom_site_fract_z
Si Si1 0.716771 0.562366 0.130666
Si Si2 0.869982 0.062174 0.836971
Si Si3 0.716773 0.062367 0.453221
Si Si4 0.435310 0.437172 0.249362
Si Si5 0.435308 0.937174 0.927178
Si Si6 0.999993 0.064215 0.659702
Si Si7 0.869980 0.937825 0.512969
O O1 0.716810 0.750000 0.133945
O O2 0.716531 0.499978 0.291334
O O3 0.792665 0.515032 0.261726
O O4 0.641309 0.513987 0.880893
O O5 0.874227 0.250000 0.844575
O O6 0.792666 0.015009 0.701619
O O7 0.876252 0.000035 0.690637
O O8 0.931857 0.995592 0.086371
O O9 0.716816 0.250000 0.450188
O O10 0.641309 0.013976 0.325659
O O11 0.500000 0.500000 0.500000
O O12 0.437869 0.250000 0.252965
O O13 0.439628 0.500001 0.099069
O O14 0.437863 0.750000 0.936357
O O15 0.500000 0.000000 0.000000
O O16 0.999976 0.250000 0.657593
O O17 0.931856 0.004350 0.572916
O O18 0.000000 0.000000 0.500000
O O19 0.874218 0.750000 0.526647
#
# Coordination Sequence:
#
# PCOD9159281 Si02
#       7
#     4   4   4   4   4   4   4
#     4   8  16  30  51  76 103 132 169 213 257 300
#     4  10  19  35  58  83 106 134 172 215 256 303
#     4   8  16  30  51  76 103 132 169 213 257 300
#     4  10  19  33  52  77 106 139 175 215 259 307
#     4  10  19  33  52  77 106 139 175 215 259 307
#     4  12  25  40  55  76 106 140 172 210 259 312
#     4  10  19  35  58  83 106 134 172 215 256 303
#
# _framework density 18.156759999999998
#
# number of rings (size 3 to 8) (size 9 to 14) (size 15 to 20)
#    0.000    2.286    0.000    3.429    0.000    2.286 
#    0.000    1.429    0.000    0.000    0.000    0.000 
#    0.000    0.000    0.000    0.000    0.000    0.000 
#
# Total GULP energy -156029.239006 kJ/mol
# GULP energy per Si atom -5572.472822 kJ/mol
# Density = 1.811543 g / cm^3
# Si number density = 18.156760 Si / 1000 Ang^3
#
#
#
# Elastic Constant Matrix: (Units=GPa)
#
#
# Indices 1 2 3 4 5 6 
#
# 1 133.5245 43.4097 94.1602 0.0000 44.7096 0.0000
# 2 43.4097 70.9898 48.4038 0.0000 16.6530 0.0000
# 3 94.1602 48.4038 161.4496 0.0000 48.3968 0.0000
# 4 0.0000 0.0000 0.0000 25.4482 0.0000 -2.4638
# 5 44.7096 16.6530 48.3968 0.0000 38.6763 0.0000
# 6 0.0000 0.0000 0.0000 -2.4638 0.0000 26.1827
#
#
#
# Elastic Compliance Matrix: (Units=1/GPa)
#
#
# Indices 1 2 3 4 5 6 
#
# 1 0.015619 -0.003807 -0.004876 0.000000 -0.010315 0.000000
# 2 -0.003807 0.018693 -0.003666 0.000000 0.000938 0.000000
# 3 -0.004876 -0.003666 0.012760 0.000000 -0.008752 0.000000
# 4 0.000000 0.000000 0.000000 0.039657 0.000000 0.003732
# 5 -0.010315 0.000938 -0.008752 0.000000 0.048328 0.000000
# 6 0.000000 0.000000 0.000000 0.003732 0.000000 0.038544
#
#
# Mechanical properties :
#
#
# Convention : Reuss Voigt Hill
#
# Bulk Modulus (GPa) = 44.68985 81.99014 63.34000
# Shear Modulus (GPa) = 24.30039 30.06078 27.18059
#
# Velocity S-wave (km/s) = 3.66234 4.07335 3.87330
# Velocity P-wave (km/s) = 6.52307 8.20840 7.41378
#
# Compressibility (1/GPa) = 0.02237644
#
# Stress axis : x y z
#
# Youngs Moduli (GPa) = 64.02290 53.49454 78.36797
#
# Poissons Ratio (x) = 0.20363 0.38213
# Poissons Ratio (y) = 0.24371 0.28727
# Poissons Ratio (z) = 0.31218 0.19609
#
# Static dielectric constant tensor:
#      x y z
#    x 1.621550 0.000000 0.061180 
#    y 0.000000 1.628220 0.000000 
#    z 0.061180 0.000000 1.639920 
# 
# From -- ./inp_files/29123.got.cif
#   From: 2010.05.17/outbox.cif.g08.bks.cpg/sg11_15_cif.got.tgz:29123.got - 2010.06.03 12:22:45.
