data_PCOD9159318
_publ_section_title
;
Structure prediction by ZEFSAII (Michael W. Deem and Ramdas Pophale) SiO2 
 PCOD9159318
Probable space group: P 21/M
;
_chemical_formula_sum "Si O2"
_cell_formula_units_Z 32
_cell_length_a 23.542177
_cell_length_b 8.853974
_cell_length_c 28.985040
_cell_angle_alpha 90.000000
_cell_angle_beta 17.570873
_cell_angle_gamma 90.000000
_cell_volume 1823.898694
_symmetry_space_group_name_H-M "P 21/M"
_symmetry_group_IT_number 11
_symmetry_cell_setting 'monoclinic'
loop_
_space_group_symop_operation_xyz
x,y,z
-x,1/2+y,-z
-x,-y,-z
x,1/2-y,z
loop_
_atom_site_type_symbol
_atom_site_label
_atom_site_fract_x
_atom_site_fract_y
_atom_site_fract_z
Si Si1 0.127983 0.429188 0.833764
Si Si2 0.840207 0.931980 0.657066
Si Si3 0.777168 0.929895 0.983847
Si Si4 0.705344 0.068106 0.852194
Si Si5 0.586873 0.069203 0.042485
Si Si6 0.178428 0.070957 0.688021
Si Si7 0.440037 0.569121 0.658265
Si Si8 0.277272 0.069132 0.869666
O O1 0.104453 0.250000 0.859879
O O2 0.205324 0.452656 0.721944
O O3 0.270498 0.498553 0.759964
O O4 0.926168 0.509823 0.989769
O O5 0.854763 0.750000 0.647238
O O6 0.630496 0.972069 0.800416
O O7 0.843116 0.997716 0.707133
O O8 0.000000 0.000000 0.500000
O O9 0.772472 0.750000 0.985339
O O10 0.702759 0.975879 0.092264
O O11 0.992343 0.985573 0.816025
O O12 0.660406 0.996584 0.032188
O O13 0.703390 0.250000 0.849023
O O14 0.720193 0.030838 0.895180
O O15 0.500000 0.000000 0.000000
O O16 0.590901 0.250000 0.043741
O O17 0.147389 0.250000 0.705281
O O18 0.364296 0.025355 0.516995
O O19 0.423320 0.750000 0.670803
O O20 0.426036 0.506299 0.720638
O O21 0.282796 0.250000 0.861967
#
# Coordination Sequence:
#
# PCOD9159318 Si02
#       8
#     4   4   4   4   4   4   4   4
#     4  10  19  33  53  75  99 131 166 206 257 312
#     4  10  20  34  54  83 115 146 175 212 259 304
#     4  10  21  36  56  77  98 131 176 217 254 298
#     4   9  17  31  52  79 108 139 173 211 252 299
#     4   9  19  35  56  79 105 138 175 210 253 307
#     4   9  20  36  53  73 100 132 167 208 258 310
#     4  11  21  33  51  76 101 129 165 208 259 312
#     4  10  21  36  51  72 102 134 169 212 256 304
#
# _framework density 17.544833000000001
#
# number of rings (size 3 to 8) (size 9 to 14) (size 15 to 20)
#    0.000    2.250    0.000    3.750    0.000    6.000 
#    0.000    1.250    0.000    1.500    0.000    0.000 
#    0.000    0.000    0.000    0.000    0.000    0.000 
#
# Total GULP energy -178518.598546 kJ/mol
# GULP energy per Si atom -5578.706205 kJ/mol
# Density = 1.750490 g / cm^3
# Si number density = 17.544833 Si / 1000 Ang^3
#
#
#
# Elastic Constant Matrix: (Units=GPa)
#
#
# Indices 1 2 3 4 5 6 
#
# 1 113.9735 42.2073 57.6933 0.0000 6.3834 0.0000
# 2 42.2073 44.8380 29.2525 0.0000 9.3145 0.0000
# 3 57.6933 29.2525 69.9032 0.0000 34.2157 0.0000
# 4 0.0000 0.0000 0.0000 27.0689 0.0000 3.3890
# 5 6.3834 9.3145 34.2157 0.0000 25.7405 0.0000
# 6 0.0000 0.0000 0.0000 3.3890 0.0000 33.2491
#
#
#
# Elastic Compliance Matrix: (Units=1/GPa)
#
#
# Indices 1 2 3 4 5 6 
#
# 1 0.082845 -0.016404 -0.155593 0.000000 0.192214 0.000000
# 2 -0.016404 0.036791 0.007637 0.000000 -0.019397 0.000000
# 3 -0.155593 0.007637 0.349180 0.000000 -0.428327 0.000000
# 4 0.000000 0.000000 0.000000 0.037420 0.000000 -0.003814
# 5 0.192214 -0.019397 -0.428327 0.000000 0.567557 0.000000
# 6 0.000000 0.000000 0.000000 -0.003814 0.000000 0.030465
#
#
# Mechanical properties :
#
#
# Convention : Reuss Voigt Hill
#
# Bulk Modulus (GPa) = 7.13800 54.11343 30.62572
# Shear Modulus (GPa) = 3.37911 23.84913 13.61412
#
# Velocity S-wave (km/s) = 1.38931 3.69090 2.78863
# Velocity P-wave (km/s) = 2.57892 7.00525 5.27847
#
# Compressibility (1/GPa) = 0.14009528
#
# Stress axis : x y z
#
# Youngs Moduli (GPa) = 12.07079 27.18030 2.86385
#
# Poissons Ratio (x) = 0.44587 0.44560
# Poissons Ratio (y) = 0.19801 -0.02187
# Poissons Ratio (z) = 1.87813 -0.20758
#
# Static dielectric constant tensor:
#      x y z
#    x 1.608830 0.000000 0.031900 
#    y 0.000000 1.582570 0.000000 
#    z 0.031900 0.000000 1.589580 
# 
# From -- ./inp_files/71984.got.cif
#   From: 2010.05.17/outbox.cif.g08.bks.cpg/sg11_36_cif.got.tgz:71984.got - 2010.06.03 12:22:45.
