data_PCOD9159973
_publ_section_title
;
Structure prediction by ZEFSAII (Michael W. Deem and Ramdas Pophale) SiO2 
 PCOD9159973
Probable space group: P 21/M
;
_chemical_formula_sum "Si O2"
_cell_formula_units_Z 28
_cell_length_a 21.128181
_cell_length_b 13.460615
_cell_length_c 21.310902
_cell_angle_alpha 90.000000
_cell_angle_beta 167.422365
_cell_angle_gamma 90.000000
_cell_volume 1319.810271
_symmetry_space_group_name_H-M "P 21/M"
_symmetry_group_IT_number 11
_symmetry_cell_setting 'monoclinic'
loop_
_space_group_symop_operation_xyz
x,y,z
-x,1/2+y,-z
-x,-y,-z
x,1/2-y,z
loop_
_atom_site_type_symbol
_atom_site_label
_atom_site_fract_x
_atom_site_fract_y
_atom_site_fract_z
Si Si1 0.805457 0.363850 0.293204
Si Si2 0.187572 0.511826 0.333657
Si Si3 0.341051 0.439106 0.113648
Si Si4 0.506021 0.132521 0.551483
Si Si5 0.882705 0.137801 0.579986
Si Si6 0.739233 0.929659 0.171354
Si Si7 0.072465 0.366944 0.032203
O O1 0.780209 0.250000 0.248198
O O2 0.747404 0.450945 0.186743
O O3 0.115283 0.385351 0.624515
O O4 0.583360 0.387195 0.135435
O O5 0.444254 0.571644 0.618603
O O6 0.354373 0.422747 0.461398
O O7 0.035107 0.577893 0.133036
O O8 0.907990 0.480667 0.106575
O O9 0.607664 0.437139 0.321408
O O10 0.105060 0.364456 0.854903
O O11 0.454751 0.250000 0.507496
O O12 0.846508 0.116589 0.870877
O O13 0.371997 0.101887 0.354045
O O14 0.769836 0.250000 0.464203
O O15 0.083009 0.106852 0.715896
O O16 0.079677 0.250000 0.025048
#
# Coordination Sequence:
#
# PCOD9159973 Si02
#       7
#     4   4   4   4   4   4   4
#     4  10  19  34  56  88 119 145 181 224 272 320
#     4  11  20  37  55  73 108 139 169 222 269 312
#     4  10  24  35  52  77  99 142 187 216 260 309
#     4  10  20  34  54  79 101 132 173 213 267 328
#     4  11  21  37  55  77 111 145 181 221 258 309
#     4  10  21  34  57  85 114 151 185 219 268 327
#     4  10  20  31  50  79 106 132 167 209 265 333
#
# _framework density 21.215170000000001
#
# number of rings (size 3 to 8) (size 9 to 14) (size 15 to 20)
#    0.000    1.714    0.000    5.143    0.000    3.429 
#    0.000    0.000    0.000    5.143    0.000    0.000 
#    0.000    0.000    0.000    0.000    0.000    0.000 
#
# Total GULP energy -155963.580295 kJ/mol
# GULP energy per Si atom -5570.127868 kJ/mol
# Density = 2.116688 g / cm^3
# Si number density = 21.215170 Si / 1000 Ang^3
#
#
#
# Elastic Constant Matrix: (Units=GPa)
#
#
# Indices 1 2 3 4 5 6 
#
# 1 46.8011 4.2982 15.6513 0.0000 10.2807 0.0000
# 2 4.2982 77.0275 5.4356 0.0000 -9.5336 0.0000
# 3 15.6513 5.4356 112.8246 0.0000 9.1411 0.0000
# 4 0.0000 0.0000 0.0000 23.6311 0.0000 1.2844
# 5 10.2807 -9.5336 9.1411 0.0000 30.4031 0.0000
# 6 0.0000 0.0000 0.0000 1.2844 0.0000 7.5255
#
#
#
# Elastic Compliance Matrix: (Units=1/GPa)
#
#
# Indices 1 2 3 4 5 6 
#
# 1 0.024211 -0.002168 -0.002599 0.000000 -0.008085 0.000000
# 2 -0.002168 0.013816 -0.000795 0.000000 0.005304 0.000000
# 3 -0.002599 -0.000795 0.009441 0.000000 -0.002209 0.000000
# 4 0.000000 0.000000 0.000000 0.042713 0.000000 -0.007290
# 5 -0.008085 0.005304 -0.002209 0.000000 0.037953 0.000000
# 6 0.000000 0.000000 0.000000 -0.007290 0.000000 0.134125
#
#
# Mechanical properties :
#
#
# Convention : Reuss Voigt Hill
#
# Bulk Modulus (GPa) = 27.51448 31.93591 29.72520
# Shear Modulus (GPa) = 17.51319 26.39647 21.95483
#
# Velocity S-wave (km/s) = 2.87627 3.53119 3.22042
# Velocity P-wave (km/s) = 4.90184 5.63132 5.27919
#
# Compressibility (1/GPa) = 0.03634450
#
# Stress axis : x y z
#
# Youngs Moduli (GPa) = 41.30269 72.37998 105.91964
#
# Poissons Ratio (x) = 0.15694 0.27530
# Poissons Ratio (y) = 0.08956 0.08416
# Poissons Ratio (z) = 0.10735 0.05751
#
# Static dielectric constant tensor:
#      x y z
#    x 1.841540 0.000000 0.000920 
#    y 0.000000 1.772370 0.000000 
#    z 0.000920 0.000000 1.786010 
# 
# From -- ./inp_files/70179.got.cif
#   From: 2010.05.17/outbox.cif.g08.bks.cpg/sg11_36_cif.got.tgz:70179.got - 2010.06.03 12:22:45.
