data_PCOD9159824
_publ_section_title
;
Structure prediction by ZEFSAII (Michael W. Deem and Ramdas Pophale) SiO2 
 PCOD9159824
Probable space group: P 21/M
;
_chemical_formula_sum "Si O2"
_cell_formula_units_Z 32
_cell_length_a 14.703262
_cell_length_b 8.574014
_cell_length_c 23.028837
_cell_angle_alpha 90.000000
_cell_angle_beta 37.243726
_cell_angle_gamma 90.000000
_cell_volume 1757.007859
_symmetry_space_group_name_H-M "P 21/M"
_symmetry_group_IT_number 11
_symmetry_cell_setting 'monoclinic'
loop_
_space_group_symop_operation_xyz
x,y,z
-x,1/2+y,-z
-x,-y,-z
x,1/2-y,z
loop_
_atom_site_type_symbol
_atom_site_label
_atom_site_fract_x
_atom_site_fract_y
_atom_site_fract_z
Si Si1 0.344897 0.938736 0.867651
Si Si2 0.635606 0.435817 0.392205
Si Si3 0.962029 0.936672 0.256463
Si Si4 0.060068 0.061624 0.327527
Si Si5 0.712273 0.562676 0.228976
Si Si6 0.949096 0.439193 0.915353
Si Si7 0.669931 0.937390 0.725428
Si Si8 0.862550 0.063443 0.531157
O O1 0.340180 0.750000 0.868437
O O2 0.498180 0.984571 0.822662
O O3 0.351137 0.000167 0.798988
O O4 0.194015 0.996463 0.976083
O O5 0.500000 0.500000 0.500000
O O6 0.630078 0.250000 0.394086
O O7 0.795606 0.490920 0.336929
O O8 0.633577 0.499272 0.327104
O O9 0.946179 0.750000 0.263789
O O10 0.048831 0.983974 0.153446
O O11 0.045521 0.990240 0.271769
O O12 0.065025 0.250000 0.321107
O O13 0.911855 0.019816 0.441048
O O14 0.206935 0.009315 0.289679
O O15 0.706042 0.750000 0.233615
O O16 0.888415 0.513058 0.142518
O O17 0.945539 0.250000 0.919385
O O18 0.678672 0.750000 0.720711
O O19 0.719270 0.994820 0.636414
O O20 0.857456 0.250000 0.536878
O O21 0.000000 0.000000 0.500000
#
# Coordination Sequence:
#
# PCOD9159824 Si02
#       8
#     4   4   4   4   4   4   4   4
#     4  10  19  34  55  77 103 140 179 219 265 311
#     4  11  22  38  58  81 110 142 173 211 257 308
#     4  10  20  35  55  79 104 137 179 220 260 310
#     4   9  18  33  50  72 101 138 177 214 259 312
#     4  10  20  35  54  80 110 138 172 216 261 314
#     4   8  17  34  54  75 102 135 175 219 264 310
#     4   9  19  33  50  74 105 136 173 217 260 306
#     4   9  17  30  49  70  97 130 166 206 251 301
#
# _framework density 18.212781
#
# number of rings (size 3 to 8) (size 9 to 14) (size 15 to 20)
#    0.000    2.500    0.000    4.125    0.000    4.000 
#    0.000    6.250    0.000    0.000    0.000    0.000 
#    0.000    0.000    0.000    0.000    0.000    0.000 
#
# Total GULP energy -178424.413380 kJ/mol
# GULP energy per Si atom -5575.762918 kJ/mol
# Density = 1.817133 g / cm^3
# Si number density = 18.212781 Si / 1000 Ang^3
#
#
#
# Elastic Constant Matrix: (Units=GPa)
#
#
# Indices 1 2 3 4 5 6 
#
# 1 96.4630 22.8806 60.3236 0.0000 13.2716 0.0000
# 2 22.8806 32.2792 25.4716 0.0000 -1.1514 0.0000
# 3 60.3236 25.4716 123.2995 0.0000 -6.7484 0.0000
# 4 0.0000 0.0000 0.0000 21.5314 0.0000 5.5400
# 5 13.2716 -1.1514 -6.7484 0.0000 19.7907 0.0000
# 6 0.0000 0.0000 0.0000 5.5400 0.0000 25.4114
#
#
#
# Elastic Compliance Matrix: (Units=1/GPa)
#
#
# Indices 1 2 3 4 5 6 
#
# 1 0.020430 -0.007723 -0.009349 0.000000 -0.017338 0.000000
# 2 -0.007723 0.039937 -0.004139 0.000000 0.006091 0.000000
# 3 -0.009349 -0.004139 0.014133 0.000000 0.010848 0.000000
# 4 0.000000 0.000000 0.000000 0.049204 0.000000 -0.010727
# 5 -0.017338 0.006091 0.010848 0.000000 0.066209 0.000000
# 6 0.000000 0.000000 0.000000 -0.010727 0.000000 0.041691
#
#
# Mechanical properties :
#
#
# Convention : Reuss Voigt Hill
#
# Bulk Modulus (GPa) = 31.17262 52.15481 41.66371
# Shear Modulus (GPa) = 17.56129 22.90444 20.23286
#
# Velocity S-wave (km/s) = 3.10857 3.55012 3.33666
# Velocity P-wave (km/s) = 5.48062 6.74559 6.14574
#
# Compressibility (1/GPa) = 0.03207944
#
# Stress axis : x y z
#
# Youngs Moduli (GPa) = 48.94708 25.03951 70.75697
#
# Poissons Ratio (x) = 0.19338 0.66150
# Poissons Ratio (y) = 0.37801 0.29283
# Poissons Ratio (z) = 0.45760 0.10363
#
# Static dielectric constant tensor:
#      x y z
#    x 1.615550 0.000000 -0.012660 
#    y 0.000000 1.618860 0.000000 
#    z -0.012660 0.000000 1.639450 
# 
# From -- ./inp_files/65191.got.cif
#   From: 2010.05.17/outbox.cif.g08.bks.cpg/sg11_33_cif.got.tgz:65191.got - 2010.06.03 12:22:45.
