data_PCOD9159337
_publ_section_title
;
Structure prediction by ZEFSAII (Michael W. Deem and Ramdas Pophale) SiO2 
 PCOD9159337
Probable space group: P 21/M
;
_chemical_formula_sum "Si O2"
_cell_formula_units_Z 32
_cell_length_a 20.610628
_cell_length_b 8.050124
_cell_length_c 12.203267
_cell_angle_alpha 90.000000
_cell_angle_beta 129.409880
_cell_angle_gamma 90.000000
_cell_volume 1564.365266
_symmetry_space_group_name_H-M "P 21/M"
_symmetry_group_IT_number 11
_symmetry_cell_setting 'monoclinic'
loop_
_space_group_symop_operation_xyz
x,y,z
-x,1/2+y,-z
-x,-y,-z
x,1/2-y,z
loop_
_atom_site_type_symbol
_atom_site_label
_atom_site_fract_x
_atom_site_fract_y
_atom_site_fract_z
Si Si1 0.681513 0.547213 0.872136
Si Si2 0.623525 0.451715 0.187155
Si Si3 0.217833 0.440545 0.222612
Si Si4 0.815783 0.451143 0.397623
Si Si5 0.462861 0.448798 0.133167
Si Si6 0.887242 0.056262 0.700850
Si Si7 0.846409 0.947560 0.186479
Si Si8 0.066368 0.937134 0.924506
O O1 0.680643 0.750000 0.867312
O O2 0.711043 0.490755 0.783432
O O3 0.593107 0.487286 0.825950
O O4 0.755646 0.502684 0.037647
O O5 0.622140 0.250000 0.183365
O O6 0.718878 0.506352 0.304646
O O7 0.556960 0.509270 0.208077
O O8 0.588883 0.513799 0.033355
O O9 0.237035 0.250000 0.269869
O O10 0.192784 0.533237 0.306286
O O11 0.133054 0.447867 0.057814
O O12 0.816270 0.250000 0.399885
O O13 0.866730 0.509712 0.558097
O O14 0.849708 0.508007 0.316991
O O15 0.467679 0.250000 0.151024
O O16 0.907717 0.250000 0.714501
O O17 0.969111 0.971288 0.839281
O O18 0.855397 0.750000 0.183086
O O19 0.914864 0.035810 0.183911
O O20 0.087250 0.750000 0.980511
#
# Coordination Sequence:
#
# PCOD9159337 Si02
#       8
#     4   4   4   4   4   4   4   4
#     4   8  15  28  49  76 102 129 161 203 250 299
#     4   9  17  28  46  74 105 134 166 205 248 298
#     4  10  20  36  56  78 102 129 170 216 259 302
#     4  10  21  35  50  72 105 141 174 211 253 305
#     4   9  15  27  48  75 104 133 164 201 252 303
#     4  11  23  38  53  71  99 137 178 214 256 305
#     4  10  19  33  53  77 105 136 170 206 253 307
#     4  11  22  37  57  79 102 128 165 213 264 307
#
# _framework density 20.455580000000001
#
# number of rings (size 3 to 8) (size 9 to 14) (size 15 to 20)
#    0.000    2.250    1.250    3.375    0.000    1.500 
#    0.000    0.625    0.000    0.750    0.000    0.000 
#    0.000    0.000    0.000    0.000    0.000    0.625 
#
# Total GULP energy -178565.477928 kJ/mol
# GULP energy per Si atom -5580.171185 kJ/mol
# Density = 2.040902 g / cm^3
# Si number density = 20.455580 Si / 1000 Ang^3
#
#
#
# Elastic Constant Matrix: (Units=GPa)
#
#
# Indices 1 2 3 4 5 6 
#
# 1 117.2827 -3.7831 -5.6007 0.0000 -12.6083 0.0000
# 2 -3.7831 23.5695 -4.7898 0.0000 1.9115 0.0000
# 3 -5.6007 -4.7898 20.5725 0.0000 -11.2964 0.0000
# 4 0.0000 0.0000 0.0000 13.6836 0.0000 -5.9769
# 5 -12.6083 1.9115 -11.2964 0.0000 24.3934 0.0000
# 6 0.0000 0.0000 0.0000 -5.9769 0.0000 21.4095
#
#
#
# Elastic Compliance Matrix: (Units=1/GPa)
#
#
# Indices 1 2 3 4 5 6 
#
# 1 0.009922 0.002525 0.008041 0.000000 0.008655 0.000000
# 2 0.002525 0.045234 0.013396 0.000000 0.003964 0.000000
# 3 0.008041 0.013396 0.074589 0.000000 0.037648 0.000000
# 4 0.000000 0.000000 0.000000 0.083229 0.000000 0.023235
# 5 0.008655 0.003964 0.037648 0.000000 0.062592 0.000000
# 6 0.000000 0.000000 0.000000 0.023235 0.000000 0.053195
#
#
# Mechanical properties :
#
#
# Convention : Reuss Voigt Hill
#
# Bulk Modulus (GPa) = 5.62844 14.78639 10.20741
# Shear Modulus (GPa) = 14.70325 23.60385 19.15355
#
# Velocity S-wave (km/s) = 2.68393 3.40061 3.06330
# Velocity P-wave (km/s) = 3.51599 4.76057 4.18481
#
# Compressibility (1/GPa) = 0.17766923
#
# Stress axis : x y z
#
# Youngs Moduli (GPa) = 100.78355 22.10739 13.40671
#
# Poissons Ratio (x) = -0.05582 -0.10781
# Poissons Ratio (y) = -0.25447 -0.17959
# Poissons Ratio (z) = -0.81044 -0.29614
#
# Static dielectric constant tensor:
#      x y z
#    x 1.778220 0.000000 -0.013310 
#    y 0.000000 1.718520 0.000000 
#    z -0.013310 0.000000 1.699750 
# 
# From -- ./inp_files/42935.got.cif
#   From: 2010.05.17/outbox.cif.g08.bks.cpg/sg11_22_cif.got.tgz:42935.got - 2010.06.03 12:22:45.
