data_PCOD9159639
_publ_section_title
;
Structure prediction by ZEFSAII (Michael W. Deem and Ramdas Pophale) SiO2 
 PCOD9159639
Probable space group: P 21/M
;
_chemical_formula_sum "Si O2"
_cell_formula_units_Z 32
_cell_length_a 16.540702
_cell_length_b 8.850632
_cell_length_c 12.428902
_cell_angle_alpha 90.000000
_cell_angle_beta 91.062007
_cell_angle_gamma 90.000000
_cell_volume 1819.224835
_symmetry_space_group_name_H-M "P 21/M"
_symmetry_group_IT_number 11
_symmetry_cell_setting 'monoclinic'
loop_
_space_group_symop_operation_xyz
x,y,z
-x,1/2+y,-z
-x,-y,-z
x,1/2-y,z
loop_
_atom_site_type_symbol
_atom_site_label
_atom_site_fract_x
_atom_site_fract_y
_atom_site_fract_z
Si Si1 0.624779 0.430814 0.003371
Si Si2 0.959107 0.930875 0.103711
Si Si3 0.717686 0.430608 0.369793
Si Si4 0.216795 0.568442 0.867421
Si Si5 0.459109 0.069750 0.604537
Si Si6 0.020457 0.930881 0.337159
Si Si7 0.484787 0.429641 0.174088
Si Si8 0.131792 0.070327 0.512451
O O1 0.621876 0.250000 0.985322
O O2 0.591070 0.514919 0.898154
O O3 0.714035 0.472857 0.044861
O O4 0.562917 0.462830 0.100406
O O5 0.959425 0.750000 0.097709
O O6 0.007260 0.974515 0.213478
O O7 0.867694 0.988632 0.113742
O O8 0.000000 0.000000 0.000000
O O9 0.707002 0.250000 0.375259
O O10 0.749430 0.468157 0.250512
O O11 0.632700 0.510401 0.388649
O O12 0.786599 0.485830 0.453263
O O13 0.205804 0.750000 0.871472
O O14 0.460555 0.250000 0.599246
O O15 0.500000 0.000000 0.500000
O O16 0.504696 0.013020 0.712977
O O17 0.033040 0.750000 0.344788
O O18 0.937162 0.964506 0.399493
O O19 0.092379 0.014768 0.400331
O O20 0.482098 0.250000 0.191296
O O21 0.144689 0.250000 0.512205
#
# Coordination Sequence:
#
# PCOD9159639 Si02
#       8
#     4   4   4   4   4   4   4   4
#     4   9  18  34  56  86 118 150 191 239 287 338
#     4  11  23  39  58  83 117 153 194 236 287 346
#     4  11  21  37  60  88 119 151 191 239 288 342
#     4  10  20  36  59  86 117 151 192 238 285 337
#     4  12  25  41  61  85 118 157 195 238 290 348
#     4   9  19  35  54  81 115 151 190 237 288 340
#     4  10  19  35  57  86 119 152 192 237 288 342
#     4  10  19  33  56  87 116 146 190 240 287 340
#
# _framework density 17.589908000000001
#
# number of rings (size 3 to 8) (size 9 to 14) (size 15 to 20)
#    0.000    1.750    2.500    2.625    0.000    3.000 
#    0.000    1.250    0.000    4.500    0.000    0.000 
#    0.000    0.000    0.000    0.000    0.000    0.000 
#
# Total GULP energy -178743.292052 kJ/mol
# GULP energy per Si atom -5585.727877 kJ/mol
# Density = 1.754987 g / cm^3
# Si number density = 17.589908 Si / 1000 Ang^3
#
#
#
# Elastic Constant Matrix: (Units=GPa)
#
#
# Indices 1 2 3 4 5 6 
#
# 1 107.1770 60.3286 87.8178 0.0000 13.9060 0.0000
# 2 60.3286 80.4513 75.8964 0.0000 3.5550 0.0000
# 3 87.8178 75.8964 156.7690 0.0000 13.2948 0.0000
# 4 0.0000 0.0000 0.0000 29.0482 0.0000 3.1083
# 5 13.9060 3.5550 13.2948 0.0000 28.6478 0.0000
# 6 0.0000 0.0000 0.0000 3.1083 0.0000 33.1467
#
#
#
# Elastic Compliance Matrix: (Units=1/GPa)
#
#
# Indices 1 2 3 4 5 6 
#
# 1 0.020580 -0.008766 -0.006797 0.000000 -0.005748 0.000000
# 2 -0.008766 0.026773 -0.008463 0.000000 0.004860 0.000000
# 3 -0.006797 -0.008463 0.014484 0.000000 -0.002373 0.000000
# 4 0.000000 0.000000 0.000000 0.034774 0.000000 -0.003261
# 5 -0.005748 0.004860 -0.002373 0.000000 0.038195 0.000000
# 6 0.000000 0.000000 0.000000 -0.003261 0.000000 0.030475
#
#
# Mechanical properties :
#
#
# Convention : Reuss Voigt Hill
#
# Bulk Modulus (GPa) = 72.54369 88.05366 80.29868
# Shear Modulus (GPa) = 22.94347 26.19217 24.56782
#
# Velocity S-wave (km/s) = 3.61550 3.86300 3.74130
# Velocity P-wave (km/s) = 7.66553 8.37048 8.02575
#
# Compressibility (1/GPa) = 0.01378480
#
# Stress axis : x y z
#
# Youngs Moduli (GPa) = 48.59193 37.35171 69.03944
#
# Poissons Ratio (x) = 0.32744 0.46924
# Poissons Ratio (y) = 0.42597 0.58427
# Poissons Ratio (z) = 0.33026 0.31610
#
# Static dielectric constant tensor:
#      x y z
#    x 1.575640 0.000000 0.010260 
#    y 0.000000 1.586160 0.000000 
#    z 0.010260 0.000000 1.586460 
# 
# From -- ./inp_files/38251.got.cif
#   From: 2010.05.17/outbox.cif.g08.bks.cpg/sg11_20_cif.got.tgz:38251.got - 2010.06.03 12:22:45.
