data_PCOD9159372
_publ_section_title
;
Structure prediction by ZEFSAII (Michael W. Deem and Ramdas Pophale) SiO2 
 PCOD9159372
Probable space group: P 21/M
;
_chemical_formula_sum "Si O2"
_cell_formula_units_Z 28
_cell_length_a 15.439281
_cell_length_b 8.619104
_cell_length_c 17.290667
_cell_angle_alpha 90.000000
_cell_angle_beta 134.247115
_cell_angle_gamma 90.000000
_cell_volume 1648.232110
_symmetry_space_group_name_H-M "P 21/M"
_symmetry_group_IT_number 11
_symmetry_cell_setting 'monoclinic'
loop_
_space_group_symop_operation_xyz
x,y,z
-x,1/2+y,-z
-x,-y,-z
x,1/2-y,z
loop_
_atom_site_type_symbol
_atom_site_label
_atom_site_fract_x
_atom_site_fract_y
_atom_site_fract_z
Si Si1 0.148161 0.063842 0.739594
Si Si2 0.611762 0.937596 0.019728
Si Si3 0.237461 0.563683 0.633010
Si Si4 0.113728 0.066194 0.401537
Si Si5 0.690545 0.065538 0.587359
Si Si6 0.519096 0.938715 0.797695
Si Si7 0.564093 0.563167 0.654014
O O1 0.140279 0.250000 0.735998
O O2 0.174463 0.008620 0.668705
O O3 0.262342 0.014119 0.863064
O O4 0.022855 0.993107 0.690248
O O5 0.607364 0.750000 0.018571
O O6 0.592310 0.988612 0.919011
O O7 0.500000 0.000000 0.000000
O O8 0.232956 0.750000 0.635773
O O9 0.172699 0.511359 0.514302
O O10 0.378523 0.515054 0.718476
O O11 0.115385 0.250000 0.412367
O O12 0.195752 0.017468 0.380070
O O13 0.707672 0.250000 0.594318
O O14 0.570690 0.027116 0.461925
O O15 0.657979 0.013080 0.653602
O O16 0.519374 0.750000 0.796302
O O17 0.570052 0.989389 0.746537
O O18 0.577564 0.750000 0.658838
#
# Coordination Sequence:
#
# PCOD9159372 Si02
#       7
#     4   4   4   4   4   4   4
#     4  11  23  37  53  78 110 145 185 224 266 318
#     4  10  20  35  56  80 106 141 182 225 266 311
#     4  11  20  35  56  79 110 145 179 219 268 321
#     4  12  24  37  54  77 108 146 184 222 268 323
#     4  10  19  33  53  80 110 140 173 217 268 320
#     4   9  17  32  55  80 109 141 174 215 268 315
#     4   9  17  32  53  79 108 141 173 211 266 325
#
# _framework density 16.9879
#
# number of rings (size 3 to 8) (size 9 to 14) (size 15 to 20)
#    0.000    1.714    2.857    3.000    0.000    1.143 
#    0.000    0.714    0.000    0.857    0.000    0.000 
#    0.000    0.000    0.000    0.000    0.000    0.000 
#
# Total GULP energy -156362.840961 kJ/mol
# GULP energy per Si atom -5584.387177 kJ/mol
# Density = 1.694923 g / cm^3
# Si number density = 16.987900 Si / 1000 Ang^3
#
#
#
# Elastic Constant Matrix: (Units=GPa)
#
#
# Indices 1 2 3 4 5 6 
#
# 1 116.8543 10.4213 47.0067 0.0000 -7.0127 0.0000
# 2 10.4213 17.6164 0.8090 0.0000 3.0052 0.0000
# 3 47.0067 0.8090 64.0124 0.0000 2.6999 0.0000
# 4 0.0000 0.0000 0.0000 12.3099 0.0000 4.6527
# 5 -7.0127 3.0052 2.6999 0.0000 29.4248 0.0000
# 6 0.0000 0.0000 0.0000 4.6527 0.0000 25.9841
#
#
#
# Elastic Compliance Matrix: (Units=1/GPa)
#
#
# Indices 1 2 3 4 5 6 
#
# 1 0.013715 -0.008511 -0.010178 0.000000 0.005072 0.000000
# 2 -0.008511 0.063069 0.005833 0.000000 -0.009005 0.000000
# 3 -0.010178 0.005833 0.023240 0.000000 -0.005154 0.000000
# 4 0.000000 0.000000 0.000000 0.087132 0.000000 -0.015602
# 5 0.005072 -0.009005 -0.005154 0.000000 0.036586 0.000000
# 6 0.000000 0.000000 0.000000 -0.015602 0.000000 0.041279
#
#
# Mechanical properties :
#
#
# Convention : Reuss Voigt Hill
#
# Bulk Modulus (GPa) = 13.45697 34.99522 24.22610
# Shear Modulus (GPa) = 15.84764 22.89352 19.37058
#
# Velocity S-wave (km/s) = 3.05762 3.67500 3.38043
# Velocity P-wave (km/s) = 4.51709 6.21710 5.43398
#
# Compressibility (1/GPa) = 0.07431095
#
# Stress axis : x y z
#
# Youngs Moduli (GPa) = 72.91062 15.85571 43.02968
#
# Poissons Ratio (x) = 0.13496 0.43796
# Poissons Ratio (y) = 0.62058 -0.25099
# Poissons Ratio (z) = 0.74209 -0.09249
#
# Static dielectric constant tensor:
#      x y z
#    x 1.556300 0.000000 -0.008810 
#    y 0.000000 1.571480 0.000000 
#    z -0.008810 0.000000 1.565940 
# 
# From -- ./inp_files/49039.got.cif
#   From: 2010.05.17/outbox.cif.g08.bks.cpg/sg11_25_cif.got.tgz:49039.got - 2010.06.03 12:22:45.
