data_PCOD9159538
_publ_section_title
;
Structure prediction by ZEFSAII (Michael W. Deem and Ramdas Pophale) SiO2 
 PCOD9159538
Probable space group: P 21/M
;
_chemical_formula_sum "Si O2"
_cell_formula_units_Z 32
_cell_length_a 15.379598
_cell_length_b 7.563844
_cell_length_c 24.726035
_cell_angle_alpha 90.000000
_cell_angle_beta 151.146893
_cell_angle_gamma 90.000000
_cell_volume 1388.028822
_symmetry_space_group_name_H-M "P 21/M"
_symmetry_group_IT_number 11
_symmetry_cell_setting 'monoclinic'
loop_
_space_group_symop_operation_xyz
x,y,z
-x,1/2+y,-z
-x,-y,-z
x,1/2-y,z
loop_
_atom_site_type_symbol
_atom_site_label
_atom_site_fract_x
_atom_site_fract_y
_atom_site_fract_z
Si Si1 0.962781 0.051434 0.124491
Si Si2 0.002532 0.460779 0.564348
Si Si3 0.999187 0.959632 0.269758
Si Si4 0.630046 0.960985 0.119235
Si Si5 0.707822 0.042729 0.762381
Si Si6 0.403461 0.463684 0.787094
Si Si7 0.706143 0.464325 0.487396
Si Si8 0.277632 0.966571 0.107387
O O1 0.890653 0.250000 0.090465
O O2 0.969490 0.982829 0.189519
O O3 0.166146 0.048683 0.212830
O O4 0.850145 0.973582 0.011885
O O5 0.003388 0.250000 0.573368
O O6 0.201053 0.527838 0.686017
O O7 0.000000 0.500000 0.500000
O O8 0.836198 0.526393 0.509032
O O9 0.000974 0.750000 0.280019
O O10 0.186369 0.022197 0.399533
O O11 0.827278 0.031470 0.209701
O O12 0.653661 0.750000 0.138519
O O13 0.520445 0.016057 0.113259
O O14 0.500000 0.000000 0.000000
O O15 0.753249 0.250000 0.785724
O O16 0.753033 0.974656 0.847791
O O17 0.497023 0.025591 0.633395
O O18 0.398327 0.250000 0.777944
O O19 0.522161 0.524934 0.802051
O O20 0.696882 0.250000 0.481924
O O21 0.269153 0.750000 0.104468
#
# Coordination Sequence:
#
# PCOD9159538 Si02
#       8
#     4   4   4   4   4   4   4   4
#     4  11  23  40  62  88 115 152 197 249 304 357
#     4  10  19  33  55  82 114 153 191 229 277 334
#     4  10  21  39  60  85 119 159 200 243 292 350
#     4  10  19  33  55  82 114 153 191 229 277 334
#     4  11  23  40  62  88 115 152 197 249 304 357
#     4   9  16  31  54  80 111 149 184 214 268 341
#     4  10  21  39  60  85 119 159 200 243 292 350
#     4   9  19  35  58  88 120 151 191 238 293 355
#
# _framework density 23.054275000000001
#
# number of rings (size 3 to 8) (size 9 to 14) (size 15 to 20)
#    0.000    2.000    1.250    2.625    0.000    4.000 
#    0.000    2.500    0.000    6.000    0.000    0.000 
#    0.000    0.000    0.000    0.000    0.000    0.000 
#
# Total GULP energy -178464.906627 kJ/mol
# GULP energy per Si atom -5577.028332 kJ/mol
# Density = 2.300180 g / cm^3
# Si number density = 23.054275 Si / 1000 Ang^3
#
#
#
# Elastic Constant Matrix: (Units=GPa)
#
#
# Indices 1 2 3 4 5 6 
#
# 1 114.9040 -0.8550 18.3658 0.0000 -8.2014 0.0000
# 2 -0.8550 54.6753 -5.2593 0.0000 -2.5752 0.0000
# 3 18.3658 -5.2593 86.6672 0.0000 -4.9863 0.0000
# 4 0.0000 0.0000 0.0000 16.8783 0.0000 -6.4569
# 5 -8.2014 -2.5752 -4.9863 0.0000 40.0652 0.0000
# 6 0.0000 0.0000 0.0000 -6.4569 0.0000 11.4933
#
#
#
# Elastic Compliance Matrix: (Units=1/GPa)
#
#
# Indices 1 2 3 4 5 6 
#
# 1 0.009113 0.000043 -0.001834 0.000000 0.001640 0.000000
# 2 0.000043 0.018468 0.001189 0.000000 0.001344 0.000000
# 3 -0.001834 0.001189 0.012068 0.000000 0.001203 0.000000
# 4 0.000000 0.000000 0.000000 0.075467 0.000000 0.042397
# 5 0.001640 0.001344 0.001203 0.000000 0.025531 0.000000
# 6 0.000000 0.000000 0.000000 0.042397 0.000000 0.110825
#
#
# Mechanical properties :
#
#
# Convention : Reuss Voigt Hill
#
# Bulk Modulus (GPa) = 26.01059 31.19438 28.60249
# Shear Modulus (GPa) = 18.83291 29.95369 24.39330
#
# Velocity S-wave (km/s) = 2.86124 3.60845 3.25635
# Velocity P-wave (km/s) = 4.71406 5.56070 5.15479
#
# Compressibility (1/GPa) = 0.03844588
#
# Stress axis : x y z
#
# Youngs Moduli (GPa) = 109.72754 54.14730 82.86073
#
# Poissons Ratio (x) = -0.00235 0.15199
# Poissons Ratio (y) = -0.00475 -0.09851
# Poissons Ratio (z) = 0.20127 -0.06437
#
# Static dielectric constant tensor:
#      x y z
#    x 1.948800 0.000000 -0.167180 
#    y 0.000000 1.883880 0.000000 
#    z -0.167180 0.000000 2.148870 
# 
# From -- ./inp_files/69096.got.cif
#   From: 2010.05.17/outbox.cif.g08.bks.cpg/sg11_35_cif.got.tgz:69096.got - 2010.06.03 12:22:45.
