data_PCOD9159186
_publ_section_title
;
Structure prediction by ZEFSAII (Michael W. Deem and Ramdas Pophale) SiO2 
 PCOD9159186
Probable space group: P 21/M
;
_chemical_formula_sum "Si O2"
_cell_formula_units_Z 26
_cell_length_a 18.560209
_cell_length_b 14.092468
_cell_length_c 8.466354
_cell_angle_alpha 90.000000
_cell_angle_beta 28.618616
_cell_angle_gamma 90.000000
_cell_volume 1060.671970
_symmetry_space_group_name_H-M "P 21/M"
_symmetry_group_IT_number 11
_symmetry_cell_setting 'monoclinic'
loop_
_space_group_symop_operation_xyz
x,y,z
-x,1/2+y,-z
-x,-y,-z
x,1/2-y,z
loop_
_atom_site_type_symbol
_atom_site_label
_atom_site_fract_x
_atom_site_fract_y
_atom_site_fract_z
Si Si1 0.667374 0.148157 0.134051
Si Si2 0.437245 0.750000 0.366354
Si Si3 0.433352 0.396712 0.107000
Si Si4 0.214014 0.145846 0.802600
Si Si5 0.093213 0.544835 0.146020
Si Si6 0.096847 0.859325 0.794895
Si Si7 0.761699 0.497165 0.732593
O O1 0.669569 0.250000 0.042270
O O2 0.570696 0.168364 0.475722
O O3 0.643137 0.057021 0.072467
O O4 0.832348 0.125215 0.889075
O O5 0.450578 0.830832 0.203691
O O6 0.359153 0.361710 0.411253
O O7 0.299699 0.410579 0.235924
O O8 0.500000 0.500000 0.000000
O O9 0.214764 0.250000 0.881121
O O10 0.191859 0.052066 0.950272
O O11 0.068629 0.142641 0.966584
O O12 0.919134 0.522274 0.512942
O O13 0.095739 0.586179 0.962507
O O14 0.141033 0.750000 0.736450
O O15 0.194737 0.918938 0.482932
#
# Coordination Sequence:
#
# PCOD9159186 Si02
#       7
#     4   2   4   4   4   4   4
#     4  10  24  43  61  89 131 166 209 253 315 384
#     4  10  26  44  58  88 134 172 220 258 302 378
#     4  12  23  40  67  91 125 171 219 266 306 361
#     4  10  19  36  59  93 126 151 200 268 321 361
#     4  11  19  38  66  99 124 158 196 267 333 377
#     4  10  19  32  63  97 125 151 199 266 329 373
#     4  11  22  40  64  94 127 167 209 255 320 387
#
# _framework density 24.512763
#
# number of rings (size 3 to 8) (size 9 to 14) (size 15 to 20)
#    0.462    0.923    3.846    3.231    0.000    1.231 
#    2.769    0.000    5.077    0.000    0.000    0.000 
#    0.000    0.000    0.000    0.000    0.000    0.000 
#
# Total GULP energy -144869.845792 kJ/mol
# GULP energy per Si atom -5571.917146 kJ/mol
# Density = 2.445697 g / cm^3
# Si number density = 24.512763 Si / 1000 Ang^3
#
#
#
# Elastic Constant Matrix: (Units=GPa)
#
#
# Indices 1 2 3 4 5 6 
#
# 1 35.0101 3.4757 6.8817 0.0000 -1.0499 0.0000
# 2 3.4757 104.9672 7.6806 0.0000 5.6116 0.0000
# 3 6.8817 7.6806 69.1755 0.0000 17.4328 0.0000
# 4 0.0000 0.0000 0.0000 24.5244 0.0000 17.2515
# 5 -1.0499 5.6116 17.4328 0.0000 25.8752 0.0000
# 6 0.0000 0.0000 0.0000 17.2515 0.0000 45.0496
#
#
#
# Elastic Compliance Matrix: (Units=1/GPa)
#
#
# Indices 1 2 3 4 5 6 
#
# 1 0.029528 -0.000910 -0.003840 0.000000 0.003983 0.000000
# 2 -0.000910 0.009691 -0.000538 0.000000 -0.001776 0.000000
# 3 -0.003840 -0.000538 0.017956 0.000000 -0.012137 0.000000
# 4 0.000000 0.000000 0.000000 0.055810 0.000000 -0.021372
# 5 0.003983 -0.001776 -0.012137 0.000000 0.047371 0.000000
# 6 0.000000 0.000000 0.000000 -0.021372 0.000000 0.030382
#
#
# Mechanical properties :
#
#
# Convention : Reuss Voigt Hill
#
# Bulk Modulus (GPa) = 21.45923 27.24763 24.35343
# Shear Modulus (GPa) = 23.05777 31.83083 27.44430
#
# Velocity S-wave (km/s) = 3.07032 3.60744 3.34966
# Velocity P-wave (km/s) = 4.61979 5.33772 4.99168
#
# Compressibility (1/GPa) = 0.04659999
#
# Stress axis : x y z
#
# Youngs Moduli (GPa) = 33.86639 103.18615 55.69077
#
# Poissons Ratio (x) = 0.09386 0.21386
# Poissons Ratio (y) = 0.03081 0.02996
# Poissons Ratio (z) = 0.13005 0.05550
#
# Static dielectric constant tensor:
#      x y z
#    x 2.062130 0.000000 -0.035630 
#    y 0.000000 1.902090 0.000000 
#    z -0.035630 0.000000 1.972130 
# 
# From -- ./inp_files/26781.got.cif
#   From: 2010.05.17/outbox.cif.g08.bks.cpg/sg11_14_cif.got.tgz:26781.got - 2010.06.03 12:22:45.
