data_PCOD9159858
_publ_section_title
;
Structure prediction by ZEFSAII (Michael W. Deem and Ramdas Pophale) SiO2 
 PCOD9159858
Probable space group: P 21/M
;
_chemical_formula_sum "Si O2"
_cell_formula_units_Z 28
_cell_length_a 17.321670
_cell_length_b 8.701516
_cell_length_c 21.783426
_cell_angle_alpha 90.000000
_cell_angle_beta 25.000700
_cell_angle_gamma 90.000000
_cell_volume 1387.619857
_symmetry_space_group_name_H-M "P 21/M"
_symmetry_group_IT_number 11
_symmetry_cell_setting 'monoclinic'
loop_
_space_group_symop_operation_xyz
x,y,z
-x,1/2+y,-z
-x,-y,-z
x,1/2-y,z
loop_
_atom_site_type_symbol
_atom_site_label
_atom_site_fract_x
_atom_site_fract_y
_atom_site_fract_z
Si Si1 0.786166 0.434896 0.289125
Si Si2 0.183227 0.064282 0.047895
Si Si3 0.533283 0.438298 0.714075
Si Si4 0.662814 0.919507 0.815454
Si Si5 0.174351 0.926318 0.406660
Si Si6 0.493609 0.435227 0.602341
Si Si7 0.768581 0.422393 0.853836
O O1 0.776617 0.250000 0.291759
O O2 0.664532 0.482069 0.436080
O O3 0.686952 0.505045 0.301604
O O4 0.996446 0.477475 0.147392
O O5 0.188949 0.250000 0.050222
O O6 0.176288 0.990996 0.120538
O O7 0.360929 0.015650 0.880638
O O8 0.536367 0.250000 0.712698
O O9 0.723603 0.492660 0.607372
O O10 0.511582 0.488071 0.659479
O O11 0.711948 0.750000 0.755789
O O12 0.676604 0.050526 0.754560
O O13 0.793966 0.965717 0.777463
O O14 0.451810 0.909446 0.985672
O O15 0.136281 0.750000 0.445775
O O16 0.000000 0.000000 0.500000
O O17 0.489341 0.250000 0.606078
O O18 0.842312 0.250000 0.790912
#
# Coordination Sequence:
#
# PCOD9159858 Si02
#       7
#     4   4   4   4   4   4   4
#     4   9  19  34  55  82 109 139 178 223 272 329
#     4  10  19  34  55  80 110 145 184 226 275 332
#     4   9  19  35  56  78 106 145 184 224 275 334
#     4  10  20  35  54  76 105 143 185 226 275 330
#     4  11  22  37  56  79 110 146 189 234 282 335
#     4   9  18  36  57  77 105 142 180 219 271 332
#     4  10  20  33  53  80 108 139 180 228 277 325
#
# _framework density 20.178436000000001
#
# number of rings (size 3 to 8) (size 9 to 14) (size 15 to 20)
#    0.000    2.286    1.429    1.286    0.000    3.429 
#    0.000    5.000    0.000    0.000    0.000    0.000 
#    0.000    0.000    0.000    0.000    0.000    0.000 
#
# Total GULP energy -156103.480977 kJ/mol
# GULP energy per Si atom -5575.124321 kJ/mol
# Density = 2.013251 g / cm^3
# Si number density = 20.178436 Si / 1000 Ang^3
#
#
#
# Elastic Constant Matrix: (Units=GPa)
#
#
# Indices 1 2 3 4 5 6 
#
# 1 184.1048 20.1804 44.9547 0.0000 -20.8620 0.0000
# 2 20.1804 16.6293 9.8978 0.0000 -14.1493 0.0000
# 3 44.9547 9.8978 47.3932 0.0000 -28.4135 0.0000
# 4 0.0000 0.0000 0.0000 20.8380 0.0000 -2.6817
# 5 -20.8620 -14.1493 -28.4135 0.0000 28.2670 0.0000
# 6 0.0000 0.0000 0.0000 -2.6817 0.0000 29.9264
#
#
#
# Elastic Compliance Matrix: (Units=1/GPa)
#
#
# Indices 1 2 3 4 5 6 
#
# 1 0.009010 -0.016059 -0.015163 0.000000 -0.016631 0.000000
# 2 -0.016059 0.145535 0.053875 0.000000 0.115151 0.000000
# 3 -0.015163 0.053875 0.084784 0.000000 0.101000 0.000000
# 4 0.000000 0.000000 0.000000 0.048549 0.000000 0.004351
# 5 -0.016631 0.115151 0.101000 0.000000 0.182267 0.000000
# 6 0.000000 0.000000 0.000000 0.004351 0.000000 0.033805
#
#
# Mechanical properties :
#
#
# Convention : Reuss Voigt Hill
#
# Bulk Modulus (GPa) = 3.51328 44.24367 23.87848
# Shear Modulus (GPa) = 9.03305 27.34588 18.18947
#
# Velocity S-wave (km/s) = 2.11809 3.68530 3.00564
# Velocity P-wave (km/s) = 2.77968 6.33107 4.88923
#
# Compressibility (1/GPa) = 0.28463423
#
# Stress axis : x y z
#
# Youngs Moduli (GPa) = 110.98759 6.87121 11.79467
#
# Poissons Ratio (x) = 0.11035 0.17884
# Poissons Ratio (y) = 1.78239 -0.63544
# Poissons Ratio (z) = 1.68291 -0.37019
#
# Static dielectric constant tensor:
#      x y z
#    x 1.708090 0.000000 0.012580 
#    y 0.000000 1.678370 0.000000 
#    z 0.012580 0.000000 1.772460 
# 
# From -- ./inp_files/54455.got.cif
#   From: 2010.05.17/outbox.cif.g08.bks.cpg/sg11_28_cif.got.tgz:54455.got - 2010.06.03 12:22:45.
