data_PCOD9159063
_publ_section_title
;
Structure prediction by ZEFSAII (Michael W. Deem and Ramdas Pophale) SiO2 
 PCOD9159063
Probable space group: P 21/M
;
_chemical_formula_sum "Si O2"
_cell_formula_units_Z 28
_cell_length_a 18.662559
_cell_length_b 8.858695
_cell_length_c 9.786090
_cell_angle_alpha 90.000000
_cell_angle_beta 83.788800
_cell_angle_gamma 90.000000
_cell_volume 1608.397005
_symmetry_space_group_name_H-M "P 21/M"
_symmetry_group_IT_number 11
_symmetry_cell_setting 'monoclinic'
loop_
_space_group_symop_operation_xyz
x,y,z
-x,1/2+y,-z
-x,-y,-z
x,1/2-y,z
loop_
_atom_site_type_symbol
_atom_site_label
_atom_site_fract_x
_atom_site_fract_y
_atom_site_fract_z
Si Si1 0.507533 0.431836 0.346920
Si Si2 0.198661 0.431878 0.777759
Si Si3 0.642979 0.932619 0.154425
Si Si4 0.097001 0.572515 0.596646
Si Si5 0.567608 0.568644 0.904797
Si Si6 0.922748 0.929399 0.979708
Si Si7 0.945758 0.073093 0.703479
O O1 0.500000 0.500000 0.500000
O O2 0.509162 0.250000 0.356610
O O3 0.580279 0.490994 0.257625
O O4 0.443483 0.475995 0.251700
O O5 0.196731 0.250000 0.765264
O O6 0.278626 0.475699 0.806428
O O7 0.169230 0.506584 0.646193
O O8 0.140067 0.477040 0.904367
O O9 0.635546 0.750000 0.167982
O O10 0.632687 0.971143 0.994891
O O11 0.089934 0.750000 0.628581
O O12 0.091140 0.552290 0.435484
O O13 0.027665 0.486520 0.672442
O O14 0.562522 0.750000 0.906498
O O15 0.500000 0.500000 0.000000
O O16 0.929043 0.750000 0.985133
O O17 0.906678 0.982568 0.830104
O O18 0.000000 0.000000 0.000000
O O19 0.947936 0.250000 0.736193
#
# Coordination Sequence:
#
# PCOD9159063 Si02
#       7
#     4   4   4   4   4   4   4
#     4  10  19  32  53  82 110 139 173 211 251 303
#     4  10  21  35  53  76 104 135 172 217 267 318
#     4   9  18  35  55  76 103 137 173 215 262 309
#     4  10  20  33  52  74  99 134 172 214 265 317
#     4   8  15  29  51  75 101 132 170 207 246 296
#     4  11  21  33  51  76 102 134 175 220 265 313
#     4  10  20  34  51  73  99 129 172 221 266 315
#
# _framework density 17.408638
#
# number of rings (size 3 to 8) (size 9 to 14) (size 15 to 20)
#    0.000    2.286    1.429    1.714    0.000    3.429 
#    0.000    1.429    0.000    3.429    0.000    0.000 
#    0.000    0.000    0.000    0.000    0.000    0.000 
#
# Total GULP energy -156036.788051 kJ/mol
# GULP energy per Si atom -5572.742430 kJ/mol
# Density = 1.736901 g / cm^3
# Si number density = 17.408638 Si / 1000 Ang^3
#
#
#
# Elastic Constant Matrix: (Units=GPa)
#
#
# Indices 1 2 3 4 5 6 
#
# 1 99.3179 30.5361 50.2972 0.0000 29.3596 0.0000
# 2 30.5361 28.1932 35.6835 0.0000 7.8292 0.0000
# 3 50.2972 35.6835 113.2948 0.0000 21.6432 0.0000
# 4 0.0000 0.0000 0.0000 31.0137 0.0000 2.2424
# 5 29.3596 7.8292 21.6432 0.0000 30.3599 0.0000
# 6 0.0000 0.0000 0.0000 2.2424 0.0000 21.4061
#
#
#
# Elastic Compliance Matrix: (Units=1/GPa)
#
#
# Indices 1 2 3 4 5 6 
#
# 1 0.019748 -0.016265 -0.000923 0.000000 -0.014245 0.000000
# 2 -0.016265 0.072515 -0.017424 0.000000 0.009450 0.000000
# 3 -0.000923 -0.017424 0.015854 0.000000 -0.005917 0.000000
# 4 0.000000 0.000000 0.000000 0.032490 0.000000 -0.003404
# 5 -0.014245 0.009450 -0.005917 0.000000 0.048494 0.000000
# 6 0.000000 0.000000 0.000000 -0.003404 0.000000 0.047072
#
#
# Mechanical properties :
#
#
# Convention : Reuss Voigt Hill
#
# Bulk Modulus (GPa) = 25.71130 52.64882 39.18006
# Shear Modulus (GPa) = 15.70543 24.84189 20.27366
#
# Velocity S-wave (km/s) = 3.00686 3.78165 3.41629
# Velocity P-wave (km/s) = 5.18231 7.02683 6.17384
#
# Compressibility (1/GPa) = 0.03889341
#
# Stress axis : x y z
#
# Youngs Moduli (GPa) = 50.63845 13.79033 63.07414
#
# Poissons Ratio (x) = 0.22430 0.05822
# Poissons Ratio (y) = 0.82363 1.09899
# Poissons Ratio (z) = 0.04674 0.24028
#
# Static dielectric constant tensor:
#      x y z
#    x 1.576930 0.000000 0.038570 
#    y 0.000000 1.585130 0.000000 
#    z 0.038570 0.000000 1.632750 
# 
# From -- ./inp_files/25570.got.cif
#   From: 2010.05.17/outbox.cif.g08.bks.cpg/sg11_13_cif.got.tgz:25570.got - 2010.06.03 12:22:45.
