data_PCOD9159361
_publ_section_title
;
Structure prediction by ZEFSAII (Michael W. Deem and Ramdas Pophale) SiO2 
 PCOD9159361
Probable space group: P 21/M
;
_chemical_formula_sum "Si O2"
_cell_formula_units_Z 24
_cell_length_a 16.410833
_cell_length_b 14.440344
_cell_length_c 10.120837
_cell_angle_alpha 90.000000
_cell_angle_beta 147.982725
_cell_angle_gamma 90.000000
_cell_volume 1271.580281
_symmetry_space_group_name_H-M "P 21/M"
_symmetry_group_IT_number 11
_symmetry_cell_setting 'monoclinic'
loop_
_space_group_symop_operation_xyz
x,y,z
-x,1/2+y,-z
-x,-y,-z
x,1/2-y,z
loop_
_atom_site_type_symbol
_atom_site_label
_atom_site_fract_x
_atom_site_fract_y
_atom_site_fract_z
Si Si1 0.530820 0.453275 0.313594
Si Si2 0.401531 0.646846 0.850807
Si Si3 0.925446 0.140447 0.481262
Si Si4 0.820550 0.002769 0.100900
Si Si5 0.541216 0.849290 0.337976
Si Si6 0.714027 0.148707 0.780704
O O1 0.536765 0.425738 0.169082
O O2 0.616653 0.550957 0.460196
O O3 0.614282 0.376628 0.516050
O O4 0.353544 0.468307 0.111137
O O5 0.436415 0.750000 0.847755
O O6 0.219278 0.636623 0.619165
O O7 0.470325 0.643551 0.093173
O O8 0.950922 0.250000 0.484716
O O9 0.070005 0.086169 0.740221
O O10 0.874653 0.078022 0.285614
O O11 0.821821 0.063194 0.968966
O O12 0.624382 0.750000 0.461968
O O13 0.405972 0.846184 0.261077
O O14 0.787441 0.250000 0.869597
#
# Coordination Sequence:
#
# PCOD9159361 Si02
#       6
#     4   4   4   4   4   4
#     4  11  20  32  55  84 108 132 178 226 263 305
#     4  10  19  33  53  79 108 141 173 214 269 317
#     4  10  20  35  54  77 107 143 178 214 263 319
#     4  10  20  34  56  78 105 140 183 217 262 306
#     4   9  17  30  50  72 105 143 173 205 259 317
#     4  10  19  34  54  79 109 141 175 217 266 320
#
# _framework density 18.874153
#
# number of rings (size 3 to 8) (size 9 to 14) (size 15 to 20)
#    0.000    2.000    3.333    3.500    0.000    1.333 
#    0.000    1.667    0.000    1.000    0.000    0.000 
#    0.000    0.000    0.000    0.000    0.000    0.000 
#
# Total GULP energy -133608.783265 kJ/mol
# GULP energy per Si atom -5567.032636 kJ/mol
# Density = 1.883119 g / cm^3
# Si number density = 18.874153 Si / 1000 Ang^3
#
#
#
# Elastic Constant Matrix: (Units=GPa)
#
#
# Indices 1 2 3 4 5 6 
#
# 1 13.5489 2.4354 3.4267 0.0000 -5.0769 0.0000
# 2 2.4354 87.3420 6.7514 0.0000 11.8069 0.0000
# 3 3.4267 6.7514 50.9828 0.0000 -4.0820 0.0000
# 4 0.0000 0.0000 0.0000 44.3710 0.0000 -8.5374
# 5 -5.0769 11.8069 -4.0820 0.0000 17.1391 0.0000
# 6 0.0000 0.0000 0.0000 -8.5374 0.0000 20.2671
#
#
#
# Elastic Compliance Matrix: (Units=1/GPa)
#
#
# Indices 1 2 3 4 5 6 
#
# 1 0.086546 -0.006161 -0.002659 0.000000 0.029247 0.000000
# 2 -0.006161 0.013362 -0.002282 0.000000 -0.011573 0.000000
# 3 -0.002659 -0.002282 0.020550 0.000000 0.005679 0.000000
# 4 0.000000 0.000000 0.000000 0.024525 0.000000 0.010331
# 5 0.029247 -0.011573 0.005679 0.000000 0.076335 0.000000
# 6 0.000000 0.000000 0.000000 0.010331 0.000000 0.053693
#
#
# Mechanical properties :
#
#
# Convention : Reuss Voigt Hill
#
# Bulk Modulus (GPa) = 10.17782 19.67784 14.92783
# Shear Modulus (GPa) = 15.15301 25.63944 20.39623
#
# Velocity S-wave (km/s) = 2.83653 3.68970 3.29088
# Velocity P-wave (km/s) = 4.01647 5.34793 4.72929
#
# Compressibility (1/GPa) = 0.09825285
#
# Stress axis : x y z
#
# Youngs Moduli (GPa) = 11.55454 74.83944 48.66167
#
# Poissons Ratio (x) = 0.46111 0.12941
# Poissons Ratio (y) = 0.07119 0.11104
# Poissons Ratio (z) = 0.03073 0.17078
#
# Static dielectric constant tensor:
#      x y z
#    x 1.630800 0.000000 -0.019890 
#    y 0.000000 1.651880 0.000000 
#    z -0.019890 0.000000 1.660930 
# 
# From -- ./inp_files/12610.got.cif
#   From: 2010.05.17/outbox.cif.g08.bks.cpg/sg11_7_cif.got.tgz:12610.got - 2010.06.03 12:22:45.
