data_PCOD9159225
_publ_section_title
;
Structure prediction by ZEFSAII (Michael W. Deem and Ramdas Pophale) SiO2 
 PCOD9159225
Probable space group: P 21/M
;
_chemical_formula_sum "Si O2"
_cell_formula_units_Z 32
_cell_length_a 16.586102
_cell_length_b 11.244947
_cell_length_c 9.339907
_cell_angle_alpha 90.000000
_cell_angle_beta 81.612700
_cell_angle_gamma 90.000000
_cell_volume 1723.353474
_symmetry_space_group_name_H-M "P 21/M"
_symmetry_group_IT_number 11
_symmetry_cell_setting 'monoclinic'
loop_
_space_group_symop_operation_xyz
x,y,z
-x,1/2+y,-z
-x,-y,-z
x,1/2-y,z
loop_
_atom_site_type_symbol
_atom_site_label
_atom_site_fract_x
_atom_site_fract_y
_atom_site_fract_z
Si Si1 0.720891 0.890983 0.859300
Si Si2 0.939710 0.377955 0.171886
Si Si3 0.890829 0.519548 0.935455
Si Si4 0.717863 0.609964 0.529686
Si Si5 0.449668 0.392056 0.936426
Si Si6 0.052619 0.876974 0.323009
Si Si7 0.451972 0.390753 0.589697
Si Si8 0.109628 0.015583 0.561323
O O1 0.735899 0.750000 0.850760
O O2 0.802101 0.947958 0.903983
O O3 0.704512 0.930057 0.698719
O O4 0.641862 0.908727 0.978840
O O5 0.909097 0.250000 0.136304
O O6 0.919584 0.401797 0.341547
O O7 0.036503 0.388714 0.118860
O O8 0.895926 0.484680 0.099262
O O9 0.924094 0.402593 0.845233
O O10 0.737027 0.750000 0.530914
O O11 0.638748 0.596832 0.451985
O O12 0.797028 0.546588 0.445904
O O13 0.471725 0.250000 0.962381
O O14 0.453957 0.404660 0.762203
O O15 0.500000 0.500000 0.000000
O O16 0.084300 0.750000 0.360162
O O17 0.956139 0.886557 0.374036
O O18 0.092753 0.983630 0.401317
O O19 0.500000 0.500000 0.500000
O O20 0.476924 0.250000 0.553328
#
# Coordination Sequence:
#
# PCOD9159225 Si02
#       8
#     4   4   4   4   4   4   4   4
#     4  10  20  36  60  86 113 148 191 239 285 338
#     4  10  21  35  51  74 110 151 191 239 289 336
#     4  10  20  35  54  77 106 147 195 235 282 340
#     4  10  20  36  59  86 115 148 190 239 285 338
#     4  10  22  41  67  96 124 155 195 241 295 359
#     4  10  19  33  51  74 108 148 192 239 281 329
#     4  10  22  41  67  96 125 155 192 241 297 360
#     4  10  20  33  52  79 107 147 193 234 283 335
#
# _framework density 18.568449000000001
#
# number of rings (size 3 to 8) (size 9 to 14) (size 15 to 20)
#    0.000    2.000    1.250    2.250    1.750    1.500 
#    0.000    3.750    0.000    0.000    0.000    0.000 
#    0.000    0.000    0.000    0.000    0.000    0.000 
#
# Total GULP energy -178143.464895 kJ/mol
# GULP energy per Si atom -5566.983278 kJ/mol
# Density = 1.852619 g / cm^3
# Si number density = 18.568449 Si / 1000 Ang^3
#
#
#
# Elastic Constant Matrix: (Units=GPa)
#
#
# Indices 1 2 3 4 5 6 
#
# 1 98.6889 51.8529 30.3346 0.0000 3.3866 0.0000
# 2 51.8529 87.7577 30.7917 0.0000 -0.1810 0.0000
# 3 30.3346 30.7917 74.3357 0.0000 6.6183 0.0000
# 4 0.0000 0.0000 0.0000 19.0844 0.0000 10.7655
# 5 3.3866 -0.1810 6.6183 0.0000 28.3492 0.0000
# 6 0.0000 0.0000 0.0000 10.7655 0.0000 9.1988
#
#
#
# Elastic Compliance Matrix: (Units=1/GPa)
#
#
# Indices 1 2 3 4 5 6 
#
# 1 0.015255 -0.008038 -0.002787 0.000000 -0.001223 0.000000
# 2 -0.008038 0.017623 -0.004203 0.000000 0.002054 0.000000
# 3 -0.002787 -0.004203 0.016649 0.000000 -0.003581 0.000000
# 4 0.000000 0.000000 0.000000 0.154189 0.000000 -0.180448
# 5 -0.001223 0.002054 -0.003581 0.000000 0.036270 0.000000
# 6 0.000000 0.000000 0.000000 -0.180448 0.000000 0.319888
#
#
# Mechanical properties :
#
#
# Convention : Reuss Voigt Hill
#
# Bulk Modulus (GPa) = 51.35473 54.08230 52.71851
# Shear Modulus (GPa) = 8.38335 21.18005 14.78170
#
# Velocity S-wave (km/s) = 2.12712 3.38101 2.82452
# Velocity P-wave (km/s) = 5.80946 6.66564 6.25223
#
# Compressibility (1/GPa) = 0.01947240
#
# Stress axis : x y z
#
# Youngs Moduli (GPa) = 65.55304 56.74271 60.06274
#
# Poissons Ratio (x) = 0.45612 0.16737
# Poissons Ratio (y) = 0.52694 0.25242
# Poissons Ratio (z) = 0.18267 0.23847
#
# Static dielectric constant tensor:
#      x y z
#    x 1.607750 0.000000 0.005360 
#    y 0.000000 1.700480 0.000000 
#    z 0.005360 0.000000 1.637260 
# 
# From -- ./inp_files/21533.got.cif
#   From: 2010.05.17/outbox.cif.g08.bks.cpg/sg11_11_cif.got.tgz:21533.got - 2010.06.03 12:22:45.
