data_PCOD9159009
_publ_section_title
;
Structure prediction by ZEFSAII (Michael W. Deem and Ramdas Pophale) SiO2 
 PCOD9159009
Probable space group: P 21/M
;
_chemical_formula_sum "Si O2"
_cell_formula_units_Z 28
_cell_length_a 14.237083
_cell_length_b 7.739437
_cell_length_c 16.817556
_cell_angle_alpha 90.000000
_cell_angle_beta 131.435189
_cell_angle_gamma 90.000000
_cell_volume 1389.260044
_symmetry_space_group_name_H-M "P 21/M"
_symmetry_group_IT_number 11
_symmetry_cell_setting 'monoclinic'
loop_
_space_group_symop_operation_xyz
x,y,z
-x,1/2+y,-z
-x,-y,-z
x,1/2-y,z
loop_
_atom_site_type_symbol
_atom_site_label
_atom_site_fract_x
_atom_site_fract_y
_atom_site_fract_z
Si Si1 0.439807 0.043253 0.882383
Si Si2 0.465336 0.540787 0.234062
Si Si3 0.016029 0.048984 0.876697
Si Si4 0.266002 0.042615 0.559099
Si Si5 0.185818 0.454077 0.112339
Si Si6 0.169841 0.461105 0.674490
Si Si7 0.046345 0.957588 0.331849
O O1 0.437040 0.250000 0.874646
O O2 0.515067 0.981429 0.846542
O O3 0.295849 0.986145 0.792032
O O4 0.500000 0.000000 0.000000
O O5 0.463426 0.750000 0.233488
O O6 0.590332 0.483561 0.351202
O O7 0.333599 0.480339 0.194069
O O8 0.049019 0.250000 0.883208
O O9 0.993848 0.973379 0.776979
O O10 0.123218 0.976241 0.995296
O O11 0.888497 0.037036 0.856180
O O12 0.269668 0.250000 0.565996
O O13 0.190758 0.980062 0.595601
O O14 0.187506 0.995452 0.437793
O O15 0.158260 0.250000 0.101070
O O16 0.165617 0.250000 0.670619
O O17 0.048099 0.523383 0.652835
O O18 0.034733 0.750000 0.323023
#
# Coordination Sequence:
#
# PCOD9159009 Si02
#       7
#     4   4   4   4   4   4   4
#     4   9  18  31  48  72 104 138 171 207 248 300
#     4   9  19  35  53  73 103 141 170 203 261 311
#     4   9  20  36  53  77 106 134 164 208 265 312
#     4   9  18  34  52  74 104 139 173 207 250 298
#     4  10  20  35  57  80 100 130 172 214 256 306
#     4   8  16  31  50  71 102 141 171 200 249 305
#     4  10  19  32  53  77 102 135 173 210 253 301
#
# _framework density 20.154615
#
# number of rings (size 3 to 8) (size 9 to 14) (size 15 to 20)
#    0.000    2.857    0.000    2.571    2.000    2.286 
#    0.000    3.571    0.000    0.000    0.000    0.000 
#    0.000    0.000    0.000    0.000    0.000    0.000 
#
# Total GULP energy -156155.080109 kJ/mol
# GULP energy per Si atom -5576.967147 kJ/mol
# Density = 2.010874 g / cm^3
# Si number density = 20.154615 Si / 1000 Ang^3
#
#
#
# Elastic Constant Matrix: (Units=GPa)
#
#
# Indices 1 2 3 4 5 6 
#
# 1 74.2130 -7.3653 32.0854 0.0000 20.0330 0.0000
# 2 -7.3653 28.1688 -3.4487 0.0000 -2.0325 0.0000
# 3 32.0854 -3.4487 86.9082 0.0000 1.9266 0.0000
# 4 0.0000 0.0000 0.0000 22.0430 0.0000 -0.0977
# 5 20.0330 -2.0325 1.9266 0.0000 17.1111 0.0000
# 6 0.0000 0.0000 0.0000 -0.0977 0.0000 11.3118
#
#
#
# Elastic Compliance Matrix: (Units=1/GPa)
#
#
# Indices 1 2 3 4 5 6 
#
# 1 0.025029 0.003490 -0.008483 0.000000 -0.027933 0.000000
# 2 0.003490 0.036448 0.000153 0.000000 0.000226 0.000000
# 3 -0.008483 0.000153 0.014460 0.000000 0.008321 0.000000
# 4 0.000000 0.000000 0.000000 0.045368 0.000000 0.000392
# 5 -0.027933 0.000226 0.008321 0.000000 0.090235 0.000000
# 6 0.000000 0.000000 0.000000 0.000392 0.000000 0.088406
#
#
# Mechanical properties :
#
#
# Convention : Reuss Voigt Hill
#
# Bulk Modulus (GPa) = 15.09273 25.75919 20.42596
# Shear Modulus (GPa) = 15.07342 21.29443 18.18392
#
# Velocity S-wave (km/s) = 2.73772 3.25399 3.00696
# Velocity P-wave (km/s) = 4.18309 5.18907 4.71300
#
# Compressibility (1/GPa) = 0.06625709
#
# Stress axis : x y z
#
# Youngs Moduli (GPa) = 39.95408 27.43647 69.15797
#
# Poissons Ratio (x) = -0.09576 0.58664
# Poissons Ratio (y) = -0.13945 -0.01057
# Poissons Ratio (z) = 0.33891 -0.00419
#
# Static dielectric constant tensor:
#      x y z
#    x 1.693520 0.000000 -0.001690 
#    y 0.000000 1.753650 0.000000 
#    z -0.001690 0.000000 1.725450 
# 
# From -- ./inp_files/49504.got.cif
#   From: 2010.05.17/outbox.cif.g08.bks.cpg/sg11_25_cif.got.tgz:49504.got - 2010.06.03 12:22:45.
