data_PCOD9159878
_publ_section_title
;
Structure prediction by ZEFSAII (Michael W. Deem and Ramdas Pophale) SiO2 
 PCOD9159878
Probable space group: P 21/M
;
_chemical_formula_sum "Si O2"
_cell_formula_units_Z 28
_cell_length_a 15.356918
_cell_length_b 8.723804
_cell_length_c 22.379242
_cell_angle_alpha 90.000000
_cell_angle_beta 147.095565
_cell_angle_gamma 90.000000
_cell_volume 1628.720752
_symmetry_space_group_name_H-M "P 21/M"
_symmetry_group_IT_number 11
_symmetry_cell_setting 'monoclinic'
loop_
_space_group_symop_operation_xyz
x,y,z
-x,1/2+y,-z
-x,-y,-z
x,1/2-y,z
loop_
_atom_site_type_symbol
_atom_site_label
_atom_site_fract_x
_atom_site_fract_y
_atom_site_fract_z
Si Si1 0.564515 0.932376 0.974735
Si Si2 0.676008 0.432258 0.392658
Si Si3 0.020293 0.566383 0.627239
Si Si4 0.905383 0.433741 0.190712
Si Si5 0.507540 0.567691 0.407149
Si Si6 0.328039 0.433078 0.739802
Si Si7 0.746235 0.933841 0.653866
O O1 0.543214 0.750000 0.962437
O O2 0.750479 0.978304 0.078280
O O3 0.500000 0.000000 0.000000
O O4 0.461743 0.005261 0.862358
O O5 0.679631 0.250000 0.388672
O O6 0.550655 0.482882 0.371131
O O7 0.639447 0.508730 0.308099
O O8 0.849910 0.492736 0.513926
O O9 0.008830 0.750000 0.613812
O O10 0.068061 0.534147 0.723535
O O11 0.158318 0.500740 0.664318
O O12 0.880145 0.250000 0.170720
O O13 0.069379 0.474263 0.251155
O O14 0.511246 0.750000 0.399942
O O15 0.342295 0.516244 0.342664
O O16 0.645058 0.529260 0.535542
O O17 0.321705 0.250000 0.737976
O O18 0.735127 0.750000 0.655499
#
# Coordination Sequence:
#
# PCOD9159878 Si02
#       7
#     4   4   4   4   4   4   4
#     4  12  24  39  59  84 114 149 194 239 284 334
#     4  12  24  38  57  83 117 155 193 234 285 343
#     4  11  21  37  58  84 118 153 190 233 282 339
#     4  10  20  36  59  84 117 152 189 235 284 334
#     4  10  19  34  55  83 116 150 188 233 282 337
#     4  12  25  41  59  81 112 153 197 237 285 340
#     4   9  18  34  55  83 115 149 186 231 283 335
#
# _framework density 17.191406000000001
#
# number of rings (size 3 to 8) (size 9 to 14) (size 15 to 20)
#    0.000    1.143    2.857    5.143    0.000    1.714 
#    0.000    0.000    0.000    0.857    0.000    0.000 
#    0.000    0.000    0.000    0.000    0.000    0.000 
#
# Total GULP energy -156554.181501 kJ/mol
# GULP energy per Si atom -5591.220768 kJ/mol
# Density = 1.715228 g / cm^3
# Si number density = 17.191406 Si / 1000 Ang^3
#
#
#
# Elastic Constant Matrix: (Units=GPa)
#
#
# Indices 1 2 3 4 5 6 
#
# 1 109.2248 33.4107 37.5611 0.0000 3.8391 0.0000
# 2 33.4107 70.7662 19.8539 0.0000 -0.9604 0.0000
# 3 37.5611 19.8539 46.9826 0.0000 -2.6613 0.0000
# 4 0.0000 0.0000 0.0000 29.0208 0.0000 2.1359
# 5 3.8391 -0.9604 -2.6613 0.0000 26.7600 0.0000
# 6 0.0000 0.0000 0.0000 2.1359 0.0000 29.7152
#
#
#
# Elastic Compliance Matrix: (Units=1/GPa)
#
#
# Indices 1 2 3 4 5 6 
#
# 1 0.013708 -0.003846 -0.009507 0.000000 -0.003050 0.000000
# 2 -0.003846 0.017111 -0.004113 0.000000 0.000757 0.000000
# 3 -0.009507 -0.004113 0.030866 0.000000 0.004286 0.000000
# 4 0.000000 0.000000 0.000000 0.034641 0.000000 -0.002490
# 5 -0.003050 0.000757 0.004286 0.000000 0.038260 0.000000
# 6 0.000000 0.000000 0.000000 -0.002490 0.000000 0.033832
#
#
# Mechanical properties :
#
#
# Convention : Reuss Voigt Hill
#
# Bulk Modulus (GPa) = 37.37887 45.40278 41.39082
# Shear Modulus (GPa) = 23.55505 26.17573 24.86539
#
# Velocity S-wave (km/s) = 3.70559 3.90629 3.80726
# Velocity P-wave (km/s) = 6.33234 6.84200 6.59210
#
# Compressibility (1/GPa) = 0.02675309
#
# Stress axis : x y z
#
# Youngs Moduli (GPa) = 72.94745 58.44130 32.39841
#
# Poissons Ratio (x) = 0.22479 0.30801
# Poissons Ratio (y) = 0.28058 0.13325
# Poissons Ratio (z) = 0.69350 0.24036
#
# Static dielectric constant tensor:
#      x y z
#    x 1.570260 0.000000 0.005920 
#    y 0.000000 1.572430 0.000000 
#    z 0.005920 0.000000 1.559990 
# 
# From -- ./inp_files/54502.got.cif
#   From: 2010.05.17/outbox.cif.g08.bks.cpg/sg11_28_cif.got.tgz:54502.got - 2010.06.03 12:22:45.
