data_PCOD9159877
_publ_section_title
;
Structure prediction by ZEFSAII (Michael W. Deem and Ramdas Pophale) SiO2 
 PCOD9159877
Probable space group: P 21/M
;
_chemical_formula_sum "Si O2"
_cell_formula_units_Z 32
_cell_length_a 10.735318
_cell_length_b 19.135476
_cell_length_c 11.264148
_cell_angle_alpha 90.000000
_cell_angle_beta 139.805357
_cell_angle_gamma 90.000000
_cell_volume 1493.386616
_symmetry_space_group_name_H-M "P 21/M"
_symmetry_group_IT_number 11
_symmetry_cell_setting 'monoclinic'
loop_
_space_group_symop_operation_xyz
x,y,z
-x,1/2+y,-z
-x,-y,-z
x,1/2-y,z
loop_
_atom_site_type_symbol
_atom_site_label
_atom_site_fract_x
_atom_site_fract_y
_atom_site_fract_z
Si Si1 0.757700 0.475085 0.337690
Si Si2 0.497256 0.671906 0.539210
Si Si3 0.638276 0.037125 0.929090
Si Si4 0.943044 0.625710 0.453466
Si Si5 0.671662 0.531999 0.704759
Si Si6 0.959917 0.172891 0.734591
Si Si7 0.028787 0.983012 0.255733
Si Si8 0.571012 0.670391 0.310862
O O1 0.531544 0.484353 0.156693
O O2 0.847624 0.549065 0.359714
O O3 0.820007 0.477201 0.524137
O O4 0.843885 0.401330 0.357703
O O5 0.568368 0.750000 0.616353
O O6 0.611973 0.611061 0.687891
O O7 0.271885 0.669741 0.411964
O O8 0.527917 0.659474 0.419562
O O9 0.548354 0.114081 0.852419
O O10 0.689609 0.014351 0.833283
O O11 0.833153 0.024113 0.141494
O O12 0.797286 0.659137 0.441671
O O13 0.972032 0.668624 0.353809
O O14 0.500000 0.500000 0.500000
O O15 0.861726 0.525588 0.765240
O O16 0.021150 0.250000 0.825482
O O17 0.023079 0.095781 0.824973
O O18 0.518553 0.750000 0.244523
#
# Coordination Sequence:
#
# PCOD9159877 Si02
#       8
#     4   4   4   4   4   4   4   4
#     4   9  18  35  54  81 116 140 190 250 288 338
#     4  10  20  34  58  86 115 152 187 234 303 349
#     4  11  21  34  57  87 115 155 198 239 295 353
#     4   9  17  32  58  82 106 151 190 233 291 339
#     4  12  17  34  57  83 119 149 193 250 282 336
#     4  10  19  34  55  83 115 151 195 240 293 353
#     4  11  21  34  57  87 115 155 198 239 295 353
#     4  10  19  34  55  83 115 151 195 240 293 353
#
# _framework density 21.427807999999999
#
# number of rings (size 3 to 8) (size 9 to 14) (size 15 to 20)
#    0.000    1.750    3.750    2.250    0.000    0.000 
#    0.000   16.875    0.000    7.500    0.000    3.500 
#    0.000    0.000    0.000    0.000    0.000    0.000 
#
# Total GULP energy -178400.802917 kJ/mol
# GULP energy per Si atom -5575.025091 kJ/mol
# Density = 2.137904 g / cm^3
# Si number density = 21.427808 Si / 1000 Ang^3
#
#
#
# Elastic Constant Matrix: (Units=GPa)
#
#
# Indices 1 2 3 4 5 6 
#
# 1 99.6661 12.3849 6.6858 0.0000 17.9779 0.0000
# 2 12.3849 126.9074 12.2157 0.0000 8.9227 0.0000
# 3 6.6858 12.2157 47.3199 0.0000 5.6622 0.0000
# 4 0.0000 0.0000 0.0000 14.2865 0.0000 -0.8184
# 5 17.9779 8.9227 5.6622 0.0000 32.3458 0.0000
# 6 0.0000 0.0000 0.0000 -0.8184 0.0000 32.3458
#
#
#
# Elastic Compliance Matrix: (Units=1/GPa)
#
#
# Indices 1 2 3 4 5 6 
#
# 1 0.011230 -0.000609 -0.000718 0.000000 -0.005948 0.000000
# 2 -0.000609 0.008230 -0.001846 0.000000 -0.001609 0.000000
# 3 -0.000718 -0.001846 0.022064 0.000000 -0.002954 0.000000
# 4 0.000000 0.000000 0.000000 0.070098 0.000000 0.001774
# 5 -0.005948 -0.001609 -0.002954 0.000000 0.035183 0.000000
# 6 0.000000 0.000000 0.000000 0.001774 0.000000 0.030961
#
#
# Mechanical properties :
#
#
# Convention : Reuss Voigt Hill
#
# Bulk Modulus (GPa) = 28.42578 37.38511 32.90545
# Shear Modulus (GPa) = 25.53138 31.96944 28.75041
#
# Velocity S-wave (km/s) = 3.45557 3.86678 3.66694
# Velocity P-wave (km/s) = 5.40517 6.11726 5.77221
#
# Compressibility (1/GPa) = 0.03517933
#
# Stress axis : x y z
#
# Youngs Moduli (GPa) = 89.04529 121.50716 45.32221
#
# Poissons Ratio (x) = 0.07395 0.03253
# Poissons Ratio (y) = 0.05420 0.08367
# Poissons Ratio (z) = 0.06392 0.22431
#
# Static dielectric constant tensor:
#      x y z
#    x 1.891110 0.000000 -0.016140 
#    y 0.000000 1.786260 0.000000 
#    z -0.016140 0.000000 1.822960 
# 
# From -- ./inp_files/36354.got.cif
#   From: 2010.05.17/outbox.cif.g08.bks.cpg/sg11_19_cif.got.tgz:36354.got - 2010.06.03 12:22:45.
