data_PCOD9159844
_publ_section_title
;
Structure prediction by ZEFSAII (Michael W. Deem and Ramdas Pophale) SiO2 
 PCOD9159844
Probable space group: P 21/M
;
_chemical_formula_sum "Si O2"
_cell_formula_units_Z 32
_cell_length_a 11.872526
_cell_length_b 14.323639
_cell_length_c 17.468966
_cell_angle_alpha 90.000000
_cell_angle_beta 146.415551
_cell_angle_gamma 90.000000
_cell_volume 1643.307173
_symmetry_space_group_name_H-M "P 21/M"
_symmetry_group_IT_number 11
_symmetry_cell_setting 'monoclinic'
loop_
_space_group_symop_operation_xyz
x,y,z
-x,1/2+y,-z
-x,-y,-z
x,1/2-y,z
loop_
_atom_site_type_symbol
_atom_site_label
_atom_site_fract_x
_atom_site_fract_y
_atom_site_fract_z
Si Si1 0.901481 0.146841 0.215627
Si Si2 0.428665 0.856360 0.727483
Si Si3 0.573491 0.638871 0.053492
Si Si4 0.153696 0.081011 0.490756
Si Si5 0.164078 0.506803 0.276985
Si Si6 0.777074 0.964254 0.308986
Si Si7 0.425834 0.553056 0.566265
Si Si8 0.830592 0.641611 0.045876
O O1 0.905838 0.250000 0.182817
O O2 0.026028 0.148929 0.365531
O O3 0.015665 0.070260 0.229893
O O4 0.665923 0.121472 0.096288
O O5 0.367408 0.750000 0.713956
O O6 0.405376 0.874358 0.623907
O O7 0.313790 0.938716 0.708469
O O8 0.664588 0.867262 0.884992
O O9 0.595973 0.750000 0.080276
O O10 0.649169 0.580825 0.169044
O O11 0.708061 0.617197 0.054909
O O12 0.200798 0.103460 0.605063
O O13 0.356378 0.046281 0.563584
O O14 0.002166 0.990851 0.408000
O O15 0.275000 0.563907 0.408660
O O16 0.345661 0.456624 0.334616
O O17 0.024016 0.575542 0.148930
O O18 0.890527 0.750000 0.085125
#
# Coordination Sequence:
#
# PCOD9159844 Si02
#       8
#     4   4   4   4   4   4   4   4
#     4  10  20  33  52  79 108 139 175 217 270 326
#     4  10  21  36  56  83 112 142 178 221 271 326
#     4  10  20  34  54  81 111 144 182 224 272 323
#     4   9  19  34  51  74 104 136 174 218 267 319
#     4  10  20  37  58  79 106 141 183 226 267 315
#     4  10  19  34  55  79 107 140 179 221 269 322
#     4   9  20  37  55  76 104 139 181 223 266 314
#     4  10  21  36  55  81 110 142 182 226 272 322
#
# _framework density 19.472926999999999
#
# number of rings (size 3 to 8) (size 9 to 14) (size 15 to 20)
#    0.000    2.250    0.000    3.000    0.000    5.000 
#    0.000   12.500    0.000    3.750    0.000    0.000 
#    0.000    0.000    0.000    0.000    0.000    0.000 
#
# Total GULP energy -178555.893890 kJ/mol
# GULP energy per Si atom -5579.871684 kJ/mol
# Density = 1.942861 g / cm^3
# Si number density = 19.472927 Si / 1000 Ang^3
#
#
#
# Elastic Constant Matrix: (Units=GPa)
#
#
# Indices 1 2 3 4 5 6 
#
# 1 29.0746 4.7929 0.0582 0.0000 0.4948 0.0000
# 2 4.7929 54.4133 31.6217 0.0000 -0.2233 0.0000
# 3 0.0582 31.6217 66.8804 0.0000 -1.5190 0.0000
# 4 0.0000 0.0000 0.0000 20.9346 0.0000 -7.6716
# 5 0.4948 -0.2233 -1.5190 0.0000 32.1391 0.0000
# 6 0.0000 0.0000 0.0000 -7.6716 0.0000 11.0342
#
#
#
# Elastic Compliance Matrix: (Units=1/GPa)
#
#
# Indices 1 2 3 4 5 6 
#
# 1 0.035096 -0.004232 0.001960 0.000000 -0.000477 0.000000
# 2 -0.004232 0.025856 -0.012229 0.000000 -0.000333 0.000000
# 3 0.001960 -0.012229 0.020752 0.000000 0.000866 0.000000
# 4 0.000000 0.000000 0.000000 0.064099 0.000000 0.044565
# 5 -0.000477 -0.000333 0.000866 0.000000 0.031161 0.000000
# 6 0.000000 0.000000 0.000000 0.044565 0.000000 0.121611
#
#
# Mechanical properties :
#
#
# Convention : Reuss Voigt Hill
#
# Bulk Modulus (GPa) = 18.97486 24.81263 21.89375
# Shear Modulus (GPa) = 14.48668 20.41462 17.45065
#
# Velocity S-wave (km/s) = 2.73048 3.24135 2.99682
# Velocity P-wave (km/s) = 4.43916 5.17477 4.82101
#
# Compressibility (1/GPa) = 0.05270132
#
# Stress axis : x y z
#
# Youngs Moduli (GPa) = 28.49318 38.67587 48.18831
#
# Poissons Ratio (x) = 0.16368 -0.09443
# Poissons Ratio (y) = 0.12059 0.58929
# Poissons Ratio (z) = -0.05584 0.47296
#
# Static dielectric constant tensor:
#      x y z
#    x 1.691100 0.000000 -0.020410 
#    y 0.000000 1.687910 0.000000 
#    z -0.020410 0.000000 1.685550 
# 
# From -- ./inp_files/59489.got.cif
#   From: 2010.05.17/outbox.cif.g08.bks.cpg/sg11_30_cif.got.tgz:59489.got - 2010.06.03 12:22:45.
