data_PCOD9159104
_publ_section_title
;
Structure prediction by ZEFSAII (Michael W. Deem and Ramdas Pophale) SiO2 
 PCOD9159104
Probable space group: P 21/M
;
_chemical_formula_sum "Si O2"
_cell_formula_units_Z 24
_cell_length_a 10.026692
_cell_length_b 9.081998
_cell_length_c 11.542400
_cell_angle_alpha 90.000000
_cell_angle_beta 94.677716
_cell_angle_gamma 90.000000
_cell_volume 1047.577654
_symmetry_space_group_name_H-M "P 21/M"
_symmetry_group_IT_number 11
_symmetry_cell_setting 'monoclinic'
loop_
_space_group_symop_operation_xyz
x,y,z
-x,1/2+y,-z
-x,-y,-z
x,1/2-y,z
loop_
_atom_site_type_symbol
_atom_site_label
_atom_site_fract_x
_atom_site_fract_y
_atom_site_fract_z
Si Si1 0.520089 0.582790 0.877582
Si Si2 0.108444 0.915009 0.849275
Si Si3 0.187518 0.918753 0.418319
Si Si4 0.168741 0.088524 0.071374
Si Si5 0.133077 0.416897 0.638206
Si Si6 0.551805 0.572764 0.624531
O O1 0.466520 0.750000 0.886348
O O2 0.680467 0.591741 0.878912
O O3 0.484110 0.526724 0.744073
O O4 0.500000 0.500000 0.000000
O O5 0.143314 0.750000 0.817076
O O6 0.947211 0.926479 0.842407
O O7 0.169474 0.034449 0.769001
O O8 0.152114 0.955806 0.980997
O O9 0.228655 0.750000 0.404044
O O10 0.029237 0.928214 0.379764
O O11 0.192948 0.968661 0.552284
O O12 0.292477 0.022729 0.361842
O O13 0.140126 0.250000 0.013281
O O14 0.170787 0.250000 0.611846
O O15 0.500000 0.500000 0.500000
O O16 0.540654 0.750000 0.616677
#
# Coordination Sequence:
#
# PCOD9159104 Si02
#       6
#     4   4   4   4   4   4
#     4  10  23  42  64  88 117 156 202 251 302 357
#     4  10  19  32  54  83 115 151 191 238 291 353
#     4  10  21  37  58  85 115 151 197 244 294 355
#     4   9  19  36  55  79 113 151 191 238 295 353
#     4  10  20  34  55  84 118 154 191 238 297 359
#     4  11  24  43  65  90 122 161 205 254 308 364
#
# _framework density 22.909994000000001
#
# number of rings (size 3 to 8) (size 9 to 14) (size 15 to 20)
#    0.000    2.000    0.000    3.000    0.000    7.333 
#    0.000    3.333    0.000    0.000    0.000    0.000 
#    0.000    0.000    0.000    0.000    0.000    0.000 
#
# Total GULP energy -133873.397294 kJ/mol
# GULP energy per Si atom -5578.058221 kJ/mol
# Density = 2.285785 g / cm^3
# Si number density = 22.909994 Si / 1000 Ang^3
#
#
#
# Elastic Constant Matrix: (Units=GPa)
#
#
# Indices 1 2 3 4 5 6 
#
# 1 74.6831 8.1330 7.4953 0.0000 -6.8488 0.0000
# 2 8.1330 56.5380 58.4660 0.0000 -10.0253 0.0000
# 3 7.4953 58.4660 130.6069 0.0000 -19.7697 0.0000
# 4 0.0000 0.0000 0.0000 30.2408 0.0000 -3.6313
# 5 -6.8488 -10.0253 -19.7697 0.0000 18.3856 0.0000
# 6 0.0000 0.0000 0.0000 -3.6313 0.0000 23.7318
#
#
#
# Elastic Compliance Matrix: (Units=1/GPa)
#
#
# Indices 1 2 3 4 5 6 
#
# 1 0.013984 -0.002005 0.000858 0.000000 0.005038 0.000000
# 2 -0.002005 0.033317 -0.014527 0.000000 0.001800 0.000000
# 3 0.000858 -0.014527 0.015479 0.000000 0.009043 0.000000
# 4 0.000000 0.000000 0.000000 0.033687 0.000000 0.005155
# 5 0.005038 0.001800 0.009043 0.000000 0.066972 0.000000
# 6 0.000000 0.000000 0.000000 0.005155 0.000000 0.042926
#
#
# Mechanical properties :
#
#
# Convention : Reuss Voigt Hill
#
# Bulk Modulus (GPa) = 31.81518 45.55739 38.68628
# Shear Modulus (GPa) = 20.14577 26.98721 23.56649
#
# Velocity S-wave (km/s) = 2.96859 3.43588 3.21075
# Velocity P-wave (km/s) = 5.06628 5.97234 5.53787
#
# Compressibility (1/GPa) = 0.03143154
#
# Stress axis : x y z
#
# Youngs Moduli (GPa) = 71.50911 30.01472 64.60364
#
# Poissons Ratio (x) = 0.06019 -0.05541
# Poissons Ratio (y) = 0.14340 0.93848
# Poissons Ratio (z) = -0.06134 0.43602
#
# Static dielectric constant tensor:
#      x y z
#    x 1.916400 0.000000 0.029280 
#    y 0.000000 1.874560 0.000000 
#    z 0.029280 0.000000 1.887920 
# 
# From -- ./inp_files/33826.got.cif
#   From: 2010.05.17/outbox.cif.g08.bks.cpg/sg11_17_cif.got.tgz:33826.got - 2010.06.03 12:22:45.
