data_PCOD9159294
_publ_section_title
;
Structure prediction by ZEFSAII (Michael W. Deem and Ramdas Pophale) SiO2 
 PCOD9159294
Probable space group: P 21/M
;
_chemical_formula_sum "Si O2"
_cell_formula_units_Z 32
_cell_length_a 12.590745
_cell_length_b 29.269804
_cell_length_c 14.496399
_cell_angle_alpha 90.000000
_cell_angle_beta 160.399537
_cell_angle_gamma 90.000000
_cell_volume 1792.136399
_symmetry_space_group_name_H-M "P 21/M"
_symmetry_group_IT_number 11
_symmetry_cell_setting 'monoclinic'
loop_
_space_group_symop_operation_xyz
x,y,z
-x,1/2+y,-z
-x,-y,-z
x,1/2-y,z
loop_
_atom_site_type_symbol
_atom_site_label
_atom_site_fract_x
_atom_site_fract_y
_atom_site_fract_z
Si Si1 0.886930 0.102611 0.913455
Si Si2 0.354883 0.802864 0.248518
Si Si3 0.185783 0.611269 0.801832
Si Si4 0.358774 0.969124 0.649133
Si Si5 0.476033 0.549781 0.530569
Si Si6 0.085971 0.801962 0.826614
Si Si7 0.642646 0.953390 0.070866
Si Si8 0.516602 0.575626 0.244138
O O1 0.861634 0.157510 0.884530
O O2 0.798429 0.077221 0.746625
O O3 0.614315 0.090015 0.764110
O O4 0.205432 0.080344 0.214789
O O5 0.293362 0.750000 0.226874
O O6 0.726988 0.813239 0.565170
O O7 0.293191 0.805252 0.088336
O O8 0.444860 0.589054 0.947983
O O9 0.209372 0.663581 0.850987
O O10 0.831473 0.603343 0.476418
O O11 0.243895 0.584178 0.945911
O O12 0.420597 0.955821 0.594261
O O13 0.601713 0.954183 0.927054
O O14 0.375464 0.023718 0.665713
O O15 0.011953 0.952633 0.395887
O O16 0.500000 0.500000 0.500000
O O17 0.080697 0.750000 0.789296
O O18 0.500000 0.000000 0.000000
#
# Coordination Sequence:
#
# PCOD9159294 Si02
#       8
#     4   4   4   4   4   4   4   4
#     4  12  22  37  56  83 111 153 182 221 275 337
#     4  10  20  34  56  83 113 142 176 224 279 336
#     4  12  21  34  53  84 105 151 175 216 272 332
#     4  12  24  39  50  79 110 145 186 237 254 312
#     4  12  26  37  56  79 111 153 193 223 273 325
#     4  10  19  33  52  81 114 140 171 218 275 336
#     4  12  23  36  56  76 108 144 188 220 273 316
#     4  12  21  32  58  77 115 139 189 219 261 320
#
# _framework density 17.855784
#
# number of rings (size 3 to 8) (size 9 to 14) (size 15 to 20)
#    0.000    0.500    6.250    3.750    1.750    0.000 
#    0.000    0.000    0.000    0.000    0.000    5.250 
#    0.000    0.000    0.000    0.000    0.000    0.000 
#
# Total GULP energy -178724.426932 kJ/mol
# GULP energy per Si atom -5585.138342 kJ/mol
# Density = 1.781514 g / cm^3
# Si number density = 17.855784 Si / 1000 Ang^3
#
#
#
# Elastic Constant Matrix: (Units=GPa)
#
#
# Indices 1 2 3 4 5 6 
#
# 1 64.4194 20.2158 -6.7693 0.0000 -8.2479 0.0000
# 2 20.2158 95.2012 6.1640 0.0000 6.7001 0.0000
# 3 -6.7693 6.1640 68.7087 0.0000 -3.5791 0.0000
# 4 0.0000 0.0000 0.0000 23.5175 0.0000 4.0280
# 5 -8.2479 6.7001 -3.5791 0.0000 28.7190 0.0000
# 6 0.0000 0.0000 0.0000 4.0280 0.0000 23.1920
#
#
#
# Elastic Compliance Matrix: (Units=1/GPa)
#
#
# Indices 1 2 3 4 5 6 
#
# 1 0.018019 -0.004448 0.002514 0.000000 0.006526 0.000000
# 2 -0.004448 0.011860 -0.001724 0.000000 -0.004259 0.000000
# 3 0.002514 -0.001724 0.015113 0.000000 0.003008 0.000000
# 4 0.000000 0.000000 0.000000 0.043825 0.000000 -0.007612
# 5 0.006526 -0.004259 0.003008 0.000000 0.038063 0.000000
# 6 0.000000 0.000000 0.000000 -0.007612 0.000000 0.044440
#
#
# Mechanical properties :
#
#
# Convention : Reuss Voigt Hill
#
# Bulk Modulus (GPa) = 26.54217 29.72781 28.13499
# Shear Modulus (GPa) = 26.15120 29.00029 27.57575
#
# Velocity S-wave (km/s) = 3.83113 4.03443 3.93410
# Velocity P-wave (km/s) = 5.87087 6.19574 6.03549
#
# Compressibility (1/GPa) = 0.03767589
#
# Stress axis : x y z
#
# Youngs Moduli (GPa) = 55.49690 84.31653 66.16702
#
# Poissons Ratio (x) = 0.37507 -0.16636
# Poissons Ratio (y) = 0.24687 0.11408
# Poissons Ratio (z) = -0.13953 0.14537
#
# Static dielectric constant tensor:
#      x y z
#    x 1.612080 0.000000 -0.006050 
#    y 0.000000 1.638540 0.000000 
#    z -0.006050 0.000000 1.624090 
# 
# From -- ./inp_files/50860.got.cif
#   From: 2010.05.17/outbox.cif.g08.bks.cpg/sg11_26_cif.got.tgz:50860.got - 2010.06.03 12:22:45.
