data_PCOD9159043
_publ_section_title
;
Structure prediction by ZEFSAII (Michael W. Deem and Ramdas Pophale) SiO2 
 PCOD9159043
Probable space group: P 21/M
;
_chemical_formula_sum "Si O2"
_cell_formula_units_Z 32
_cell_length_a 13.873643
_cell_length_b 10.225330
_cell_length_c 32.595760
_cell_angle_alpha 90.000000
_cell_angle_beta 22.970649
_cell_angle_gamma 90.000000
_cell_volume 1804.606324
_symmetry_space_group_name_H-M "P 21/M"
_symmetry_group_IT_number 11
_symmetry_cell_setting 'monoclinic'
loop_
_space_group_symop_operation_xyz
x,y,z
-x,1/2+y,-z
-x,-y,-z
x,1/2-y,z
loop_
_atom_site_type_symbol
_atom_site_label
_atom_site_fract_x
_atom_site_fract_y
_atom_site_fract_z
Si Si1 0.748293 0.902137 0.710467
Si Si2 0.707995 0.410678 0.895144
Si Si3 0.183235 0.103598 0.765073
Si Si4 0.906581 0.104655 0.961126
Si Si5 0.254050 0.604751 0.858663
Si Si6 0.086789 0.610729 0.417460
Si Si7 0.418333 0.466374 0.346540
Si Si8 0.667886 0.595905 0.834512
O O1 0.794555 0.750000 0.682658
O O2 0.457976 0.924698 0.813472
O O3 0.793152 0.922476 0.740991
O O4 0.895587 0.995272 0.622300
O O5 0.656062 0.250000 0.914095
O O6 0.735115 0.484807 0.840980
O O7 0.965545 0.426387 0.818621
O O8 0.500000 0.500000 0.000000
O O9 0.274744 0.250000 0.720412
O O10 0.054216 0.104084 0.860305
O O11 0.411587 0.007039 0.682015
O O12 0.925101 0.250000 0.971652
O O13 0.039738 0.999709 0.937162
O O14 0.624206 0.081322 0.059816
O O15 0.154789 0.750000 0.902946
O O16 0.414851 0.602543 0.753276
O O17 0.124875 0.750000 0.381985
O O18 0.300769 0.587996 0.367376
O O19 0.824806 0.606626 0.542901
O O20 0.705410 0.750000 0.832813
#
# Coordination Sequence:
#
# PCOD9159043 Si02
#       8
#     4   4   4   4   4   4   4   4
#     4   9  20  35  51  69 100 141 176 212 258 310
#     4  11  21  35  55  80 105 134 173 218 263 306
#     4   9  17  31  50  75 105 135 167 205 255 313
#     4   9  17  30  48  69  99 136 168 204 253 309
#     4   9  17  30  46  72 104 132 168 210 252 303
#     4  10  19  32  53  80 108 135 171 215 254 304
#     4   9  18  31  51  77 107 139 167 202 261 313
#     4  10  20  37  53  70  99 139 178 214 259 309
#
# _framework density 17.732399000000001
#
# number of rings (size 3 to 8) (size 9 to 14) (size 15 to 20)
#    0.000    2.500    1.250    1.125    0.000    8.000 
#    0.000    1.875    0.000    0.750    0.000    0.000 
#    0.000    0.000    0.000    0.000    0.000    0.000 
#
# Total GULP energy -178254.331047 kJ/mol
# GULP energy per Si atom -5570.447845 kJ/mol
# Density = 1.769204 g / cm^3
# Si number density = 17.732399 Si / 1000 Ang^3
#
#
#
# Elastic Constant Matrix: (Units=GPa)
#
#
# Indices 1 2 3 4 5 6 
#
# 1 100.3290 68.7609 18.0756 0.0000 -2.0851 0.0000
# 2 68.7609 101.7530 27.5537 0.0000 -1.5850 0.0000
# 3 18.0756 27.5537 34.1023 0.0000 -4.4196 0.0000
# 4 0.0000 0.0000 0.0000 -3.0354 0.0000 14.9504
# 5 -2.0851 -1.5850 -4.4196 0.0000 20.1427 0.0000
# 6 0.0000 0.0000 0.0000 14.9504 0.0000 6.0646
#
#
#
# Elastic Compliance Matrix: (Units=1/GPa)
#
#
# Indices 1 2 3 4 5 6 
#
# 1 0.018591 -0.012692 0.000536 0.000000 0.001043 0.000000
# 2 -0.012692 0.021277 -0.010722 0.000000 -0.001992 0.000000
# 3 0.000536 -0.010722 0.038701 0.000000 0.007703 0.000000
# 4 0.000000 0.000000 0.000000 -0.025068 0.000000 0.061798
# 5 0.001043 -0.001992 0.007703 0.000000 0.051287 0.000000
# 6 0.000000 0.000000 0.000000 0.061798 0.000000 0.012547
#
#
# Mechanical properties :
#
#
# Convention : Reuss Voigt Hill
#
# Bulk Modulus (GPa) = 30.47600 51.66273 41.06936
# Shear Modulus (GPa) = 28.73118 12.75401 20.74259
#
# Velocity S-wave (km/s) = 4.02962 2.68479 3.42388
# Velocity P-wave (km/s) = 6.23493 6.22966 6.23230
#
# Compressibility (1/GPa) = 0.03281271
#
# Stress axis : x y z
#
# Youngs Moduli (GPa) = 53.79047 46.99976 25.83921
#
# Poissons Ratio (x) = 0.59651 -0.01385
# Poissons Ratio (y) = 0.68270 0.27705
# Poissons Ratio (z) = -0.02883 0.50393
#
# Static dielectric constant tensor:
#      x y z
#    x 1.609960 0.000000 0.020940 
#    y 0.000000 1.656420 0.000000 
#    z 0.020940 0.000000 1.614350 
# 
# From -- ./inp_files/73043.got.cif
#   From: 2010.05.17/outbox.cif.g08.bks.cpg/sg11_37_cif.got.tgz:73043.got - 2010.06.03 12:22:45.
