data_PCOD9159706
_publ_section_title
;
Structure prediction by ZEFSAII (Michael W. Deem and Ramdas Pophale) SiO2 
 PCOD9159706
Probable space group: P 21/M
;
_chemical_formula_sum "Si O2"
_cell_formula_units_Z 26
_cell_length_a 9.313390
_cell_length_b 18.932023
_cell_length_c 11.287381
_cell_angle_alpha 90.000000
_cell_angle_beta 132.288531
_cell_angle_gamma 90.000000
_cell_volume 1472.286216
_symmetry_space_group_name_H-M "P 21/M"
_symmetry_group_IT_number 11
_symmetry_cell_setting 'monoclinic'
loop_
_space_group_symop_operation_xyz
x,y,z
-x,1/2+y,-z
-x,-y,-z
x,1/2-y,z
loop_
_atom_site_type_symbol
_atom_site_label
_atom_site_fract_x
_atom_site_fract_y
_atom_site_fract_z
Si Si1 0.172679 0.508970 0.686317
Si Si2 0.540959 0.885450 0.115441
Si Si3 0.987070 0.750000 0.189532
Si Si4 0.550386 0.371147 0.209815
Si Si5 0.261435 0.250000 0.719940
Si Si6 0.885614 0.612492 0.983946
Si Si7 0.133139 0.545857 0.921751
Si Si8 0.821212 0.250000 0.461333
O O1 0.274311 0.437219 0.786145
O O2 0.345102 0.553578 0.723344
O O3 0.097502 0.548639 0.761646
O O4 0.000000 0.500000 0.500000
O O5 0.610225 0.818824 0.229322
O O6 0.487682 0.861900 0.952183
O O7 0.354606 0.927426 0.060064
O O8 0.800028 0.750000 0.173976
O O9 0.978678 0.678319 0.107648
O O10 0.156716 0.750000 0.383101
O O11 0.341400 0.368909 0.155277
O O12 0.701726 0.316160 0.347095
O O13 0.046767 0.250000 0.543290
O O14 0.995873 0.595746 0.923234
O O15 0.891881 0.536092 0.053629
#
# Coordination Sequence:
#
# PCOD9159706 Si02
#       8
#     4   4   2   4   2   4   4   2
#     4  11  21  35  58  87 124 152 193 256 298 341
#     4  11  19  38  58  90 116 157 205 247 294 359
#     4  10  21  37  59  85 120 152 197 251 306 354
#     4  11  18  34  59  83 112 157 201 241 286 360
#     4  10  19  33  59  83 119 149 201 249 305 348
#     4  11  20  39  62  86 117 164 199 246 290 373
#     4  10  22  37  60  90 122 154 208 239 303 360
#     4  10  22  34  56  96 111 153 202 252 297 360
#
# _framework density 17.659607999999999
#
# number of rings (size 3 to 8) (size 9 to 14) (size 15 to 20)
#    0.462    0.923    4.615    2.769    2.154    0.615 
#    0.000    3.077    0.000    3.692    0.000    0.000 
#    0.000    0.000    0.000    0.000    0.000    0.000 
#
# Total GULP energy -144861.533266 kJ/mol
# GULP energy per Si atom -5571.597433 kJ/mol
# Density = 1.761941 g / cm^3
# Si number density = 17.659608 Si / 1000 Ang^3
#
#
#
# Elastic Constant Matrix: (Units=GPa)
#
#
# Indices 1 2 3 4 5 6 
#
# 1 81.6750 24.3547 42.7147 0.0000 3.8309 0.0000
# 2 24.3547 103.6214 56.6078 0.0000 -1.8699 0.0000
# 3 42.7147 56.6078 144.4049 0.0000 10.6764 0.0000
# 4 0.0000 0.0000 0.0000 4.7483 0.0000 20.7481
# 5 3.8309 -1.8699 10.6764 0.0000 14.2982 0.0000
# 6 0.0000 0.0000 0.0000 20.7481 0.0000 15.0796
#
#
#
# Elastic Compliance Matrix: (Units=1/GPa)
#
#
# Indices 1 2 3 4 5 6 
#
# 1 0.014660 -0.001473 -0.003656 0.000000 -0.001391 0.000000
# 2 -0.001473 0.012852 -0.005034 0.000000 0.005834 0.000000
# 3 -0.003656 -0.005034 0.010538 0.000000 -0.007547 0.000000
# 4 0.000000 0.000000 0.000000 -0.042019 0.000000 0.057813
# 5 -0.001391 0.005834 -0.007547 0.000000 0.076710 0.000000
# 6 0.000000 0.000000 0.000000 0.057813 0.000000 -0.013231
#
#
# Mechanical properties :
#
#
# Convention : Reuss Voigt Hill
#
# Bulk Modulus (GPa) = 56.42176 64.11731 60.26954
# Shear Modulus (GPa) = 58.31288 20.56017 39.43652
#
# Velocity S-wave (km/s) = 5.75258 3.41581 4.73075
# Velocity P-wave (km/s) = 8.72593 7.20716 8.00266
#
# Compressibility (1/GPa) = 0.01772366
#
# Stress axis : x y z
#
# Youngs Moduli (GPa) = 68.21136 77.80952 94.89838
#
# Poissons Ratio (x) = 0.11465 0.34695
# Poissons Ratio (y) = 0.10051 0.47767
# Poissons Ratio (z) = 0.24938 0.39166
#
# Static dielectric constant tensor:
#      x y z
#    x 1.601830 0.000000 0.005320 
#    y 0.000000 1.692280 0.000000 
#    z 0.005320 0.000000 1.598890 
# 
# From -- ./inp_files/19279.got.cif
#   From: 2010.05.17/outbox.cif.g08.bks.cpg/sg11_10_cif.got.tgz:19279.got - 2010.06.03 12:22:45.
