data_PCOD9159873
_publ_section_title
;
Structure prediction by ZEFSAII (Michael W. Deem and Ramdas Pophale) SiO2 
 PCOD9159873
Probable space group: P 21/M
;
_chemical_formula_sum "Si O2"
_cell_formula_units_Z 32
_cell_length_a 19.833294
_cell_length_b 8.597964
_cell_length_c 24.923864
_cell_angle_alpha 90.000000
_cell_angle_beta 156.404069
_cell_angle_gamma 90.000000
_cell_volume 1701.273063
_symmetry_space_group_name_H-M "P 21/M"
_symmetry_group_IT_number 11
_symmetry_cell_setting 'monoclinic'
loop_
_space_group_symop_operation_xyz
x,y,z
-x,1/2+y,-z
-x,-y,-z
x,1/2-y,z
loop_
_atom_site_type_symbol
_atom_site_label
_atom_site_fract_x
_atom_site_fract_y
_atom_site_fract_z
Si Si1 0.407468 0.938675 0.803595
Si Si2 0.763739 0.935856 0.097826
Si Si3 0.794184 0.063839 0.235839
Si Si4 0.271244 0.064069 0.210888
Si Si5 0.570599 0.563789 0.495115
Si Si6 0.038540 0.063664 0.945526
Si Si7 0.041366 0.435768 0.226776
Si Si8 0.092332 0.937553 0.513791
O O1 0.408060 0.750000 0.804547
O O2 0.317912 0.985349 0.794413
O O3 0.286374 0.983504 0.665977
O O4 0.599860 0.990335 0.944845
O O5 0.776255 0.750000 0.103110
O O6 0.735878 0.984216 0.138909
O O7 0.931811 0.011162 0.197227
O O8 0.784901 0.250000 0.224544
O O9 0.985912 0.012207 0.388481
O O10 0.283983 0.250000 0.222921
O O11 0.446330 0.992070 0.357563
O O12 0.198248 0.020059 0.099155
O O13 0.126571 0.008912 0.146809
O O14 0.500000 0.500000 0.500000
O O15 0.567572 0.750000 0.495310
O O16 0.763808 0.512166 0.628513
O O17 0.023043 0.250000 0.935671
O O18 0.042342 0.006479 0.887655
O O19 0.040338 0.250000 0.221874
O O20 0.080279 0.750000 0.502477
O O21 0.000000 0.000000 0.500000
#
# Coordination Sequence:
#
# PCOD9159873 Si02
#       8
#     4   4   4   4   4   4   4   4
#     4   8  17  33  55  82 110 141 183 231 275 325
#     4  11  22  37  56  79 108 147 188 227 277 335
#     4  10  19  34  55  82 114 145 182 230 277 327
#     4  10  20  34  56  87 115 140 178 224 271 323
#     4  11  22  36  58  84 111 143 183 226 275 330
#     4  10  20  35  57  83 111 144 179 220 270 326
#     4  11  24  40  56  79 112 147 184 231 281 332
#     4   9  16  30  52  80 110 140 177 225 276 324
#
# _framework density 18.809445
#
# number of rings (size 3 to 8) (size 9 to 14) (size 15 to 20)
#    0.000    2.000    1.250    3.750    0.000    3.000 
#    0.000    8.125    0.000    1.500    0.000    0.000 
#    0.000    0.000    0.000    0.000    0.000    0.000 
#
# Total GULP energy -178561.537552 kJ/mol
# GULP energy per Si atom -5580.048049 kJ/mol
# Density = 1.876663 g / cm^3
# Si number density = 18.809445 Si / 1000 Ang^3
#
#
#
# Elastic Constant Matrix: (Units=GPa)
#
#
# Indices 1 2 3 4 5 6 
#
# 1 21.8300 4.8115 16.5786 0.0000 6.5214 0.0000
# 2 4.8115 37.8312 20.9078 0.0000 2.0597 0.0000
# 3 16.5786 20.9078 128.2133 0.0000 3.8743 0.0000
# 4 0.0000 0.0000 0.0000 27.7077 0.0000 -5.7729
# 5 6.5214 2.0597 3.8743 0.0000 25.3842 0.0000
# 6 0.0000 0.0000 0.0000 -5.7729 0.0000 26.7241
#
#
#
# Elastic Compliance Matrix: (Units=1/GPa)
#
#
# Indices 1 2 3 4 5 6 
#
# 1 0.055064 -0.002835 -0.006266 0.000000 -0.012960 0.000000
# 2 -0.002835 0.029266 -0.004376 0.000000 -0.000978 0.000000
# 3 -0.006266 -0.004376 0.009307 0.000000 0.000544 0.000000
# 4 0.000000 0.000000 0.000000 0.037792 0.000000 0.008164
# 5 -0.012960 -0.000978 0.000544 0.000000 0.042720 0.000000
# 6 0.000000 0.000000 0.000000 0.008164 0.000000 0.039183
#
#
# Mechanical properties :
#
#
# Convention : Reuss Voigt Hill
#
# Bulk Modulus (GPa) = 14.99648 30.27446 22.63547
# Shear Modulus (GPa) = 19.04670 25.66833 22.35751
#
# Velocity S-wave (km/s) = 3.18561 3.69813 3.45139
# Velocity P-wave (km/s) = 4.63907 5.86218 5.28612
#
# Compressibility (1/GPa) = 0.06668230
#
# Stress axis : x y z
#
# Youngs Moduli (GPa) = 18.16078 34.16987 107.44680
#
# Poissons Ratio (x) = 0.09686 0.67328
# Poissons Ratio (y) = 0.05148 0.47021
# Poissons Ratio (z) = 0.11380 0.14954
#
# Static dielectric constant tensor:
#      x y z
#    x 1.674620 0.000000 -0.025660 
#    y 0.000000 1.632670 0.000000 
#    z -0.025660 0.000000 1.704770 
# 
# From -- ./inp_files/72221.got.cif
#   From: 2010.05.17/outbox.cif.g08.bks.cpg/sg11_37_cif.got.tgz:72221.got - 2010.06.03 12:22:45.
