data_PCOD9159323
_publ_section_title
;
Structure prediction by ZEFSAII (Michael W. Deem and Ramdas Pophale) SiO2 
 PCOD9159323
Probable space group: P 21/M
;
_chemical_formula_sum "Si O2"
_cell_formula_units_Z 32
_cell_length_a 9.455475
_cell_length_b 8.606300
_cell_length_c 23.430248
_cell_angle_alpha 90.000000
_cell_angle_beta 112.864375
_cell_angle_gamma 90.000000
_cell_volume 1756.862339
_symmetry_space_group_name_H-M "P 21/M"
_symmetry_group_IT_number 11
_symmetry_cell_setting 'monoclinic'
loop_
_space_group_symop_operation_xyz
x,y,z
-x,1/2+y,-z
-x,-y,-z
x,1/2-y,z
loop_
_atom_site_type_symbol
_atom_site_label
_atom_site_fract_x
_atom_site_fract_y
_atom_site_fract_z
Si Si1 0.405487 0.565631 0.571429
Si Si2 0.522341 0.063927 0.182987
Si Si3 0.715724 0.061780 0.562562
Si Si4 0.771778 0.937409 0.936178
Si Si5 0.540154 0.064499 0.701535
Si Si6 0.865901 0.438336 0.697863
Si Si7 0.159445 0.436311 0.814808
Si Si8 0.094840 0.935603 0.929667
O O1 0.399167 0.750000 0.579325
O O2 0.278955 0.521281 0.503623
O O3 0.565452 0.519115 0.565672
O O4 0.416168 0.483271 0.634014
O O5 0.525201 0.250000 0.182600
O O6 0.380772 0.012435 0.120663
O O7 0.494243 0.007585 0.242836
O O8 0.681530 0.999905 0.184238
O O9 0.693355 0.250000 0.562008
O O10 0.849476 0.020627 0.628245
O O11 0.771108 0.750000 0.941448
O O12 0.922910 0.980363 0.923161
O O13 0.793826 0.009667 0.002014
O O14 0.542707 0.250000 0.706412
O O15 0.708666 0.012563 0.705101
O O16 0.867698 0.250000 0.700642
O O17 0.016564 0.494450 0.753857
O O18 0.161556 0.250000 0.812730
O O19 0.134126 0.489020 0.875677
O O20 0.101053 0.750000 0.925437
#
# Coordination Sequence:
#
# PCOD9159323 Si02
#       8
#     4   4   4   4   4   4   4   4
#     4   9  15  24  43  72 103 132 164 208 259 306
#     4  11  23  38  54  75 105 137 172 213 255 301
#     4   8  14  26  44  69 101 133 167 209 257 305
#     4   9  20  38  59  82 107 135 167 207 255 304
#     4  10  19  33  53  76 103 135 172 212 257 309
#     4   8  16  31  52  76 101 133 172 212 253 302
#     4  11  22  36  54  76 105 140 175 210 253 303
#     4  10  20  36  59  84 107 132 167 210 253 300
#
# _framework density 18.214289999999998
#
# number of rings (size 3 to 8) (size 9 to 14) (size 15 to 20)
#    0.000    2.500    0.000    3.375    0.000    2.500 
#    0.000    5.625    0.000    0.750    0.000    0.000 
#    0.000    0.000    0.000    0.000    0.000    0.000 
#
# Total GULP energy -178404.769752 kJ/mol
# GULP energy per Si atom -5575.149055 kJ/mol
# Density = 1.817283 g / cm^3
# Si number density = 18.214290 Si / 1000 Ang^3
#
#
#
# Elastic Constant Matrix: (Units=GPa)
#
#
# Indices 1 2 3 4 5 6 
#
# 1 79.5857 26.2090 94.3246 0.0000 9.0951 0.0000
# 2 26.2090 33.9775 41.1739 0.0000 4.7416 0.0000
# 3 94.3246 41.1739 195.8390 0.0000 26.3232 0.0000
# 4 0.0000 0.0000 0.0000 28.3215 0.0000 -3.9306
# 5 9.0951 4.7416 26.3232 0.0000 -2.4877 0.0000
# 6 0.0000 0.0000 0.0000 -3.9306 0.0000 22.2076
#
#
#
# Elastic Compliance Matrix: (Units=1/GPa)
#
#
# Indices 1 2 3 4 5 6 
#
# 1 0.029035 -0.007822 -0.010158 0.000000 -0.016237 0.000000
# 2 -0.007822 0.041438 -0.004837 0.000000 -0.000800 0.000000
# 3 -0.010158 -0.004837 0.007120 0.000000 0.028983 0.000000
# 4 0.000000 0.000000 0.000000 0.036198 0.000000 0.006407
# 5 -0.016237 -0.000800 0.028983 0.000000 -0.156191 0.000000
# 6 0.000000 0.000000 0.000000 0.006407 0.000000 0.046164
#
#
# Mechanical properties :
#
#
# Convention : Reuss Voigt Hill
#
# Bulk Modulus (GPa) = 31.28917 70.31304 50.80110
# Shear Modulus (GPa) = 83.26277 19.45459 51.35868
#
# Velocity S-wave (km/s) = 6.76847 3.27172 5.31584
# Velocity P-wave (km/s) = 8.84864 7.27731 8.10116
#
# Compressibility (1/GPa) = 0.03195994
#
# Stress axis : x y z
#
# Youngs Moduli (GPa) = 34.44062 24.13237 140.44909
#
# Poissons Ratio (x) = 0.18876 1.42665
# Poissons Ratio (y) = 0.26939 0.67939
# Poissons Ratio (z) = 0.34984 0.11673
#
# Static dielectric constant tensor:
#      x y z
#    x 1.597730 0.000000 0.025730 
#    y 0.000000 1.613790 0.000000 
#    z 0.025730 0.000000 1.651220 
# 
# From -- ./inp_files/63274.got.cif
#   From: 2010.05.17/outbox.cif.g08.bks.cpg/sg11_32_cif.got.tgz:63274.got - 2010.06.03 12:22:45.
