data_PCOD9159920
_publ_section_title
;
Structure prediction by ZEFSAII (Michael W. Deem and Ramdas Pophale) SiO2 
 PCOD9159920
Probable space group: P 21/M
;
_chemical_formula_sum "Si O2"
_cell_formula_units_Z 32
_cell_length_a 16.015030
_cell_length_b 20.623551
_cell_length_c 9.361652
_cell_angle_alpha 90.000000
_cell_angle_beta 144.421930
_cell_angle_gamma 90.000000
_cell_volume 1798.979252
_symmetry_space_group_name_H-M "P 21/M"
_symmetry_group_IT_number 11
_symmetry_cell_setting 'monoclinic'
loop_
_space_group_symop_operation_xyz
x,y,z
-x,1/2+y,-z
-x,-y,-z
x,1/2-y,z
loop_
_atom_site_type_symbol
_atom_site_label
_atom_site_fract_x
_atom_site_fract_y
_atom_site_fract_z
Si Si1 0.838549 0.066621 0.710326
Si Si2 0.329509 0.676442 0.018759
Si Si3 0.816918 0.440065 0.352938
Si Si4 0.183082 0.440065 0.147063
Si Si5 0.143376 0.325328 0.535505
Si Si6 0.670492 0.823558 0.481244
Si Si7 0.838549 0.566621 0.210326
Si Si8 0.143377 0.825328 0.035505
O O1 0.778497 0.062525 0.466637
O O2 0.821430 0.131696 0.778587
O O3 0.778586 0.007224 0.721109
O O4 0.010726 0.061928 0.927083
O O5 0.293048 0.750000 0.919509
O O6 0.500000 0.668839 0.250000
O O7 0.270581 0.670865 0.097735
O O8 0.252143 0.621549 0.819778
O O9 0.778587 0.507224 0.221111
O O10 0.989275 0.438071 0.572918
O O11 0.252143 0.378451 0.319777
O O12 0.221504 0.437476 0.033364
O O13 0.117813 0.250000 0.537976
O O14 0.270578 0.329135 0.597730
O O15 0.178572 0.368304 0.721416
O O16 0.999999 0.348681 0.250000
O O17 0.706952 0.750000 0.580494
O O18 0.117814 0.750000 0.037975
#
# Coordination Sequence:
#
# PCOD9159920 Si02
#       8
#     4   4   4   4   4   4   4   4
#     4  10  20  33  56  83 112 143 184 235 276 318
#     4  10  21  38  58  81 114 150 182 223 277 334
#     4  10  20  34  54  83 113 146 183 229 278 326
#     4  10  20  34  54  83 113 146 183 229 278 326
#     4  10  19  34  56  81 109 143 186 228 269 323
#     4  10  21  38  58  81 114 150 182 223 277 334
#     4  10  20  33  56  83 112 143 184 235 276 318
#     4  10  19  34  56  81 109 143 186 228 269 323
#
# _framework density 17.787865
#
# number of rings (size 3 to 8) (size 9 to 14) (size 15 to 20)
#    0.000    2.000    2.500    1.500    3.500    1.000 
#    0.000    8.750    0.000    4.500    0.000    0.000 
#    0.000    0.000    0.000    0.000    0.000    0.000 
#
# Total GULP energy -178441.398040 kJ/mol
# GULP energy per Si atom -5576.293689 kJ/mol
# Density = 1.774738 g / cm^3
# Si number density = 17.787865 Si / 1000 Ang^3
#
#
#
# Elastic Constant Matrix: (Units=GPa)
#
#
# Indices 1 2 3 4 5 6 
#
# 1 100.8938 55.8595 41.3016 0.0000 -23.3267 0.0000
# 2 55.8595 131.5661 54.4667 0.0000 -40.9130 0.0000
# 3 41.3016 54.4667 39.6725 0.0000 -27.1575 0.0000
# 4 0.0000 0.0000 0.0000 10.5525 0.0000 -6.0117
# 5 -23.3267 -40.9130 -27.1575 0.0000 39.9843 0.0000
# 6 0.0000 0.0000 0.0000 -6.0117 0.0000 30.2192
#
#
#
# Elastic Compliance Matrix: (Units=1/GPa)
#
#
# Indices 1 2 3 4 5 6 
#
# 1 0.017620 0.000002 -0.021134 0.000000 -0.004073 0.000000
# 2 0.000002 0.017802 -0.022376 0.000000 0.003019 0.000000
# 3 -0.021134 -0.022376 0.100579 0.000000 0.033088 0.000000
# 4 0.000000 0.000000 0.000000 0.106877 0.000000 0.021262
# 5 -0.004073 0.003019 0.033088 0.000000 0.048196 0.000000
# 6 0.000000 0.000000 0.000000 0.021262 0.000000 0.037321
#
#
# Mechanical properties :
#
#
# Convention : Reuss Voigt Hill
#
# Bulk Modulus (GPa) = 20.41481 63.93199 42.17340
# Shear Modulus (GPa) = 11.58103 24.18485 17.88294
#
# Velocity S-wave (km/s) = 2.55436 3.69131 3.17416
# Velocity P-wave (km/s) = 4.49460 7.36119 6.09871
#
# Compressibility (1/GPa) = 0.04898405
#
# Stress axis : x y z
#
# Youngs Moduli (GPa) = 56.75270 56.17298 9.94244
#
# Poissons Ratio (x) = -0.00009 0.21013
# Poissons Ratio (y) = -0.00009 0.22247
# Poissons Ratio (z) = 1.19943 1.25692
#
# Static dielectric constant tensor:
#      x y z
#    x 1.601150 0.000000 0.002610 
#    y 0.000000 1.615660 0.000000 
#    z 0.002610 0.000000 1.590710 
# 
# From -- ./inp_files/23136.got.cif
#   From: 2010.05.17/outbox.cif.g08.bks.cpg/sg11_12_cif.got.tgz:23136.got - 2010.06.03 12:22:45.
