data_PCOD9159734
_publ_section_title
;
Structure prediction by ZEFSAII (Michael W. Deem and Ramdas Pophale) SiO2 
 PCOD9159734
Probable space group: P 21/M
;
_chemical_formula_sum "Si O2"
_cell_formula_units_Z 32
_cell_length_a 15.447970
_cell_length_b 12.697080
_cell_length_c 16.208388
_cell_angle_alpha 90.000000
_cell_angle_beta 143.484905
_cell_angle_gamma 90.000000
_cell_volume 1891.721848
_symmetry_space_group_name_H-M "P 21/M"
_symmetry_group_IT_number 11
_symmetry_cell_setting 'monoclinic'
loop_
_space_group_symop_operation_xyz
x,y,z
-x,1/2+y,-z
-x,-y,-z
x,1/2-y,z
loop_
_atom_site_type_symbol
_atom_site_label
_atom_site_fract_x
_atom_site_fract_y
_atom_site_fract_z
Si Si1 0.528603 0.974353 0.616797
Si Si2 0.340241 0.624612 0.149898
Si Si3 0.020457 0.125628 0.720453
Si Si4 0.690147 0.124494 0.424380
Si Si5 0.674734 0.875394 0.126026
Si Si6 0.953086 0.506920 0.087652
Si Si7 0.522368 0.000549 0.154526
Si Si8 0.834122 0.629160 0.844712
O O1 0.391087 0.924844 0.558502
O O2 0.664213 0.894085 0.726636
O O3 0.500000 0.000000 0.500000
O O4 0.582087 0.076184 0.709563
O O5 0.339438 0.750000 0.149749
O O6 0.426998 0.577125 0.138374
O O7 0.178111 0.576731 0.021344
O O8 0.025447 0.250000 0.746329
O O9 0.155358 0.105886 0.762902
O O10 0.862368 0.104283 0.561335
O O11 0.040614 0.057047 0.817853
O O12 0.666769 0.250000 0.404977
O O13 0.618266 0.070712 0.289678
O O14 0.650136 0.750000 0.112308
O O15 0.619618 0.933675 0.165671
O O16 0.583094 0.925049 0.980235
O O17 0.100361 0.448349 0.174051
O O18 0.916664 0.596249 0.991984
O O19 0.859983 0.750000 0.844095
#
# Coordination Sequence:
#
# PCOD9159734 Si02
#       8
#     4   4   4   4   4   4   4   4
#     4  10  21  36  52  77 106 143 185 228 269 318
#     4  10  20  34  54  78 108 144 179 222 275 323
#     4  10  20  35  56  81 108 143 180 221 269 322
#     4  10  21  36  56  80 111 146 181 224 273 323
#     4  10  20  35  59  84 108 142 182 223 270 323
#     4  10  19  34  51  76 107 137 179 224 269 319
#     4  10  20  36  56  84 111 141 178 227 269 322
#     4  10  20  32  51  74 101 139 180 225 268 315
#
# _framework density 16.915806
#
# number of rings (size 3 to 8) (size 9 to 14) (size 15 to 20)
#    0.000    2.000    1.250    2.625    0.000    1.500 
#    0.000    3.125    0.000    2.250    0.000    0.000 
#    0.000    0.000    0.000    0.000    0.000    0.000 
#
# Total GULP energy -178611.537972 kJ/mol
# GULP energy per Si atom -5581.610562 kJ/mol
# Density = 1.687731 g / cm^3
# Si number density = 16.915806 Si / 1000 Ang^3
#
#
#
# Elastic Constant Matrix: (Units=GPa)
#
#
# Indices 1 2 3 4 5 6 
#
# 1 112.4683 36.6204 54.1773 0.0000 5.2243 0.0000
# 2 36.6204 72.2232 40.3374 0.0000 3.9290 0.0000
# 3 54.1773 40.3374 75.6745 0.0000 1.3663 0.0000
# 4 0.0000 0.0000 0.0000 13.7060 0.0000 3.9635
# 5 5.2243 3.9290 1.3663 0.0000 34.0989 0.0000
# 6 0.0000 0.0000 0.0000 3.9635 0.0000 18.6958
#
#
#
# Elastic Compliance Matrix: (Units=1/GPa)
#
#
# Indices 1 2 3 4 5 6 
#
# 1 0.013873 -0.002020 -0.008827 0.000000 -0.001539 0.000000
# 2 -0.002020 0.020127 -0.009253 0.000000 -0.001639 0.000000
# 3 -0.008827 -0.009253 0.024440 0.000000 0.001439 0.000000
# 4 0.000000 0.000000 0.000000 0.077726 0.000000 -0.016478
# 5 -0.001539 -0.001639 0.001439 0.000000 0.029693 0.000000
# 6 0.000000 0.000000 0.000000 -0.016478 0.000000 0.056981
#
#
# Mechanical properties :
#
#
# Convention : Reuss Voigt Hill
#
# Bulk Modulus (GPa) = 54.82488 58.07071 56.44780
# Shear Modulus (GPa) = 18.57900 21.91552 20.24726
#
# Velocity S-wave (km/s) = 3.31769 3.60330 3.46344
# Velocity P-wave (km/s) = 6.86709 7.19135 7.03109
#
# Compressibility (1/GPa) = 0.01823989
#
# Stress axis : x y z
#
# Youngs Moduli (GPa) = 72.08290 49.68408 40.91632
#
# Poissons Ratio (x) = 0.10038 0.36118
# Poissons Ratio (y) = 0.14563 0.37858
# Poissons Ratio (z) = 0.63629 0.45970
#
# Static dielectric constant tensor:
#      x y z
#    x 1.563740 0.000000 0.012760 
#    y 0.000000 1.540780 0.000000 
#    z 0.012760 0.000000 1.551490 
# 
# From -- ./inp_files/52266.got.cif
#   From: 2010.05.17/outbox.cif.g08.bks.cpg/sg11_27_cif.got.tgz:52266.got - 2010.06.03 12:22:45.
