data_PCOD9159505
_publ_section_title
;
Structure prediction by ZEFSAII (Michael W. Deem and Ramdas Pophale) SiO2 
 PCOD9159505
Probable space group: P 21/M
;
_chemical_formula_sum "Si O2"
_cell_formula_units_Z 30
_cell_length_a 14.604250
_cell_length_b 7.339154
_cell_length_c 11.902778
_cell_angle_alpha 90.000000
_cell_angle_beta 72.987324
_cell_angle_gamma 90.000000
_cell_volume 1219.945759
_symmetry_space_group_name_H-M "P 21/M"
_symmetry_group_IT_number 11
_symmetry_cell_setting 'monoclinic'
loop_
_space_group_symop_operation_xyz
x,y,z
-x,1/2+y,-z
-x,-y,-z
x,1/2-y,z
loop_
_atom_site_type_symbol
_atom_site_label
_atom_site_fract_x
_atom_site_fract_y
_atom_site_fract_z
Si Si1 0.740542 0.972274 0.478944
Si Si2 0.569280 0.967219 0.685729
Si Si3 0.099283 0.466247 0.404296
Si Si4 0.374430 0.033302 0.848177
Si Si5 0.139246 0.470255 0.146637
Si Si6 0.636254 0.969565 0.905622
Si Si7 0.815143 0.527155 0.207361
Si Si8 0.000000 0.500000 0.000000
O O1 0.740712 0.750000 0.474004
O O2 0.635642 0.031893 0.559509
O O3 0.813793 0.032133 0.550078
O O4 0.781449 0.029017 0.343805
O O5 0.582589 0.750000 0.683589
O O6 0.604376 0.039687 0.795275
O O7 0.456267 0.001791 0.726623
O O8 0.115514 0.250000 0.387354
O O9 0.096154 0.535995 0.279220
O O10 0.000000 0.500000 0.500000
O O11 0.364478 0.250000 0.864256
O O12 0.271368 0.967541 0.843564
O O13 0.407267 0.963833 0.959726
O O14 0.130110 0.250000 0.136345
O O15 0.251507 0.508106 0.116593
O O16 0.084101 0.542526 0.059815
O O17 0.624980 0.750000 0.904497
O O18 0.819224 0.750000 0.199846
O O19 0.920711 0.470012 0.131841
#
# Coordination Sequence:
#
# PCOD9159505 Si02
#       8
#     4   4   4   4   4   4   4   2
#     4   9  18  34  56  79 106 145 190 231 275 335
#     4  10  19  34  59  84 108 142 188 235 277 329
#     4  10  19  34  56  81 110 145 188 235 283 336
#     4  10  20  35  56  81 112 148 184 225 283 342
#     4  10  19  33  55  80 107 146 188 227 279 343
#     4   9  16  32  56  79 104 141 184 225 272 332
#     4  10  21  36  54  78 109 146 189 232 279 340
#     4  12  20  32  56  80 106 140 186 234 274 326
#
# _framework density 24.591256999999999
#
# number of rings (size 3 to 8) (size 9 to 14) (size 15 to 20)
#    0.000    2.133    2.667    1.600    0.000    0.533 
#    0.000    2.667    0.000    4.800    0.000    0.000 
#    0.000    0.000    0.000    0.000    0.000    0.000 
#
# Total GULP energy -167187.153025 kJ/mol
# GULP energy per Si atom -5572.905101 kJ/mol
# Density = 2.453529 g / cm^3
# Si number density = 24.591257 Si / 1000 Ang^3
#
#
#
# Elastic Constant Matrix: (Units=GPa)
#
#
# Indices 1 2 3 4 5 6 
#
# 1 97.5919 -1.8981 33.4599 0.0000 -24.7138 0.0000
# 2 -1.8981 90.0851 0.6400 0.0000 4.3712 0.0000
# 3 33.4599 0.6400 164.4224 0.0000 -25.4033 0.0000
# 4 0.0000 0.0000 0.0000 23.3511 0.0000 11.6759
# 5 -24.7138 4.3712 -25.4033 0.0000 52.5319 0.0000
# 6 0.0000 0.0000 0.0000 11.6759 0.0000 6.3543
#
#
#
# Elastic Compliance Matrix: (Units=1/GPa)
#
#
# Indices 1 2 3 4 5 6 
#
# 1 0.012059 0.000031 -0.001705 0.000000 0.004846 0.000000
# 2 0.000031 0.011152 -0.000206 0.000000 -0.001013 0.000000
# 3 -0.001705 -0.000206 0.006818 0.000000 0.002512 0.000000
# 4 0.000000 0.000000 0.000000 0.527189 0.000000 -0.968700
# 5 0.004846 -0.001013 0.002512 0.000000 0.022615 0.000000
# 6 0.000000 0.000000 0.000000 -0.968700 0.000000 1.937344
#
#
# Mechanical properties :
#
#
# Convention : Reuss Voigt Hill
#
# Bulk Modulus (GPa) = 38.06960 46.27812 42.17386
# Shear Modulus (GPa) = 1.97652 37.77397 19.87525
#
# Velocity S-wave (km/s) = 0.89749 3.92353 2.84601
# Velocity P-wave (km/s) = 4.07290 6.27576 5.29026
#
# Compressibility (1/GPa) = 0.02626768
#
# Stress axis : x y z
#
# Youngs Moduli (GPa) = 82.92377 89.67087 146.67416
#
# Poissons Ratio (x) = -0.00279 0.25015
# Poissons Ratio (y) = -0.00258 0.03025
# Poissons Ratio (z) = 0.14142 0.01849
#
# Static dielectric constant tensor:
#      x y z
#    x 1.896170 0.000000 -0.004750 
#    y 0.000000 2.020410 0.000000 
#    z -0.004750 0.000000 1.949530 
# 
# From -- ./inp_files/34726.got.cif
#   From: 2010.05.17/outbox.cif.g08.bks.cpg/sg11_18_cif.got.tgz:34726.got - 2010.06.03 12:22:45.
