data_PCOD9159901
_publ_section_title
;
Structure prediction by ZEFSAII (Michael W. Deem and Ramdas Pophale) SiO2 
 PCOD9159901
Probable space group: P 21/M
;
_chemical_formula_sum "Si O2"
_cell_formula_units_Z 28
_cell_length_a 5.267497
_cell_length_b 13.329938
_cell_length_c 21.263738
_cell_angle_alpha 90.000000
_cell_angle_beta 66.706462
_cell_angle_gamma 90.000000
_cell_volume 1371.345664
_symmetry_space_group_name_H-M "P 21/M"
_symmetry_group_IT_number 11
_symmetry_cell_setting 'monoclinic'
loop_
_space_group_symop_operation_xyz
x,y,z
-x,1/2+y,-z
-x,-y,-z
x,1/2-y,z
loop_
_atom_site_type_symbol
_atom_site_label
_atom_site_fract_x
_atom_site_fract_y
_atom_site_fract_z
Si Si1 0.755555 0.865033 0.990087
Si Si2 0.057276 0.948884 0.253661
Si Si3 0.242921 0.135409 0.162135
Si Si4 0.732725 0.480849 0.084185
Si Si5 0.316634 0.134393 0.812061
Si Si6 0.715206 0.132877 0.517308
Si Si7 0.101516 0.453252 0.586125
O O1 0.706089 0.750000 0.012212
O O2 0.755555 0.870864 0.914332
O O3 0.583804 0.944211 0.048614
O O4 0.064159 0.906932 0.973060
O O5 0.361865 0.899078 0.217565
O O6 0.825742 0.883469 0.241146
O O7 0.992055 0.961140 0.333069
O O8 0.059716 0.055969 0.217342
O O9 0.195222 0.250000 0.184559
O O10 0.551563 0.094829 0.143640
O O11 0.842529 0.562390 0.123163
O O12 0.293821 0.250000 0.832110
O O13 0.752714 0.250000 0.501036
O O14 0.391688 0.105908 0.554034
O O15 0.873088 0.101829 0.565779
O O16 0.842704 0.061698 0.450781
#
# Coordination Sequence:
#
# PCOD9159901 Si02
#       7
#     4   4   4   4   4   4   4
#     4  10  19  34  56  79 106 147 195 244 298 349
#     4  11  23  40  59  88 120 155 194 239 286 347
#     4  10  21  37  56  80 112 153 193 240 294 352
#     4  10  20  35  55  79 112 145 197 249 295 343
#     4  11  23  39  58  84 119 156 197 243 293 346
#     4  10  21  39  63  89 120 154 192 238 285 337
#     4  10  22  38  60  90 121 152 195 238 283 341
#
# _framework density 20.417902000000002
#
# number of rings (size 3 to 8) (size 9 to 14) (size 15 to 20)
#    0.000    1.714    1.429    3.000    0.000    4.000 
#    0.000    0.000    0.000    5.143    0.000    0.000 
#    0.000    0.000    0.000    0.000    0.000    0.000 
#
# Total GULP energy -156131.672665 kJ/mol
# GULP energy per Si atom -5576.131167 kJ/mol
# Density = 2.037143 g / cm^3
# Si number density = 20.417902 Si / 1000 Ang^3
#
#
#
# Elastic Constant Matrix: (Units=GPa)
#
#
# Indices 1 2 3 4 5 6 
#
# 1 74.1097 36.0224 14.9812 0.0000 20.8281 0.0000
# 2 36.0224 142.7319 21.2212 0.0000 8.1745 0.0000
# 3 14.9812 21.2212 89.7017 0.0000 22.0683 0.0000
# 4 0.0000 0.0000 0.0000 7.1753 0.0000 0.9927
# 5 20.8281 8.1745 22.0683 0.0000 26.6321 0.0000
# 6 0.0000 0.0000 0.0000 0.9927 0.0000 15.5914
#
#
#
# Elastic Compliance Matrix: (Units=1/GPa)
#
#
# Indices 1 2 3 4 5 6 
#
# 1 0.019549 -0.004284 0.001490 0.000000 -0.015208 0.000000
# 2 -0.004284 0.008222 -0.001800 0.000000 0.002318 0.000000
# 3 0.001490 -0.001800 0.014414 0.000000 -0.012557 0.000000
# 4 0.000000 0.000000 0.000000 0.140606 0.000000 -0.008952
# 5 -0.015208 0.002318 -0.012557 0.000000 0.059136 0.000000
# 6 0.000000 0.000000 0.000000 -0.008952 0.000000 0.064708
#
#
# Mechanical properties :
#
#
# Convention : Reuss Voigt Hill
#
# Bulk Modulus (GPa) = 30.30550 50.11033 40.20791
# Shear Modulus (GPa) = 15.29880 25.50098 20.39989
#
# Velocity S-wave (km/s) = 2.74027 3.53789 3.16431
# Velocity P-wave (km/s) = 4.98868 6.42530 5.75202
#
# Compressibility (1/GPa) = 0.03299731
#
# Stress axis : x y z
#
# Youngs Moduli (GPa) = 51.15365 121.62127 69.37545
#
# Poissons Ratio (x) = 0.52106 -0.10338
# Poissons Ratio (y) = 0.21916 0.12488
# Poissons Ratio (z) = -0.07623 0.21892
#
# Static dielectric constant tensor:
#      x y z
#    x 1.830030 0.000000 0.011680 
#    y 0.000000 1.697000 0.000000 
#    z 0.011680 0.000000 1.742600 
# 
# From -- ./inp_files/8762.got.cif
#   From: 2010.05.17/outbox.cif.g08.bks.cpg/sg11_5_cif.got.tgz:8762.got - 2010.06.03 12:22:45.
