data_PCOD9159536
_publ_section_title
;
Structure prediction by ZEFSAII (Michael W. Deem and Ramdas Pophale) SiO2 
 PCOD9159536
Probable space group: P 21/M
;
_chemical_formula_sum "Si O2"
_cell_formula_units_Z 32
_cell_length_a 25.305958
_cell_length_b 7.577479
_cell_length_c 16.560652
_cell_angle_alpha 90.000000
_cell_angle_beta 26.304347
_cell_angle_gamma 90.000000
_cell_volume 1407.230146
_symmetry_space_group_name_H-M "P 21/M"
_symmetry_group_IT_number 11
_symmetry_cell_setting 'monoclinic'
loop_
_space_group_symop_operation_xyz
x,y,z
-x,1/2+y,-z
-x,-y,-z
x,1/2-y,z
loop_
_atom_site_type_symbol
_atom_site_label
_atom_site_fract_x
_atom_site_fract_y
_atom_site_fract_z
Si Si1 0.834011 0.965549 0.033711
Si Si2 0.297105 0.535553 0.433209
Si Si3 0.240079 0.047737 0.175137
Si Si4 0.481964 0.545679 0.763174
Si Si5 0.815350 0.452700 0.577821
Si Si6 0.080636 0.466192 0.252869
Si Si7 0.408039 0.038506 0.554370
Si Si8 0.947527 0.460531 0.159119
O O1 0.832633 0.750000 0.037428
O O2 0.721073 0.028377 0.239846
O O3 0.836075 0.016172 0.937047
O O4 0.957280 0.025313 0.905537
O O5 0.306816 0.750000 0.421171
O O6 0.419349 0.466277 0.302023
O O7 0.259667 0.475263 0.394525
O O8 0.186220 0.476824 0.641496
O O9 0.211043 0.250000 0.233458
O O10 0.135712 0.970971 0.261568
O O11 0.252729 0.957077 0.244141
O O12 0.360783 0.042390 0.958388
O O13 0.452296 0.750000 0.788840
O O14 0.540821 0.470570 0.600617
O O15 0.839254 0.250000 0.521179
O O16 0.946911 0.527348 0.416075
O O17 0.080055 0.250000 0.257779
O O18 0.396235 0.250000 0.561634
O O19 0.500000 0.000000 0.500000
O O20 0.942385 0.250000 0.175298
O O21 0.000000 0.500000 0.000000
#
# Coordination Sequence:
#
# PCOD9159536 Si02
#       8
#     4   4   4   4   4   4   4   4
#     4   9  16  31  55  81 109 146 185 221 273 342
#     4  10  21  38  61  86 115 154 198 243 290 349
#     4  11  23  38  60  88 115 152 198 245 296 353
#     4  11  24  41  59  84 119 159 199 244 295 347
#     4  10  20  38  62  88 117 151 192 242 298 354
#     4   9  17  33  59  88 117 149 189 234 288 351
#     4  10  21  36  57  84 116 155 196 236 283 338
#     4  10  19  33  55  82 112 147 188 230 278 338
#
# _framework density 22.739708
#
# number of rings (size 3 to 8) (size 9 to 14) (size 15 to 20)
#    0.000    2.000    1.250    2.625    0.000    4.500 
#    0.000    1.250    0.000    2.250    0.000    0.000 
#    0.000    0.000    0.000    0.000    0.000    0.000 
#
# Total GULP energy -178851.154114 kJ/mol
# GULP energy per Si atom -5589.098566 kJ/mol
# Density = 2.268795 g / cm^3
# Si number density = 22.739708 Si / 1000 Ang^3
#
#
#
# Elastic Constant Matrix: (Units=GPa)
#
#
# Indices 1 2 3 4 5 6 
#
# 1 119.4510 -5.9016 19.1969 0.0000 7.6803 0.0000
# 2 -5.9016 53.0427 0.2689 0.0000 3.2628 0.0000
# 3 19.1969 0.2689 83.6281 0.0000 6.1507 0.0000
# 4 0.0000 0.0000 0.0000 8.6816 0.0000 2.0699
# 5 7.6803 3.2628 6.1507 0.0000 40.9689 0.0000
# 6 0.0000 0.0000 0.0000 2.0699 0.0000 11.9936
#
#
#
# Elastic Compliance Matrix: (Units=1/GPa)
#
#
# Indices 1 2 3 4 5 6 
#
# 1 0.008827 0.001081 -0.001923 0.000000 -0.001452 0.000000
# 2 0.001081 0.019078 -0.000185 0.000000 -0.001694 0.000000
# 3 -0.001923 -0.000185 0.012510 0.000000 -0.001503 0.000000
# 4 0.000000 0.000000 0.000000 0.120130 0.000000 -0.020732
# 5 -0.001452 -0.001694 -0.001503 0.000000 0.025042 0.000000
# 6 0.000000 0.000000 0.000000 -0.020732 0.000000 0.086955
#
#
# Mechanical properties :
#
#
# Convention : Reuss Voigt Hill
#
# Bulk Modulus (GPa) = 26.06710 31.47223 28.76967
# Shear Modulus (GPa) = 17.39836 28.49934 22.94885
#
# Velocity S-wave (km/s) = 2.76906 3.54402 3.18023
# Velocity P-wave (km/s) = 4.65959 5.53326 5.11511
#
# Compressibility (1/GPa) = 0.03836253
#
# Stress axis : x y z
#
# Youngs Moduli (GPa) = 113.28268 52.41582 79.93438
#
# Poissons Ratio (x) = -0.05667 0.15371
# Poissons Ratio (y) = -0.12249 0.01478
# Poissons Ratio (z) = 0.21784 0.00969
#
# Static dielectric constant tensor:
#      x y z
#    x 1.832260 0.000000 0.014290 
#    y 0.000000 1.876850 0.000000 
#    z 0.014290 0.000000 1.836340 
# 
# From -- ./inp_files/55637.got.cif
#   From: 2010.05.17/outbox.cif.g08.bks.cpg/sg11_28_cif.got.tgz:55637.got - 2010.06.03 12:22:45.
