data_PCOD9159581
_publ_section_title
;
Structure prediction by ZEFSAII (Michael W. Deem and Ramdas Pophale) SiO2 
 PCOD9159581
Probable space group: P 21/M
;
_chemical_formula_sum "Si O2"
_cell_formula_units_Z 28
_cell_length_a 11.364128
_cell_length_b 17.988038
_cell_length_c 7.769377
_cell_angle_alpha 90.000000
_cell_angle_beta 45.749257
_cell_angle_gamma 90.000000
_cell_volume 1137.618777
_symmetry_space_group_name_H-M "P 21/M"
_symmetry_group_IT_number 11
_symmetry_cell_setting 'monoclinic'
loop_
_space_group_symop_operation_xyz
x,y,z
-x,1/2+y,-z
-x,-y,-z
x,1/2-y,z
loop_
_atom_site_type_symbol
_atom_site_label
_atom_site_fract_x
_atom_site_fract_y
_atom_site_fract_z
Si Si1 0.217148 0.890446 0.376378
Si Si2 0.688025 0.947553 0.204825
Si Si3 0.094878 0.331152 0.158723
Si Si4 0.829685 0.549018 0.422032
Si Si5 0.522285 0.438842 0.127450
Si Si6 0.928930 0.333426 0.945229
Si Si7 0.595420 0.163101 0.476451
O O1 0.333106 0.866803 0.417017
O O2 0.056858 0.840207 0.557380
O O3 0.157642 0.974669 0.478678
O O4 0.333892 0.886905 0.092093
O O5 0.585628 0.012742 0.223128
O O6 0.432928 0.117135 0.606534
O O7 0.793911 0.974716 0.259198
O O8 0.793242 0.904237 0.953064
O O9 0.173921 0.250000 0.102482
O O10 0.021538 0.333222 0.038078
O O11 0.661917 0.590270 0.653041
O O12 0.985439 0.602747 0.254106
O O13 0.500000 0.500000 0.000000
O O14 0.948242 0.250000 0.854339
O O15 0.740623 0.345692 0.190220
O O16 0.559950 0.250000 0.525942
#
# Coordination Sequence:
#
# PCOD9159581 Si02
#       7
#     4   4   4   4   4   4   4
#     4  10  20  37  57  81 112 150 183 225 280 337
#     4  11  20  34  58  86 110 142 187 239 281 319
#     4   9  19  35  57  83 111 145 192 230 269 331
#     4  10  20  35  57  84 112 142 188 232 280 331
#     4  10  20  36  54  80 116 142 182 227 278 337
#     4   8  17  33  52  78 110 144 183 229 277 328
#     4  10  19  33  56  81 107 145 191 229 272 332
#
# _framework density 24.612812999999999
#
# number of rings (size 3 to 8) (size 9 to 14) (size 15 to 20)
#    0.000    2.286    2.857    2.143    0.000    6.286 
#    0.000    1.429    0.000    0.000    0.000    0.000 
#    0.000    0.000    0.000    0.000    0.000    0.000 
#
# Total GULP energy -156705.421699 kJ/mol
# GULP energy per Si atom -5596.622204 kJ/mol
# Density = 2.455679 g / cm^3
# Si number density = 24.612813 Si / 1000 Ang^3
#
#
#
# Elastic Constant Matrix: (Units=GPa)
#
#
# Indices 1 2 3 4 5 6 
#
# 1 40.9817 5.2416 8.0758 0.0000 8.2417 0.0000
# 2 5.2416 101.6741 39.0704 0.0000 -5.1508 0.0000
# 3 8.0758 39.0704 116.4178 0.0000 -17.1640 0.0000
# 4 0.0000 0.0000 0.0000 35.4732 0.0000 -10.9740
# 5 8.2417 -5.1508 -17.1640 0.0000 42.0493 0.0000
# 6 0.0000 0.0000 0.0000 -10.9740 0.0000 17.4302
#
#
#
# Elastic Compliance Matrix: (Units=1/GPa)
#
#
# Indices 1 2 3 4 5 6 
#
# 1 0.026243 -0.000707 -0.002505 0.000000 -0.006253 0.000000
# 2 -0.000707 0.011312 -0.003748 0.000000 -0.000006 0.000000
# 3 -0.002505 -0.003748 0.010668 0.000000 0.004386 0.000000
# 4 0.000000 0.000000 0.000000 0.035009 0.000000 0.022042
# 5 -0.006253 -0.000006 0.004386 0.000000 0.026797 0.000000
# 6 0.000000 0.000000 0.000000 0.022042 0.000000 0.071249
#
#
# Mechanical properties :
#
#
# Convention : Reuss Voigt Hill
#
# Bulk Modulus (GPa) = 29.15256 40.42768 34.79012
# Shear Modulus (GPa) = 24.19758 32.76957 28.48357
#
# Velocity S-wave (km/s) = 3.13889 3.65280 3.40555
# Velocity P-wave (km/s) = 5.00070 5.85249 5.44329
#
# Compressibility (1/GPa) = 0.03430230
#
# Stress axis : x y z
#
# Youngs Moduli (GPa) = 38.10586 88.40334 93.73723
#
# Poissons Ratio (x) = 0.06251 0.23481
# Poissons Ratio (y) = 0.02694 0.35134
# Poissons Ratio (z) = 0.09546 0.33134
#
# Static dielectric constant tensor:
#      x y z
#    x 1.967490 0.000000 0.017440 
#    y 0.000000 1.917920 0.000000 
#    z 0.017440 0.000000 2.030490 
# 
# From -- ./inp_files/22707.got.cif
#   From: 2010.05.17/outbox.cif.g08.bks.cpg/sg11_12_cif.got.tgz:22707.got - 2010.06.03 12:22:45.
