data_PCOD9159528
_publ_section_title
;
Structure prediction by ZEFSAII (Michael W. Deem and Ramdas Pophale) SiO2 
 PCOD9159528
Probable space group: P 21/M
;
_chemical_formula_sum "Si O2"
_cell_formula_units_Z 32
_cell_length_a 25.781455
_cell_length_b 8.880996
_cell_length_c 21.054053
_cell_angle_alpha 90.000000
_cell_angle_beta 157.577982
_cell_angle_gamma 90.000000
_cell_volume 1838.716156
_symmetry_space_group_name_H-M "P 21/M"
_symmetry_group_IT_number 11
_symmetry_cell_setting 'monoclinic'
loop_
_space_group_symop_operation_xyz
x,y,z
-x,1/2+y,-z
-x,-y,-z
x,1/2-y,z
loop_
_atom_site_type_symbol
_atom_site_label
_atom_site_fract_x
_atom_site_fract_y
_atom_site_fract_z
Si Si1 0.929817 0.569775 0.604227
Si Si2 0.658728 0.570554 0.746017
Si Si3 0.915173 0.569750 0.845730
Si Si4 0.926528 0.929809 0.355446
Si Si5 0.652735 0.429487 0.599430
Si Si6 0.661442 0.429270 0.253755
Si Si7 0.078716 0.569076 0.903279
Si Si8 0.352827 0.070451 0.900891
O O1 0.928509 0.750000 0.597286
O O2 0.776528 0.508977 0.425119
O O3 0.012085 0.500953 0.638253
O O4 0.001483 0.527814 0.751356
O O5 0.670698 0.750000 0.750994
O O6 0.676008 0.491177 0.697143
O O7 0.504929 0.538051 0.594674
O O8 0.776108 0.509949 0.924321
O O9 0.914619 0.750000 0.851150
O O10 0.762780 0.507040 0.679102
O O11 0.988051 0.529525 0.862209
O O12 0.000000 0.500000 0.000000
O O13 0.947675 0.750000 0.378867
O O14 0.766141 0.960149 0.183831
O O15 0.000000 0.000000 0.500000
O O16 0.672933 0.250000 0.622257
O O17 0.679250 0.250000 0.276925
O O18 0.676663 0.483823 0.198025
O O19 0.505679 0.466879 0.095522
O O20 0.097905 0.750000 0.925623
O O21 0.349876 0.250000 0.883330
#
# Coordination Sequence:
#
# PCOD9159528 Si02
#       8
#     4   4   4   4   4   4   4   4
#     4  11  23  39  56  79 113 152 187 227 278 332
#     4  10  20  34  56  83 111 146 186 228 278 331
#     4  11  21  35  57  85 111 144 189 236 280 328
#     4  11  21  35  57  85 113 144 184 231 276 328
#     4  10  20  34  54  84 116 144 180 229 281 334
#     4  10  19  33  55  82 109 143 183 225 275 327
#     4  10  23  40  57  78 112 151 187 229 280 334
#     4   9  19  34  54  81 112 141 177 228 279 324
#
# _framework density 17.403447
#
# number of rings (size 3 to 8) (size 9 to 14) (size 15 to 20)
#    0.000    1.750    2.500    2.250    0.000    4.000 
#    0.000    1.250    0.000    6.000    0.000    0.000 
#    0.000    0.000    0.000    0.000    0.000    0.000 
#
# Total GULP energy -178684.590910 kJ/mol
# GULP energy per Si atom -5583.893466 kJ/mol
# Density = 1.736384 g / cm^3
# Si number density = 17.403447 Si / 1000 Ang^3
#
#
#
# Elastic Constant Matrix: (Units=GPa)
#
#
# Indices 1 2 3 4 5 6 
#
# 1 97.9063 44.8986 74.6350 0.0000 0.0237 0.0000
# 2 44.8986 56.8527 63.5590 0.0000 1.2145 0.0000
# 3 74.6350 63.5590 163.0064 0.0000 1.6392 0.0000
# 4 0.0000 0.0000 0.0000 32.0683 0.0000 2.7394
# 5 0.0237 1.2145 1.6392 0.0000 27.6023 0.0000
# 6 0.0000 0.0000 0.0000 2.7394 0.0000 24.7032
#
#
#
# Elastic Compliance Matrix: (Units=1/GPa)
#
#
# Indices 1 2 3 4 5 6 
#
# 1 0.017884 -0.008821 -0.004756 0.000000 0.000655 0.000000
# 2 -0.008821 0.035544 -0.009811 0.000000 -0.000974 0.000000
# 3 -0.004756 -0.009811 0.012140 0.000000 -0.000285 0.000000
# 4 0.000000 0.000000 0.000000 0.031482 0.000000 -0.003491
# 5 0.000655 -0.000974 -0.000285 0.000000 0.036288 0.000000
# 6 0.000000 0.000000 0.000000 -0.003491 0.000000 0.040868
#
#
# Mechanical properties :
#
#
# Convention : Reuss Voigt Hill
#
# Bulk Modulus (GPa) = 53.20829 75.99451 64.60140
# Shear Modulus (GPa) = 22.00256 25.85296 23.92776
#
# Velocity S-wave (km/s) = 3.55951 3.85841 3.71197
# Velocity P-wave (km/s) = 6.89444 7.97565 7.45467
#
# Compressibility (1/GPa) = 0.01879406
#
# Stress axis : x y z
#
# Youngs Moduli (GPa) = 55.91518 28.13376 82.36971
#
# Poissons Ratio (x) = 0.24817 0.39172
# Poissons Ratio (y) = 0.49324 0.80810
# Poissons Ratio (z) = 0.26591 0.27601
#
# Static dielectric constant tensor:
#      x y z
#    x 1.566360 0.000000 0.028400 
#    y 0.000000 1.581100 0.000000 
#    z 0.028400 0.000000 1.599730 
# 
# From -- ./inp_files/67275.got.cif
#   From: 2010.05.17/outbox.cif.g08.bks.cpg/sg11_34_cif.got.tgz:67275.got - 2010.06.03 12:22:45.
