data_PCOD9159501
_publ_section_title
;
Structure prediction by ZEFSAII (Michael W. Deem and Ramdas Pophale) SiO2 
 PCOD9159501
Probable space group: P 21/M
;
_chemical_formula_sum "Si O2"
_cell_formula_units_Z 32
_cell_length_a 25.978239
_cell_length_b 7.707022
_cell_length_c 20.931075
_cell_angle_alpha 90.000000
_cell_angle_beta 157.223164
_cell_angle_gamma 90.000000
_cell_volume 1622.404308
_symmetry_space_group_name_H-M "P 21/M"
_symmetry_group_IT_number 11
_symmetry_cell_setting 'monoclinic'
loop_
_space_group_symop_operation_xyz
x,y,z
-x,1/2+y,-z
-x,-y,-z
x,1/2-y,z
loop_
_atom_site_type_symbol
_atom_site_label
_atom_site_fract_x
_atom_site_fract_y
_atom_site_fract_z
Si Si1 0.201638 0.453087 0.773979
Si Si2 0.121319 0.459918 0.056038
Si Si3 0.823602 0.954339 0.019347
Si Si4 0.650318 0.548840 0.425410
Si Si5 0.180218 0.544786 0.263720
Si Si6 0.905989 0.961156 0.479794
Si Si7 0.350992 0.046693 0.065087
Si Si8 0.882010 0.539487 0.597068
O O1 0.234019 0.250000 0.802602
O O2 0.185463 0.524297 0.683623
O O3 0.054714 0.471514 0.636509
O O4 0.302343 0.528874 0.941534
O O5 0.116793 0.250000 0.049108
O O6 0.194622 0.511338 0.204933
O O7 0.182602 0.525412 0.059856
O O8 0.967684 0.521330 0.886545
O O9 0.791594 0.750000 0.977317
O O10 0.728488 0.029941 0.965303
O O11 0.975605 0.973092 0.216158
O O12 0.631254 0.750000 0.387502
O O13 0.709747 0.534489 0.564445
O O14 0.507427 0.463981 0.254355
O O15 0.763865 0.478074 0.507811
O O16 0.182313 0.750000 0.277258
O O17 0.912570 0.750000 0.484848
O O18 0.862097 0.010878 0.500479
O O19 0.312030 0.250000 0.018018
O O20 0.887107 0.750000 0.606216
#
# Coordination Sequence:
#
# PCOD9159501 Si02
#       8
#     4   4   4   4   4   4   4   4
#     4   9  17  31  52  77 106 138 173 215 264 314
#     4   9  18  32  53  81 109 135 167 216 267 313
#     4  10  19  34  56  81 107 136 176 221 262 310
#     4  11  23  37  53  75 108 146 180 217 263 316
#     4  10  19  33  55  80 107 138 173 216 264 315
#     4   9  17  30  51  79 107 135 171 218 266 311
#     4  10  21  36  54  77 107 142 179 218 263 315
#     4  10  20  33  52  79 108 138 176 221 264 310
#
# _framework density 19.723811999999999
#
# number of rings (size 3 to 8) (size 9 to 14) (size 15 to 20)
#    0.000    2.250    2.500    0.750    0.000    2.500 
#    0.000    1.250    0.000    0.000    0.000    0.000 
#    0.000    0.000    0.000    0.000    0.000    0.000 
#
# Total GULP energy -178517.341819 kJ/mol
# GULP energy per Si atom -5578.666932 kJ/mol
# Density = 1.967892 g / cm^3
# Si number density = 19.723812 Si / 1000 Ang^3
#
#
#
# Elastic Constant Matrix: (Units=GPa)
#
#
# Indices 1 2 3 4 5 6 
#
# 1 112.0245 -12.5175 51.3949 0.0000 -23.7675 0.0000
# 2 -12.5175 27.8728 -19.7618 0.0000 -1.3715 0.0000
# 3 51.3949 -19.7618 94.5217 0.0000 -18.8804 0.0000
# 4 0.0000 0.0000 0.0000 34.4463 0.0000 -17.0131
# 5 -23.7675 -1.3715 -18.8804 0.0000 32.4977 0.0000
# 6 0.0000 0.0000 0.0000 -17.0131 0.0000 33.3169
#
#
#
# Elastic Compliance Matrix: (Units=1/GPa)
#
#
# Indices 1 2 3 4 5 6 
#
# 1 0.012999 0.002440 -0.005247 0.000000 0.006561 0.000000
# 2 0.002440 0.044402 0.009828 0.000000 0.009368 0.000000
# 3 -0.005247 0.009828 0.016747 0.000000 0.006307 0.000000
# 4 0.000000 0.000000 0.000000 0.038822 0.000000 0.019824
# 5 0.006561 0.009368 0.006307 0.000000 0.039629 0.000000
# 6 0.000000 0.000000 0.000000 0.019824 0.000000 0.040138
#
#
# Mechanical properties :
#
#
# Convention : Reuss Voigt Hill
#
# Bulk Modulus (GPa) = 11.33927 30.29448 20.81688
# Shear Modulus (GPa) = 24.02785 34.40573 29.21679
#
# Velocity S-wave (km/s) = 3.49408 4.18110 3.85294
# Velocity P-wave (km/s) = 4.69464 6.22105 5.51095
#
# Compressibility (1/GPa) = 0.08818908
#
# Stress axis : x y z
#
# Youngs Moduli (GPa) = 76.93149 22.52156 59.71213
#
# Poissons Ratio (x) = -0.05496 0.31331
# Poissons Ratio (y) = -0.18773 -0.58682
# Poissons Ratio (z) = 0.40366 -0.22133
#
# Static dielectric constant tensor:
#      x y z
#    x 1.719640 0.000000 -0.032690 
#    y 0.000000 1.712650 0.000000 
#    z -0.032690 0.000000 1.654700 
# 
# From -- ./inp_files/67292.got.cif
#   From: 2010.05.17/outbox.cif.g08.bks.cpg/sg11_34_cif.got.tgz:67292.got - 2010.06.03 12:22:45.
