data_PCOD9159649
_publ_section_title
;
Structure prediction by ZEFSAII (Michael W. Deem and Ramdas Pophale) SiO2 
 PCOD9159649
Probable space group: P 21/M
;
_chemical_formula_sum "Si O2"
_cell_formula_units_Z 30
_cell_length_a 21.617418
_cell_length_b 7.287624
_cell_length_c 8.189119
_cell_angle_alpha 90.000000
_cell_angle_beta 60.766449
_cell_angle_gamma 90.000000
_cell_volume 1125.797317
_symmetry_space_group_name_H-M "P 21/M"
_symmetry_group_IT_number 11
_symmetry_cell_setting 'monoclinic'
loop_
_space_group_symop_operation_xyz
x,y,z
-x,1/2+y,-z
-x,-y,-z
x,1/2-y,z
loop_
_atom_site_type_symbol
_atom_site_label
_atom_site_fract_x
_atom_site_fract_y
_atom_site_fract_z
Si Si1 0.562218 0.250000 0.170242
Si Si2 0.654038 0.048596 0.786527
Si Si3 0.913229 0.032420 0.481923
Si Si4 0.831638 0.025929 0.262555
Si Si5 0.780463 0.024126 0.829118
Si Si6 0.954781 0.463951 0.891859
Si Si7 0.699067 0.472850 0.255667
Si Si8 0.559694 0.472567 0.605950
O O1 0.510388 0.409715 0.311885
O O2 0.609999 0.094303 0.007903
O O3 0.673582 0.250000 0.688791
O O4 0.728276 0.966764 0.748784
O O5 0.598537 0.972771 0.728099
O O6 0.907258 0.250000 0.498488
O O7 0.871136 0.965588 0.374599
O O8 0.861773 0.965546 0.693486
O O9 0.995694 0.007701 0.327034
O O10 0.833591 0.250000 0.262880
O O11 0.750855 0.975132 0.337426
O O12 0.878787 0.962265 0.046588
O O13 0.779884 0.250000 0.833833
O O14 0.740107 0.963308 0.042995
O O15 0.943186 0.250000 0.887338
O O16 0.000000 0.500000 0.000000
O O17 0.695238 0.250000 0.246470
O O18 0.619540 0.524927 0.396831
O O19 0.549223 0.250000 0.620198
#
# Coordination Sequence:
#
# PCOD9159649 Si02
#       8
#     2   4   4   4   4   4   4   4
#     4  10  20  34  56  82 114 130 174 216 276 312
#     4   8  17  30  53  75 102 134 162 213 259 308
#     4   9  16  27  49  72  97 130 167 212 257 307
#     4   8  14  26  45  71  95 129 170 210 254 307
#     4   9  16  30  50  74  99 135 178 212 251 308
#     4   9  16  27  46  71 102 129 163 212 262 306
#     4   9  17  29  51  74  99 133 181 216 248 310
#     4  10  19  33  57  81 105 138 173 218 267 318
#
# _framework density 26.647780999999998
#
# number of rings (size 3 to 8) (size 9 to 14) (size 15 to 20)
#    0.400    2.667    0.000    2.400    0.000    3.200 
#    0.000    1.333   16.133    0.000    0.000    0.000 
#    0.000    0.000    0.000    0.000    0.000    0.000 
#
# Total GULP energy -167014.691677 kJ/mol
# GULP energy per Si atom -5567.156389 kJ/mol
# Density = 2.658713 g / cm^3
# Si number density = 26.647781 Si / 1000 Ang^3
#
#
#
# Elastic Constant Matrix: (Units=GPa)
#
#
# Indices 1 2 3 4 5 6 
#
# 1 111.9725 1.6202 40.6280 0.0000 -30.1363 0.0000
# 2 1.6202 112.6089 15.8733 0.0000 -12.6606 0.0000
# 3 40.6280 15.8733 184.4170 0.0000 -47.2194 0.0000
# 4 0.0000 0.0000 0.0000 16.9461 0.0000 -6.3045
# 5 -30.1363 -12.6606 -47.2194 0.0000 50.4592 0.0000
# 6 0.0000 0.0000 0.0000 -6.3045 0.0000 -2.6535
#
#
#
# Elastic Compliance Matrix: (Units=1/GPa)
#
#
# Indices 1 2 3 4 5 6 
#
# 1 0.010810 0.000623 -0.000976 0.000000 0.005699 0.000000
# 2 0.000623 0.009184 -0.000319 0.000000 0.002378 0.000000
# 3 -0.000976 -0.000319 0.007227 0.000000 0.006100 0.000000
# 4 0.000000 0.000000 0.000000 0.031323 0.000000 -0.074422
# 5 0.005699 0.002378 0.006100 0.000000 0.029527 0.000000
# 6 0.000000 0.000000 0.000000 -0.074422 0.000000 -0.200041
#
#
# Mechanical properties :
#
#
# Convention : Reuss Voigt Hill
#
# Bulk Modulus (GPa) = 38.64530 58.36016 48.50273
# Shear Modulus (GPa) = -49.01832 36.34218 -6.33807
#
# Velocity S-wave (km/s) = -4.29358 3.69697 -1.54390
# Velocity P-wave (km/s) = 3.16955 6.33810 3.88108
#
# Compressibility (1/GPa) = 0.02587637
#
# Stress axis : x y z
#
# Youngs Moduli (GPa) = 92.50985 108.88958 138.37395
#
# Poissons Ratio (x) = -0.06781 0.13502
# Poissons Ratio (y) = -0.05761 0.04412
# Poissons Ratio (z) = 0.09027 0.03472
#
# Static dielectric constant tensor:
#      x y z
#    x 2.141360 0.000000 0.073370 
#    y 0.000000 2.054810 0.000000 
#    z 0.073370 0.000000 2.106720 
# 
# From -- ./inp_files/28046.got.cif
#   From: 2010.05.17/outbox.cif.g08.bks.cpg/sg11_15_cif.got.tgz:28046.got - 2010.06.03 12:22:45.
