data_PCOD9159487
_publ_section_title
;
Structure prediction by ZEFSAII (Michael W. Deem and Ramdas Pophale) SiO2 
 PCOD9159487
Probable space group: P 21/M
;
_chemical_formula_sum "Si O2"
_cell_formula_units_Z 28
_cell_length_a 12.894687
_cell_length_b 8.167829
_cell_length_c 14.456549
_cell_angle_alpha 90.000000
_cell_angle_beta 76.551659
_cell_angle_gamma 90.000000
_cell_volume 1480.837523
_symmetry_space_group_name_H-M "P 21/M"
_symmetry_group_IT_number 11
_symmetry_cell_setting 'monoclinic'
loop_
_space_group_symop_operation_xyz
x,y,z
-x,1/2+y,-z
-x,-y,-z
x,1/2-y,z
loop_
_atom_site_type_symbol
_atom_site_label
_atom_site_fract_x
_atom_site_fract_y
_atom_site_fract_z
Si Si1 0.170040 0.945903 0.283149
Si Si2 0.611924 0.948052 0.088750
Si Si3 0.385399 0.945549 0.558669
Si Si4 0.175989 0.550986 0.490672
Si Si5 0.738490 0.556364 0.239464
Si Si6 0.629600 0.447751 0.876020
Si Si7 0.944289 0.055929 0.303869
O O1 0.182007 0.750000 0.287256
O O2 0.160824 0.010961 0.390122
O O3 0.274048 0.008933 0.207931
O O4 0.058640 0.982568 0.256436
O O5 0.611453 0.750000 0.091932
O O6 0.690658 0.006935 0.152911
O O7 0.489103 0.003557 0.128931
O O8 0.644468 0.001661 0.979412
O O9 0.382712 0.750000 0.570687
O O10 0.293917 0.989238 0.503366
O O11 0.500000 0.000000 0.500000
O O12 0.349008 0.024200 0.662647
O O13 0.167503 0.750000 0.491247
O O14 0.095277 0.491242 0.587074
O O15 0.755900 0.750000 0.227923
O O16 0.848604 0.479964 0.252854
O O17 0.629374 0.250000 0.872068
O O18 0.956282 0.250000 0.308427
#
# Coordination Sequence:
#
# PCOD9159487 Si02
#       7
#     4   4   4   4   4   4   4
#     4  10  19  33  55  78 103 139 180 217 261 315
#     4   9  19  36  57  79 105 137 173 216 271 323
#     4  10  20  33  50  77 111 144 178 218 261 310
#     4   8  17  32  51  73 103 142 177 213 258 308
#     4  10  20  35  57  78 102 141 181 217 264 321
#     4   9  19  34  55  81 106 134 172 219 268 318
#     4  10  20  35  52  77 110 141 176 219 264 312
#
# _framework density 18.90822
#
# number of rings (size 3 to 8) (size 9 to 14) (size 15 to 20)
#    0.000    2.571    0.000    2.571    2.000    1.714 
#    0.000    4.286    0.000    0.000    0.000    0.000 
#    0.000    0.000    0.000    0.000    0.000    0.000 
#
# Total GULP energy -156199.037687 kJ/mol
# GULP energy per Si atom -5578.537060 kJ/mol
# Density = 1.886518 g / cm^3
# Si number density = 18.908220 Si / 1000 Ang^3
#
#
#
# Elastic Constant Matrix: (Units=GPa)
#
#
# Indices 1 2 3 4 5 6 
#
# 1 91.7797 1.2020 70.8692 0.0000 -3.1439 0.0000
# 2 1.2020 8.5379 6.6130 0.0000 -3.7225 0.0000
# 3 70.8692 6.6130 82.1598 0.0000 8.6364 0.0000
# 4 0.0000 0.0000 0.0000 22.2752 0.0000 -3.0944
# 5 -3.1439 -3.7225 8.6364 0.0000 29.7363 0.0000
# 6 0.0000 0.0000 0.0000 -3.0944 0.0000 17.6314
#
#
#
# Elastic Compliance Matrix: (Units=1/GPa)
#
#
# Indices 1 2 3 4 5 6 
#
# 1 0.046218 0.038630 -0.045383 0.000000 0.022903 0.000000
# 2 0.038630 0.168739 -0.051114 0.000000 0.040053 0.000000
# 3 -0.045383 -0.051114 0.058392 0.000000 -0.028156 0.000000
# 4 0.000000 0.000000 0.000000 0.046015 0.000000 0.008076
# 5 0.022903 0.040053 -0.028156 0.000000 0.049242 0.000000
# 6 0.000000 0.000000 0.000000 0.008076 0.000000 0.058134
#
#
# Mechanical properties :
#
#
# Convention : Reuss Voigt Hill
#
# Bulk Modulus (GPa) = 6.34456 37.76064 22.05260
# Shear Modulus (GPa) = 8.40322 20.84812 14.62567
#
# Velocity S-wave (km/s) = 2.11042 3.32414 2.78422
# Velocity P-wave (km/s) = 3.04979 5.89466 4.69299
#
# Compressibility (1/GPa) = 0.15761534
#
# Stress axis : x y z
#
# Youngs Moduli (GPa) = 21.63678 5.92632 17.12576
#
# Poissons Ratio (x) = -0.22894 0.77722
# Poissons Ratio (y) = -0.83584 0.87536
# Poissons Ratio (z) = 0.98194 0.30292
#
# Static dielectric constant tensor:
#      x y z
#    x 1.665840 0.000000 0.003280 
#    y 0.000000 1.666010 0.000000 
#    z 0.003280 0.000000 1.644910 
# 
# From -- ./inp_files/38416.got.cif
#   From: 2010.05.17/outbox.cif.g08.bks.cpg/sg11_20_cif.got.tgz:38416.got - 2010.06.03 12:22:45.
