data_PCOD9159668
_publ_section_title
;
Structure prediction by ZEFSAII (Michael W. Deem and Ramdas Pophale) SiO2 
 PCOD9159668
Probable space group: P 21/M
;
_chemical_formula_sum "Si O2"
_cell_formula_units_Z 32
_cell_length_a 10.757923
_cell_length_b 9.438344
_cell_length_c 28.622404
_cell_angle_alpha 90.000000
_cell_angle_beta 143.533218
_cell_angle_gamma 90.000000
_cell_volume 1727.338527
_symmetry_space_group_name_H-M "P 21/M"
_symmetry_group_IT_number 11
_symmetry_cell_setting 'monoclinic'
loop_
_space_group_symop_operation_xyz
x,y,z
-x,1/2+y,-z
-x,-y,-z
x,1/2-y,z
loop_
_atom_site_type_symbol
_atom_site_label
_atom_site_fract_x
_atom_site_fract_y
_atom_site_fract_z
Si Si1 0.083357 0.914197 0.452969
Si Si2 0.814337 0.916724 0.081769
Si Si3 0.299615 0.914877 0.242862
Si Si4 0.252488 0.585843 0.775274
Si Si5 0.845395 0.414577 0.636950
Si Si6 0.479344 0.085801 0.591987
Si Si7 0.326331 0.585997 0.686352
Si Si8 0.495492 0.416993 0.924482
O O1 0.058847 0.750000 0.458387
O O2 0.139124 0.922472 0.414334
O O3 0.277999 0.988226 0.536724
O O4 0.867625 0.998509 0.393600
O O5 0.796726 0.750000 0.063910
O O6 0.686206 0.935261 0.091254
O O7 0.057253 0.950960 0.162478
O O8 0.700736 0.012438 0.008934
O O9 0.329544 0.750000 0.237928
O O10 0.368369 0.924881 0.317633
O O11 0.457548 0.014237 0.262820
O O12 0.248651 0.750000 0.788567
O O13 0.302868 0.579342 0.735401
O O14 0.418371 0.498407 0.855452
O O15 0.025969 0.513221 0.712275
O O16 0.884651 0.250000 0.662309
O O17 0.620109 0.452920 0.589688
O O18 0.411788 0.250000 0.566696
O O19 0.316266 0.750000 0.669044
O O20 0.522879 0.250000 0.924455
#
# Coordination Sequence:
#
# PCOD9159668 Si02
#       8
#     4   4   4   4   4   4   4   4
#     4  10  20  34  54  79 105 137 177 217 260 312
#     4   9  19  36  56  81 113 142 169 208 258 308
#     4  10  21  37  56  76 102 139 178 216 261 310
#     4  10  20  34  54  79 106 138 176 217 262 310
#     4   9  18  33  53  78 109 140 171 212 262 316
#     4  10  20  34  53  78 108 139 171 213 266 317
#     4  10  22  39  56  74 101 138 179 224 266 304
#     4  10  19  33  57  86 113 140 170 206 254 312
#
# _framework density 18.52561
#
# number of rings (size 3 to 8) (size 9 to 14) (size 15 to 20)
#    0.000    2.250    0.000    2.625    0.000    6.500 
#    0.000    1.875    0.000    0.000    0.000    0.000 
#    0.000    0.000    0.000    0.000    0.000    0.000 
#
# Total GULP energy -178715.247783 kJ/mol
# GULP energy per Si atom -5584.851493 kJ/mol
# Density = 1.848345 g / cm^3
# Si number density = 18.525610 Si / 1000 Ang^3
#
#
#
# Elastic Constant Matrix: (Units=GPa)
#
#
# Indices 1 2 3 4 5 6 
#
# 1 48.9463 49.1732 32.8082 0.0000 21.5874 0.0000
# 2 49.1732 109.6708 75.7947 0.0000 25.5109 0.0000
# 3 32.8082 75.7947 115.2684 0.0000 32.0452 0.0000
# 4 0.0000 0.0000 0.0000 37.5422 0.0000 4.2762
# 5 21.5874 25.5109 32.0452 0.0000 26.8130 0.0000
# 6 0.0000 0.0000 0.0000 4.2762 0.0000 23.7028
#
#
#
# Elastic Compliance Matrix: (Units=1/GPa)
#
#
# Indices 1 2 3 4 5 6 
#
# 1 0.048309 -0.020160 0.007468 0.000000 -0.028638 0.000000
# 2 -0.020160 0.025439 -0.013138 0.000000 0.007729 0.000000
# 3 0.007468 -0.013138 0.020046 0.000000 -0.017469 0.000000
# 4 0.000000 0.000000 0.000000 0.027196 0.000000 -0.004906
# 5 -0.028638 0.007729 -0.017469 0.000000 0.073876 0.000000
# 6 0.000000 0.000000 0.000000 -0.004906 0.000000 0.043074
#
#
# Mechanical properties :
#
#
# Convention : Reuss Voigt Hill
#
# Bulk Modulus (GPa) = 23.73445 65.49308 44.61376
# Shear Modulus (GPa) = 16.46660 25.35224 20.90942
#
# Velocity S-wave (km/s) = 2.98460 3.70333 3.36322
# Velocity P-wave (km/s) = 4.97158 7.32910 6.26228
#
# Compressibility (1/GPa) = 0.04213285
#
# Stress axis : x y z
#
# Youngs Moduli (GPa) = 20.70019 39.30896 49.88631
#
# Poissons Ratio (x) = 0.79245 -0.37253
# Poissons Ratio (y) = 0.41731 0.65543
# Poissons Ratio (z) = -0.15458 0.51646
#
# Static dielectric constant tensor:
#      x y z
#    x 1.639890 0.000000 -0.018990 
#    y 0.000000 1.627740 0.000000 
#    z -0.018990 0.000000 1.614670 
# 
# From -- ./inp_files/73199.got.cif
#   From: 2010.05.17/outbox.cif.g08.bks.cpg/sg11_37_cif.got.tgz:73199.got - 2010.06.03 12:22:45.
