data_PCOD9159064
_publ_section_title
;
Structure prediction by ZEFSAII (Michael W. Deem and Ramdas Pophale) SiO2 
 PCOD9159064
Probable space group: P 21/M
;
_chemical_formula_sum "Si O2"
_cell_formula_units_Z 28
_cell_length_a 14.772341
_cell_length_b 8.671638
_cell_length_c 20.030075
_cell_angle_alpha 90.000000
_cell_angle_beta 33.060165
_cell_angle_gamma 90.000000
_cell_volume 1399.726684
_symmetry_space_group_name_H-M "P 21/M"
_symmetry_group_IT_number 11
_symmetry_cell_setting 'monoclinic'
loop_
_space_group_symop_operation_xyz
x,y,z
-x,1/2+y,-z
-x,-y,-z
x,1/2-y,z
loop_
_atom_site_type_symbol
_atom_site_label
_atom_site_fract_x
_atom_site_fract_y
_atom_site_fract_z
Si Si1 0.105270 0.064845 0.774778
Si Si2 0.376957 0.567485 0.521248
Si Si3 0.287835 0.937245 0.435385
Si Si4 0.727185 0.066012 0.045716
Si Si5 0.606560 0.065443 0.778924
Si Si6 0.816565 0.934439 0.126749
Si Si7 0.937858 0.934611 0.609605
O O1 0.114661 0.250000 0.758716
O O2 0.206892 0.030321 0.780677
O O3 0.194096 0.974420 0.661179
O O4 0.912197 0.023805 0.905881
O O5 0.500000 0.500000 0.500000
O O6 0.402387 0.750000 0.503745
O O7 0.387066 0.507686 0.438893
O O8 0.299799 0.750000 0.427252
O O9 0.348502 0.988010 0.324888
O O10 0.091720 0.975603 0.562524
O O11 0.717970 0.250000 0.052476
O O12 0.577543 0.997035 0.095208
O O13 0.711261 0.004155 0.131660
O O14 0.607864 0.250000 0.779509
O O15 0.755376 0.003205 0.733008
O O16 0.813108 0.750000 0.122425
O O17 0.000000 0.000000 0.000000
O O18 0.927012 0.750000 0.612739
O O19 0.000000 0.000000 0.500000
#
# Coordination Sequence:
#
# PCOD9159064 Si02
#       7
#     4   4   4   4   4   4   4
#     4   9  20  37  52  70 102 139 174 218 265 306
#     4  11  23  38  55  76 103 140 183 220 255 306
#     4   8  18  35  53  74 105 141 171 210 267 310
#     4  10  20  33  51  77 106 136 173 216 266 317
#     4  10  19  32  53  82 111 138 168 212 269 322
#     4   9  17  30  48  69  97 132 169 212 260 308
#     4   9  16  31  53  77 105 137 171 213 266 319
#
# _framework density 20.003906000000001
#
# number of rings (size 3 to 8) (size 9 to 14) (size 15 to 20)
#    0.000    2.571    0.000    3.857    2.000    3.429 
#    0.000    7.857    0.000    0.857    0.000    0.000 
#    0.000    0.000    0.000    0.000    0.000    0.000 
#
# Total GULP energy -156099.759806 kJ/mol
# GULP energy per Si atom -5574.991422 kJ/mol
# Density = 1.995838 g / cm^3
# Si number density = 20.003906 Si / 1000 Ang^3
#
#
#
# Elastic Constant Matrix: (Units=GPa)
#
#
# Indices 1 2 3 4 5 6 
#
# 1 65.9765 11.6588 18.3016 0.0000 -22.1507 0.0000
# 2 11.6588 35.9770 13.0780 0.0000 -7.2029 0.0000
# 3 18.3016 13.0780 55.8286 0.0000 -20.3332 0.0000
# 4 0.0000 0.0000 0.0000 24.6355 0.0000 -9.3288
# 5 -22.1507 -7.2029 -20.3332 0.0000 38.0000 0.0000
# 6 0.0000 0.0000 0.0000 -9.3288 0.0000 23.6321
#
#
#
# Elastic Compliance Matrix: (Units=1/GPa)
#
#
# Indices 1 2 3 4 5 6 
#
# 1 0.019612 -0.003678 -0.002059 0.000000 0.009633 0.000000
# 2 -0.003678 0.031253 -0.005886 0.000000 0.000631 0.000000
# 3 -0.002059 -0.005886 0.023751 0.000000 0.010393 0.000000
# 4 0.000000 0.000000 0.000000 0.047726 0.000000 0.018840
# 5 0.009633 0.000631 0.010393 0.000000 0.037612 0.000000
# 6 0.000000 0.000000 0.000000 0.018840 0.000000 0.049752
#
#
# Mechanical properties :
#
#
# Convention : Reuss Voigt Hill
#
# Bulk Modulus (GPa) = 19.46659 27.09545 23.28102
# Shear Modulus (GPa) = 19.99389 24.90309 22.44849
#
# Velocity S-wave (km/s) = 3.16492 3.53216 3.35357
# Velocity P-wave (km/s) = 4.80709 5.49630 5.16321
#
# Compressibility (1/GPa) = 0.05137006
#
# Stress axis : x y z
#
# Youngs Moduli (GPa) = 50.98827 31.99657 42.10377
#
# Poissons Ratio (x) = 0.11770 0.08670
# Poissons Ratio (y) = 0.18756 0.24781
# Poissons Ratio (z) = 0.10499 0.18832
#
# Static dielectric constant tensor:
#      x y z
#    x 1.743640 0.000000 -0.022680 
#    y 0.000000 1.670930 0.000000 
#    z -0.022680 0.000000 1.758110 
# 
# From -- ./inp_files/65358.got.cif
#   From: 2010.05.17/outbox.cif.g08.bks.cpg/sg11_33_cif.got.tgz:65358.got - 2010.06.03 12:22:45.
