data_PCOD9159423
_publ_section_title
;
Structure prediction by ZEFSAII (Michael W. Deem and Ramdas Pophale) SiO2 
 PCOD9159423
Probable space group: P 21/M
;
_chemical_formula_sum "Si O2"
_cell_formula_units_Z 28
_cell_length_a 10.077966
_cell_length_b 8.765074
_cell_length_c 31.175413
_cell_angle_alpha 90.000000
_cell_angle_beta 143.917147
_cell_angle_gamma 90.000000
_cell_volume 1621.893945
_symmetry_space_group_name_H-M "P 21/M"
_symmetry_group_IT_number 11
_symmetry_cell_setting 'monoclinic'
loop_
_space_group_symop_operation_xyz
x,y,z
-x,1/2+y,-z
-x,-y,-z
x,1/2-y,z
loop_
_atom_site_type_symbol
_atom_site_label
_atom_site_fract_x
_atom_site_fract_y
_atom_site_fract_z
Si Si1 0.744692 0.432383 0.555860
Si Si2 0.950322 0.066268 0.839829
Si Si3 0.034610 0.567617 0.555860
Si Si4 0.751176 0.066268 0.160171
Si Si5 0.457268 0.932817 0.724556
Si Si6 0.352193 0.433120 0.000000
Si Si7 0.834489 0.567183 0.275444
O O1 0.500000 0.500000 0.500000
O O2 0.732965 0.250000 0.549627
O O3 0.851192 0.500000 0.540477
O O4 0.922756 0.470919 0.640110
O O5 0.944756 0.250000 0.835106
O O6 0.098323 0.022788 0.920899
O O7 0.700774 0.001109 0.778342
O O8 0.082499 1.000000 0.832999
O O9 0.015169 0.750000 0.549627
O O10 0.000000 0.500000 0.500000
O O11 0.277796 0.529081 0.640110
O O12 0.769223 0.250000 0.164894
O O13 0.809063 0.001108 0.221658
O O14 0.493829 0.022788 0.079101
O O15 0.470499 0.750000 0.731387
O O16 0.350933 1.000000 0.740373
O O17 0.359392 0.250000 0.000000
O O18 0.500000 0.500000 0.000000
O O19 0.813566 0.750000 0.268614
#
# Coordination Sequence:
#
# PCOD9159423 Si02
#       7
#     4   4   4   4   4   4   4
#     4  10  21  37  57  79 105 136 172 213 258 307
#     4  10  19  33  54  79 106 137 174 216 258 305
#     4  10  21  37  57  79 105 136 172 213 258 307
#     4  10  19  33  54  79 106 137 174 216 258 305
#     4  10  21  37  55  77 105 138 173 212 259 309
#     4   8  16  30  49  74 103 134 170 212 258 302
#     4  10  21  37  55  77 105 138 173 212 259 309
#
# _framework density 17.263767999999999
#
# number of rings (size 3 to 8) (size 9 to 14) (size 15 to 20)
#    0.000    2.286    0.000    2.571    0.000    5.714 
#    0.000    0.714    0.000    0.000    0.000    0.000 
#    0.000    0.000    0.000    0.000    0.000    0.000 
#
# Total GULP energy -156141.609231 kJ/mol
# GULP energy per Si atom -5576.486044 kJ/mol
# Density = 1.722447 g / cm^3
# Si number density = 17.263768 Si / 1000 Ang^3
#
#
#
# Elastic Constant Matrix: (Units=GPa)
#
#
# Indices 1 2 3 4 5 6 
#
# 1 112.4900 53.8207 120.2397 0.0000 4.0859 0.0000
# 2 53.8207 61.5527 68.2015 0.0000 0.7762 0.0000
# 3 120.2397 68.2015 166.8968 0.0000 -1.1492 0.0000
# 4 0.0000 0.0000 0.0000 25.6776 0.0000 -0.5036
# 5 4.0859 0.7762 -1.1492 0.0000 33.6880 0.0000
# 6 0.0000 0.0000 0.0000 -0.5036 0.0000 35.0061
#
#
#
# Elastic Compliance Matrix: (Units=1/GPa)
#
#
# Indices 1 2 3 4 5 6 
#
# 1 0.040743 -0.005455 -0.027163 0.000000 -0.005743 0.000000
# 2 -0.005455 0.030460 -0.008519 0.000000 -0.000331 0.000000
# 3 -0.027163 -0.008519 0.029074 0.000000 0.004483 0.000000
# 4 0.000000 0.000000 0.000000 0.038955 0.000000 0.000560
# 5 -0.005743 -0.000331 0.004483 0.000000 0.030541 0.000000
# 6 0.000000 0.000000 0.000000 0.000560 0.000000 0.028575
#
#
# Mechanical properties :
#
#
# Convention : Reuss Voigt Hill
#
# Bulk Modulus (GPa) = 55.55319 91.71814 73.63566
# Shear Modulus (GPa) = 17.44447 25.45284 21.44866
#
# Velocity S-wave (km/s) = 3.18223 3.84389 3.52861
# Velocity P-wave (km/s) = 6.76395 8.54070 7.70372
#
# Compressibility (1/GPa) = 0.01800077
#
# Stress axis : x y z
#
# Youngs Moduli (GPa) = 24.54417 32.82984 34.39545
#
# Poissons Ratio (x) = 0.17909 0.93429
# Poissons Ratio (y) = 0.13389 0.29303
# Poissons Ratio (z) = 0.66670 0.27969
#
# Static dielectric constant tensor:
#      x y z
#    x 1.532650 0.000000 0.004270 
#    y 0.000000 1.575190 0.000000 
#    z 0.004270 0.000000 1.611790 
# 
# From -- ./inp_files/28313.got.cif
#   From: 2010.05.17/outbox.cif.g08.bks.cpg/sg11_15_cif.got.tgz:28313.got - 2010.06.03 12:22:45.
