data_PCOD9159017
_publ_section_title
;
Structure prediction by ZEFSAII (Michael W. Deem and Ramdas Pophale) SiO2 
 PCOD9159017
Probable space group: P 21/M
;
_chemical_formula_sum "Si O2"
_cell_formula_units_Z 28
_cell_length_a 22.984607
_cell_length_b 7.557273
_cell_length_c 25.461495
_cell_angle_alpha 90.000000
_cell_angle_beta 162.826464
_cell_angle_gamma 90.000000
_cell_volume 1305.872263
_symmetry_space_group_name_H-M "P 21/M"
_symmetry_group_IT_number 11
_symmetry_cell_setting 'monoclinic'
loop_
_space_group_symop_operation_xyz
x,y,z
-x,1/2+y,-z
-x,-y,-z
x,1/2-y,z
loop_
_atom_site_type_symbol
_atom_site_label
_atom_site_fract_x
_atom_site_fract_y
_atom_site_fract_z
Si Si1 0.342587 0.961476 0.706640
Si Si2 0.780168 0.039784 0.066504
Si Si3 0.983236 0.967485 0.830506
Si Si4 0.546603 0.537586 0.479468
Si Si5 0.904822 0.460411 0.287884
Si Si6 0.841668 0.037633 0.908758
Si Si7 0.221087 0.538417 0.711345
O O1 0.334264 0.750000 0.701671
O O2 0.349518 0.030106 0.773327
O O3 0.137647 0.017321 0.502375
O O4 0.547275 0.013606 0.856736
O O5 0.816159 0.250000 0.099511
O O6 0.908904 0.971148 0.129097
O O7 0.844062 0.966832 0.178725
O O8 0.984672 0.750000 0.831453
O O9 0.758206 0.026457 0.642939
O O10 0.092131 0.026688 0.977378
O O11 0.500000 0.500000 0.500000
O O12 0.550401 0.750000 0.477836
O O13 0.367594 0.467135 0.290573
O O14 0.869632 0.250000 0.256541
O O15 0.779106 0.532469 0.229327
O O16 0.828219 0.250000 0.900894
O O17 0.000000 0.000000 0.000000
O O18 0.249189 0.750000 0.738599
O O19 0.000000 0.500000 0.500000
#
# Coordination Sequence:
#
# PCOD9159017 Si02
#       7
#     4   4   4   4   4   4   4
#     4  10  20  34  53  77 109 144 176 219 276 325
#     4  10  21  36  55  78 104 141 185 224 260 310
#     4   9  19  35  52  75 106 135 171 214 255 304
#     4  10  19  32  53  78 101 129 163 203 252 301
#     4   9  18  34  56  79 104 138 184 228 263 311
#     4  10  19  32  54  80 104 131 163 203 254 306
#     4   8  15  29  49  75 104 135 174 221 269 314
#
# _framework density 21.441607000000001
#
# number of rings (size 3 to 8) (size 9 to 14) (size 15 to 20)
#    0.000    2.571    1.429    0.429    0.000    2.857 
#    0.000    5.714    0.000    1.714    0.000    0.000 
#    0.000    0.000    0.000    0.000    0.000    0.000 
#
# Total GULP energy -156258.349877 kJ/mol
# GULP energy per Si atom -5580.655353 kJ/mol
# Density = 2.139281 g / cm^3
# Si number density = 21.441607 Si / 1000 Ang^3
#
#
#
# Elastic Constant Matrix: (Units=GPa)
#
#
# Indices 1 2 3 4 5 6 
#
# 1 105.9994 3.1252 39.1449 0.0000 10.8167 0.0000
# 2 3.1252 55.5918 -5.3281 0.0000 -4.2015 0.0000
# 3 39.1449 -5.3281 102.4209 0.0000 5.1843 0.0000
# 4 0.0000 0.0000 0.0000 4.1435 0.0000 -6.6938
# 5 10.8167 -4.2015 5.1843 0.0000 39.8188 0.0000
# 6 0.0000 0.0000 0.0000 -6.6938 0.0000 4.2807
#
#
#
# Elastic Compliance Matrix: (Units=1/GPa)
#
#
# Indices 1 2 3 4 5 6 
#
# 1 0.011312 -0.001244 -0.004254 0.000000 -0.002650 0.000000
# 2 -0.001244 0.018344 0.001323 0.000000 0.002101 0.000000
# 3 -0.004254 0.001323 0.011468 0.000000 -0.000198 0.000000
# 4 0.000000 0.000000 0.000000 -0.158132 0.000000 -0.247276
# 5 -0.002650 0.002101 -0.000198 0.000000 0.026081 0.000000
# 6 0.000000 0.000000 0.000000 -0.247276 0.000000 -0.153064
#
#
# Mechanical properties :
#
#
# Convention : Reuss Voigt Hill
#
# Bulk Modulus (GPa) = 30.51096 37.54400 34.02748
# Shear Modulus (GPa) = -22.25029 24.78659 1.26815
#
# Velocity S-wave (km/s) = -3.22485 3.40369 0.76989
# Velocity P-wave (km/s) = 0.62804 5.74411 4.08590
#
# Compressibility (1/GPa) = 0.03277510
#
# Stress axis : x y z
#
# Youngs Moduli (GPa) = 88.40069 54.51419 87.19637
#
# Poissons Ratio (x) = 0.06781 0.37093
# Poissons Ratio (y) = 0.10997 -0.11539
# Poissons Ratio (z) = 0.37606 -0.07214
#
# Static dielectric constant tensor:
#      x y z
#    x 1.779240 0.000000 -0.005780 
#    y 0.000000 1.733940 0.000000 
#    z -0.005780 0.000000 1.754240 
# 
# From -- ./inp_files/29087.got.cif
#   From: 2010.05.17/outbox.cif.g08.bks.cpg/sg11_15_cif.got.tgz:29087.got - 2010.06.03 12:22:45.
