data_PCOD9159031
_publ_section_title
;
Structure prediction by ZEFSAII (Michael W. Deem and Ramdas Pophale) SiO2 
 PCOD9159031
Probable space group: P 21/M
;
_chemical_formula_sum "Si O2"
_cell_formula_units_Z 32
_cell_length_a 11.832283
_cell_length_b 8.702135
_cell_length_c 23.394295
_cell_angle_alpha 90.000000
_cell_angle_beta 47.154294
_cell_angle_gamma 90.000000
_cell_volume 1766.116932
_symmetry_space_group_name_H-M "P 21/M"
_symmetry_group_IT_number 11
_symmetry_cell_setting 'monoclinic'
loop_
_space_group_symop_operation_xyz
x,y,z
-x,1/2+y,-z
-x,-y,-z
x,1/2-y,z
loop_
_atom_site_type_symbol
_atom_site_label
_atom_site_fract_x
_atom_site_fract_y
_atom_site_fract_z
Si Si1 0.147878 0.932831 0.278187
Si Si2 0.772173 0.065066 0.106269
Si Si3 0.392634 0.064127 0.399703
Si Si4 0.291421 0.563793 0.649814
Si Si5 0.423272 0.435582 0.257082
Si Si6 0.933146 0.432905 0.933499
Si Si7 0.171941 0.565556 0.568594
Si Si8 0.952828 0.933951 0.805430
O O1 0.053198 0.250000 0.196877
O O2 0.300723 0.989539 0.257100
O O3 0.998650 0.001560 0.361969
O O4 0.136667 0.994519 0.217266
O O5 0.786930 0.250000 0.108009
O O6 0.598532 0.021673 0.181289
O O7 0.818924 0.026486 0.025053
O O8 0.898437 0.987402 0.103429
O O9 0.388811 0.250000 0.404141
O O10 0.553406 0.009867 0.373145
O O11 0.389503 0.021063 0.334332
O O12 0.253088 0.997464 0.484425
O O13 0.295361 0.750000 0.649767
O O14 0.271837 0.517779 0.590310
O O15 0.132932 0.518017 0.735755
O O16 0.411691 0.250000 0.256691
O O17 0.931593 0.250000 0.927068
O O18 0.895657 0.511596 0.886506
O O19 0.165369 0.750000 0.569760
O O20 0.861565 0.250000 0.718459
#
# Coordination Sequence:
#
# PCOD9159031 Si02
#       8
#     4   4   4   4   4   4   4   4
#     4  11  23  39  57  77 103 136 179 230 275 315
#     4   9  19  36  57  81 113 150 181 215 263 317
#     4  10  19  32  53  79 105 135 175 221 266 314
#     4   8  16  31  52  78 106 137 172 212 260 317
#     4  10  21  38  57  76 103 143 186 224 268 320
#     4  10  19  32  55  88 118 142 176 219 263 314
#     4  10  20  35  54  77 107 141 176 214 264 324
#     4  10  19  35  58  81 108 144 182 217 265 325
#
# _framework density 18.118846000000001
#
# number of rings (size 3 to 8) (size 9 to 14) (size 15 to 20)
#    0.000    2.250    0.000    4.125    0.000    4.000 
#    0.000    5.000    0.000    0.000    0.000    0.000 
#    0.000    0.000    0.000    0.000    0.000    0.000 
#
# Total GULP energy -178666.079284 kJ/mol
# GULP energy per Si atom -5583.314978 kJ/mol
# Density = 1.807761 g / cm^3
# Si number density = 18.118846 Si / 1000 Ang^3
#
#
#
# Elastic Constant Matrix: (Units=GPa)
#
#
# Indices 1 2 3 4 5 6 
#
# 1 84.4185 38.8295 59.5397 0.0000 14.0504 0.0000
# 2 38.8295 46.6925 41.1480 0.0000 10.2367 0.0000
# 3 59.5397 41.1480 107.0880 0.0000 29.2404 0.0000
# 4 0.0000 0.0000 0.0000 26.1425 0.0000 4.6950
# 5 14.0504 10.2367 29.2404 0.0000 13.4718 0.0000
# 6 0.0000 0.0000 0.0000 4.6950 0.0000 24.3109
#
#
#
# Elastic Compliance Matrix: (Units=1/GPa)
#
#
# Indices 1 2 3 4 5 6 
#
# 1 0.023501 -0.011904 -0.010481 0.000000 0.007285 0.000000
# 2 -0.011904 0.038603 -0.008826 0.000000 0.002239 0.000000
# 3 -0.010481 -0.008826 0.033733 0.000000 -0.055579 0.000000
# 4 0.000000 0.000000 0.000000 0.039626 0.000000 -0.007653
# 5 0.007285 0.002239 -0.055579 0.000000 0.185564 0.000000
# 6 0.000000 0.000000 0.000000 -0.007653 0.000000 0.042612
#
#
# Mechanical properties :
#
#
# Convention : Reuss Voigt Hill
#
# Bulk Modulus (GPa) = 29.92704 57.47038 43.69871
# Shear Modulus (GPa) = 11.43643 19.36380 15.40011
#
# Velocity S-wave (km/s) = 2.51507 3.27266 2.91855
# Velocity P-wave (km/s) = 4.99871 6.78733 5.96049
#
# Compressibility (1/GPa) = 0.03341460
#
# Stress axis : x y z
#
# Youngs Moduli (GPa) = 42.55121 25.90475 29.64475
#
# Poissons Ratio (x) = 0.30836 0.31072
# Poissons Ratio (y) = 0.50652 0.26164
# Poissons Ratio (z) = 0.44600 0.22863
#
# Static dielectric constant tensor:
#      x y z
#    x 1.598460 0.000000 0.005210 
#    y 0.000000 1.609700 0.000000 
#    z 0.005210 0.000000 1.614810 
# 
# From -- ./inp_files/64348.got.cif
#   From: 2010.05.17/outbox.cif.g08.bks.cpg/sg11_33_cif.got.tgz:64348.got - 2010.06.03 12:22:45.
