data_PCOD9159695
_publ_section_title
;
Structure prediction by ZEFSAII (Michael W. Deem and Ramdas Pophale) SiO2 
 PCOD9159695
Probable space group: P 21/M
;
_chemical_formula_sum "Si O2"
_cell_formula_units_Z 24
_cell_length_a 17.193328
_cell_length_b 9.239954
_cell_length_c 14.032049
_cell_angle_alpha 90.000000
_cell_angle_beta 145.199457
_cell_angle_gamma 90.000000
_cell_volume 1272.257352
_symmetry_space_group_name_H-M "P 21/M"
_symmetry_group_IT_number 11
_symmetry_cell_setting 'monoclinic'
loop_
_space_group_symop_operation_xyz
x,y,z
-x,1/2+y,-z
-x,-y,-z
x,1/2-y,z
loop_
_atom_site_type_symbol
_atom_site_label
_atom_site_fract_x
_atom_site_fract_y
_atom_site_fract_z
Si Si1 0.159551 0.920153 0.056588
Si Si2 0.058347 0.917246 0.467707
Si Si3 0.783660 0.581731 0.076519
Si Si4 0.284390 0.420132 0.579296
Si Si5 0.832533 0.579316 0.741034
Si Si6 0.557576 0.420588 0.964688
O O1 0.190088 0.750000 0.081621
O O2 0.224209 0.005062 0.033470
O O3 0.201873 0.986876 0.200476
O O4 0.994704 0.937356 0.885133
O O5 0.084023 0.750000 0.517253
O O6 0.939648 0.923997 0.268952
O O7 0.000000 0.000000 0.500000
O O8 0.191838 0.991392 0.559508
O O9 0.742981 0.750000 0.031049
O O10 0.691925 0.497568 0.060636
O O11 0.247175 0.250000 0.550298
O O12 0.248720 0.464142 0.435611
O O13 0.440855 0.434722 0.766441
O O14 0.808517 0.750000 0.735452
O O15 0.579282 0.250000 0.004893
O O16 0.500000 0.500000 0.000000
#
# Coordination Sequence:
#
# PCOD9159695 Si02
#       6
#     4   4   4   4   4   4
#     4  10  19  33  58  88 117 150 188 233 288 343
#     4  11  23  36  56  84 113 146 189 240 288 339
#     4  11  23  39  58  84 117 153 194 237 285 340
#     4  10  21  39  60  84 114 150 191 236 287 342
#     4   9  18  34  57  85 118 150 183 233 291 342
#     4  11  24  41  61  84 115 155 197 237 287 346
#
# _framework density 18.864107000000001
#
# number of rings (size 3 to 8) (size 9 to 14) (size 15 to 20)
#    0.000    1.667    1.667    3.000    0.000    8.667 
#    0.000    0.833    0.000    0.000    0.000    0.000 
#    0.000    0.000    0.000    0.000    0.000    0.000 
#
# Total GULP energy -134118.226564 kJ/mol
# GULP energy per Si atom -5588.259440 kJ/mol
# Density = 1.882117 g / cm^3
# Si number density = 18.864107 Si / 1000 Ang^3
#
#
#
# Elastic Constant Matrix: (Units=GPa)
#
#
# Indices 1 2 3 4 5 6 
#
# 1 62.6596 36.4466 -8.4853 0.0000 -10.2746 0.0000
# 2 36.4466 94.2105 12.2465 0.0000 -4.3868 0.0000
# 3 -8.4853 12.2465 38.7216 0.0000 -10.6198 0.0000
# 4 0.0000 0.0000 0.0000 24.8298 0.0000 -2.7354
# 5 -10.2746 -4.3868 -10.6198 0.0000 35.1187 0.0000
# 6 0.0000 0.0000 0.0000 -2.7354 0.0000 37.7757
#
#
#
# Elastic Compliance Matrix: (Units=1/GPa)
#
#
# Indices 1 2 3 4 5 6 
#
# 1 0.025471 -0.010924 0.011674 0.000000 0.009618 0.000000
# 2 -0.010924 0.015758 -0.008412 0.000000 -0.003771 0.000000
# 3 0.011674 -0.008412 0.034559 0.000000 0.012815 0.000000
# 4 0.000000 0.000000 0.000000 0.040598 0.000000 0.002940
# 5 0.009618 -0.003771 0.012815 0.000000 0.034693 0.000000
# 6 0.000000 0.000000 0.000000 0.002940 0.000000 0.026685
#
#
# Mechanical properties :
#
#
# Convention : Reuss Voigt Hill
#
# Bulk Modulus (GPa) = 16.53829 30.66747 23.60288
# Shear Modulus (GPa) = 23.44756 29.90377 26.67566
#
# Velocity S-wave (km/s) = 3.52941 3.98580 3.76453
# Velocity P-wave (km/s) = 5.03935 6.12164 5.60667
#
# Compressibility (1/GPa) = 0.06046573
#
# Stress axis : x y z
#
# Youngs Moduli (GPa) = 39.26028 63.45859 28.93615
#
# Poissons Ratio (x) = 0.69319 -0.33781
# Poissons Ratio (y) = 0.42886 0.24341
# Poissons Ratio (z) = -0.45833 0.53381
#
# Static dielectric constant tensor:
#      x y z
#    x 1.611250 0.000000 -0.014110 
#    y 0.000000 1.628830 0.000000 
#    z -0.014110 0.000000 1.664010 
# 
# From -- ./inp_files/46533.got.cif
#   From: 2010.05.17/outbox.cif.g08.bks.cpg/sg11_24_cif.got.tgz:46533.got - 2010.06.03 12:22:45.
