data_PCOD9159524
_publ_section_title
;
Structure prediction by ZEFSAII (Michael W. Deem and Ramdas Pophale) SiO2 
 PCOD9159524
Probable space group: P 21/M
;
_chemical_formula_sum "Si O2"
_cell_formula_units_Z 32
_cell_length_a 21.736610
_cell_length_b 9.295241
_cell_length_c 11.967965
_cell_angle_alpha 90.000000
_cell_angle_beta 129.170858
_cell_angle_gamma 90.000000
_cell_volume 1874.663976
_symmetry_space_group_name_H-M "P 21/M"
_symmetry_group_IT_number 11
_symmetry_cell_setting 'monoclinic'
loop_
_space_group_symop_operation_xyz
x,y,z
-x,1/2+y,-z
-x,-y,-z
x,1/2-y,z
loop_
_atom_site_type_symbol
_atom_site_label
_atom_site_fract_x
_atom_site_fract_y
_atom_site_fract_z
Si Si1 0.423136 0.421979 0.960225
Si Si2 0.039415 0.922936 0.151771
Si Si3 0.794403 0.920600 0.663854
Si Si4 0.171046 0.585463 0.718587
Si Si5 0.909928 0.919724 0.183537
Si Si6 0.252349 0.419734 0.141360
Si Si7 0.663878 0.084266 0.950279
Si Si8 0.261824 0.081336 0.642459
O O1 0.433934 0.250000 0.980326
O O2 0.347876 0.451007 0.792749
O O3 0.500000 0.500000 0.000000
O O4 0.397645 0.490094 0.049406
O O5 0.037520 0.750000 0.135788
O O6 0.987851 0.958644 0.202787
O O7 0.127539 0.984074 0.260541
O O8 0.000000 0.000000 0.000000
O O9 0.816151 0.750000 0.693966
O O10 0.753229 0.954544 0.734383
O O11 0.741683 0.942918 0.493614
O O12 0.148605 0.750000 0.673050
O O13 0.107287 0.506295 0.723388
O O14 0.194874 0.507185 0.631665
O O15 0.253171 0.581973 0.884731
O O16 0.911965 0.750000 0.211436
O O17 0.834754 0.942909 0.013876
O O18 0.270165 0.250000 0.148301
O O19 0.314137 0.513645 0.142470
O O20 0.638711 0.250000 0.912290
O O21 0.246559 0.250000 0.646534
#
# Coordination Sequence:
#
# PCOD9159524 Si02
#       8
#     4   4   4   4   4   4   4   4
#     4  10  19  33  55  82 106 133 163 201 250 298
#     4  11  21  33  49  72 101 134 173 218 261 304
#     4  10  20  35  52  73 101 136 173 210 254 306
#     4   9  17  29  48  72  97 126 165 212 255 296
#     4   9  17  30  47  68  95 128 167 211 257 300
#     4   9  16  29  48  70  98 131 166 206 250 295
#     4   9  17  29  47  75 104 129 162 206 247 291
#     4   9  19  35  54  74 102 136 168 201 249 310
#
# _framework density 17.069724999999998
#
# number of rings (size 3 to 8) (size 9 to 14) (size 15 to 20)
#    0.000    2.500    1.250    1.500    0.000    5.500 
#    0.000    0.625    0.000    0.750    0.000    0.000 
#    0.000    0.000    0.000    0.000    0.000    0.000 
#
# Total GULP energy -178454.376711 kJ/mol
# GULP energy per Si atom -5576.699272 kJ/mol
# Density = 1.703087 g / cm^3
# Si number density = 17.069725 Si / 1000 Ang^3
#
#
#
# Elastic Constant Matrix: (Units=GPa)
#
#
# Indices 1 2 3 4 5 6 
#
# 1 143.6991 78.6519 38.6319 0.0000 -16.5539 0.0000
# 2 78.6519 79.7000 36.4108 0.0000 -8.0678 0.0000
# 3 38.6319 36.4108 44.8538 0.0000 -16.5802 0.0000
# 4 0.0000 0.0000 0.0000 14.9681 0.0000 -1.5364
# 5 -16.5539 -8.0678 -16.5802 0.0000 20.2202 0.0000
# 6 0.0000 0.0000 0.0000 -1.5364 0.0000 36.0819
#
#
#
# Elastic Compliance Matrix: (Units=1/GPa)
#
#
# Indices 1 2 3 4 5 6 
#
# 1 0.016177 -0.016205 0.002478 0.000000 0.008810 0.000000
# 2 -0.016205 0.037031 -0.022307 0.000000 -0.016783 0.000000
# 3 0.002478 -0.022307 0.051268 0.000000 0.035167 0.000000
# 4 0.000000 0.000000 0.000000 0.067102 0.000000 0.002857
# 5 0.008810 -0.016783 0.035167 0.000000 0.078809 0.000000
# 6 0.000000 0.000000 0.000000 0.002857 0.000000 0.027836
#
#
# Mechanical properties :
#
#
# Convention : Reuss Voigt Hill
#
# Bulk Modulus (GPa) = 30.85628 63.96021 47.40825
# Shear Modulus (GPa) = 13.84683 21.89126 17.86905
#
# Velocity S-wave (km/s) = 2.85123 3.58503 3.23898
# Velocity P-wave (km/s) = 5.38101 7.39513 6.46696
#
# Compressibility (1/GPa) = 0.03240831
#
# Stress axis : x y z
#
# Youngs Moduli (GPa) = 61.81587 27.00472 19.50519
#
# Poissons Ratio (x) = 0.43760 -0.04833
# Poissons Ratio (y) = 1.00170 0.43511
# Poissons Ratio (z) = -0.15317 0.60240
#
# Static dielectric constant tensor:
#      x y z
#    x 1.556730 0.000000 -0.007210 
#    y 0.000000 1.572770 0.000000 
#    z -0.007210 0.000000 1.580010 
# 
# From -- ./inp_files/42451.got.cif
#   From: 2010.05.17/outbox.cif.g08.bks.cpg/sg11_22_cif.got.tgz:42451.got - 2010.06.03 12:22:45.
