data_PCOD9159692
_publ_section_title
;
Structure prediction by ZEFSAII (Michael W. Deem and Ramdas Pophale) SiO2 
 PCOD9159692
Probable space group: P 21/M
;
_chemical_formula_sum "Si O2"
_cell_formula_units_Z 32
_cell_length_a 12.975411
_cell_length_b 8.791016
_cell_length_c 32.162172
_cell_angle_alpha 90.000000
_cell_angle_beta 27.172057
_cell_angle_gamma 90.000000
_cell_volume 1675.338009
_symmetry_space_group_name_H-M "P 21/M"
_symmetry_group_IT_number 11
_symmetry_cell_setting 'monoclinic'
loop_
_space_group_symop_operation_xyz
x,y,z
-x,1/2+y,-z
-x,-y,-z
x,1/2-y,z
loop_
_atom_site_type_symbol
_atom_site_label
_atom_site_fract_x
_atom_site_fract_y
_atom_site_fract_z
Si Si1 0.074508 0.933893 0.126363
Si Si2 0.176611 0.425963 0.405437
Si Si3 0.663872 0.933337 0.213581
Si Si4 0.745306 0.931654 0.403680
Si Si5 0.564801 0.067530 0.071099
Si Si6 0.066289 0.432577 0.221314
Si Si7 0.107998 0.072311 0.334158
Si Si8 0.599864 0.931467 0.144442
O O1 0.072894 0.750000 0.132184
O O2 0.859024 0.977482 0.175519
O O3 0.071866 0.011992 0.171929
O O4 0.293048 0.975887 0.020590
O O5 0.210985 0.250000 0.404065
O O6 0.420909 0.505260 0.315198
O O7 0.000000 0.500000 0.500000
O O8 0.075782 0.433052 0.395130
O O9 0.653783 0.750000 0.216530
O O10 0.708040 0.982311 0.149676
O O11 0.736744 0.750000 0.406199
O O12 0.500000 0.000000 0.500000
O O13 0.908828 0.992568 0.381148
O O14 0.860398 0.992822 0.320162
O O15 0.572096 0.250000 0.071874
O O16 0.303814 0.022235 0.157995
O O17 0.673094 0.001472 0.074280
O O18 0.049277 0.250000 0.229225
O O19 0.128529 0.250000 0.314072
O O20 0.340950 0.986199 0.241569
O O21 0.614418 0.750000 0.136716
#
# Coordination Sequence:
#
# PCOD9159692 Si02
#       8
#     4   4   4   4   4   4   4   4
#     4  10  22  40  60  85 121 165 204 246 301 357
#     4  10  21  36  59  86 114 151 194 239 293 353
#     4   9  20  38  57  82 119 155 196 247 297 350
#     4  12  25  41  63  90 118 154 196 243 299 357
#     4  10  21  37  60  87 119 159 202 249 302 356
#     4  11  23  40  61  87 121 158 201 253 300 354
#     4  10  20  37  58  83 115 150 190 240 293 348
#     4  10  19  33  58  87 114 152 197 243 293 350
#
# _framework density 19.100622999999999
#
# number of rings (size 3 to 8) (size 9 to 14) (size 15 to 20)
#    0.000    1.750    1.250    3.000    0.000    5.000 
#    0.000    1.250    0.000    0.000    0.000    0.000 
#    0.000    0.000    0.000    0.000    0.000    0.000 
#
# Total GULP energy -178747.681641 kJ/mol
# GULP energy per Si atom -5585.865051 kJ/mol
# Density = 1.905715 g / cm^3
# Si number density = 19.100623 Si / 1000 Ang^3
#
#
#
# Elastic Constant Matrix: (Units=GPa)
#
#
# Indices 1 2 3 4 5 6 
#
# 1 87.8455 18.5641 28.4372 0.0000 12.4647 0.0000
# 2 18.5641 24.5572 12.2221 0.0000 6.5467 0.0000
# 3 28.4372 12.2221 90.6429 0.0000 19.2937 0.0000
# 4 0.0000 0.0000 0.0000 26.1393 0.0000 9.9248
# 5 12.4647 6.5467 19.2937 0.0000 26.7742 0.0000
# 6 0.0000 0.0000 0.0000 9.9248 0.0000 30.6582
#
#
#
# Elastic Compliance Matrix: (Units=1/GPa)
#
#
# Indices 1 2 3 4 5 6 
#
# 1 0.014541 -0.008908 -0.002815 0.000000 -0.002563 0.000000
# 2 -0.008908 0.050456 -0.002676 0.000000 -0.006262 0.000000
# 3 -0.002815 -0.002676 0.014006 0.000000 -0.008128 0.000000
# 4 0.000000 0.000000 0.000000 0.043618 0.000000 -0.014120
# 5 -0.002563 -0.006262 -0.008128 0.000000 0.045931 0.000000
# 6 0.000000 0.000000 0.000000 -0.014120 0.000000 0.037189
#
#
# Mechanical properties :
#
#
# Convention : Reuss Voigt Hill
#
# Bulk Modulus (GPa) = 19.91812 35.72140 27.81976
# Shear Modulus (GPa) = 19.89851 26.30248 23.10049
#
# Velocity S-wave (km/s) = 3.23115 3.71489 3.48143
# Velocity P-wave (km/s) = 4.93671 6.09449 5.54589
#
# Compressibility (1/GPa) = 0.05020553
#
# Stress axis : x y z
#
# Youngs Moduli (GPa) = 68.77040 19.81909 71.39545
#
# Poissons Ratio (x) = 0.17655 0.20100
# Poissons Ratio (y) = 0.61261 0.19105
# Poissons Ratio (z) = 0.19361 0.05303
#
# Static dielectric constant tensor:
#      x y z
#    x 1.705050 0.000000 -0.016450 
#    y 0.000000 1.646410 0.000000 
#    z -0.016450 0.000000 1.670160 
# 
# From -- ./inp_files/73093.got.cif
#   From: 2010.05.17/outbox.cif.g08.bks.cpg/sg11_37_cif.got.tgz:73093.got - 2010.06.03 12:22:45.
