data_PCOD9159206
_publ_section_title
;
Structure prediction by ZEFSAII (Michael W. Deem and Ramdas Pophale) SiO2 
 PCOD9159206
Probable space group: P 21/M
;
_chemical_formula_sum "Si O2"
_cell_formula_units_Z 28
_cell_length_a 12.824333
_cell_length_b 21.675794
_cell_length_c 5.287830
_cell_angle_alpha 90.000000
_cell_angle_beta 107.088137
_cell_angle_gamma 90.000000
_cell_volume 1405.007980
_symmetry_space_group_name_H-M "P 21/M"
_symmetry_group_IT_number 11
_symmetry_cell_setting 'monoclinic'
loop_
_space_group_symop_operation_xyz
x,y,z
-x,1/2+y,-z
-x,-y,-z
x,1/2-y,z
loop_
_atom_site_type_symbol
_atom_site_label
_atom_site_fract_x
_atom_site_fract_y
_atom_site_fract_z
Si Si1 0.250842 0.481280 0.686758
Si Si2 0.880692 0.063837 0.726070
Si Si3 0.906287 0.678788 0.602793
Si Si4 0.851498 0.318647 0.341890
Si Si5 0.479456 0.040779 0.732020
Si Si6 0.694651 0.400893 0.989034
Si Si7 0.878170 0.897834 0.063310
O O1 0.147696 0.500380 0.441948
O O2 0.351238 0.443224 0.643020
O O3 0.210760 0.446946 0.908408
O O4 0.298429 0.549282 0.779530
O O5 0.867588 0.125530 0.546729
O O6 0.787253 0.073082 0.867113
O O7 0.006435 0.067438 0.894864
O O8 0.871258 0.750000 0.571686
O O9 0.888527 0.646851 0.317774
O O10 0.037748 0.678933 0.744492
O O11 0.854221 0.640832 0.795133
O O12 0.846666 0.250000 0.450322
O O13 0.742317 0.335762 0.111884
O O14 0.571905 0.093847 0.800538
O O15 0.500000 0.000000 0.500000
O O16 0.500000 0.000000 0.000000
#
# Coordination Sequence:
#
# PCOD9159206 Si02
#       7
#     4   4   4   4   4   4   4
#     4  10  22  34  52  81 114 145 179 218 272 331
#     4  10  19  33  50  81 113 143 175 223 277 326
#     4  10  21  37  55  78 107 143 187 226 266 322
#     4   9  19  34  52  78 108 142 182 226 274 322
#     4  10  20  35  55  77 105 142 179 215 258 317
#     4  10  19  34  55  78 110 141 181 227 270 321
#     4  11  22  34  55  82 111 145 178 222 278 328
#
# _framework density 19.928713999999999
#
# number of rings (size 3 to 8) (size 9 to 14) (size 15 to 20)
#    0.000    2.000    2.857    0.857    2.000    1.714 
#    0.000    0.000    0.000    1.714    0.000    0.000 
#    0.000    0.000    0.000    0.000    0.000    0.000 
#
# Total GULP energy -156051.718757 kJ/mol
# GULP energy per Si atom -5573.275670 kJ/mol
# Density = 1.988336 g / cm^3
# Si number density = 19.928714 Si / 1000 Ang^3
#
#
#
# Elastic Constant Matrix: (Units=GPa)
#
#
# Indices 1 2 3 4 5 6 
#
# 1 79.4959 22.6245 7.2790 0.0000 -9.8431 0.0000
# 2 22.6245 83.5969 19.9872 0.0000 2.3229 0.0000
# 3 7.2790 19.9872 73.2449 0.0000 -10.0355 0.0000
# 4 0.0000 0.0000 0.0000 22.2661 0.0000 -0.5864
# 5 -9.8431 2.3229 -10.0355 0.0000 24.3307 0.0000
# 6 0.0000 0.0000 0.0000 -0.5864 0.0000 23.8638
#
#
#
# Elastic Compliance Matrix: (Units=1/GPa)
#
#
# Indices 1 2 3 4 5 6 
#
# 1 0.014548 -0.004266 0.000615 0.000000 0.006546 0.000000
# 2 -0.004266 0.014234 -0.004115 0.000000 -0.004782 0.000000
# 3 0.000615 -0.004115 0.015689 0.000000 0.007113 0.000000
# 4 0.000000 0.000000 0.000000 0.044940 0.000000 0.001104
# 5 0.006546 -0.004782 0.007113 0.000000 0.047139 0.000000
# 6 0.000000 0.000000 0.000000 0.001104 0.000000 0.041932
#
#
# Mechanical properties :
#
#
# Convention : Reuss Voigt Hill
#
# Bulk Modulus (GPa) = 34.55641 37.34657 35.95149
# Shear Modulus (GPa) = 24.55071 26.52191 25.53631
#
# Velocity S-wave (km/s) = 3.51369 3.65202 3.58352
# Velocity P-wave (km/s) = 5.81713 6.04680 5.93308
#
# Compressibility (1/GPa) = 0.02893819
#
# Stress axis : x y z
#
# Youngs Moduli (GPa) = 68.73961 70.25634 63.73785
#
# Poissons Ratio (x) = 0.29973 -0.03922
# Poissons Ratio (y) = 0.29326 0.26230
# Poissons Ratio (z) = -0.04230 0.28913
#
# Static dielectric constant tensor:
#      x y z
#    x 1.757330 0.000000 0.033950 
#    y 0.000000 1.715980 0.000000 
#    z 0.033950 0.000000 1.787520 
# 
# From -- ./inp_files/4887.got.cif
#   From: 2010.05.17/outbox.cif.g08.bks.cpg/sg11_3_cif.got.tgz:4887.got - 2010.06.03 12:22:45.
