data_PCOD9159226
_publ_section_title
;
Structure prediction by ZEFSAII (Michael W. Deem and Ramdas Pophale) SiO2 
 PCOD9159226
Probable space group: P 21/M
;
_chemical_formula_sum "Si O2"
_cell_formula_units_Z 32
_cell_length_a 14.833477
_cell_length_b 13.128426
_cell_length_c 15.510468
_cell_angle_alpha 90.000000
_cell_angle_beta 38.512215
_cell_angle_gamma 90.000000
_cell_volume 1880.816673
_symmetry_space_group_name_H-M "P 21/M"
_symmetry_group_IT_number 11
_symmetry_cell_setting 'monoclinic'
loop_
_space_group_symop_operation_xyz
x,y,z
-x,1/2+y,-z
-x,-y,-z
x,1/2-y,z
loop_
_atom_site_type_symbol
_atom_site_label
_atom_site_fract_x
_atom_site_fract_y
_atom_site_fract_z
Si Si1 0.054174 0.634102 0.723796
Si Si2 0.639349 0.135788 0.423239
Si Si3 0.917216 0.482649 0.690665
Si Si4 0.162679 0.130183 0.401067
Si Si5 0.771658 0.368509 0.953656
Si Si6 0.533323 0.632811 0.728922
Si Si7 0.101994 0.476715 0.005429
Si Si8 0.601942 0.522442 0.301505
O O1 0.015557 0.750000 0.730684
O O2 0.224296 0.628367 0.615701
O O3 0.009723 0.557654 0.682189
O O4 0.974150 0.600524 0.871780
O O5 0.635999 0.250000 0.389746
O O6 0.656936 0.052734 0.335586
O O7 0.493698 0.109243 0.583392
O O8 0.839334 0.554433 0.678990
O O9 0.811569 0.423138 0.834548
O O10 0.026194 0.405627 0.560932
O O11 0.149465 0.250000 0.387986
O O12 0.312308 0.117757 0.341536
O O13 0.810632 0.250000 0.920708
O O14 0.601750 0.376429 0.104022
O O15 0.859385 0.423927 0.965398
O O16 0.529168 0.750000 0.698437
O O17 0.499759 0.548884 0.681779
O O18 0.258174 0.439745 0.854609
O O19 0.000000 0.500000 0.000000
#
# Coordination Sequence:
#
# PCOD9159226 Si02
#       8
#     4   4   4   4   4   4   4   4
#     4  10  20  34  52  73 102 135 169 206 252 306
#     4  10  20  32  49  71  97 134 168 204 251 300
#     4  10  20  34  53  76 104 132 167 209 257 304
#     4  10  20  34  54  77 102 132 168 211 254 305
#     4   9  19  34  53  75 102 134 169 212 252 300
#     4   9  18  33  53  75  98 131 169 206 252 298
#     4  10  19  33  51  75 101 134 172 206 254 297
#     4  10  19  33  52  70 103 130 167 215 245 305
#
# _framework density 17.013885999999999
#
# number of rings (size 3 to 8) (size 9 to 14) (size 15 to 20)
#    0.000    2.250    1.250    1.875    0.000    2.000 
#    0.000    0.000    0.000    0.750    0.000    0.000 
#    0.000    0.000    0.000    0.000    0.000    0.000 
#
# Total GULP energy -178432.698841 kJ/mol
# GULP energy per Si atom -5576.021839 kJ/mol
# Density = 1.697516 g / cm^3
# Si number density = 17.013886 Si / 1000 Ang^3
#
#
#
# Elastic Constant Matrix: (Units=GPa)
#
#
# Indices 1 2 3 4 5 6 
#
# 1 48.0103 -2.6023 -5.8028 0.0000 -3.5841 0.0000
# 2 -2.6023 42.8099 -4.5293 0.0000 -7.0593 0.0000
# 3 -5.8028 -4.5293 25.9369 0.0000 2.0219 0.0000
# 4 0.0000 0.0000 0.0000 -14.6050 0.0000 0.2358
# 5 -3.5841 -7.0593 2.0219 0.0000 24.0086 0.0000
# 6 0.0000 0.0000 0.0000 0.2358 0.0000 19.0166
#
#
#
# Elastic Compliance Matrix: (Units=1/GPa)
#
#
# Indices 1 2 3 4 5 6 
#
# 1 0.021835 0.002446 0.005035 0.000000 0.003555 0.000000
# 2 0.002446 0.025191 0.004369 0.000000 0.007404 0.000000
# 3 0.005035 0.004369 0.040552 0.000000 -0.001379 0.000000
# 4 0.000000 0.000000 0.000000 -0.068456 0.000000 0.000849
# 5 0.003555 0.007404 -0.001379 0.000000 0.044476 0.000000
# 6 0.000000 0.000000 0.000000 0.000849 0.000000 0.052575
#
#
# Mechanical properties :
#
#
# Convention : Reuss Voigt Hill
#
# Bulk Modulus (GPa) = 8.98635 10.09869 9.54252
# Shear Modulus (GPa) = 38.59058 14.33013 26.46036
#
# Velocity S-wave (km/s) = 4.76771 2.90532 3.94791
# Velocity P-wave (km/s) = 5.96668 4.14765 5.13830
#
# Compressibility (1/GPa) = 0.11127993
#
# Stress axis : x y z
#
# Youngs Moduli (GPa) = 45.79708 39.69671 24.65960
#
# Poissons Ratio (x) = -0.09711 -0.12417
# Poissons Ratio (y) = -0.11203 -0.10774
# Poissons Ratio (z) = -0.23060 -0.17344
#
# Static dielectric constant tensor:
#      x y z
#    x 1.553480 0.000000 0.005890 
#    y 0.000000 1.560090 0.000000 
#    z 0.005890 0.000000 1.564760 
# 
# From -- ./inp_files/26559.got.cif
#   From: 2010.05.17/outbox.cif.g08.bks.cpg/sg11_14_cif.got.tgz:26559.got - 2010.06.03 12:22:45.
