data_PCOD9159455
_publ_section_title
;
Structure prediction by ZEFSAII (Michael W. Deem and Ramdas Pophale) SiO2 
 PCOD9159455
Probable space group: P 21/M
;
_chemical_formula_sum "Si O2"
_cell_formula_units_Z 28
_cell_length_a 30.007400
_cell_length_b 9.200374
_cell_length_c 5.326644
_cell_angle_alpha 90.000000
_cell_angle_beta 70.971221
_cell_angle_gamma 90.000000
_cell_volume 1390.216420
_symmetry_space_group_name_H-M "P 21/M"
_symmetry_group_IT_number 11
_symmetry_cell_setting 'monoclinic'
loop_
_space_group_symop_operation_xyz
x,y,z
-x,1/2+y,-z
-x,-y,-z
x,1/2-y,z
loop_
_atom_site_type_symbol
_atom_site_label
_atom_site_fract_x
_atom_site_fract_y
_atom_site_fract_z
Si Si1 0.523062 0.927964 0.207725
Si Si2 0.210033 0.572262 0.727401
Si Si3 0.073701 0.908167 0.814571
Si Si4 0.156987 0.925623 0.320271
Si Si5 0.624961 0.073062 0.002534
Si Si6 0.974297 0.904586 0.748681
Si Si7 0.317088 0.574555 0.605366
O O1 0.518650 0.750000 0.215864
O O2 0.500000 0.000000 0.500000
O O3 0.500000 0.000000 0.000000
O O4 0.577040 0.982405 0.106968
O O5 0.210518 0.750000 0.725695
O O6 0.190198 0.528198 0.492254
O O7 0.263436 0.522062 0.677022
O O8 0.176585 0.522755 0.017950
O O9 0.092490 0.750000 0.865759
O O10 0.104326 0.955852 0.520247
O O11 0.018780 0.886607 0.854576
O O12 0.070422 0.025391 0.036713
O O13 0.159204 0.750000 0.301338
O O14 0.616037 0.250000 0.023598
O O15 0.651872 0.037239 0.694693
O O16 0.657595 0.035348 0.181341
O O17 0.961825 0.750000 0.660373
O O18 0.000000 0.000000 0.500000
O O19 0.314374 0.750000 0.612294
#
# Coordination Sequence:
#
# PCOD9159455 Si02
#       7
#     4   4   4   4   4   4   4
#     4  12  25  42  63  90 125 164 207 252 302 358
#     4   9  16  27  44  73 107 139 172 219 279 330
#     4   9  19  33  49  72 100 133 172 217 267 322
#     4   9  17  27  45  71 104 136 169 216 275 329
#     4  10  19  33  54  81 113 152 192 236 287 338
#     4  10  20  33  51  72  99 132 171 215 266 321
#     4   9  17  29  49  77 112 145 182 230 283 337
#
# _framework density 20.140747999999999
#
# number of rings (size 3 to 8) (size 9 to 14) (size 15 to 20)
#    0.000    2.286    0.000    3.429    2.000    5.143 
#    0.000    0.000    0.000    0.000    0.000    6.000 
#    0.000    0.000    0.000    0.000    0.000    0.000 
#
# Total GULP energy -156022.565461 kJ/mol
# GULP energy per Si atom -5572.234481 kJ/mol
# Density = 2.009491 g / cm^3
# Si number density = 20.140748 Si / 1000 Ang^3
#
#
#
# Elastic Constant Matrix: (Units=GPa)
#
#
# Indices 1 2 3 4 5 6 
#
# 1 94.6474 9.4150 28.4096 0.0000 -5.0636 0.0000
# 2 9.4150 78.4668 35.3613 0.0000 -2.5414 0.0000
# 3 28.4096 35.3613 112.9991 0.0000 -1.7283 0.0000
# 4 0.0000 0.0000 0.0000 21.5252 0.0000 -5.6645
# 5 -5.0636 -2.5414 -1.7283 0.0000 38.8663 0.0000
# 6 0.0000 0.0000 0.0000 -5.6645 0.0000 12.3990
#
#
#
# Elastic Compliance Matrix: (Units=1/GPa)
#
#
# Indices 1 2 3 4 5 6 
#
# 1 0.011501 -0.000049 -0.002855 0.000000 0.001368 0.000000
# 2 -0.000049 0.014859 -0.004626 0.000000 0.000760 0.000000
# 3 -0.002855 -0.004626 0.011012 0.000000 -0.000185 0.000000
# 4 0.000000 0.000000 0.000000 0.052806 0.000000 0.024125
# 5 0.001368 0.000760 -0.000185 0.000000 0.025949 0.000000
# 6 0.000000 0.000000 0.000000 0.024125 0.000000 0.091673
#
#
# Mechanical properties :
#
#
# Convention : Reuss Voigt Hill
#
# Bulk Modulus (GPa) = 44.81904 48.05391 46.43648
# Shear Modulus (GPa) = 21.71100 28.75326 25.23213
#
# Velocity S-wave (km/s) = 3.28680 3.78248 3.54332
# Velocity P-wave (km/s) = 6.05849 6.55645 6.31238
#
# Compressibility (1/GPa) = 0.02231195
#
# Stress axis : x y z
#
# Youngs Moduli (GPa) = 86.95192 67.29706 90.80737
#
# Poissons Ratio (x) = 0.00329 0.25927
# Poissons Ratio (y) = 0.00425 0.42009
# Poissons Ratio (z) = 0.24826 0.31133
#
# Static dielectric constant tensor:
#      x y z
#    x 1.777530 0.000000 0.035870 
#    y 0.000000 1.691710 0.000000 
#    z 0.035870 0.000000 1.709970 
# 
# From -- ./inp_files/9613.got.cif
#   From: 2010.05.17/outbox.cif.g08.bks.cpg/sg11_5_cif.got.tgz:9613.got - 2010.06.03 12:22:45.
