data_PCOD9159161
_publ_section_title
;
Structure prediction by ZEFSAII (Michael W. Deem and Ramdas Pophale) SiO2 
 PCOD9159161
Probable space group: P 21/M
;
_chemical_formula_sum "Si O2"
_cell_formula_units_Z 32
_cell_length_a 29.109174
_cell_length_b 8.559980
_cell_length_c 11.611536
_cell_angle_alpha 90.000000
_cell_angle_beta 145.108081
_cell_angle_gamma 90.000000
_cell_volume 1655.050531
_symmetry_space_group_name_H-M "P 21/M"
_symmetry_group_IT_number 11
_symmetry_cell_setting 'monoclinic'
loop_
_space_group_symop_operation_xyz
x,y,z
-x,1/2+y,-z
-x,-y,-z
x,1/2-y,z
loop_
_atom_site_type_symbol
_atom_site_label
_atom_site_fract_x
_atom_site_fract_y
_atom_site_fract_z
Si Si1 0.671113 0.061002 0.623778
Si Si2 0.723820 0.938706 0.119983
Si Si3 0.038642 0.063103 0.754205
Si Si4 0.882996 0.938251 0.325153
Si Si5 0.415054 0.937272 0.784469
Si Si6 0.743682 0.563350 0.422746
Si Si7 0.169622 0.936930 0.181919
Si Si8 0.409741 0.562707 0.307452
O O1 0.676112 0.250000 0.640018
O O2 0.605999 0.022660 0.391291
O O3 0.757231 0.006368 0.751709
O O4 0.640875 0.004614 0.685007
O O5 0.718524 0.750000 0.106072
O O6 0.794641 0.991151 0.179512
O O7 0.749086 0.984736 0.300843
O O8 0.639381 0.006639 0.904832
O O9 0.035951 0.250000 0.748917
O O10 0.088517 0.009534 0.742804
O O11 0.949706 0.997399 0.552081
O O12 0.086815 0.002913 0.963117
O O13 0.883698 0.750000 0.327647
O O14 0.411907 0.750000 0.788491
O O15 0.343570 0.010838 0.711819
O O16 0.500000 0.000000 0.000000
O O17 0.750598 0.750000 0.443336
O O18 0.806854 0.489889 0.641613
O O19 0.168444 0.750000 0.175474
O O20 0.500000 0.500000 0.500000
O O21 0.412083 0.750000 0.314804
#
# Coordination Sequence:
#
# PCOD9159161 Si02
#       8
#     4   4   4   4   4   4   4   4
#     4   8  18  35  53  74 104 138 175 221 271 322
#     4  10  22  40  59  79 111 150 185 226 278 332
#     4  10  19  32  56  88 118 144 181 231 278 328
#     4   9  19  36  57  84 115 150 186 224 273 332
#     4  10  20  35  55  79 105 138 181 227 277 326
#     4  10  21  37  56  79 108 145 185 230 280 329
#     4  10  19  35  58  82 109 144 185 230 278 329
#     4  11  23  38  56  80 109 144 183 225 275 331
#
# _framework density 19.334757
#
# number of rings (size 3 to 8) (size 9 to 14) (size 15 to 20)
#    0.000    2.250    0.000    3.375    1.750    2.000 
#    0.000    6.875    0.000    0.000    0.000    0.000 
#    0.000    0.000    0.000    0.000    0.000    0.000 
#
# Total GULP energy -178655.625433 kJ/mol
# GULP energy per Si atom -5582.988295 kJ/mol
# Density = 1.929075 g / cm^3
# Si number density = 19.334757 Si / 1000 Ang^3
#
#
#
# Elastic Constant Matrix: (Units=GPa)
#
#
# Indices 1 2 3 4 5 6 
#
# 1 45.6500 7.5264 17.3269 0.0000 -5.5995 0.0000
# 2 7.5264 15.4034 11.2668 0.0000 1.8665 0.0000
# 3 17.3269 11.2668 130.7121 0.0000 5.3032 0.0000
# 4 0.0000 0.0000 0.0000 33.9040 0.0000 -1.5751
# 5 -5.5995 1.8665 5.3032 0.0000 17.2900 0.0000
# 6 0.0000 0.0000 0.0000 -1.5751 0.0000 20.1512
#
#
#
# Elastic Compliance Matrix: (Units=1/GPa)
#
#
# Indices 1 2 3 4 5 6 
#
# 1 0.026297 -0.012037 -0.002882 0.000000 0.010700 0.000000
# 2 -0.012037 0.075363 -0.004468 0.000000 -0.010664 0.000000
# 3 -0.002882 -0.004468 0.008542 0.000000 -0.003071 0.000000
# 4 0.000000 0.000000 0.000000 0.029603 0.000000 0.002314
# 5 0.010700 -0.010664 -0.003071 0.000000 0.063395 0.000000
# 6 0.000000 0.000000 0.000000 0.002314 0.000000 0.049806
#
#
# Mechanical properties :
#
#
# Convention : Reuss Voigt Hill
#
# Bulk Modulus (GPa) = 14.00036 29.33397 21.66716
# Shear Modulus (GPa) = 15.84338 24.64540 20.24439
#
# Velocity S-wave (km/s) = 2.86567 3.57412 3.23932
# Velocity P-wave (km/s) = 4.26686 5.67777 5.02211
#
# Compressibility (1/GPa) = 0.07142672
#
# Stress axis : x y z
#
# Youngs Moduli (GPa) = 38.02712 13.26919 117.06614
#
# Poissons Ratio (x) = 0.15973 0.33743
# Poissons Ratio (y) = 0.45775 0.52301
# Poissons Ratio (z) = 0.10961 0.05928
#
# Static dielectric constant tensor:
#      x y z
#    x 1.687430 0.000000 -0.016580 
#    y 0.000000 1.659120 0.000000 
#    z -0.016580 0.000000 1.655280 
# 
# From -- ./inp_files/45267.got.cif
#   From: 2010.05.17/outbox.cif.g08.bks.cpg/sg11_23_cif.got.tgz:45267.got - 2010.06.03 12:22:45.
