data_PCOD9159201
_publ_section_title
;
Structure prediction by ZEFSAII (Michael W. Deem and Ramdas Pophale) SiO2 
 PCOD9159201
Probable space group: P 21/M
;
_chemical_formula_sum "Si O2"
_cell_formula_units_Z 28
_cell_length_a 32.943075
_cell_length_b 8.135963
_cell_length_c 9.996506
_cell_angle_alpha 90.000000
_cell_angle_beta 34.392880
_cell_angle_gamma 90.000000
_cell_volume 1513.441313
_symmetry_space_group_name_H-M "P 21/M"
_symmetry_group_IT_number 11
_symmetry_cell_setting 'monoclinic'
loop_
_space_group_symop_operation_xyz
x,y,z
-x,1/2+y,-z
-x,-y,-z
x,1/2-y,z
loop_
_atom_site_type_symbol
_atom_site_label
_atom_site_fract_x
_atom_site_fract_y
_atom_site_fract_z
Si Si1 0.193919 0.550562 0.197829
Si Si2 0.599293 0.050807 0.127738
Si Si3 0.081808 0.554346 0.287737
Si Si4 0.686022 0.947666 0.338576
Si Si5 0.448491 0.051851 0.445724
Si Si6 0.760192 0.447974 0.638079
Si Si7 0.200936 0.445976 0.756974
O O1 0.195337 0.750000 0.192879
O O2 0.123755 0.493975 0.306821
O O3 0.201169 0.494976 0.330897
O O4 0.262230 0.490594 0.926721
O O5 0.599654 0.250000 0.127130
O O6 0.531145 0.994084 0.224648
O O7 0.583946 0.994769 0.321167
O O8 0.677275 0.993332 0.868190
O O9 0.082848 0.750000 0.289265
O O10 0.000000 0.500000 0.500000
O O11 0.130944 0.500203 0.029536
O O12 0.681915 0.750000 0.360488
O O13 0.606491 0.010049 0.518003
O O14 0.728856 0.010533 0.352211
O O15 0.449963 0.250000 0.433587
O O16 0.758671 0.250000 0.646389
O O17 0.797013 0.498999 0.400927
O O18 0.203441 0.250000 0.754338
#
# Coordination Sequence:
#
# PCOD9159201 Si02
#       7
#     4   4   4   4   4   4   4
#     4   9  18  32  53  77 101 131 168 205 245 296
#     4   9  17  28  45  69  99 132 168 212 257 298
#     4  10  20  37  60  83 105 130 161 201 246 298
#     4   9  17  30  48  71  99 131 171 215 254 295
#     4   9  16  27  45  70  97 129 170 215 258 296
#     4  10  19  33  50  73 104 136 170 209 252 298
#     4  10  21  35  52  75 104 137 170 206 249 298
#
# _framework density 18.500883000000002
#
# number of rings (size 3 to 8) (size 9 to 14) (size 15 to 20)
#    0.000    2.571    1.429    0.857    0.000    2.286 
#    0.000    1.429    0.000    0.000    0.000    0.000 
#    0.000    0.000    0.000    0.000    0.000    0.000 
#
# Total GULP energy -156081.828893 kJ/mol
# GULP energy per Si atom -5574.351032 kJ/mol
# Density = 1.845877 g / cm^3
# Si number density = 18.500883 Si / 1000 Ang^3
#
#
#
# Elastic Constant Matrix: (Units=GPa)
#
#
# Indices 1 2 3 4 5 6 
#
# 1 137.6428 16.7690 79.0046 0.0000 -8.7478 0.0000
# 2 16.7690 10.5210 9.8245 0.0000 -2.5920 0.0000
# 3 79.0046 9.8245 90.2886 0.0000 -5.7576 0.0000
# 4 0.0000 0.0000 0.0000 23.0438 0.0000 1.1775
# 5 -8.7478 -2.5920 -5.7576 0.0000 32.9820 0.0000
# 6 0.0000 0.0000 0.0000 1.1775 0.0000 15.4852
#
#
#
# Elastic Compliance Matrix: (Units=1/GPa)
#
#
# Indices 1 2 3 4 5 6 
#
# 1 0.016308 -0.013888 -0.012694 0.000000 0.001018 0.000000
# 2 -0.013888 0.118968 -0.000436 0.000000 0.005590 0.000000
# 3 -0.012694 -0.000436 0.022261 0.000000 0.000485 0.000000
# 4 0.000000 0.000000 0.000000 0.043565 0.000000 -0.003313
# 5 0.001018 0.005590 0.000485 0.000000 0.031114 0.000000
# 6 0.000000 0.000000 0.000000 -0.003313 0.000000 0.064830
#
#
# Mechanical properties :
#
#
# Convention : Reuss Voigt Hill
#
# Bulk Modulus (GPa) = 9.66177 49.96096 29.81136
# Shear Modulus (GPa) = 12.96745 23.15917 18.06331
#
# Velocity S-wave (km/s) = 2.65034 3.54190 3.12805
# Velocity P-wave (km/s) = 3.82092 6.61740 5.40321
#
# Compressibility (1/GPa) = 0.10350073
#
# Stress axis : x y z
#
# Youngs Moduli (GPa) = 61.32063 8.40564 44.92140
#
# Poissons Ratio (x) = 0.11674 0.57021
# Poissons Ratio (y) = 0.85163 0.01960
# Poissons Ratio (z) = 0.77837 0.00367
#
# Static dielectric constant tensor:
#      x y z
#    x 1.693530 0.000000 -0.020740 
#    y 0.000000 1.640550 0.000000 
#    z -0.020740 0.000000 1.577560 
# 
# From -- ./inp_files/29031.got.cif
#   From: 2010.05.17/outbox.cif.g08.bks.cpg/sg11_15_cif.got.tgz:29031.got - 2010.06.03 12:22:45.
