data_PCOD9159509
_publ_section_title
;
Structure prediction by ZEFSAII (Michael W. Deem and Ramdas Pophale) SiO2 
 PCOD9159509
Probable space group: P 21/M
;
_chemical_formula_sum "Si O2"
_cell_formula_units_Z 28
_cell_length_a 10.528145
_cell_length_b 18.743645
_cell_length_c 18.229219
_cell_angle_alpha 90.000000
_cell_angle_beta 154.099677
_cell_angle_gamma 90.000000
_cell_volume 1571.315593
_symmetry_space_group_name_H-M "P 21/M"
_symmetry_group_IT_number 11
_symmetry_cell_setting 'monoclinic'
loop_
_space_group_symop_operation_xyz
x,y,z
-x,1/2+y,-z
-x,-y,-z
x,1/2-y,z
loop_
_atom_site_type_symbol
_atom_site_label
_atom_site_fract_x
_atom_site_fract_y
_atom_site_fract_z
Si Si1 0.088042 0.959791 0.838119
Si Si2 0.642001 0.096753 0.241499
Si Si3 0.765123 0.955363 0.229936
Si Si4 0.971750 0.666672 0.435177
Si Si5 0.985389 0.048753 0.920669
Si Si6 0.003120 0.168392 0.306180
Si Si7 0.491472 0.830243 0.310292
O O1 0.963484 0.885936 0.743195
O O2 0.104720 0.013387 0.777539
O O3 0.925437 0.997678 0.820137
O O4 0.420907 0.945360 0.036519
O O5 0.774875 0.135123 0.381339
O O6 0.734495 0.141696 0.217478
O O7 0.783749 0.018740 0.300142
O O8 0.299678 0.084525 0.069991
O O9 0.916459 0.884504 0.337770
O O10 0.021782 0.750000 0.444358
O O11 0.683248 0.661966 0.336344
O O12 0.745746 0.109078 0.806376
O O13 0.000000 0.000000 0.000000
O O14 0.961551 0.250000 0.262143
O O15 0.278848 0.164179 0.503707
O O16 0.367245 0.750000 0.246775
#
# Coordination Sequence:
#
# PCOD9159509 Si02
#       7
#     4   4   4   4   4   4   4
#     4   9  19  33  52  78 104 134 177 213 253 311
#     4   9  18  33  55  78 103 135 175 212 253 309
#     4   9  17  32  51  76 104 131 167 219 260 295
#     4  10  19  33  55  81 104 133 176 219 261 305
#     4  11  22  36  54  77 106 140 175 214 262 311
#     4   9  18  35  58  80 103 135 174 217 261 305
#     4   9  19  34  52  76 107 141 174 210 259 317
#
# _framework density 17.819462000000001
#
# number of rings (size 3 to 8) (size 9 to 14) (size 15 to 20)
#    0.000    2.571    0.000    4.286    0.000    4.571 
#    0.000    1.429    0.000    1.714    0.000    0.000 
#    0.000    0.000    0.000    0.000    0.000    0.000 
#
# Total GULP energy -156203.386021 kJ/mol
# GULP energy per Si atom -5578.692358 kJ/mol
# Density = 1.777890 g / cm^3
# Si number density = 17.819462 Si / 1000 Ang^3
#
#
#
# Elastic Constant Matrix: (Units=GPa)
#
#
# Indices 1 2 3 4 5 6 
#
# 1 43.6856 46.1748 24.9261 0.0000 -9.9062 0.0000
# 2 46.1748 144.5813 50.8522 0.0000 -14.8034 0.0000
# 3 24.9261 50.8522 36.5436 0.0000 -1.0860 0.0000
# 4 0.0000 0.0000 0.0000 28.0023 0.0000 9.3940
# 5 -9.9062 -14.8034 -1.0860 0.0000 23.7021 0.0000
# 6 0.0000 0.0000 0.0000 9.3940 0.0000 3.3880
#
#
#
# Elastic Compliance Matrix: (Units=1/GPa)
#
#
# Indices 1 2 3 4 5 6 
#
# 1 0.044388 -0.004242 -0.023933 0.000000 0.014806 0.000000
# 2 -0.004242 0.015476 -0.018433 0.000000 0.007048 0.000000
# 3 -0.023933 -0.018433 0.068793 0.000000 -0.018363 0.000000
# 4 0.000000 0.000000 0.000000 0.511409 0.000000 -1.417989
# 5 0.014806 0.007048 -0.018363 0.000000 0.051939 0.000000
# 6 0.000000 0.000000 0.000000 -1.417989 0.000000 4.226826
#
#
# Mechanical properties :
#
#
# Convention : Reuss Voigt Hill
#
# Bulk Modulus (GPa) = 28.21582 52.07965 40.14773
# Shear Modulus (GPa) = 0.99525 17.87564 9.43544
#
# Velocity S-wave (km/s) = 0.74815 3.17069 2.30359
# Velocity P-wave (km/s) = 4.07614 6.53407 5.44560
#
# Compressibility (1/GPa) = 0.03544111
#
# Stress axis : x y z
#
# Youngs Moduli (GPa) = 22.52848 64.61515 14.53626
#
# Poissons Ratio (x) = 0.27413 0.34790
# Poissons Ratio (y) = 0.09558 0.26794
# Poissons Ratio (z) = 0.53918 1.19103
#
# Static dielectric constant tensor:
#      x y z
#    x 1.604530 0.000000 -0.008730 
#    y 0.000000 1.611300 0.000000 
#    z -0.008730 0.000000 1.596700 
# 
# From -- ./inp_files/25260.got.cif
#   From: 2010.05.17/outbox.cif.g08.bks.cpg/sg11_13_cif.got.tgz:25260.got - 2010.06.03 12:22:45.
