data_PCOD9159141
_publ_section_title
;
Structure prediction by ZEFSAII (Michael W. Deem and Ramdas Pophale) SiO2 
 PCOD9159141
Probable space group: P 21/M
;
_chemical_formula_sum "Si O2"
_cell_formula_units_Z 28
_cell_length_a 20.214444
_cell_length_b 8.985862
_cell_length_c 15.847061
_cell_angle_alpha 90.000000
_cell_angle_beta 30.688277
_cell_angle_gamma 90.000000
_cell_volume 1469.105014
_symmetry_space_group_name_H-M "P 21/M"
_symmetry_group_IT_number 11
_symmetry_cell_setting 'monoclinic'
loop_
_space_group_symop_operation_xyz
x,y,z
-x,1/2+y,-z
-x,-y,-z
x,1/2-y,z
loop_
_atom_site_type_symbol
_atom_site_label
_atom_site_fract_x
_atom_site_fract_y
_atom_site_fract_z
Si Si1 0.417096 0.930035 0.014071
Si Si2 0.132486 0.928634 0.387780
Si Si3 0.555376 0.070734 0.701076
Si Si4 0.153686 0.571842 0.560934
Si Si5 0.975207 0.426785 0.887527
Si Si6 0.537544 0.919157 0.544951
Si Si7 0.833629 0.918029 0.172021
O O1 0.428894 0.750000 0.003163
O O2 0.265105 0.968675 0.193473
O O3 0.500000 0.000000 0.000000
O O4 0.473586 0.996458 0.865801
O O5 0.119732 0.750000 0.397155
O O6 0.154378 0.969099 0.461805
O O7 0.000000 0.000000 0.500000
O O8 0.545438 0.250000 0.715509
O O9 0.707316 0.030561 0.550678
O O10 0.509845 0.009414 0.660569
O O11 0.142198 0.750000 0.580352
O O12 0.032046 0.498200 0.741262
O O13 0.972234 0.250000 0.882854
O O14 0.077881 0.472984 0.847879
O O15 0.844866 0.486863 0.074234
O O16 0.486531 0.750000 0.605453
O O17 0.692215 0.912013 0.365483
O O18 0.500000 0.000000 0.500000
O O19 0.876402 0.750000 0.103839
#
# Coordination Sequence:
#
# PCOD9159141 Si02
#       7
#     4   4   4   4   4   4   4
#     4  11  22  40  66  97 130 164 211 264 314 377
#     4  10  23  43  63  90 125 163 202 251 311 373
#     4  11  22  39  64  93 122 160 207 258 314 371
#     4  10  20  37  60  86 120 155 196 248 303 364
#     4  10  19  32  55  86 112 143 191 240 290 346
#     4  11  23  41  61  86 120 160 205 255 310 370
#     4   9  19  35  54  79 113 148 187 237 293 349
#
# _framework density 19.059221999999998
#
# number of rings (size 3 to 8) (size 9 to 14) (size 15 to 20)
#    0.000    1.714    2.857    1.714    0.000    4.000 
#    2.571    0.000    0.000    0.000    0.000    0.000 
#    0.000    0.000    0.000    0.000    0.000    0.000 
#
# Total GULP energy -156206.204957 kJ/mol
# GULP energy per Si atom -5578.793034 kJ/mol
# Density = 1.901584 g / cm^3
# Si number density = 19.059222 Si / 1000 Ang^3
#
#
#
# Elastic Constant Matrix: (Units=GPa)
#
#
# Indices 1 2 3 4 5 6 
#
# 1 95.0839 40.5523 32.9097 0.0000 19.5602 0.0000
# 2 40.5523 67.8273 49.2561 0.0000 16.2109 0.0000
# 3 32.9097 49.2561 118.5287 0.0000 30.9867 0.0000
# 4 0.0000 0.0000 0.0000 34.8463 0.0000 5.9571
# 5 19.5602 16.2109 30.9867 0.0000 34.3747 0.0000
# 6 0.0000 0.0000 0.0000 5.9571 0.0000 30.7227
#
#
#
# Elastic Compliance Matrix: (Units=1/GPa)
#
#
# Indices 1 2 3 4 5 6 
#
# 1 0.014806 -0.008040 0.000578 0.000000 -0.005154 0.000000
# 2 -0.008040 0.025672 -0.008461 0.000000 0.000095 0.000000
# 3 0.000578 -0.008461 0.014176 0.000000 -0.009117 0.000000
# 4 0.000000 0.000000 0.000000 0.029681 0.000000 -0.005755
# 5 -0.005154 0.000095 -0.009117 0.000000 0.040198 0.000000
# 6 0.000000 0.000000 0.000000 -0.005755 0.000000 0.033665
#
#
# Mechanical properties :
#
#
# Convention : Reuss Voigt Hill
#
# Bulk Modulus (GPa) = 43.84490 58.54180 51.19335
# Shear Modulus (GPa) = 25.29762 30.57020 27.93391
#
# Velocity S-wave (km/s) = 3.64719 4.00929 3.83252
# Velocity P-wave (km/s) = 6.38674 7.22599 6.81929
#
# Compressibility (1/GPa) = 0.02280767
#
# Stress axis : x y z
#
# Youngs Moduli (GPa) = 67.53843 38.95353 70.54217
#
# Poissons Ratio (x) = 0.31318 -0.04074
# Poissons Ratio (y) = 0.54300 0.59684
# Poissons Ratio (z) = -0.03901 0.32958
#
# Static dielectric constant tensor:
#      x y z
#    x 1.669000 0.000000 -0.022730 
#    y 0.000000 1.674130 0.000000 
#    z -0.022730 0.000000 1.707890 
# 
# From -- ./inp_files/54509.got.cif
#   From: 2010.05.17/outbox.cif.g08.bks.cpg/sg11_28_cif.got.tgz:54509.got - 2010.06.03 12:22:45.
