data_PCOD9159148
_publ_section_title
;
Structure prediction by ZEFSAII (Michael W. Deem and Ramdas Pophale) SiO2 
 PCOD9159148
Probable space group: P 21/M
;
_chemical_formula_sum "Si O2"
_cell_formula_units_Z 32
_cell_length_a 13.748759
_cell_length_b 17.360213
_cell_length_c 13.243410
_cell_angle_alpha 90.000000
_cell_angle_beta 148.929221
_cell_angle_gamma 90.000000
_cell_volume 1631.358238
_symmetry_space_group_name_H-M "P 21/M"
_symmetry_group_IT_number 11
_symmetry_cell_setting 'monoclinic'
loop_
_space_group_symop_operation_xyz
x,y,z
-x,1/2+y,-z
-x,-y,-z
x,1/2-y,z
loop_
_atom_site_type_symbol
_atom_site_label
_atom_site_fract_x
_atom_site_fract_y
_atom_site_fract_z
Si Si1 0.037056 0.662246 0.724796
Si Si2 0.856099 0.484095 0.072768
Si Si3 0.489141 0.463531 0.098953
Si Si4 0.420985 0.339987 0.672875
Si Si5 0.536614 0.006331 0.650251
Si Si6 0.994156 0.407702 0.515581
Si Si7 0.586555 0.659576 0.103220
Si Si8 0.222368 0.555805 0.492650
O O1 0.097519 0.750000 0.788729
O O2 0.088996 0.629746 0.660188
O O3 0.808370 0.659265 0.527678
O O4 0.118754 0.606113 0.882314
O O5 0.703962 0.517747 0.017111
O O6 0.754539 0.502583 0.877229
O O7 0.058619 0.519110 0.279847
O O8 0.664185 0.492033 0.320472
O O9 0.500000 0.500000 0.000000
O O10 0.508019 0.375029 0.081667
O O11 0.472399 0.250000 0.692443
O O12 0.481311 0.409489 0.650533
O O13 0.489976 0.354876 0.850442
O O14 0.500000 0.000000 0.500000
O O15 0.404394 0.938637 0.581886
O O16 0.887983 0.389503 0.526844
O O17 0.000000 0.500000 0.500000
O O18 0.203937 0.375568 0.712438
O O19 0.597377 0.750000 0.104806
#
# Coordination Sequence:
#
# PCOD9159148 Si02
#       8
#     4   4   4   4   4   4   4   4
#     4  10  19  32  55  92 126 155 190 231 286 361
#     4  11  21  37  59  84 118 156 193 247 298 350
#     4  11  21  32  54  86 120 162 197 222 275 354
#     4   9  18  35  57  83 120 151 181 236 304 355
#     4  11  24  40  61  89 106 142 204 263 306 345
#     4  11  16  30  55  81 119 161 187 219 272 348
#     4  10  19  33  55  89 124 157 195 236 285 354
#     4  11  21  36  56  82 117 149 199 234 287 339
#
# _framework density 19.615556999999999
#
# number of rings (size 3 to 8) (size 9 to 14) (size 15 to 20)
#    0.000    1.500    3.750    4.875    0.000    1.000 
#    0.000    4.375    0.000    4.500    0.000    0.000 
#    0.000    0.000    0.000    0.000    0.000    0.000 
#
# Total GULP energy -178180.304677 kJ/mol
# GULP energy per Si atom -5568.134521 kJ/mol
# Density = 1.957091 g / cm^3
# Si number density = 19.615557 Si / 1000 Ang^3
#
#
#
# Elastic Constant Matrix: (Units=GPa)
#
#
# Indices 1 2 3 4 5 6 
#
# 1 30.0081 0.1643 17.1288 0.0000 -9.5003 0.0000
# 2 0.1643 73.6431 19.2387 0.0000 -5.9754 0.0000
# 3 17.1288 19.2387 143.0969 0.0000 -6.0043 0.0000
# 4 0.0000 0.0000 0.0000 16.6599 0.0000 1.9898
# 5 -9.5003 -5.9754 -6.0043 0.0000 38.8182 0.0000
# 6 0.0000 0.0000 0.0000 1.9898 0.0000 21.6237
#
#
#
# Elastic Compliance Matrix: (Units=1/GPa)
#
#
# Indices 1 2 3 4 5 6 
#
# 1 0.038757 0.001826 -0.004504 0.000000 0.009070 0.000000
# 2 0.001826 0.014298 -0.002043 0.000000 0.002332 0.000000
# 3 -0.004504 -0.002043 0.007793 0.000000 -0.000211 0.000000
# 4 0.000000 0.000000 0.000000 0.060692 0.000000 -0.005585
# 5 0.009070 0.002332 -0.000211 0.000000 0.028307 0.000000
# 6 0.000000 0.000000 0.000000 -0.005585 0.000000 0.046760
#
#
# Mechanical properties :
#
#
# Convention : Reuss Voigt Hill
#
# Bulk Modulus (GPa) = 19.45312 35.53463 27.49387
# Shear Modulus (GPa) = 22.40311 29.43476 25.91894
#
# Velocity S-wave (km/s) = 3.38318 3.87794 3.63898
# Velocity P-wave (km/s) = 5.01995 6.18111 5.63054
#
# Compressibility (1/GPa) = 0.05140564
#
# Stress axis : x y z
#
# Youngs Moduli (GPa) = 25.80199 69.94052 128.31652
#
# Poissons Ratio (x) = -0.12772 0.57796
# Poissons Ratio (y) = -0.04712 0.26215
# Poissons Ratio (z) = 0.11622 0.14289
#
# Static dielectric constant tensor:
#      x y z
#    x 1.751420 0.000000 0.035840 
#    y 0.000000 1.865550 0.000000 
#    z 0.035840 0.000000 1.793250 
# 
# From -- ./inp_files/40025.got.cif
#   From: 2010.05.17/outbox.cif.g08.bks.cpg/sg11_21_cif.got.tgz:40025.got - 2010.06.03 12:22:45.
