data_PCOD9159145
_publ_section_title
;
Structure prediction by ZEFSAII (Michael W. Deem and Ramdas Pophale) SiO2 
 PCOD9159145
Probable space group: P 21/M
;
_chemical_formula_sum "Si O2"
_cell_formula_units_Z 32
_cell_length_a 20.790557
_cell_length_b 8.517351
_cell_length_c 26.792369
_cell_angle_alpha 90.000000
_cell_angle_beta 158.714371
_cell_angle_gamma 90.000000
_cell_volume 1722.302311
_symmetry_space_group_name_H-M "P 21/M"
_symmetry_group_IT_number 11
_symmetry_cell_setting 'monoclinic'
loop_
_space_group_symop_operation_xyz
x,y,z
-x,1/2+y,-z
-x,-y,-z
x,1/2-y,z
loop_
_atom_site_type_symbol
_atom_site_label
_atom_site_fract_x
_atom_site_fract_y
_atom_site_fract_z
Si Si1 0.188789 0.060237 0.655103
Si Si2 0.302612 0.439859 0.848080
Si Si3 0.630466 0.562371 0.403349
Si Si4 0.287559 0.062425 0.204275
Si Si5 0.987288 0.560209 0.912907
Si Si6 0.005796 0.062284 0.711712
Si Si7 0.889961 0.439702 0.105417
Si Si8 0.512771 0.941332 0.207822
O O1 0.185642 0.250000 0.652283
O O2 0.232419 0.009209 0.742982
O O3 0.344255 0.008299 0.729898
O O4 0.000000 0.000000 0.500000
O O5 0.306176 0.250000 0.850936
O O6 0.167107 0.493649 0.793026
O O7 0.500000 0.500000 0.000000
O O8 0.640477 0.750000 0.409326
O O9 0.477218 0.511820 0.330787
O O10 0.820034 0.496101 0.555607
O O11 0.570996 0.506785 0.305119
O O12 0.303254 0.250000 0.214890
O O13 0.189506 0.014911 0.184785
O O14 0.153059 0.008808 0.063351
O O15 0.002755 0.750000 0.926483
O O16 0.001278 0.513290 0.865424
O O17 0.006512 0.250000 0.711516
O O18 0.035275 0.004614 0.789173
O O19 0.891202 0.250000 0.108888
O O20 0.686104 0.491142 0.949578
O O21 0.511037 0.750000 0.207117
#
# Coordination Sequence:
#
# PCOD9159145 Si02
#       8
#     4   4   4   4   4   4   4   4
#     4  10  20  35  54  79 107 140 178 225 276 325
#     4  10  22  39  59  81 111 147 188 231 279 336
#     4  11  21  37  58  82 112 153 193 228 275 338
#     4  10  19  32  55  87 118 147 179 229 284 328
#     4   9  18  34  57  84 114 147 188 228 272 333
#     4  11  24  39  54  82 118 148 184 237 288 334
#     4  10  19  37  60  82 108 145 188 232 273 330
#     4   9  18  33  57  82 105 135 184 232 267 320
#
# _framework density 18.57978
#
# number of rings (size 3 to 8) (size 9 to 14) (size 15 to 20)
#    0.000    2.000    1.250    2.625    0.000    3.500 
#    0.000    1.875    0.000    0.000    0.000    0.000 
#    0.000    0.000    0.000    0.000    0.000    0.000 
#
# Total GULP energy -178708.070775 kJ/mol
# GULP energy per Si atom -5584.627212 kJ/mol
# Density = 1.853749 g / cm^3
# Si number density = 18.579780 Si / 1000 Ang^3
#
#
#
# Elastic Constant Matrix: (Units=GPa)
#
#
# Indices 1 2 3 4 5 6 
#
# 1 140.5715 26.5697 47.8476 0.0000 0.6682 0.0000
# 2 26.5697 14.6867 14.6616 0.0000 -1.2301 0.0000
# 3 47.8476 14.6616 83.1684 0.0000 -11.1871 0.0000
# 4 0.0000 0.0000 0.0000 31.3833 0.0000 4.0841
# 5 0.6682 -1.2301 -11.1871 0.0000 30.1447 0.0000
# 6 0.0000 0.0000 0.0000 4.0841 0.0000 18.3389
#
#
#
# Elastic Compliance Matrix: (Units=1/GPa)
#
#
# Indices 1 2 3 4 5 6 
#
# 1 0.011818 -0.017558 -0.004037 0.000000 -0.002477 0.000000
# 2 -0.017558 0.108848 -0.008881 0.000000 0.001535 0.000000
# 3 -0.004037 -0.008881 0.016709 0.000000 0.005928 0.000000
# 4 0.000000 0.000000 0.000000 0.032815 0.000000 -0.007308
# 5 -0.002477 0.001535 0.005928 0.000000 0.035491 0.000000
# 6 0.000000 0.000000 0.000000 -0.007308 0.000000 0.056156
#
#
# Mechanical properties :
#
#
# Convention : Reuss Voigt Hill
#
# Bulk Modulus (GPa) = 13.08497 46.28715 29.68606
# Shear Modulus (GPa) = 14.35692 25.92989 20.14341
#
# Velocity S-wave (km/s) = 2.78280 3.73982 3.29623
# Velocity P-wave (km/s) = 4.16931 6.60417 5.52260
#
# Compressibility (1/GPa) = 0.07642356
#
# Stress axis : x y z
#
# Youngs Moduli (GPa) = 84.61367 9.18716 59.84664
#
# Poissons Ratio (x) = 0.16131 0.24161
# Poissons Ratio (y) = 1.48565 0.53149
# Poissons Ratio (z) = 0.34160 0.08159
#
# Static dielectric constant tensor:
#      x y z
#    x 1.652290 0.000000 0.010630 
#    y 0.000000 1.638700 0.000000 
#    z 0.010630 0.000000 1.594250 
# 
# From -- ./inp_files/72204.got.cif
#   From: 2010.05.17/outbox.cif.g08.bks.cpg/sg11_37_cif.got.tgz:72204.got - 2010.06.03 12:22:45.
