data_PCOD9159371
_publ_section_title
;
Structure prediction by ZEFSAII (Michael W. Deem and Ramdas Pophale) SiO2 
 PCOD9159371
Probable space group: P 21/M
;
_chemical_formula_sum "Si O2"
_cell_formula_units_Z 28
_cell_length_a 17.134915
_cell_length_b 8.659922
_cell_length_c 26.008737
_cell_angle_alpha 90.000000
_cell_angle_beta 154.569370
_cell_angle_gamma 90.000000
_cell_volume 1657.278257
_symmetry_space_group_name_H-M "P 21/M"
_symmetry_group_IT_number 11
_symmetry_cell_setting 'monoclinic'
loop_
_space_group_symop_operation_xyz
x,y,z
-x,1/2+y,-z
-x,-y,-z
x,1/2-y,z
loop_
_atom_site_type_symbol
_atom_site_label
_atom_site_fract_x
_atom_site_fract_y
_atom_site_fract_z
Si Si1 0.068871 0.436843 0.655494
Si Si2 0.669909 0.437873 0.388499
Si Si3 0.724201 0.935851 0.815836
Si Si4 0.299475 0.064733 0.892385
Si Si5 0.953165 0.933540 0.054822
Si Si6 0.354457 0.564409 0.745282
Si Si7 0.269029 0.566627 0.985646
O O1 0.074747 0.250000 0.655240
O O2 0.165628 0.480977 0.766362
O O3 0.186507 0.505107 0.678960
O O4 0.859614 0.486864 0.526329
O O5 0.666661 0.250000 0.386911
O O6 0.484684 0.487608 0.306157
O O7 0.663033 0.484550 0.324548
O O8 0.732056 0.750000 0.814174
O O9 0.815541 0.970643 0.925710
O O10 0.850094 0.013577 0.847991
O O11 0.309124 0.250000 0.899691
O O12 0.500000 0.000000 0.000000
O O13 0.236929 0.002271 0.910178
O O14 0.947540 0.750000 0.059261
O O15 0.883050 0.016845 0.063935
O O16 0.361946 0.750000 0.751360
O O17 0.539555 0.499298 0.879604
O O18 0.282053 0.750000 0.990072
#
# Coordination Sequence:
#
# PCOD9159371 Si02
#       7
#     4   4   4   4   4   4   4
#     4  10  21  36  54  77 106 143 182 218 260 318
#     4   9  18  34  54  78 110 144 176 212 262 319
#     4   9  17  32  53  78 109 142 171 208 262 322
#     4  11  22  36  55  78 106 140 181 225 267 309
#     4  10  19  33  53  80 109 137 172 217 267 317
#     4  11  20  33  53  78 110 144 175 216 265 316
#     4  12  23  35  54  78 107 142 181 223 267 315
#
# _framework density 16.89517
#
# number of rings (size 3 to 8) (size 9 to 14) (size 15 to 20)
#    0.000    1.714    2.857    3.000    0.000    1.143 
#    0.000    1.429    0.000    0.857    0.000    0.000 
#    0.000    0.000    0.000    0.000    0.000    0.000 
#
# Total GULP energy -156359.936209 kJ/mol
# GULP energy per Si atom -5584.283436 kJ/mol
# Density = 1.685672 g / cm^3
# Si number density = 16.895170 Si / 1000 Ang^3
#
#
#
# Elastic Constant Matrix: (Units=GPa)
#
#
# Indices 1 2 3 4 5 6 
#
# 1 108.0297 25.0133 58.8105 0.0000 22.2722 0.0000
# 2 25.0133 34.2503 27.0077 0.0000 2.9307 0.0000
# 3 58.8105 27.0077 117.5153 0.0000 21.8867 0.0000
# 4 0.0000 0.0000 0.0000 14.5351 0.0000 1.2622
# 5 22.2722 2.9307 21.8867 0.0000 22.2531 0.0000
# 6 0.0000 0.0000 0.0000 1.2622 0.0000 28.8869
#
#
#
# Elastic Compliance Matrix: (Units=1/GPa)
#
#
# Indices 1 2 3 4 5 6 
#
# 1 0.015232 -0.007016 -0.004093 0.000000 -0.010295 0.000000
# 2 -0.007016 0.039201 -0.007155 0.000000 0.008896 0.000000
# 3 -0.004093 -0.007155 0.013790 0.000000 -0.008524 0.000000
# 4 0.000000 0.000000 0.000000 0.069061 0.000000 -0.003018
# 5 -0.010295 0.008896 -0.008524 0.000000 0.062454 0.000000
# 6 0.000000 0.000000 0.000000 -0.003018 0.000000 0.034750
#
#
# Mechanical properties :
#
#
# Convention : Reuss Voigt Hill
#
# Bulk Modulus (GPa) = 31.55035 53.49537 42.52286
# Shear Modulus (GPa) = 17.75693 23.06594 20.41144
#
# Velocity S-wave (km/s) = 3.24544 3.69892 3.47958
# Velocity P-wave (km/s) = 5.72351 7.06927 6.43168
#
# Compressibility (1/GPa) = 0.03169537
#
# Stress axis : x y z
#
# Youngs Moduli (GPa) = 65.65189 25.50936 72.51706
#
# Poissons Ratio (x) = 0.17896 0.29681
# Poissons Ratio (y) = 0.46058 0.51888
# Poissons Ratio (z) = 0.26871 0.18253
#
# Static dielectric constant tensor:
#      x y z
#    x 1.554440 0.000000 0.006460 
#    y 0.000000 1.573340 0.000000 
#    z 0.006460 0.000000 1.562090 
# 
# From -- ./inp_files/37684.got.cif
#   From: 2010.05.17/outbox.cif.g08.bks.cpg/sg11_19_cif.got.tgz:37684.got - 2010.06.03 12:22:45.
