data_PCOD9159417
_publ_section_title
;
Structure prediction by ZEFSAII (Michael W. Deem and Ramdas Pophale) SiO2 
 PCOD9159417
Probable space group: P 21/M
;
_chemical_formula_sum "Si O2"
_cell_formula_units_Z 32
_cell_length_a 23.703052
_cell_length_b 8.601630
_cell_length_c 15.804133
_cell_angle_alpha 90.000000
_cell_angle_beta 31.155666
_cell_angle_gamma 90.000000
_cell_volume 1667.065807
_symmetry_space_group_name_H-M "P 21/M"
_symmetry_group_IT_number 11
_symmetry_cell_setting 'monoclinic'
loop_
_space_group_symop_operation_xyz
x,y,z
-x,1/2+y,-z
-x,-y,-z
x,1/2-y,z
loop_
_atom_site_type_symbol
_atom_site_label
_atom_site_fract_x
_atom_site_fract_y
_atom_site_fract_z
Si Si1 0.825659 0.438401 0.672870
Si Si2 0.466480 0.925037 0.794314
Si Si3 0.130122 0.562635 0.568578
Si Si4 0.590491 0.420966 0.937408
Si Si5 0.710562 0.561382 0.499722
Si Si6 0.771909 0.935896 0.921266
Si Si7 0.896581 0.939292 0.928793
Si Si8 0.879306 0.937739 0.137759
O O1 0.824739 0.250000 0.682752
O O2 0.891921 0.476718 0.502579
O O3 0.706814 0.499521 0.796168
O O4 0.834513 0.502952 0.756470
O O5 0.464447 0.750000 0.759639
O O6 0.588573 0.993034 0.630510
O O7 0.355249 0.012567 0.912044
O O8 0.452835 0.909345 0.912462
O O9 0.138983 0.750000 0.560158
O O10 0.236924 0.496191 0.478999
O O11 0.022691 0.511807 0.757585
O O12 0.611048 0.250000 0.875041
O O13 0.500000 0.500000 0.000000
O O14 0.705020 0.750000 0.510931
O O15 0.794284 0.512187 0.318530
O O16 0.776237 0.750000 0.912124
O O17 0.830350 0.992021 0.931733
O O18 0.896488 0.750000 0.926712
O O19 0.849986 0.986532 0.079541
O O20 0.882247 0.750000 0.136245
O O21 0.000000 0.000000 0.000000
#
# Coordination Sequence:
#
# PCOD9159417 Si02
#       8
#     4   4   4   4   4   4   4   4
#     4   9  19  33  48  71 103 139 175 214 262 308
#     4   9  19  35  50  70 104 139 170 214 267 308
#     4  10  19  33  54  78 108 143 174 210 265 321
#     4   9  16  26  41  62  92 127 163 204 249 296
#     4  10  20  33  54  83 110 135 170 218 266 311
#     4  10  20  35  54  74 100 141 187 219 252 305
#     4   9  19  35  54  77 107 140 172 215 266 312
#     4  10  19  35  57  81 109 138 168 208 263 319
#
# _framework density 19.195405000000001
#
# number of rings (size 3 to 8) (size 9 to 14) (size 15 to 20)
#    0.000    2.500    1.250    1.875    0.000    3.500 
#    0.000    3.125    0.000    0.000    0.000    0.000 
#    0.000    0.000    0.000    0.000    0.000    0.000 
#
# Total GULP energy -178152.753586 kJ/mol
# GULP energy per Si atom -5567.273550 kJ/mol
# Density = 1.915172 g / cm^3
# Si number density = 19.195405 Si / 1000 Ang^3
#
#
#
# Elastic Constant Matrix: (Units=GPa)
#
#
# Indices 1 2 3 4 5 6 
#
# 1 94.7553 11.6665 19.5862 0.0000 25.3677 0.0000
# 2 11.6665 13.8069 5.3124 0.0000 5.6462 0.0000
# 3 19.5862 5.3124 84.6106 0.0000 13.2476 0.0000
# 4 0.0000 0.0000 0.0000 15.1343 0.0000 2.1243
# 5 25.3677 5.6462 13.2476 0.0000 20.0467 0.0000
# 6 0.0000 0.0000 0.0000 2.1243 0.0000 15.7538
#
#
#
# Elastic Compliance Matrix: (Units=1/GPa)
#
#
# Indices 1 2 3 4 5 6 
#
# 1 0.016416 -0.006013 -0.000485 0.000000 -0.018759 0.000000
# 2 -0.006013 0.084280 -0.001533 0.000000 -0.015115 0.000000
# 3 -0.000485 -0.001533 0.013233 0.000000 -0.007699 0.000000
# 4 0.000000 0.000000 0.000000 0.067350 0.000000 -0.009082
# 5 -0.018759 -0.015115 -0.007699 0.000000 0.082967 0.000000
# 6 0.000000 0.000000 0.000000 -0.009082 0.000000 0.064701
#
#
# Mechanical properties :
#
#
# Convention : Reuss Voigt Hill
#
# Bulk Modulus (GPa) = 10.21810 29.58921 19.90365
# Shear Modulus (GPa) = 13.24038 20.62747 16.93393
#
# Velocity S-wave (km/s) = 2.62919 3.28167 2.97338
# Velocity P-wave (km/s) = 3.81466 5.45961 4.70951
#
# Compressibility (1/GPa) = 0.09786558
#
# Stress axis : x y z
#
# Youngs Moduli (GPa) = 60.91447 11.86523 75.56932
#
# Poissons Ratio (x) = 0.07135 0.03668
# Poissons Ratio (y) = 0.36630 0.11585
# Poissons Ratio (z) = 0.02957 0.01819
#
# Static dielectric constant tensor:
#      x y z
#    x 1.675010 0.000000 0.012450 
#    y 0.000000 1.643200 0.000000 
#    z 0.012450 0.000000 1.692110 
# 
# From -- ./inp_files/55522.got.cif
#   From: 2010.05.17/outbox.cif.g08.bks.cpg/sg11_28_cif.got.tgz:55522.got - 2010.06.03 12:22:45.
