data_PCOD9160992
_publ_section_title
;
Structure prediction by ZEFSAII (Michael W. Deem and Ramdas Pophale) SiO2 
 PCOD9160992
Probable space group: P 21/M
;
_chemical_formula_sum "Si O2"
_cell_formula_units_Z 32
_cell_length_a 15.315599
_cell_length_b 11.496965
_cell_length_c 14.875600
_cell_angle_alpha 90.000000
_cell_angle_beta 133.382632
_cell_angle_gamma 90.000000
_cell_volume 1903.690737
_symmetry_space_group_name_H-M "P 21/M"
_symmetry_group_IT_number 11
_symmetry_cell_setting 'monoclinic'
loop_
_space_group_symop_operation_xyz
x,y,z
-x,1/2+y,-z
-x,-y,-z
x,1/2-y,z
loop_
_atom_site_type_symbol
_atom_site_label
_atom_site_fract_x
_atom_site_fract_y
_atom_site_fract_z
Si Si1 0.717252 0.617425 0.419269
Si Si2 0.092418 0.386895 0.305629
Si Si3 0.724645 0.882422 0.929275
Si Si4 0.494591 0.492652 0.838939
Si Si5 0.861536 0.535147 0.198368
Si Si6 0.917368 0.888024 0.914776
Si Si7 0.935829 0.623445 0.434842
Si Si8 0.634153 0.119289 0.093378
O O1 0.680175 0.750000 0.413089
O O2 0.790872 0.569834 0.557053
O O3 0.604158 0.549739 0.300904
O O4 0.815911 0.620444 0.409677
O O5 0.080776 0.250000 0.319810
O O6 0.104109 0.397401 0.206944
O O7 0.972733 0.451516 0.253526
O O8 0.682794 0.750000 0.902264
O O9 0.610828 0.962308 0.868571
O O10 0.797204 0.901842 0.888902
O O11 0.817800 0.903550 0.076695
O O12 0.434803 0.586739 0.863870
O O13 0.542302 0.397743 0.944939
O O14 0.903337 0.618905 0.307161
O O15 0.746319 0.465297 0.154992
O O16 0.958654 0.750000 0.959914
O O17 0.000000 0.000000 0.000000
O O18 0.996069 0.750000 0.497449
O O19 0.000000 0.500000 0.500000
O O20 0.678403 0.250000 0.127589
#
# Coordination Sequence:
#
# PCOD9160992 Si02
#       8
#     4   4   4   4   4   4   4   4
#     4  10  20  36  54  75 111 152 188 225 267 325
#     4  10  20  34  57  83 112 145 184 229 280 336
#     4  10  21  36  57  79 107 140 178 231 284 331
#     4  10  20  35  50  74 106 148 191 223 275 321
#     4  11  19  33  53  81 111 141 185 220 285 329
#     4  10  20  38  61  87 111 141 180 230 288 338
#     4  11  22  35  52  79 115 154 190 226 271 333
#     4  10  20  31  49  76 109 145 188 233 269 320
#
# _framework density 16.809453000000001
#
# number of rings (size 3 to 8) (size 9 to 14) (size 15 to 20)
#    0.000    1.750    3.750    1.500    0.000    0.500 
#    0.000    1.250    0.000    0.000    0.000    0.000 
#    0.000    0.000    0.000    0.000    0.000    0.000 
#
# Total GULP energy -178287.801037 kJ/mol
# GULP energy per Si atom -5571.493782 kJ/mol
# Density = 1.677119 g / cm^3
# Si number density = 16.809453 Si / 1000 Ang^3
#
#
#
# Elastic Constant Matrix: (Units=GPa)
#
#
# Indices 1 2 3 4 5 6 
#
# 1 81.5593 28.1501 36.5686 0.0000 -10.5296 0.0000
# 2 28.1501 77.2295 30.6710 0.0000 3.1109 0.0000
# 3 36.5686 30.6710 101.7127 0.0000 -2.1618 0.0000
# 4 0.0000 0.0000 0.0000 2.2652 0.0000 -13.5328
# 5 -10.5296 3.1109 -2.1618 0.0000 22.4993 0.0000
# 6 0.0000 0.0000 0.0000 -13.5328 0.0000 4.8437
#
#
#
# Elastic Compliance Matrix: (Units=1/GPa)
#
#
# Indices 1 2 3 4 5 6 
#
# 1 0.016963 -0.004724 -0.004501 0.000000 0.008159 0.000000
# 2 -0.004724 0.016163 -0.003277 0.000000 -0.004761 0.000000
# 3 -0.004501 -0.003277 0.012428 0.000000 -0.000459 0.000000
# 4 0.000000 0.000000 0.000000 -0.028135 0.000000 -0.078604
# 5 0.008159 -0.004761 -0.000459 0.000000 0.048878 0.000000
# 6 0.000000 0.000000 0.000000 -0.078604 0.000000 -0.013158
#
#
# Mechanical properties :
#
#
# Convention : Reuss Voigt Hill
#
# Bulk Modulus (GPa) = 48.65888 50.14232 49.40060
# Shear Modulus (GPa) = 58.82736 16.92912 37.87824
#
# Velocity S-wave (km/s) = 5.92221 3.17696 4.75214
# Velocity P-wave (km/s) = 8.70480 6.58422 7.71769
#
# Compressibility (1/GPa) = 0.02055123
#
# Stress axis : x y z
#
# Youngs Moduli (GPa) = 58.95209 61.86783 80.46315
#
# Poissons Ratio (x) = 0.29228 0.36214
# Poissons Ratio (y) = 0.27850 0.26366
# Poissons Ratio (z) = 0.26532 0.20272
#
# Static dielectric constant tensor:
#      x y z
#    x 1.535990 0.000000 -0.006810 
#    y 0.000000 1.619450 0.000000 
#    z -0.006810 0.000000 1.581280 
# 
# From -- ./inp_files/43158.got.cif
#   From: 2010.05.17/outbox.cif.g08.bks.cpg/sg11_22_cif.got.tgz:43158.got - 2010.06.03 12:22:45.
