data_PCOD9160268
_publ_section_title
;
Structure prediction by ZEFSAII (Michael W. Deem and Ramdas Pophale) SiO2 
 PCOD9160268
Probable space group: P 21/M
;
_chemical_formula_sum "Si O2"
_cell_formula_units_Z 32
_cell_length_a 21.072603
_cell_length_b 7.754998
_cell_length_c 27.047591
_cell_angle_alpha 90.000000
_cell_angle_beta 159.272751
_cell_angle_gamma 90.000000
_cell_volume 1564.347336
_symmetry_space_group_name_H-M "P 21/M"
_symmetry_group_IT_number 11
_symmetry_cell_setting 'monoclinic'
loop_
_space_group_symop_operation_xyz
x,y,z
-x,1/2+y,-z
-x,-y,-z
x,1/2-y,z
loop_
_atom_site_type_symbol
_atom_site_label
_atom_site_fract_x
_atom_site_fract_y
_atom_site_fract_z
Si Si1 0.193569 0.042541 0.663020
Si Si2 0.291699 0.457787 0.843152
Si Si3 0.645462 0.540848 0.410534
Si Si4 0.286103 0.954924 0.199785
Si Si5 0.955298 0.541572 0.890754
Si Si6 0.026313 0.048104 0.733190
Si Si7 0.885462 0.453218 0.093391
Si Si8 0.522942 0.961123 0.211753
O O1 0.208701 0.250000 0.675766
O O2 0.219117 0.977403 0.737473
O O3 0.349973 0.979715 0.740247
O O4 0.000000 0.000000 0.500000
O O5 0.272200 0.250000 0.828839
O O6 0.176515 0.525286 0.805399
O O7 0.500000 0.500000 0.000000
O O8 0.651882 0.750000 0.416303
O O9 0.479286 0.480119 0.323421
O O10 0.603612 0.488908 0.323644
O O11 0.834115 0.476024 0.567901
O O12 0.291168 0.750000 0.195555
O O13 0.127028 0.020884 0.048064
O O14 0.221263 0.986487 0.208245
O O15 0.953331 0.750000 0.890452
O O16 0.989524 0.479873 0.859929
O O17 0.062321 0.250000 0.765626
O O18 0.036202 0.972397 0.795087
O O19 0.866782 0.250000 0.069595
O O20 0.681984 0.522620 0.942687
O O21 0.521425 0.750000 0.209535
#
# Coordination Sequence:
#
# PCOD9160268 Si02
#       8
#     4   4   4   4   4   4   4   4
#     4  10  20  34  53  78 106 137 173 218 269 318
#     4  10  22  39  57  79 108 143 184 226 271 324
#     4  10  19  35  57  81 108 144 185 220 263 324
#     4   9  17  31  53  82 113 140 173 220 268 320
#     4   9  17  31  54  83 111 138 175 223 269 317
#     4  11  24  38  52  78 116 147 177 225 276 322
#     4  10  19  36  59  81 105 140 185 226 264 318
#     4   9  17  32  57  82 102 130 178 228 263 308
#
# _framework density 20.455815000000001
#
# number of rings (size 3 to 8) (size 9 to 14) (size 15 to 20)
#    0.000    2.250    1.250    1.875    0.000    3.500 
#    0.000    1.875    0.000    0.000    0.000    0.000 
#    0.000    0.000    0.000    0.000    0.000    0.000 
#
# Total GULP energy -178667.342992 kJ/mol
# GULP energy per Si atom -5583.354468 kJ/mol
# Density = 2.040926 g / cm^3
# Si number density = 20.455815 Si / 1000 Ang^3
#
#
#
# Elastic Constant Matrix: (Units=GPa)
#
#
# Indices 1 2 3 4 5 6 
#
# 1 153.7784 0.4549 18.0671 0.0000 3.2775 0.0000
# 2 0.4549 19.1373 -11.5957 0.0000 3.3880 0.0000
# 3 18.0671 -11.5957 39.6746 0.0000 -7.7366 0.0000
# 4 0.0000 0.0000 0.0000 18.6290 0.0000 6.7460
# 5 3.2775 3.3880 -7.7366 0.0000 35.5760 0.0000
# 6 0.0000 0.0000 0.0000 6.7460 0.0000 7.5889
#
#
#
# Elastic Compliance Matrix: (Units=1/GPa)
#
#
# Indices 1 2 3 4 5 6 
#
# 1 0.007029 -0.002465 -0.004179 0.000000 -0.001322 0.000000
# 2 -0.002465 0.064515 0.019658 0.000000 -0.001642 0.000000
# 3 -0.004179 0.019658 0.034006 0.000000 0.005908 0.000000
# 4 0.000000 0.000000 0.000000 0.079162 0.000000 -0.070369
# 5 -0.001322 -0.001642 0.005908 0.000000 0.029672 0.000000
# 6 0.000000 0.000000 0.000000 -0.070369 0.000000 0.194324
#
#
# Mechanical properties :
#
#
# Convention : Reuss Voigt Hill
#
# Bulk Modulus (GPa) = 7.60014 25.16033 16.38024
# Shear Modulus (GPa) = 11.72224 26.06972 18.89598
#
# Velocity S-wave (km/s) = 2.39645 3.57380 3.04262
# Velocity P-wave (km/s) = 3.37353 5.41812 4.51313
#
# Compressibility (1/GPa) = 0.13157649
#
# Stress axis : x y z
#
# Youngs Moduli (GPa) = 142.26067 15.50037 29.40676
#
# Poissons Ratio (x) = 0.03822 0.12290
# Poissons Ratio (y) = 0.35074 -0.57808
# Poissons Ratio (z) = 0.59456 -0.30471
#
# Static dielectric constant tensor:
#      x y z
#    x 1.739430 0.000000 0.009260 
#    y 0.000000 1.762770 0.000000 
#    z 0.009260 0.000000 1.670710 
# 
# From -- ./inp_files/72203.got.cif
#   From: 2010.05.17/outbox.cif.g08.bks.cpg/sg11_37_cif.got.tgz:72203.got - 2010.06.03 12:22:45.
