data_PCOD9160305
_publ_section_title
;
Structure prediction by ZEFSAII (Michael W. Deem and Ramdas Pophale) SiO2 
 PCOD9160305
Probable space group: P 21/M
;
_chemical_formula_sum "Si O2"
_cell_formula_units_Z 32
_cell_length_a 20.368953
_cell_length_b 8.843216
_cell_length_c 12.419107
_cell_angle_alpha 90.000000
_cell_angle_beta 53.632356
_cell_angle_gamma 90.000000
_cell_volume 1801.310575
_symmetry_space_group_name_H-M "P 21/M"
_symmetry_group_IT_number 11
_symmetry_cell_setting 'monoclinic'
loop_
_space_group_symop_operation_xyz
x,y,z
-x,1/2+y,-z
-x,-y,-z
x,1/2-y,z
loop_
_atom_site_type_symbol
_atom_site_label
_atom_site_fract_x
_atom_site_fract_y
_atom_site_fract_z
Si Si1 0.490975 0.930132 0.179728
Si Si2 0.535274 0.429927 0.356883
Si Si3 0.369933 0.930125 0.107491
Si Si4 0.873945 0.931005 0.118130
Si Si5 0.982067 0.070051 0.190922
Si Si6 0.712156 0.569228 0.151911
Si Si7 0.216391 0.430169 0.156023
Si Si8 0.962125 0.430203 0.644486
O O1 0.503729 0.750000 0.176279
O O2 0.411852 0.957055 0.182444
O O3 0.488221 0.003981 0.299088
O O4 0.567092 0.001142 0.040810
O O5 0.500000 0.500000 0.500000
O O6 0.529087 0.250000 0.364865
O O7 0.629074 0.480981 0.251879
O O8 0.363564 0.750000 0.097178
O O9 0.283395 0.008125 0.173950
O O10 0.877961 0.750000 0.131471
O O11 0.783536 0.970111 0.166720
O O12 0.906819 0.015245 0.191219
O O13 0.937323 0.965310 0.959353
O O14 0.979785 0.250000 0.209305
O O15 0.989748 0.987673 0.296956
O O16 0.696478 0.750000 0.174405
O O17 0.747511 0.539954 0.998311
O O18 0.205754 0.250000 0.176866
O O19 0.130260 0.510889 0.253345
O O20 0.963849 0.250000 0.637665
O O21 0.000000 0.500000 0.500000
#
# Coordination Sequence:
#
# PCOD9160305 Si02
#       8
#     4   4   4   4   4   4   4   4
#     4  10  20  36  57  84 120 155 193 241 293 345
#     4  12  25  40  60  85 118 156 199 241 295 357
#     4  10  20  34  57  89 119 152 195 243 290 342
#     4   9  18  34  57  86 118 152 191 238 289 341
#     4  10  19  35  57  86 120 153 193 238 290 344
#     4  10  20  37  60  87 120 153 193 242 291 343
#     4  11  21  37  61  89 121 154 193 244 294 342
#     4  12  25  41  61  85 119 158 199 242 293 353
#
# _framework density 17.764844
#
# number of rings (size 3 to 8) (size 9 to 14) (size 15 to 20)
#    0.000    1.500    2.500    3.750    0.000    3.000 
#    0.000    1.250    0.000    6.000    0.000    0.000 
#    0.000    0.000    0.000    0.000    0.000    0.000 
#
# Total GULP energy -178818.686967 kJ/mol
# GULP energy per Si atom -5588.083968 kJ/mol
# Density = 1.772441 g / cm^3
# Si number density = 17.764844 Si / 1000 Ang^3
#
#
#
# Elastic Constant Matrix: (Units=GPa)
#
#
# Indices 1 2 3 4 5 6 
#
# 1 130.4406 75.4435 62.1450 0.0000 21.9293 0.0000
# 2 75.4435 117.9910 73.9815 0.0000 17.4685 0.0000
# 3 62.1450 73.9815 102.2937 0.0000 24.8082 0.0000
# 4 0.0000 0.0000 0.0000 28.3558 0.0000 0.1990
# 5 21.9293 17.4685 24.8082 0.0000 24.1965 0.0000
# 6 0.0000 0.0000 0.0000 0.1990 0.0000 34.5433
#
#
#
# Elastic Compliance Matrix: (Units=1/GPa)
#
#
# Indices 1 2 3 4 5 6 
#
# 1 0.013245 -0.006302 -0.002237 0.000000 -0.005160 0.000000
# 2 -0.006302 0.018509 -0.010251 0.000000 0.002859 0.000000
# 3 -0.002237 -0.010251 0.021644 0.000000 -0.012763 0.000000
# 4 0.000000 0.000000 0.000000 0.035268 0.000000 -0.000203
# 5 -0.005160 0.002859 -0.012763 0.000000 0.057026 0.000000
# 6 0.000000 0.000000 0.000000 -0.000203 0.000000 0.028950
#
#
# Mechanical properties :
#
#
# Convention : Reuss Voigt Hill
#
# Bulk Modulus (GPa) = 63.22210 85.98505 74.60358
# Shear Modulus (GPa) = 22.98917 26.69613 24.84265
#
# Velocity S-wave (km/s) = 3.60124 3.88074 3.74360
# Velocity P-wave (km/s) = 7.27719 8.28173 7.79566
#
# Compressibility (1/GPa) = 0.01581725
#
# Stress axis : x y z
#
# Youngs Moduli (GPa) = 75.50303 54.02834 46.20249
#
# Poissons Ratio (x) = 0.34048 0.10336
# Poissons Ratio (y) = 0.47581 0.47362
# Poissons Ratio (z) = 0.16891 0.55384
#
# Static dielectric constant tensor:
#      x y z
#    x 1.611340 0.000000 0.005970 
#    y 0.000000 1.588860 0.000000 
#    z 0.005970 0.000000 1.574600 
# 
# From -- ./inp_files/42743.got.cif
#   From: 2010.05.17/outbox.cif.g08.bks.cpg/sg11_22_cif.got.tgz:42743.got - 2010.06.03 12:22:45.
