data_PCOD9160751
_publ_section_title
;
Structure prediction by ZEFSAII (Michael W. Deem and Ramdas Pophale) SiO2 
 PCOD9160751
Probable space group: P 21/M
;
_chemical_formula_sum "Si O2"
_cell_formula_units_Z 24
_cell_length_a 12.770474
_cell_length_b 10.401150
_cell_length_c 11.413458
_cell_angle_alpha 90.000000
_cell_angle_beta 50.675830
_cell_angle_gamma 90.000000
_cell_volume 1172.753932
_symmetry_space_group_name_H-M "P 21/M"
_symmetry_group_IT_number 11
_symmetry_cell_setting 'monoclinic'
loop_
_space_group_symop_operation_xyz
x,y,z
-x,1/2+y,-z
-x,-y,-z
x,1/2-y,z
loop_
_atom_site_type_symbol
_atom_site_label
_atom_site_fract_x
_atom_site_fract_y
_atom_site_fract_z
Si Si1 0.938412 0.609466 0.694808
Si Si2 0.220909 0.250000 0.543600
Si Si3 0.499996 0.510069 0.141006
Si Si4 0.486645 0.750000 0.715877
Si Si5 0.193415 0.750000 0.912099
Si Si6 0.204121 0.983522 0.413049
Si Si7 0.212252 0.042064 0.973036
Si Si8 0.113168 0.250000 0.875128
O O1 0.887367 0.750000 0.696437
O O2 0.861696 0.506878 0.668038
O O3 0.898729 0.586080 0.855366
O O4 0.097475 0.601428 0.558655
O O5 0.381625 0.250000 0.459396
O O6 0.200765 0.121175 0.481939
O O7 0.127643 0.250000 0.724561
O O8 0.505237 0.371875 0.202771
O O9 0.356292 0.565500 0.286654
O O10 0.500000 0.500000 0.000000
O O11 0.638766 0.576033 0.083578
O O12 0.343954 0.750000 0.747728
O O13 0.198793 0.611824 0.972733
O O14 0.041927 0.750000 0.969707
O O15 0.184009 0.121888 0.875641
#
# Coordination Sequence:
#
# PCOD9160751 Si02
#       8
#     4   2   4   2   2   4   4   2
#     4  11  21  38  57  91 131 159 205 262 311 367
#     4  10  20  41  64  83 119 170 210 247 316 374
#     4  10  19  37  60  92 122 162 198 256 315 379
#     4   8  20  37  60  85 122 160 213 251 309 381
#     4  10  22  42  61  91 121 167 212 251 312 373
#     4  10  21  37  61  88 124 168 202 249 317 382
#     4  11  23  41  65  94 126 161 213 259 310 371
#     4  12  24  40  65  91 120 169 219 265 299 352
#
# _framework density 20.464651
#
# number of rings (size 3 to 8) (size 9 to 14) (size 15 to 20)
#    0.000    1.667    3.333    1.500    0.000    0.667 
#    4.500    9.167    0.000    0.000    0.000    0.000 
#    0.000    0.000    0.000    0.000    0.000    0.000 
#
# Total GULP energy -133758.489727 kJ/mol
# GULP energy per Si atom -5573.270405 kJ/mol
# Density = 2.041807 g / cm^3
# Si number density = 20.464651 Si / 1000 Ang^3
#
#
#
# Elastic Constant Matrix: (Units=GPa)
#
#
# Indices 1 2 3 4 5 6 
#
# 1 80.4840 6.7605 16.3503 0.0000 -20.5940 0.0000
# 2 6.7605 58.7621 16.5938 0.0000 -5.1001 0.0000
# 3 16.3503 16.5938 74.8732 0.0000 -7.6068 0.0000
# 4 0.0000 0.0000 0.0000 8.2577 0.0000 -6.9285
# 5 -20.5940 -5.1001 -7.6068 0.0000 33.7523 0.0000
# 6 0.0000 0.0000 0.0000 -6.9285 0.0000 5.9581
#
#
#
# Elastic Compliance Matrix: (Units=1/GPa)
#
#
# Indices 1 2 3 4 5 6 
#
# 1 0.015147 -0.000326 -0.002356 0.000000 0.008662 0.000000
# 2 -0.000326 0.018278 -0.003807 0.000000 0.001705 0.000000
# 3 -0.002356 -0.003807 0.014849 0.000000 0.001334 0.000000
# 4 0.000000 0.000000 0.000000 4.982212 0.000000 5.793671
# 5 0.008662 0.001705 0.001334 0.000000 0.035471 0.000000
# 6 0.000000 0.000000 0.000000 5.793671 0.000000 6.905132
#
#
# Mechanical properties :
#
#
# Convention : Reuss Voigt Hill
#
# Bulk Modulus (GPa) = 28.32920 32.61428 30.47174
# Shear Modulus (GPa) = 0.41681 21.22125 10.81903
#
# Velocity S-wave (km/s) = 0.45179 3.22370 2.30178
# Velocity P-wave (km/s) = 3.76101 5.46148 4.68898
#
# Compressibility (1/GPa) = 0.03529927
#
# Stress axis : x y z
#
# Youngs Moduli (GPa) = 66.01925 54.71004 67.34244
#
# Poissons Ratio (x) = 0.01782 0.15863
# Poissons Ratio (y) = 0.02150 0.25634
# Poissons Ratio (z) = 0.15551 0.20826
#
# Static dielectric constant tensor:
#      x y z
#    x 1.737570 0.000000 -0.052180 
#    y 0.000000 1.724750 0.000000 
#    z -0.052180 0.000000 1.706440 
# 
# From -- ./inp_files/34701.got.cif
#   From: 2010.05.17/outbox.cif.g08.bks.cpg/sg11_18_cif.got.tgz:34701.got - 2010.06.03 12:22:45.
