data_PCOD9160893
_publ_section_title
;
Structure prediction by ZEFSAII (Michael W. Deem and Ramdas Pophale) SiO2 
 PCOD9160893
Probable space group: P 21/M
;
_chemical_formula_sum "Si O2"
_cell_formula_units_Z 28
_cell_length_a 16.743734
_cell_length_b 20.241713
_cell_length_c 9.812271
_cell_angle_alpha 90.000000
_cell_angle_beta 27.538585
_cell_angle_gamma 90.000000
_cell_volume 1537.574188
_symmetry_space_group_name_H-M "P 21/M"
_symmetry_group_IT_number 11
_symmetry_cell_setting 'monoclinic'
loop_
_space_group_symop_operation_xyz
x,y,z
-x,1/2+y,-z
-x,-y,-z
x,1/2-y,z
loop_
_atom_site_type_symbol
_atom_site_label
_atom_site_fract_x
_atom_site_fract_y
_atom_site_fract_z
Si Si1 0.929374 0.903178 0.738053
Si Si2 0.448010 0.672985 0.074667
Si Si3 0.313008 0.944741 0.107149
Si Si4 0.250101 0.412432 0.280090
Si Si5 0.305209 0.521372 0.814638
Si Si6 0.937470 0.324174 0.226938
Si Si7 0.983309 0.433875 0.934729
O O1 0.862836 0.896745 0.684169
O O2 0.116434 0.937073 0.453483
O O3 0.961278 0.840340 0.785526
O O4 0.802583 0.954199 0.002655
O O5 0.464806 0.750000 0.005733
O O6 0.422554 0.615934 0.999044
O O7 0.268105 0.669076 0.431212
O O8 0.616499 0.647089 0.898073
O O9 0.357252 0.019643 0.085754
O O10 0.303280 0.940841 0.960136
O O11 0.126427 0.425534 0.598221
O O12 0.500000 0.500000 0.500000
O O13 0.204820 0.562001 0.851908
O O14 0.972396 0.250000 0.130989
O O15 0.992456 0.374493 0.027322
O O16 0.000000 0.500000 0.000000
#
# Coordination Sequence:
#
# PCOD9160893 Si02
#       7
#     4   4   4   4   4   4   4
#     4  10  19  41  59  84 116 157 194 242 294 353
#     4  10  23  39  58  86 117 157 200 242 291 349
#     4  10  19  39  60  86 119 153 196 244 294 349
#     4  11  21  36  64  91 118 151 202 249 289 351
#     4  11  22  34  58  93 118 146 194 247 298 346
#     4  10  23  41  60  83 121 161 195 239 304 358
#     4  12  22  38  61  92 123 154 194 246 299 351
#
# _framework density 18.210504
#
# number of rings (size 3 to 8) (size 9 to 14) (size 15 to 20)
#    0.000    1.429    4.286    2.143    6.000    1.143 
#    0.000    0.714    0.000    0.000    0.000    0.000 
#    0.000    0.000    0.000    0.000    0.000    0.000 
#
# Total GULP energy -156118.887527 kJ/mol
# GULP energy per Si atom -5575.674555 kJ/mol
# Density = 1.816906 g / cm^3
# Si number density = 18.210504 Si / 1000 Ang^3
#
#
#
# Elastic Constant Matrix: (Units=GPa)
#
#
# Indices 1 2 3 4 5 6 
#
# 1 93.1864 60.0498 35.6148 0.0000 6.6776 0.0000
# 2 60.0498 128.5162 24.7146 0.0000 9.3249 0.0000
# 3 35.6148 24.7146 26.4776 0.0000 0.7516 0.0000
# 4 0.0000 0.0000 0.0000 21.6430 0.0000 0.2978
# 5 6.6776 9.3249 0.7516 0.0000 26.1269 0.0000
# 6 0.0000 0.0000 0.0000 0.2978 0.0000 20.3217
#
#
#
# Elastic Compliance Matrix: (Units=1/GPa)
#
#
# Indices 1 2 3 4 5 6 
#
# 1 0.026322 -0.006397 -0.029332 0.000000 -0.003600 0.000000
# 2 -0.006397 0.011301 -0.001878 0.000000 -0.002345 0.000000
# 3 -0.029332 -0.001878 0.078807 0.000000 0.005900 0.000000
# 4 0.000000 0.000000 0.000000 0.046214 0.000000 -0.000677
# 5 -0.003600 -0.002345 0.005900 0.000000 0.039862 0.000000
# 6 0.000000 0.000000 0.000000 -0.000677 0.000000 0.049218
#
#
# Mechanical properties :
#
#
# Convention : Reuss Voigt Hill
#
# Bulk Modulus (GPa) = 24.26192 54.32651 39.29422
# Shear Modulus (GPa) = 14.67667 22.13839 18.40753
#
# Velocity S-wave (km/s) = 2.84200 3.49046 3.18279
# Velocity P-wave (km/s) = 4.91134 6.79277 5.92718
#
# Compressibility (1/GPa) = 0.04121685
#
# Stress axis : x y z
#
# Youngs Moduli (GPa) = 37.99132 88.48485 12.68921
#
# Poissons Ratio (x) = 0.56604 0.37220
# Poissons Ratio (y) = 0.24303 0.02383
# Poissons Ratio (z) = 1.11436 0.16615
#
# Static dielectric constant tensor:
#      x y z
#    x 2.026170 0.000000 -1.560560 
#    y 0.000000 1.344470 0.000000 
#    z -1.560560 0.000000 8.174310 
# 
# From -- ./inp_files/23164.got.cif
#   From: 2010.05.17/outbox.cif.g08.bks.cpg/sg11_12_cif.got.tgz:23164.got - 2010.06.03 12:22:45.
