data_PCOD9160353
_publ_section_title
;
Structure prediction by ZEFSAII (Michael W. Deem and Ramdas Pophale) SiO2 
 PCOD9160353
Probable space group: P 21/M
;
_chemical_formula_sum "Si O2"
_cell_formula_units_Z 32
_cell_length_a 14.692318
_cell_length_b 8.674802
_cell_length_c 25.335860
_cell_angle_alpha 90.000000
_cell_angle_beta 150.031133
_cell_angle_gamma 90.000000
_cell_volume 1613.045257
_symmetry_space_group_name_H-M "P 21/M"
_symmetry_group_IT_number 11
_symmetry_cell_setting 'monoclinic'
loop_
_space_group_symop_operation_xyz
x,y,z
-x,1/2+y,-z
-x,-y,-z
x,1/2-y,z
loop_
_atom_site_type_symbol
_atom_site_label
_atom_site_fract_x
_atom_site_fract_y
_atom_site_fract_z
Si Si1 0.805635 0.071115 0.390367
Si Si2 0.586443 0.436296 0.096746
Si Si3 0.990811 0.935967 0.679173
Si Si4 0.201422 0.434336 0.107901
Si Si5 0.326021 0.570652 0.281386
Si Si6 0.516588 0.561477 0.841048
Si Si7 0.699516 0.435847 0.615466
Si Si8 0.271158 0.428575 0.544393
O O1 0.831024 0.250000 0.392922
O O2 0.678621 0.008620 0.280238
O O3 0.700539 0.039018 0.391973
O O4 0.000000 0.000000 0.500000
O O5 0.583315 0.250000 0.093558
O O6 0.476703 0.485128 0.094484
O O7 0.799116 0.482902 0.209309
O O8 0.500000 0.500000 0.000000
O O9 0.981553 0.750000 0.678980
O O10 0.902730 0.972521 0.577852
O O11 0.855768 0.008288 0.654301
O O12 0.198172 0.250000 0.104031
O O13 0.271935 0.485233 0.200869
O O14 0.330155 0.488897 0.123856
O O15 0.000000 0.500000 0.000000
O O16 0.273864 0.750000 0.248174
O O17 0.251579 0.513942 0.300012
O O18 0.545389 0.565176 0.397372
O O19 0.516958 0.750000 0.840186
O O20 0.500000 0.500000 0.500000
O O21 0.689231 0.250000 0.609918
O O22 0.251321 0.250000 0.552330
#
# Coordination Sequence:
#
# PCOD9160353 Si02
#       8
#     4   4   4   4   4   4   4   4
#     4  11  21  35  56  87 119 154 199 239 296 362
#     4  10  22  42  65  85 115 156 201 250 299 352
#     4  10  21  39  61  88 122 162 203 249 311 367
#     4  11  23  41  64  91 121 158 204 249 299 361
#     4  10  21  38  59  85 119 159 199 246 302 356
#     4   9  20  40  63  84 114 156 195 236 292 358
#     4  11  22  37  59  88 124 165 206 250 304 366
#     4  10  19  35  58  84 119 156 194 244 300 356
#
# _framework density 19.838253999999999
#
# number of rings (size 3 to 8) (size 9 to 14) (size 15 to 20)
#    0.000    1.750    2.500    1.875    0.000    5.000 
#    0.000    7.500    0.000    0.000    0.000    0.000 
#    0.000    0.000    0.000    0.000    0.000    0.000 
#
# Total GULP energy -178605.427768 kJ/mol
# GULP energy per Si atom -5581.419618 kJ/mol
# Density = 1.979310 g / cm^3
# Si number density = 19.838254 Si / 1000 Ang^3
#
#
#
# Elastic Constant Matrix: (Units=GPa)
#
#
# Indices 1 2 3 4 5 6 
#
# 1 120.8048 19.1892 56.2055 0.0000 -17.6106 0.0000
# 2 19.1892 18.6318 24.2545 0.0000 -3.2947 0.0000
# 3 56.2055 24.2545 129.7755 0.0000 -14.8283 0.0000
# 4 0.0000 0.0000 0.0000 31.2679 0.0000 -1.5066
# 5 -17.6106 -3.2947 -14.8283 0.0000 32.9555 0.0000
# 6 0.0000 0.0000 0.0000 -1.5066 0.0000 30.8082
#
#
#
# Elastic Compliance Matrix: (Units=1/GPa)
#
#
# Indices 1 2 3 4 5 6 
#
# 1 0.011450 -0.006905 -0.003213 0.000000 0.003983 0.000000
# 2 -0.006905 0.075137 -0.011191 0.000000 -0.001214 0.000000
# 3 -0.003213 -0.011191 0.011454 0.000000 0.002318 0.000000
# 4 0.000000 0.000000 0.000000 0.032057 0.000000 0.001568
# 5 0.003983 -0.001214 0.002318 0.000000 0.033394 0.000000
# 6 0.000000 0.000000 0.000000 0.001568 0.000000 0.032536
#
#
# Mechanical properties :
#
#
# Convention : Reuss Voigt Hill
#
# Bulk Modulus (GPa) = 18.04344 52.05674 35.05009
# Shear Modulus (GPa) = 19.44611 30.31051 24.87831
#
# Velocity S-wave (km/s) = 3.13426 3.91305 3.54511
# Velocity P-wave (km/s) = 4.71309 6.83473 5.87055
#
# Compressibility (1/GPa) = 0.05542180
#
# Stress axis : x y z
#
# Youngs Moduli (GPa) = 87.33335 13.30900 87.30821
#
# Poissons Ratio (x) = 0.09190 0.28056
# Poissons Ratio (y) = 0.60308 0.97704
# Poissons Ratio (z) = 0.28064 0.14894
#
# Static dielectric constant tensor:
#      x y z
#    x 1.749290 0.000000 0.010240 
#    y 0.000000 1.689160 0.000000 
#    z 0.010240 0.000000 1.697540 
# 
# From -- ./inp_files/55729.got.cif
#   From: 2010.05.17/outbox.cif.g08.bks.cpg/sg11_28_cif.got.tgz:55729.got - 2010.06.03 12:22:45.
