data_PCOD9160870
_publ_section_title
;
Structure prediction by ZEFSAII (Michael W. Deem and Ramdas Pophale) SiO2 
 PCOD9160870
Probable space group: P 21/M
;
_chemical_formula_sum "Si O2"
_cell_formula_units_Z 28
_cell_length_a 10.279164
_cell_length_b 8.175990
_cell_length_c 16.286133
_cell_angle_alpha 90.000000
_cell_angle_beta 119.868038
_cell_angle_gamma 90.000000
_cell_volume 1186.923472
_symmetry_space_group_name_H-M "P 21/M"
_symmetry_group_IT_number 11
_symmetry_cell_setting 'monoclinic'
loop_
_space_group_symop_operation_xyz
x,y,z
-x,1/2+y,-z
-x,-y,-z
x,1/2-y,z
loop_
_atom_site_type_symbol
_atom_site_label
_atom_site_fract_x
_atom_site_fract_y
_atom_site_fract_z
Si Si1 0.609499 0.049201 0.724538
Si Si2 0.979008 0.444719 0.624752
Si Si3 0.137422 0.571313 0.093132
Si Si4 0.669015 0.940379 0.565322
Si Si5 0.034197 0.565053 0.823053
Si Si6 0.699819 0.947510 0.306802
Si Si7 0.354832 0.446329 0.903140
O O1 0.615901 0.250000 0.722311
O O2 0.701697 0.995089 0.835067
O O3 0.436870 0.995693 0.679308
O O4 0.685044 0.975934 0.667452
O O5 0.993067 0.250000 0.641202
O O6 0.803752 0.480236 0.555326
O O7 0.009736 0.538579 0.719451
O O8 0.127442 0.496824 0.619740
O O9 0.167735 0.750000 0.069383
O O10 0.062320 0.567651 0.159343
O O11 0.000000 0.500000 0.000000
O O12 0.676124 0.750000 0.549781
O O13 0.500000 0.000000 0.500000
O O14 0.992109 0.750000 0.833557
O O15 0.208370 0.531034 0.895650
O O16 0.697015 0.750000 0.311209
O O17 0.654287 0.987897 0.197548
O O18 0.339369 0.250000 0.903267
O O19 0.500000 0.500000 0.000000
#
# Coordination Sequence:
#
# PCOD9160870 Si02
#       7
#     4   4   4   4   4   4   4
#     4  10  21  41  65  90 124 164 203 256 316 372
#     4  10  19  38  64  90 121 156 198 248 302 362
#     4  11  23  36  56  84 122 163 207 256 311 367
#     4  12  25  42  67  97 125 159 203 251 306 374
#     4  11  21  35  55  79 113 157 206 251 301 359
#     4   8  18  36  60  86 117 158 199 245 309 369
#     4  10  20  34  53  80 114 155 206 258 308 362
#
# _framework density 23.590399000000001
#
# number of rings (size 3 to 8) (size 9 to 14) (size 15 to 20)
#    0.000    1.714    1.429    4.714    2.000    0.571 
#    0.000    5.000    0.000    0.000    0.000    0.000 
#    0.000    0.000    0.000    0.000    0.000    0.000 
#
# Total GULP energy -156212.367645 kJ/mol
# GULP energy per Si atom -5579.013130 kJ/mol
# Density = 2.353671 g / cm^3
# Si number density = 23.590399 Si / 1000 Ang^3
#
#
#
# Elastic Constant Matrix: (Units=GPa)
#
#
# Indices 1 2 3 4 5 6 
#
# 1 145.3805 9.3734 27.9360 0.0000 38.7004 0.0000
# 2 9.3734 69.1494 3.9384 0.0000 7.0249 0.0000
# 3 27.9360 3.9384 95.7761 0.0000 39.2348 0.0000
# 4 0.0000 0.0000 0.0000 25.0296 0.0000 10.3976
# 5 38.7004 7.0249 39.2348 0.0000 47.6271 0.0000
# 6 0.0000 0.0000 0.0000 10.3976 0.0000 21.0127
#
#
#
# Elastic Compliance Matrix: (Units=1/GPa)
#
#
# Indices 1 2 3 4 5 6 
#
# 1 0.008810 -0.000460 0.000534 0.000000 -0.007531 0.000000
# 2 -0.000460 0.014717 0.000400 0.000000 -0.002127 0.000000
# 3 0.000534 0.000400 0.015804 0.000000 -0.013513 0.000000
# 4 0.000000 0.000000 0.000000 0.050290 0.000000 -0.024885
# 5 -0.007531 -0.002127 -0.013513 0.000000 0.038562 0.000000
# 6 0.000000 0.000000 0.000000 -0.024885 0.000000 0.059904
#
#
# Mechanical properties :
#
#
# Convention : Reuss Voigt Hill
#
# Bulk Modulus (GPa) = 24.82535 43.64463 34.23499
# Shear Modulus (GPa) = 24.92969 36.67108 30.80038
#
# Velocity S-wave (km/s) = 3.25433 3.94698 3.61727
# Velocity P-wave (km/s) = 4.96661 6.26999 5.65597
#
# Compressibility (1/GPa) = 0.04028141
#
# Stress axis : x y z
#
# Youngs Moduli (GPa) = 113.50323 67.94851 63.27457
#
# Poissons Ratio (x) = 0.03123 -0.03381
# Poissons Ratio (y) = 0.05216 -0.02532
# Poissons Ratio (z) = -0.06065 -0.02719
#
# Static dielectric constant tensor:
#      x y z
#    x 1.870190 0.000000 0.063780 
#    y 0.000000 1.839270 0.000000 
#    z 0.063780 0.000000 2.025730 
# 
# From -- ./inp_files/64266.got.cif
#   From: 2010.05.17/outbox.cif.g08.bks.cpg/sg11_33_cif.got.tgz:64266.got - 2010.06.03 12:22:45.
