data_PCOD9160071
_publ_section_title
;
Structure prediction by ZEFSAII (Michael W. Deem and Ramdas Pophale) SiO2 
 PCOD9160071
Probable space group: P 21/M
;
_chemical_formula_sum "Si O2"
_cell_formula_units_Z 32
_cell_length_a 11.211815
_cell_length_b 9.138643
_cell_length_c 20.732850
_cell_angle_alpha 90.000000
_cell_angle_beta 53.215203
_cell_angle_gamma 90.000000
_cell_volume 1701.334342
_symmetry_space_group_name_H-M "P 21/M"
_symmetry_group_IT_number 11
_symmetry_cell_setting 'monoclinic'
loop_
_space_group_symop_operation_xyz
x,y,z
-x,1/2+y,-z
-x,-y,-z
x,1/2-y,z
loop_
_atom_site_type_symbol
_atom_site_label
_atom_site_fract_x
_atom_site_fract_y
_atom_site_fract_z
Si Si1 0.889844 0.922917 0.259998
Si Si2 0.895682 0.919162 0.584214
Si Si3 0.494945 0.575059 0.174244
Si Si4 0.222986 0.578292 0.965654
Si Si5 0.425731 0.424178 0.585655
Si Si6 0.050111 0.578975 0.886150
Si Si7 0.152941 0.575282 0.266470
Si Si8 0.543385 0.578819 0.676542
O O1 0.892893 0.750000 0.243196
O O2 0.752915 0.945323 0.353240
O O3 0.045680 0.965037 0.242428
O O4 0.867928 0.013185 0.202087
O O5 0.938739 0.750000 0.575238
O O6 0.723298 0.926305 0.618211
O O7 0.901833 0.995056 0.651662
O O8 0.000000 0.000000 0.500000
O O9 0.513083 0.750000 0.174185
O O10 0.621840 0.506493 0.088439
O O11 0.328306 0.543779 0.202230
O O12 0.505314 0.500764 0.241605
O O13 0.243463 0.750000 0.972067
O O14 0.148355 0.562412 0.918823
O O15 0.103236 0.508211 0.052616
O O16 0.500000 0.500000 0.500000
O O17 0.455127 0.250000 0.575561
O O18 0.485907 0.496387 0.631975
O O19 0.019826 0.750000 0.887258
O O20 0.138362 0.750000 0.280640
O O21 0.497378 0.750000 0.692311
#
# Coordination Sequence:
#
# PCOD9160071 Si02
#       8
#     4   4   4   4   4   4   4   4
#     4  10  22  40  59  79 112 152 186 227 282 338
#     4  10  21  35  55  80 106 139 182 234 283 331
#     4  10  19  34  58  85 112 144 185 233 279 329
#     4  10  20  35  58  86 118 149 183 230 279 331
#     4  11  24  39  57  82 112 147 188 233 282 337
#     4  10  21  36  57  87 116 147 186 229 276 331
#     4   9  20  38  57  79 109 147 188 229 280 336
#     4  10  21  37  55  78 110 144 183 228 279 336
#
# _framework density 18.808767
#
# number of rings (size 3 to 8) (size 9 to 14) (size 15 to 20)
#    0.000    2.000    0.000    3.000    1.750    7.000 
#    0.000    0.625    0.000    0.000    0.000    0.000 
#    0.000    0.000    0.000    0.000    0.000    0.000 
#
# Total GULP energy -178752.735838 kJ/mol
# GULP energy per Si atom -5586.022995 kJ/mol
# Density = 1.876596 g / cm^3
# Si number density = 18.808767 Si / 1000 Ang^3
#
#
#
# Elastic Constant Matrix: (Units=GPa)
#
#
# Indices 1 2 3 4 5 6 
#
# 1 44.7822 30.7356 7.0129 0.0000 5.1474 0.0000
# 2 30.7356 77.9240 41.6709 0.0000 -9.8794 0.0000
# 3 7.0129 41.6709 82.2961 0.0000 -16.2716 0.0000
# 4 0.0000 0.0000 0.0000 36.9591 0.0000 -2.8800
# 5 5.1474 -9.8794 -16.2716 0.0000 17.5841 0.0000
# 6 0.0000 0.0000 0.0000 -2.8800 0.0000 25.3431
#
#
#
# Elastic Compliance Matrix: (Units=1/GPa)
#
#
# Indices 1 2 3 4 5 6 
#
# 1 0.036445 -0.017973 0.002312 0.000000 -0.018627 0.000000
# 2 -0.017973 0.026520 -0.009682 0.000000 0.011202 0.000000
# 3 0.002312 -0.009682 0.019151 0.000000 0.011605 0.000000
# 4 0.000000 0.000000 0.000000 0.027299 0.000000 0.003102
# 5 -0.018627 0.011202 0.011605 0.000000 0.079355 0.000000
# 6 0.000000 0.000000 0.000000 0.003102 0.000000 0.039811
#
#
# Mechanical properties :
#
#
# Convention : Reuss Voigt Hill
#
# Bulk Modulus (GPa) = 31.81652 40.42680 36.12166
# Shear Modulus (GPa) = 17.25668 24.34945 20.80307
#
# Velocity S-wave (km/s) = 3.03228 3.60193 3.32931
# Velocity P-wave (km/s) = 5.40483 6.23208 5.83314
#
# Compressibility (1/GPa) = 0.03143021
#
# Stress axis : x y z
#
# Youngs Moduli (GPa) = 27.43885 37.70758 52.21556
#
# Poissons Ratio (x) = 0.67771 -0.12073
# Poissons Ratio (y) = 0.49315 0.50555
# Poissons Ratio (z) = -0.06344 0.36509
#
# Static dielectric constant tensor:
#      x y z
#    x 1.658330 0.000000 -0.024540 
#    y 0.000000 1.626510 0.000000 
#    z -0.024540 0.000000 1.622410 
# 
# From -- ./inp_files/45302.got.cif
#   From: 2010.05.17/outbox.cif.g08.bks.cpg/sg11_23_cif.got.tgz:45302.got - 2010.06.03 12:22:45.
