data_PCOD9160967
_publ_section_title
;
Structure prediction by ZEFSAII (Michael W. Deem and Ramdas Pophale) SiO2 
 PCOD9160967
Probable space group: P 21/M
;
_chemical_formula_sum "Si O2"
_cell_formula_units_Z 32
_cell_length_a 24.048481
_cell_length_b 7.583576
_cell_length_c 17.279767
_cell_angle_alpha 90.000000
_cell_angle_beta 31.370850
_cell_angle_gamma 90.000000
_cell_volume 1640.526088
_symmetry_space_group_name_H-M "P 21/M"
_symmetry_group_IT_number 11
_symmetry_cell_setting 'monoclinic'
loop_
_space_group_symop_operation_xyz
x,y,z
-x,1/2+y,-z
-x,-y,-z
x,1/2-y,z
loop_
_atom_site_type_symbol
_atom_site_label
_atom_site_fract_x
_atom_site_fract_y
_atom_site_fract_z
Si Si1 0.168705 0.967264 0.155586
Si Si2 0.381774 0.032907 0.472863
Si Si3 0.943800 0.542545 0.379589
Si Si4 0.824087 0.463057 0.676505
Si Si5 0.382552 0.959209 0.169190
Si Si6 0.373653 0.459245 0.651937
Si Si7 0.626575 0.454228 0.177426
Si Si8 0.737879 0.956455 0.535872
O O1 0.169090 0.750000 0.153780
O O2 0.157535 0.022411 0.258094
O O3 0.063972 0.027648 0.233228
O O4 0.280297 0.029535 0.986788
O O5 0.384583 0.250000 0.470018
O O6 0.337198 0.979630 0.610253
O O7 0.505680 0.972531 0.316935
O O8 0.310845 0.970883 0.485384
O O9 0.949334 0.750000 0.355335
O O10 0.905709 0.525740 0.513975
O O11 0.847860 0.466904 0.440877
O O12 0.827794 0.250000 0.672124
O O13 0.707483 0.520338 0.784479
O O14 0.372083 0.750000 0.188195
O O15 0.349957 0.032618 0.291552
O O16 0.500000 0.000000 0.000000
O O17 0.500000 0.500000 0.500000
O O18 0.357846 0.250000 0.675703
O O19 0.335318 0.537716 0.778443
O O20 0.615560 0.250000 0.167976
O O21 0.757495 0.750000 0.497887
#
# Coordination Sequence:
#
# PCOD9160967 Si02
#       8
#     4   4   4   4   4   4   4   4
#     4   9  17  29  47  68  89 118 154 188 223 266
#     4   8  15  27  47  68  86 116 150 176 212 272
#     4   9  17  30  47  67  90 115 150 196 229 253
#     4   9  18  31  47  64  85 120 158 186 220 270
#     4  10  20  31  44  63  90 122 151 183 225 267
#     4   9  16  29  47  67  92 118 146 179 221 271
#     4   9  17  29  46  67  91 118 150 183 220 269
#     4   9  17  30  48  67  88 116 152 186 220 264
#
# _framework density 19.505939000000001
#
# number of rings (size 3 to 8) (size 9 to 14) (size 15 to 20)
#    0.000    3.000    0.000    1.875    1.750    0.500 
#    0.000    4.375    0.000    0.750    0.000    0.000 
#    0.000    0.000    0.000    0.000    0.000    0.500 
#
# Total GULP energy -178307.859339 kJ/mol
# GULP energy per Si atom -5572.120604 kJ/mol
# Density = 1.946154 g / cm^3
# Si number density = 19.505939 Si / 1000 Ang^3
#
#
#
# Elastic Constant Matrix: (Units=GPa)
#
#
# Indices 1 2 3 4 5 6 
#
# 1 129.3820 -0.4164 23.2528 0.0000 7.6503 0.0000
# 2 -0.4164 41.8466 -1.6930 0.0000 -3.9842 0.0000
# 3 23.2528 -1.6930 33.4809 0.0000 -9.3335 0.0000
# 4 0.0000 0.0000 0.0000 7.2878 0.0000 8.0378
# 5 7.6503 -3.9842 -9.3335 0.0000 11.8815 0.0000
# 6 0.0000 0.0000 0.0000 8.0378 0.0000 11.2914
#
#
#
# Elastic Compliance Matrix: (Units=1/GPa)
#
#
# Indices 1 2 3 4 5 6 
#
# 1 0.011078 -0.002110 -0.012786 0.000000 -0.017884 0.000000
# 2 -0.002110 0.025641 0.007090 0.000000 0.015526 0.000000
# 3 -0.012786 0.007090 0.053858 0.000000 0.052918 0.000000
# 4 0.000000 0.000000 0.000000 0.638550 0.000000 -0.454556
# 5 -0.017884 0.015526 0.052918 0.000000 0.142456 0.000000
# 6 0.000000 0.000000 0.000000 -0.454556 0.000000 0.412142
#
#
# Mechanical properties :
#
#
# Convention : Reuss Voigt Hill
#
# Bulk Modulus (GPa) = 13.33938 27.44403 20.39170
# Shear Modulus (GPa) = 3.77551 18.32988 11.05269
#
# Velocity S-wave (km/s) = 1.39276 3.06879 2.38299
# Velocity P-wave (km/s) = 3.07243 5.16302 4.24833
#
# Compressibility (1/GPa) = 0.07496600
#
# Stress axis : x y z
#
# Youngs Moduli (GPa) = 90.27209 39.00017 18.56726
#
# Poissons Ratio (x) = 0.08228 0.23740
# Poissons Ratio (y) = 0.19046 -0.13164
# Poissons Ratio (z) = 1.15420 -0.27652
#
# Static dielectric constant tensor:
#      x y z
#    x 1.708240 0.000000 -0.034880 
#    y 0.000000 1.737870 0.000000 
#    z -0.034880 0.000000 1.566420 
# 
# From -- ./inp_files/43759.got.cif
#   From: 2010.05.17/outbox.cif.g08.bks.cpg/sg11_22_cif.got.tgz:43759.got - 2010.06.03 12:22:45.
