data_PCOD9160026
_publ_section_title
;
Structure prediction by ZEFSAII (Michael W. Deem and Ramdas Pophale) SiO2 
 PCOD9160026
Probable space group: P 21/M
;
_chemical_formula_sum "Si O2"
_cell_formula_units_Z 32
_cell_length_a 22.632716
_cell_length_b 7.601643
_cell_length_c 14.251340
_cell_angle_alpha 90.000000
_cell_angle_beta 37.172439
_cell_angle_gamma 90.000000
_cell_volume 1481.467018
_symmetry_space_group_name_H-M "P 21/M"
_symmetry_group_IT_number 11
_symmetry_cell_setting 'monoclinic'
loop_
_space_group_symop_operation_xyz
x,y,z
-x,1/2+y,-z
-x,-y,-z
x,1/2-y,z
loop_
_atom_site_type_symbol
_atom_site_label
_atom_site_fract_x
_atom_site_fract_y
_atom_site_fract_z
Si Si1 0.336837 0.462863 0.794902
Si Si2 0.197420 0.043509 0.310796
Si Si3 0.908677 0.961297 0.182118
Si Si4 0.057370 0.460651 0.650555
Si Si5 0.158221 0.462091 0.151480
Si Si6 0.300614 0.034029 0.627896
Si Si7 0.490561 0.042545 0.285739
Si Si8 0.420780 0.959598 0.020795
O O1 0.336273 0.250000 0.795296
O O2 0.325909 0.521878 0.701664
O O3 0.435416 0.520596 0.721497
O O4 0.245193 0.524620 0.973689
O O5 0.172239 0.250000 0.337792
O O6 0.133332 0.968718 0.476915
O O7 0.172427 0.969351 0.239446
O O8 0.313181 0.029466 0.180065
O O9 0.901015 0.750000 0.197149
O O10 0.925699 0.029848 0.265904
O O11 0.806686 0.024716 0.267448
O O12 0.000000 0.000000 0.000000
O O13 0.071366 0.250000 0.638080
O O14 0.947503 0.493527 0.755220
O O15 0.166356 0.250000 0.143971
O O16 0.301423 0.250000 0.627022
O O17 0.385029 0.972987 0.450001
O O18 0.477242 0.250000 0.285002
O O19 0.540246 0.969207 0.128651
O O20 0.409992 0.750000 0.026864
O O21 0.500000 0.000000 0.000000
#
# Coordination Sequence:
#
# PCOD9160026 Si02
#       8
#     4   4   4   4   4   4   4   4
#     4  10  19  34  57  84 114 149 185 229 284 335
#     4  10  21  39  60  85 116 150 191 236 285 340
#     4  10  21  39  60  82 112 148 189 233 280 339
#     4  10  22  36  58  86 112 150 194 238 285 339
#     4  10  20  35  57  84 117 153 186 232 287 338
#     4   9  19  35  57  82 111 149 188 226 279 338
#     4  10  21  37  58  84 111 147 190 231 276 333
#     4  11  24  39  60  86 116 155 192 233 283 338
#
# _framework density 21.600211000000002
#
# number of rings (size 3 to 8) (size 9 to 14) (size 15 to 20)
#    0.000    2.000    1.250    1.875    1.750    3.500 
#    0.000    1.250    0.000    0.000    0.000    0.000 
#    0.000    0.000    0.000    0.000    0.000    0.000 
#
# Total GULP energy -178862.206103 kJ/mol
# GULP energy per Si atom -5589.443941 kJ/mol
# Density = 2.155105 g / cm^3
# Si number density = 21.600211 Si / 1000 Ang^3
#
#
#
# Elastic Constant Matrix: (Units=GPa)
#
#
# Indices 1 2 3 4 5 6 
#
# 1 95.9842 -19.0061 31.0760 0.0000 -16.8963 0.0000
# 2 -19.0061 43.4090 -7.1305 0.0000 10.0708 0.0000
# 3 31.0760 -7.1305 147.4994 0.0000 -17.9198 0.0000
# 4 0.0000 0.0000 0.0000 11.6902 0.0000 -11.0121
# 5 -16.8963 10.0708 -17.9198 0.0000 31.4842 0.0000
# 6 0.0000 0.0000 0.0000 -11.0121 0.0000 21.9240
#
#
#
# Elastic Compliance Matrix: (Units=1/GPa)
#
#
# Indices 1 2 3 4 5 6 
#
# 1 0.012642 0.004211 -0.001933 0.000000 0.004337 0.000000
# 2 0.004211 0.026295 -0.000390 0.000000 -0.006373 0.000000
# 3 -0.001933 -0.000390 0.007581 0.000000 0.003403 0.000000
# 4 0.000000 0.000000 0.000000 0.162365 0.000000 0.081554
# 5 0.004337 -0.006373 0.003403 0.000000 0.038065 0.000000
# 6 0.000000 0.000000 0.000000 0.081554 0.000000 0.086576
#
#
# Mechanical properties :
#
#
# Convention : Reuss Voigt Hill
#
# Bulk Modulus (GPa) = 19.88310 32.97458 26.42884
# Shear Modulus (GPa) = 14.42951 31.81656 23.12303
#
# Velocity S-wave (km/s) = 2.58742 3.84210 3.27540
# Velocity P-wave (km/s) = 4.26044 5.91450 5.15425
#
# Compressibility (1/GPa) = 0.05029398
#
# Stress axis : x y z
#
# Youngs Moduli (GPa) = 79.10445 38.03006 131.90093
#
# Poissons Ratio (x) = -0.16015 0.25495
# Poissons Ratio (y) = -0.33313 0.05149
# Poissons Ratio (z) = 0.15290 0.01485
#
# Static dielectric constant tensor:
#      x y z
#    x 1.740870 0.000000 0.032640 
#    y 0.000000 1.818810 0.000000 
#    z 0.032640 0.000000 1.731300 
# 
# From -- ./inp_files/55607.got.cif
#   From: 2010.05.17/outbox.cif.g08.bks.cpg/sg11_28_cif.got.tgz:55607.got - 2010.06.03 12:22:45.
