data_PCOD9160277
_publ_section_title
;
Structure prediction by ZEFSAII (Michael W. Deem and Ramdas Pophale) SiO2 
 PCOD9160277
Probable space group: P 21/M
;
_chemical_formula_sum "Si O2"
_cell_formula_units_Z 24
_cell_length_a 10.496978
_cell_length_b 15.351213
_cell_length_c 8.188328
_cell_angle_alpha 90.000000
_cell_angle_beta 56.757664
_cell_angle_gamma 90.000000
_cell_volume 1103.558104
_symmetry_space_group_name_H-M "P 21/M"
_symmetry_group_IT_number 11
_symmetry_cell_setting 'monoclinic'
loop_
_space_group_symop_operation_xyz
x,y,z
-x,1/2+y,-z
-x,-y,-z
x,1/2-y,z
loop_
_atom_site_type_symbol
_atom_site_label
_atom_site_fract_x
_atom_site_fract_y
_atom_site_fract_z
Si Si1 0.930794 0.495866 0.816279
Si Si2 0.540147 0.598018 0.910524
Si Si3 0.736579 0.651116 0.077047
Si Si4 0.235374 0.996894 0.420559
Si Si5 0.433273 0.853523 0.443894
Si Si6 0.737772 0.151836 0.097337
O O1 0.847926 0.489704 0.696798
O O2 0.107819 0.494589 0.648804
O O3 0.869886 0.583142 0.946428
O O4 0.869163 0.416068 0.965070
O O5 0.654465 0.579569 0.679536
O O6 0.388635 0.643609 0.955985
O O7 0.500000 0.500000 0.000000
O O8 0.631619 0.646766 0.987123
O O9 0.788070 0.750000 0.069128
O O10 0.612236 0.623439 0.300793
O O11 0.336957 0.912600 0.387923
O O12 0.422580 0.750000 0.416322
O O13 0.355745 0.869011 0.672815
O O14 0.795725 0.250000 0.067728
#
# Coordination Sequence:
#
# PCOD9160277 Si02
#       6
#     4   4   4   4   4   4
#     4  10  21  37  56  83 114 147 187 225 281 330
#     4  11  18  36  59  82 102 144 185 233 277 324
#     4  10  19  35  57  82 110 142 186 234 276 327
#     4  10  20  36  56  81 112 144 184 232 272 334
#     4  10  21  35  55  84 112 148 191 228 274 329
#     4  11  22  37  57  82 114 148 186 231 278 329
#
# _framework density 21.747834000000001
#
# number of rings (size 3 to 8) (size 9 to 14) (size 15 to 20)
#    0.000    1.667    5.000    0.500    0.000    6.000 
#    0.000    7.500    0.000    4.000    0.000    0.000 
#    0.000    0.000    0.000    0.000    0.000    0.000 
#
# Total GULP energy -134144.654103 kJ/mol
# GULP energy per Si atom -5589.360588 kJ/mol
# Density = 2.169834 g / cm^3
# Si number density = 21.747834 Si / 1000 Ang^3
#
#
#
# Elastic Constant Matrix: (Units=GPa)
#
#
# Indices 1 2 3 4 5 6 
#
# 1 45.2328 7.3827 14.1614 0.0000 -3.6220 0.0000
# 2 7.3827 78.3562 70.2404 0.0000 -14.5530 0.0000
# 3 14.1614 70.2404 173.3458 0.0000 -34.3140 0.0000
# 4 0.0000 0.0000 0.0000 29.8012 0.0000 8.4582
# 5 -3.6220 -14.5530 -34.3140 0.0000 40.1383 0.0000
# 6 0.0000 0.0000 0.0000 8.4582 0.0000 -4.7966
#
#
#
# Elastic Compliance Matrix: (Units=1/GPa)
#
#
# Indices 1 2 3 4 5 6 
#
# 1 0.022726 -0.000742 -0.001448 0.000000 0.000544 0.000000
# 2 -0.000742 0.020072 -0.007999 0.000000 0.000372 0.000000
# 3 -0.001448 -0.007999 0.010266 0.000000 0.005745 0.000000
# 4 0.000000 0.000000 0.000000 0.022363 0.000000 0.039435
# 5 0.000544 0.000372 0.005745 0.000000 0.030009 0.000000
# 6 0.000000 0.000000 0.000000 0.039435 0.000000 -0.138943
#
#
# Mechanical properties :
#
#
# Convention : Reuss Voigt Hill
#
# Bulk Modulus (GPa) = 30.59516 53.38931 41.99224
# Shear Modulus (GPa) = -2238.23216 26.70526 -1105.76345
#
# Velocity S-wave (km/s) = -32.11556 3.50801 -22.57325
# Velocity P-wave (km/s) = 36.89327 6.40396 25.69146
#
# Compressibility (1/GPa) = 0.03268491
#
# Stress axis : x y z
#
# Youngs Moduli (GPa) = 44.00261 49.82172 97.41350
#
# Poissons Ratio (x) = 0.03696 0.14109
# Poissons Ratio (y) = 0.03265 0.77919
# Poissons Ratio (z) = 0.06373 0.39851
#
# Static dielectric constant tensor:
#      x y z
#    x 1.794540 0.000000 0.010540 
#    y 0.000000 1.751380 0.000000 
#    z 0.010540 0.000000 1.849890 
# 
# From -- ./inp_files/12530.got.cif
#   From: 2010.05.17/outbox.cif.g08.bks.cpg/sg11_7_cif.got.tgz:12530.got - 2010.06.03 12:22:45.
