data_PCOD9160792
_publ_section_title
;
Structure prediction by ZEFSAII (Michael W. Deem and Ramdas Pophale) SiO2 
 PCOD9160792
Probable space group: P 21/M
;
_chemical_formula_sum "Si O2"
_cell_formula_units_Z 32
_cell_length_a 16.895850
_cell_length_b 17.253865
_cell_length_c 12.676486
_cell_angle_alpha 90.000000
_cell_angle_beta 24.232448
_cell_angle_gamma 90.000000
_cell_volume 1516.751724
_symmetry_space_group_name_H-M "P 21/M"
_symmetry_group_IT_number 11
_symmetry_cell_setting 'monoclinic'
loop_
_space_group_symop_operation_xyz
x,y,z
-x,1/2+y,-z
-x,-y,-z
x,1/2-y,z
loop_
_atom_site_type_symbol
_atom_site_label
_atom_site_fract_x
_atom_site_fract_y
_atom_site_fract_z
Si Si1 0.960031 0.894118 0.847898
Si Si2 0.165450 0.568227 0.986827
Si Si3 0.508109 0.608003 0.891433
Si Si4 0.390721 0.928288 0.262039
Si Si5 0.077361 0.160827 0.545441
Si Si6 0.776110 0.658847 0.855192
Si Si7 0.518546 0.160817 0.298613
Si Si8 0.926715 0.837355 0.118554
O O1 0.881469 0.855762 0.836953
O O2 0.188363 0.909519 0.560947
O O3 0.854094 0.976684 0.987832
O O4 0.923266 0.845253 0.997315
O O5 0.041924 0.604880 0.233739
O O6 0.071672 0.602583 0.995292
O O7 0.376761 0.602055 0.750418
O O8 0.571716 0.520286 0.786234
O O9 0.700593 0.655239 0.686233
O O10 0.412844 0.645029 0.904499
O O11 0.385326 0.601357 0.147229
O O12 0.576137 0.888067 0.089706
O O13 0.011708 0.250000 0.634258
O O14 0.090624 0.135812 0.407019
O O15 0.734943 0.750000 0.891718
O O16 0.555109 0.250000 0.283924
O O17 0.289351 0.148036 0.577841
O O18 0.981616 0.750000 0.083702
#
# Coordination Sequence:
#
# PCOD9160792 Si02
#       8
#     4   4   4   4   4   4   4   4
#     4  12  25  42  67  95 129 173 214 257 320 393
#     4  12  24  40  66  97 126 164 214 268 321 376
#     4  10  19  38  63  93 130 164 207 261 318 378
#     4  10  22  40  62  93 129 170 210 256 320 383
#     4  10  19  37  62  91 130 165 205 265 318 366
#     4  10  24  41  60  92 132 171 213 263 315 378
#     4  11  23  39  63  93 123 164 213 265 324 374
#     4  11  25  45  64  88 127 167 216 273 318 375
#
# _framework density 21.097719000000001
#
# number of rings (size 3 to 8) (size 9 to 14) (size 15 to 20)
#    0.000    1.250    2.500    3.000    1.750    3.500 
#    0.000    0.000    0.000    0.000    0.000    0.000 
#    0.000    0.000    0.000    0.000    0.000    0.000 
#
# Total GULP energy -179024.105071 kJ/mol
# GULP energy per Si atom -5594.503283 kJ/mol
# Density = 2.104970 g / cm^3
# Si number density = 21.097719 Si / 1000 Ang^3
#
#
#
# Elastic Constant Matrix: (Units=GPa)
#
#
# Indices 1 2 3 4 5 6 
#
# 1 101.1577 -0.6967 4.9081 0.0000 12.6629 0.0000
# 2 -0.6967 47.1130 1.3113 0.0000 0.9669 0.0000
# 3 4.9081 1.3113 18.4586 0.0000 7.4083 0.0000
# 4 0.0000 0.0000 0.0000 23.4616 0.0000 -7.2118
# 5 12.6629 0.9669 7.4083 0.0000 20.2283 0.0000
# 6 0.0000 0.0000 0.0000 -7.2118 0.0000 47.2276
#
#
#
# Elastic Compliance Matrix: (Units=1/GPa)
#
#
# Indices 1 2 3 4 5 6 
#
# 1 0.010731 0.000301 -0.000203 0.000000 -0.006658 0.000000
# 2 0.000301 0.021281 -0.001299 0.000000 -0.000730 0.000000
# 3 -0.000203 -0.001299 0.063593 0.000000 -0.023101 0.000000
# 4 0.000000 0.000000 0.000000 0.044722 0.000000 0.006829
# 5 -0.006658 -0.000730 -0.023101 0.000000 0.062099 0.000000
# 6 0.000000 0.000000 0.000000 0.006829 0.000000 0.022217
#
#
# Mechanical properties :
#
#
# Convention : Reuss Voigt Hill
#
# Bulk Modulus (GPa) = 10.72916 19.75277 15.24096
# Shear Modulus (GPa) = 19.37143 28.93060 24.15101
#
# Velocity S-wave (km/s) = 3.03343 3.70708 3.38704
# Velocity P-wave (km/s) = 4.16718 5.26366 4.74718
#
# Compressibility (1/GPa) = 0.09320397
#
# Stress axis : x y z
#
# Youngs Moduli (GPa) = 93.18908 46.98999 15.72497
#
# Poissons Ratio (x) = -0.01414 0.00319
# Poissons Ratio (y) = -0.02805 0.02043
# Poissons Ratio (z) = 0.01888 0.06103
#
# Static dielectric constant tensor:
#      x y z
#    x 1.745460 0.000000 0.004930 
#    y 0.000000 1.713520 0.000000 
#    z 0.004930 0.000000 1.756150 
# 
# From -- ./inp_files/39969.got.cif
#   From: 2010.05.17/outbox.cif.g08.bks.cpg/sg11_20_cif.got.tgz:39969.got - 2010.06.03 12:22:45.
