data_PCOD9160219
_publ_section_title
;
Structure prediction by ZEFSAII (Michael W. Deem and Ramdas Pophale) SiO2 
 PCOD9160219
Probable space group: P 21/M
;
_chemical_formula_sum "Si O2"
_cell_formula_units_Z 28
_cell_length_a 7.585168
_cell_length_b 13.380264
_cell_length_c 11.768205
_cell_angle_alpha 90.000000
_cell_angle_beta 103.623180
_cell_angle_gamma 90.000000
_cell_volume 1160.770619
_symmetry_space_group_name_H-M "P 21/M"
_symmetry_group_IT_number 11
_symmetry_cell_setting 'monoclinic'
loop_
_space_group_symop_operation_xyz
x,y,z
-x,1/2+y,-z
-x,-y,-z
x,1/2-y,z
loop_
_atom_site_type_symbol
_atom_site_label
_atom_site_fract_x
_atom_site_fract_y
_atom_site_fract_z
Si Si1 0.280751 0.367410 0.630168
Si Si2 0.843625 0.947882 0.716124
Si Si3 0.544053 0.078405 0.371815
Si Si4 0.426208 0.859712 0.888370
Si Si5 0.867922 0.361344 0.578412
Si Si6 0.176905 0.477312 0.832939
Si Si7 0.841132 0.861971 0.967342
O O1 0.331053 0.250000 0.620691
O O2 0.410604 0.458950 0.610419
O O3 0.261050 0.395642 0.761242
O O4 0.069853 0.382191 0.556180
O O5 0.667888 0.896762 0.632158
O O6 0.836867 0.916022 0.845914
O O7 0.823726 0.061742 0.671725
O O8 0.061457 0.945548 0.734909
O O9 0.558514 0.111749 0.242868
O O10 0.702229 0.130507 0.466165
O O11 0.344015 0.750000 0.888353
O O12 0.628208 0.856059 0.967158
O O13 0.308918 0.948700 0.920127
O O14 0.882312 0.250000 0.626241
O O15 0.069267 0.418334 0.914045
O O16 0.911570 0.750000 0.962905
#
# Coordination Sequence:
#
# PCOD9160219 Si02
#       7
#     4   4   4   4   4   4   4
#     4   9  19  34  54  80 105 135 178 223 265 312
#     4  10  22  36  52  80 110 140 180 220 262 316
#     4  10  19  35  56  78 109 141 175 219 266 319
#     4   9  19  34  54  80 105 135 178 223 265 312
#     4  10  20  36  56  76 104 143 181 220 268 315
#     4  10  19  35  56  78 109 141 175 219 266 319
#     4  10  20  36  56  76 104 143 181 220 268 315
#
# _framework density 24.121907
#
# number of rings (size 3 to 8) (size 9 to 14) (size 15 to 20)
#    0.000    2.286    0.000    2.571    0.000    2.286 
#    0.000    1.429    0.000    0.000    0.000    0.000 
#    0.000    0.000    0.000    0.000    0.000    0.000 
#
# Total GULP energy -155894.764800 kJ/mol
# GULP energy per Si atom -5567.670171 kJ/mol
# Density = 2.406700 g / cm^3
# Si number density = 24.121907 Si / 1000 Ang^3
#
#
#
# Elastic Constant Matrix: (Units=GPa)
#
#
# Indices 1 2 3 4 5 6 
#
# 1 56.2830 27.2197 -7.4865 0.0000 21.3155 0.0000
# 2 27.2197 104.5375 1.3692 0.0000 14.2989 0.0000
# 3 -7.4865 1.3692 66.0578 0.0000 9.4160 0.0000
# 4 0.0000 0.0000 0.0000 15.9353 0.0000 1.6291
# 5 21.3155 14.2989 9.4160 0.0000 30.3921 0.0000
# 6 0.0000 0.0000 0.0000 1.6291 0.0000 24.2929
#
#
#
# Elastic Compliance Matrix: (Units=1/GPa)
#
#
# Indices 1 2 3 4 5 6 
#
# 1 0.028250 -0.004775 0.006073 0.000000 -0.019448 0.000000
# 2 -0.004775 0.011047 -0.000530 0.000000 -0.001684 0.000000
# 3 0.006073 -0.000530 0.017167 0.000000 -0.009328 0.000000
# 4 0.000000 0.000000 0.000000 0.063187 0.000000 -0.004237
# 5 -0.019448 -0.001684 -0.009328 0.000000 0.050225 0.000000
# 6 0.000000 0.000000 0.000000 -0.004237 0.000000 0.041448
#
#
# Mechanical properties :
#
#
# Convention : Reuss Voigt Hill
#
# Bulk Modulus (GPa) = 17.24186 29.89813 23.57000
# Shear Modulus (GPa) = 21.82245 27.84247 24.83246
#
# Velocity S-wave (km/s) = 3.01104 3.40110 3.21200
# Velocity P-wave (km/s) = 4.38769 5.27682 4.85266
#
# Compressibility (1/GPa) = 0.05799838
#
# Stress axis : x y z
#
# Youngs Moduli (GPa) = 35.39855 90.52577 58.25079
#
# Poissons Ratio (x) = 0.43227 -0.35374
# Poissons Ratio (y) = 0.16903 0.03088
# Poissons Ratio (z) = -0.21496 0.04799
#
# Static dielectric constant tensor:
#      x y z
#    x 2.090540 0.000000 0.034200 
#    y 0.000000 1.973890 0.000000 
#    z 0.034200 0.000000 1.940610 
# 
# From -- ./inp_files/21942.got.cif
#   From: 2010.05.17/outbox.cif.g08.bks.cpg/sg11_11_cif.got.tgz:21942.got - 2010.06.03 12:22:45.
