data_PCOD9160093
_publ_section_title
;
Structure prediction by ZEFSAII (Michael W. Deem and Ramdas Pophale) SiO2 
 PCOD9160093
Probable space group: P 21/M
;
_chemical_formula_sum "Si O2"
_cell_formula_units_Z 28
_cell_length_a 22.108586
_cell_length_b 8.784344
_cell_length_c 14.936780
_cell_angle_alpha 90.000000
_cell_angle_beta 29.636030
_cell_angle_gamma 90.000000
_cell_volume 1434.443744
_symmetry_space_group_name_H-M "P 21/M"
_symmetry_group_IT_number 11
_symmetry_cell_setting 'monoclinic'
loop_
_space_group_symop_operation_xyz
x,y,z
-x,1/2+y,-z
-x,-y,-z
x,1/2-y,z
loop_
_atom_site_type_symbol
_atom_site_label
_atom_site_fract_x
_atom_site_fract_y
_atom_site_fract_z
Si Si1 0.946573 0.433368 0.160035
Si Si2 0.385022 0.932893 0.200486
Si Si3 0.335776 0.566591 0.463789
Si Si4 0.126578 0.931544 0.233850
Si Si5 0.840060 0.568041 0.618374
Si Si6 0.832656 0.932875 0.003970
Si Si7 0.392556 0.431662 0.578981
O O1 0.950638 0.250000 0.149286
O O2 0.807002 0.480066 0.353144
O O3 0.000000 0.500000 0.000000
O O4 0.035382 0.478945 0.126698
O O5 0.386056 0.750000 0.194417
O O6 0.391357 0.977822 0.296859
O O7 0.258918 0.991911 0.318995
O O8 0.500000 0.000000 0.000000
O O9 0.341048 0.750000 0.464096
O O10 0.394496 0.496166 0.476460
O O11 0.135805 0.750000 0.231661
O O12 0.981480 0.971984 0.414193
O O13 0.178246 0.011052 0.256210
O O14 0.189338 0.987636 0.062249
O O15 0.827544 0.750000 0.630147
O O16 0.830300 0.750000 0.994432
O O17 0.733685 0.971820 0.207402
O O18 0.500000 0.500000 0.500000
O O19 0.401109 0.250000 0.565154
#
# Coordination Sequence:
#
# PCOD9160093 Si02
#       7
#     4   4   4   4   4   4   4
#     4  10  19  34  58  88 120 152 189 237 292 351
#     4  11  24  42  64  89 120 160 204 251 301 356
#     4  10  22  40  63  89 120 156 194 243 302 355
#     4  10  21  36  60  91 120 155 197 245 301 358
#     4  10  21  39  61  88 121 156 197 248 302 357
#     4  10  21  37  57  86 121 157 194 239 298 356
#     4  11  24  41  61  84 116 157 200 243 290 350
#
# _framework density 19.519762
#
# number of rings (size 3 to 8) (size 9 to 14) (size 15 to 20)
#    0.000    1.714    1.429    2.571    0.000    6.857 
#    0.000    1.429    0.000    0.000    0.000    0.000 
#    0.000    0.000    0.000    0.000    0.000    0.000 
#
# Total GULP energy -156492.514782 kJ/mol
# GULP energy per Si atom -5589.018385 kJ/mol
# Density = 1.947533 g / cm^3
# Si number density = 19.519762 Si / 1000 Ang^3
#
#
#
# Elastic Constant Matrix: (Units=GPa)
#
#
# Indices 1 2 3 4 5 6 
#
# 1 160.6851 44.5510 61.5408 0.0000 19.3630 0.0000
# 2 44.5510 34.2993 33.2349 0.0000 7.4147 0.0000
# 3 61.5408 33.2349 79.9264 0.0000 20.3022 0.0000
# 4 0.0000 0.0000 0.0000 29.0361 0.0000 1.7411
# 5 19.3630 7.4147 20.3022 0.0000 39.6625 0.0000
# 6 0.0000 0.0000 0.0000 1.7411 0.0000 37.6221
#
#
#
# Elastic Compliance Matrix: (Units=1/GPa)
#
#
# Indices 1 2 3 4 5 6 
#
# 1 0.010514 -0.009806 -0.003655 0.000000 -0.001429 0.000000
# 2 -0.009806 0.058048 -0.017295 0.000000 0.002789 0.000000
# 3 -0.003655 -0.017295 0.024418 0.000000 -0.007481 0.000000
# 4 0.000000 0.000000 0.000000 0.034536 0.000000 -0.001598
# 5 -0.001429 0.002789 -0.007481 0.000000 0.029218 0.000000
# 6 0.000000 0.000000 0.000000 -0.001598 0.000000 0.026654
#
#
# Mechanical properties :
#
#
# Convention : Reuss Voigt Hill
#
# Bulk Modulus (GPa) = 31.77938 61.50711 46.64325
# Shear Modulus (GPa) = 19.57783 30.30308 24.94045
#
# Velocity S-wave (km/s) = 3.17041 3.94436 3.57837
# Velocity P-wave (km/s) = 5.45142 7.23344 6.40471
#
# Compressibility (1/GPa) = 0.03146694
#
# Stress axis : x y z
#
# Youngs Moduli (GPa) = 95.10895 17.22704 40.95375
#
# Poissons Ratio (x) = 0.16893 0.14969
# Poissons Ratio (y) = 0.93267 0.70831
# Poissons Ratio (z) = 0.34763 0.29795
#
# Static dielectric constant tensor:
#      x y z
#    x 1.661490 0.000000 -0.004830 
#    y 0.000000 1.651820 0.000000 
#    z -0.004830 0.000000 1.685840 
# 
# From -- ./inp_files/54464.got.cif
#   From: 2010.05.17/outbox.cif.g08.bks.cpg/sg11_28_cif.got.tgz:54464.got - 2010.06.03 12:22:45.
