data_PCOD9160402
_publ_section_title
;
Structure prediction by ZEFSAII (Michael W. Deem and Ramdas Pophale) SiO2 
 PCOD9160402
Probable space group: P 21/M
;
_chemical_formula_sum "Si O2"
_cell_formula_units_Z 32
_cell_length_a 21.400914
_cell_length_b 8.826828
_cell_length_c 11.966799
_cell_angle_alpha 90.000000
_cell_angle_beta 131.017739
_cell_angle_gamma 90.000000
_cell_volume 1705.602897
_symmetry_space_group_name_H-M "P 21/M"
_symmetry_group_IT_number 11
_symmetry_cell_setting 'monoclinic'
loop_
_space_group_symop_operation_xyz
x,y,z
-x,1/2+y,-z
-x,-y,-z
x,1/2-y,z
loop_
_atom_site_type_symbol
_atom_site_label
_atom_site_fract_x
_atom_site_fract_y
_atom_site_fract_z
Si Si1 0.223131 0.571710 0.815668
Si Si2 0.459602 0.923472 0.786009
Si Si3 0.738083 0.932033 0.901494
Si Si4 0.071483 0.431970 0.506239
Si Si5 0.045695 0.432051 0.217662
Si Si6 0.371731 0.079382 0.872050
Si Si7 0.544476 0.933251 0.659355
Si Si8 0.129212 0.931067 0.103496
O O1 0.207538 0.750000 0.805453
O O2 0.155906 0.493559 0.657713
O O3 0.311116 0.535065 0.862623
O O4 0.224389 0.500216 0.940594
O O5 0.429282 0.750000 0.739824
O O6 0.491688 0.981849 0.705341
O O7 0.393743 0.024963 0.773706
O O8 0.542348 0.917795 0.959017
O O9 0.741892 0.750000 0.910793
O O10 0.641141 0.977456 0.780969
O O11 0.791511 0.992601 0.860515
O O12 0.068837 0.250000 0.507888
O O13 0.059993 0.476848 0.362872
O O14 0.000000 0.500000 0.500000
O O15 0.055201 0.250000 0.220409
O O16 0.107288 0.509455 0.201401
O O17 0.952223 0.468518 0.067217
O O18 0.337000 0.250000 0.833870
O O19 0.543004 0.750000 0.655969
O O20 0.500000 0.000000 0.500000
O O21 0.138985 0.750000 0.115904
#
# Coordination Sequence:
#
# PCOD9160402 Si02
#       8
#     4   4   4   4   4   4   4   4
#     4  12  24  38  59  88 120 155 199 248 298 352
#     4   9  18  36  58  83 115 147 187 237 289 348
#     4  11  22  40  62  86 117 154 197 244 295 353
#     4  11  23  40  62  89 124 162 200 243 295 351
#     4   9  20  39  60  85 120 158 197 238 285 345
#     4  10  19  35  59  86 114 148 191 237 292 352
#     4  10  22  40  60  84 116 152 193 241 293 352
#     4  10  20  36  62  93 119 152 197 243 290 343
#
# _framework density 18.761693000000001
#
# number of rings (size 3 to 8) (size 9 to 14) (size 15 to 20)
#    0.000    1.750    1.250    3.375    0.000    4.500 
#    2.250    0.000    0.000    0.000    0.000    0.000 
#    0.000    0.000    0.000    0.000    0.000    0.000 
#
# Total GULP energy -178720.645496 kJ/mol
# GULP energy per Si atom -5585.020172 kJ/mol
# Density = 1.871899 g / cm^3
# Si number density = 18.761693 Si / 1000 Ang^3
#
#
#
# Elastic Constant Matrix: (Units=GPa)
#
#
# Indices 1 2 3 4 5 6 
#
# 1 95.6714 27.7508 28.5934 0.0000 -37.2874 0.0000
# 2 27.7508 53.9449 29.6914 0.0000 -15.0506 0.0000
# 3 28.5934 29.6914 81.5427 0.0000 -32.4904 0.0000
# 4 0.0000 0.0000 0.0000 28.3529 0.0000 -1.0324
# 5 -37.2874 -15.0506 -32.4904 0.0000 29.1395 0.0000
# 6 0.0000 0.0000 0.0000 -1.0324 0.0000 36.3278
#
#
#
# Elastic Compliance Matrix: (Units=1/GPa)
#
#
# Indices 1 2 3 4 5 6 
#
# 1 0.024545 -0.007041 0.009037 0.000000 0.037847 0.000000
# 2 -0.007041 0.025553 -0.009297 0.000000 -0.006178 0.000000
# 3 0.009037 -0.009297 0.027305 0.000000 0.037207 0.000000
# 4 0.000000 0.000000 0.000000 0.035306 0.000000 0.001003
# 5 0.037847 -0.006178 0.037207 0.000000 0.121043 0.000000
# 6 0.000000 0.000000 0.000000 0.001003 0.000000 0.027556
#
#
# Mechanical properties :
#
#
# Convention : Reuss Voigt Hill
#
# Bulk Modulus (GPa) = 15.92335 44.80335 30.36335
# Shear Modulus (GPa) = 16.84398 28.43893 22.64146
#
# Velocity S-wave (km/s) = 2.99956 3.89755 3.47766
# Velocity P-wave (km/s) = 4.52792 6.64730 5.68721
#
# Compressibility (1/GPa) = 0.06280086
#
# Stress axis : x y z
#
# Youngs Moduli (GPa) = 40.74199 39.13430 36.62383
#
# Poissons Ratio (x) = 0.27555 -0.33098
# Poissons Ratio (y) = 0.28687 0.34049
# Poissons Ratio (z) = -0.36820 0.36383
#
# Static dielectric constant tensor:
#      x y z
#    x 1.653510 0.000000 0.004510 
#    y 0.000000 1.645690 0.000000 
#    z 0.004510 0.000000 1.608900 
# 
# From -- ./inp_files/42939.got.cif
#   From: 2010.05.17/outbox.cif.g08.bks.cpg/sg11_22_cif.got.tgz:42939.got - 2010.06.03 12:22:45.
