data_PCOD9160585
_publ_section_title
;
Structure prediction by ZEFSAII (Michael W. Deem and Ramdas Pophale) SiO2 
 PCOD9160585
Probable space group: P 21/M
;
_chemical_formula_sum "Si O2"
_cell_formula_units_Z 32
_cell_length_a 17.075958
_cell_length_b 16.947636
_cell_length_c 13.038236
_cell_angle_alpha 90.000000
_cell_angle_beta 154.579342
_cell_angle_gamma 90.000000
_cell_volume 1619.698863
_symmetry_space_group_name_H-M "P 21/M"
_symmetry_group_IT_number 11
_symmetry_cell_setting 'monoclinic'
loop_
_space_group_symop_operation_xyz
x,y,z
-x,1/2+y,-z
-x,-y,-z
x,1/2-y,z
loop_
_atom_site_type_symbol
_atom_site_label
_atom_site_fract_x
_atom_site_fract_y
_atom_site_fract_z
Si Si1 0.430134 0.399443 0.814777
Si Si2 0.526361 0.411645 0.158244
Si Si3 0.286950 0.342424 0.050821
Si Si4 0.929054 0.158386 0.934963
Si Si5 0.493503 0.658292 0.496579
Si Si6 0.650541 0.343472 0.883007
Si Si7 0.072574 0.900632 0.294991
Si Si8 0.966880 0.912821 0.729011
O O1 0.459844 0.493467 0.833390
O O2 0.553211 0.357622 0.875152
O O3 0.217085 0.382861 0.542496
O O4 0.485968 0.380366 0.996745
O O5 0.370732 0.387328 0.053766
O O6 0.719592 0.381556 0.430021
O O7 0.335982 0.250000 0.100377
O O8 0.376265 0.376131 0.262077
O O9 0.072031 0.352712 0.809042
O O10 0.982874 0.250000 0.992187
O O11 0.027279 0.118182 0.147163
O O12 0.960354 0.118150 0.863199
O O13 0.712710 0.155318 0.704154
O O14 0.549902 0.750000 0.552744
O O15 0.476892 0.625227 0.361824
O O16 0.677104 0.250000 0.896282
O O17 0.847884 0.383537 0.105707
O O18 0.039289 0.992773 0.276462
#
# Coordination Sequence:
#
# PCOD9160585 Si02
#       8
#     4   4   4   4   4   4   4   4
#     4  10  23  42  65  85 114 164 205 241 296 355
#     4  10  23  44  61  84 122 158 201 252 293 343
#     4  11  22  37  60  89 120 158 200 242 297 354
#     4  10  19  36  59  85 123 157 190 244 302 351
#     4   8  17  34  55  82 118 153 185 236 295 344
#     4  10  21  39  61  89 122 155 197 246 297 351
#     4  11  22  37  60  89 119 157 201 241 295 359
#     4  10  22  39  59  89 122 154 197 246 297 353
#
# _framework density 19.75676
#
# number of rings (size 3 to 8) (size 9 to 14) (size 15 to 20)
#    0.000    2.000    1.250    2.625    1.750    3.000 
#    0.000    6.875    0.000    0.000    0.000    0.000 
#    0.000    0.000    0.000    0.000    0.000    0.000 
#
# Total GULP energy -178743.839487 kJ/mol
# GULP energy per Si atom -5585.744984 kJ/mol
# Density = 1.971179 g / cm^3
# Si number density = 19.756760 Si / 1000 Ang^3
#
#
#
# Elastic Constant Matrix: (Units=GPa)
#
#
# Indices 1 2 3 4 5 6 
#
# 1 90.2900 3.9359 36.2594 0.0000 -10.7334 0.0000
# 2 3.9359 18.5514 10.9448 0.0000 -6.0068 0.0000
# 3 36.2594 10.9448 43.5491 0.0000 -10.3057 0.0000
# 4 0.0000 0.0000 0.0000 -30.8810 0.0000 -20.5907
# 5 -10.7334 -6.0068 -10.3057 0.0000 24.1335 0.0000
# 6 0.0000 0.0000 0.0000 -20.5907 0.0000 9.1179
#
#
#
# Elastic Compliance Matrix: (Units=1/GPa)
#
#
# Indices 1 2 3 4 5 6 
#
# 1 0.017273 0.006243 -0.015312 0.000000 0.002697 0.000000
# 2 0.006243 0.067776 -0.019558 0.000000 0.011294 0.000000
# 3 -0.015312 -0.019558 0.042120 0.000000 0.006308 0.000000
# 4 0.000000 0.000000 0.000000 -0.012923 0.000000 -0.029184
# 5 0.002697 0.011294 0.006308 0.000000 0.048141 0.000000
# 6 0.000000 0.000000 0.000000 -0.029184 0.000000 0.043769
#
#
# Mechanical properties :
#
#
# Convention : Reuss Voigt Hill
#
# Bulk Modulus (GPa) = 14.30364 28.29673 21.30019
# Shear Modulus (GPa) = 17.43884 7.22410 12.33147
#
# Velocity S-wave (km/s) = 2.97421 1.91428 2.50104
# Velocity P-wave (km/s) = 4.36465 4.38630 4.37549
#
# Compressibility (1/GPa) = 0.06991228
#
# Stress axis : x y z
#
# Youngs Moduli (GPa) = 57.89302 14.75457 23.74158
#
# Poissons Ratio (x) = -0.09211 0.36354
# Poissons Ratio (y) = -0.36140 0.46435
# Poissons Ratio (z) = 0.88649 0.28858
#
# Static dielectric constant tensor:
#      x y z
#    x 1.667250 0.000000 -0.008740 
#    y 0.000000 1.700390 0.000000 
#    z -0.008740 0.000000 1.701780 
# 
# From -- ./inp_files/40006.got.cif
#   From: 2010.05.17/outbox.cif.g08.bks.cpg/sg11_21_cif.got.tgz:40006.got - 2010.06.03 12:22:45.
