data_PCOD9160689
_publ_section_title
;
Structure prediction by ZEFSAII (Michael W. Deem and Ramdas Pophale) SiO2 
 PCOD9160689
Probable space group: P 21/M
;
_chemical_formula_sum "Si O2"
_cell_formula_units_Z 32
_cell_length_a 11.290376
_cell_length_b 15.464391
_cell_length_c 16.479150
_cell_angle_alpha 90.000000
_cell_angle_beta 149.922503
_cell_angle_gamma 90.000000
_cell_volume 1441.988803
_symmetry_space_group_name_H-M "P 21/M"
_symmetry_group_IT_number 11
_symmetry_cell_setting 'monoclinic'
loop_
_space_group_symop_operation_xyz
x,y,z
-x,1/2+y,-z
-x,-y,-z
x,1/2-y,z
loop_
_atom_site_type_symbol
_atom_site_label
_atom_site_fract_x
_atom_site_fract_y
_atom_site_fract_z
Si Si1 0.228868 0.476346 0.354275
Si Si2 0.649900 0.563343 0.144295
Si Si3 0.864899 0.343036 0.452357
Si Si4 0.679669 0.655103 0.896550
Si Si5 0.121667 0.044609 0.470217
Si Si6 0.043356 0.653381 0.308238
Si Si7 0.393570 0.963297 0.149141
Si Si8 0.036335 0.149465 0.099525
O O1 0.500000 0.500000 0.500000
O O2 0.185407 0.430396 0.415876
O O3 0.114067 0.572385 0.295109
O O4 0.129669 0.412203 0.227023
O O5 0.491571 0.584969 0.127461
O O6 0.881302 0.511513 0.313012
O O7 0.764328 0.641813 0.162289
O O8 0.500000 0.500000 0.000000
O O9 0.983232 0.250000 0.524111
O O10 0.601975 0.339265 0.262470
O O11 0.835250 0.360763 0.531209
O O12 0.022711 0.395358 0.483143
O O13 0.770407 0.750000 0.981970
O O14 0.719583 0.555027 0.945840
O O15 0.772551 0.652385 0.859136
O O16 0.377268 0.016422 0.659108
O O17 0.106255 0.750000 0.319025
O O18 0.198167 0.900466 0.071595
O O19 0.991039 0.250000 0.096143
#
# Coordination Sequence:
#
# PCOD9160689 Si02
#       8
#     4   4   4   4   4   4   4   4
#     4  11  24  42  68 100 136 185 229 278 348 416
#     4  11  22  38  61  95 134 175 216 277 351 411
#     4  10  19  36  64 100 129 166 223 286 347 399
#     4  10  21  39  66  97 132 175 224 283 343 407
#     4  11  22  39  66  96 133 172 229 288 338 405
#     4  10  21  39  64  94 130 173 225 275 336 416
#     4  12  21  39  70  97 133 178 232 282 342 414
#     4  11  26  46  65  96 142 186 231 284 354 422
#
# _framework density 22.191572000000001
#
# number of rings (size 3 to 8) (size 9 to 14) (size 15 to 20)
#    0.000    1.250    2.500    5.250    0.000    3.000 
#    0.000    3.125    0.000    2.250    0.000    0.000 
#    0.000    0.000    0.000    0.000    0.000    0.000 
#
# Total GULP energy -178143.153372 kJ/mol
# GULP energy per Si atom -5566.973543 kJ/mol
# Density = 2.214106 g / cm^3
# Si number density = 22.191572 Si / 1000 Ang^3
#
#
#
# Elastic Constant Matrix: (Units=GPa)
#
#
# Indices 1 2 3 4 5 6 
#
# 1 100.2479 25.8496 33.3604 0.0000 17.4787 0.0000
# 2 25.8496 147.0337 48.4058 0.0000 19.5680 0.0000
# 3 33.3604 48.4058 92.8984 0.0000 -4.1358 0.0000
# 4 0.0000 0.0000 0.0000 19.4514 0.0000 -1.1177
# 5 17.4787 19.5680 -4.1358 0.0000 20.1890 0.0000
# 6 0.0000 0.0000 0.0000 -1.1177 0.0000 27.5405
#
#
#
# Elastic Compliance Matrix: (Units=1/GPa)
#
#
# Indices 1 2 3 4 5 6 
#
# 1 0.014536 0.001795 -0.006855 0.000000 -0.015728 0.000000
# 2 0.001795 0.010403 -0.006643 0.000000 -0.012997 0.000000
# 3 -0.006855 -0.006643 0.017397 0.000000 0.015938 0.000000
# 4 0.000000 0.000000 0.000000 0.051530 0.000000 0.002091
# 5 -0.015728 -0.012997 0.015938 0.000000 0.079011 0.000000
# 6 0.000000 0.000000 0.000000 0.002091 0.000000 0.036395
#
#
# Mechanical properties :
#
#
# Convention : Reuss Voigt Hill
#
# Bulk Modulus (GPa) = 52.83255 61.71240 57.27248
# Shear Modulus (GPa) = 20.92134 28.94045 24.93089
#
# Velocity S-wave (km/s) = 3.07377 3.61518 3.35541
# Velocity P-wave (km/s) = 6.03793 6.73018 6.39343
#
# Compressibility (1/GPa) = 0.01892773
#
# Stress axis : x y z
#
# Youngs Moduli (GPa) = 68.79386 96.13060 57.47976
#
# Poissons Ratio (x) = -0.17251 0.39404
# Poissons Ratio (y) = -0.12345 0.38186
# Poissons Ratio (z) = 0.47160 0.63864
#
# Static dielectric constant tensor:
#      x y z
#    x 1.810000 0.000000 -0.047690 
#    y 0.000000 -1.652010 0.000000 
#    z -0.047690 0.000000 1.874060 
# 
# From -- ./inp_files/59521.got.cif
#   From: 2010.05.17/outbox.cif.g08.bks.cpg/sg11_30_cif.got.tgz:59521.got - 2010.06.03 12:22:45.
