data_PCOD9160991
_publ_section_title
;
Structure prediction by ZEFSAII (Michael W. Deem and Ramdas Pophale) SiO2 
 PCOD9160991
Probable space group: P 21/M
;
_chemical_formula_sum "Si O2"
_cell_formula_units_Z 28
_cell_length_a 19.872494
_cell_length_b 8.550663
_cell_length_c 16.981846
_cell_angle_alpha 90.000000
_cell_angle_beta 31.354778
_cell_angle_gamma 90.000000
_cell_volume 1501.484170
_symmetry_space_group_name_H-M "P 21/M"
_symmetry_group_IT_number 11
_symmetry_cell_setting 'monoclinic'
loop_
_space_group_symop_operation_xyz
x,y,z
-x,1/2+y,-z
-x,-y,-z
x,1/2-y,z
loop_
_atom_site_type_symbol
_atom_site_label
_atom_site_fract_x
_atom_site_fract_y
_atom_site_fract_z
Si Si1 0.057041 0.436413 0.523798
Si Si2 0.312570 0.437056 0.349462
Si Si3 0.137793 0.436941 0.152189
Si Si4 0.629943 0.062029 0.546602
Si Si5 0.812001 0.060629 0.231517
Si Si6 0.077119 0.937068 0.041552
Si Si7 0.428748 0.437953 0.865950
O O1 0.062049 0.250000 0.513818
O O2 0.964201 0.485926 0.687685
O O3 0.000000 0.500000 0.500000
O O4 0.202057 0.492237 0.400574
O O5 0.314664 0.250000 0.348621
O O6 0.283036 0.497928 0.467892
O O7 0.458034 0.499166 0.190458
O O8 0.132670 0.250000 0.167555
O O9 0.107533 0.479591 0.092585
O O10 0.284157 0.493105 0.023779
O O11 0.635792 0.250000 0.542278
O O12 0.685922 0.010634 0.407109
O O13 0.486990 0.017307 0.721049
O O14 0.822543 0.250000 0.225082
O O15 0.823774 0.018730 0.127974
O O16 0.936471 0.987984 0.150349
O O17 0.080101 0.750000 0.049377
O O18 0.427881 0.250000 0.871311
#
# Coordination Sequence:
#
# PCOD9160991 Si02
#       7
#     4   4   4   4   4   4   4
#     4  11  24  40  60  88 115 140 176 223 272 326
#     4   9  18  33  55  82 109 138 177 221 267 319
#     4  11  22  38  58  81 111 147 182 223 276 329
#     4   8  15  30  52  74 101 140 185 223 261 314
#     4   9  17  31  50  74 106 148 189 231 277 323
#     4  10  20  31  48  77 112 144 184 231 278 327
#     4   8  18  35  56  79 106 145 188 223 265 326
#
# _framework density 18.648215
#
# number of rings (size 3 to 8) (size 9 to 14) (size 15 to 20)
#    0.857    1.714    0.000    2.143    0.000    6.857 
#    0.000    1.429    0.000    0.000    0.000    0.000 
#    0.000    0.000    0.000    0.000    0.000    0.000 
#
# Total GULP energy -155872.473916 kJ/mol
# GULP energy per Si atom -5566.874068 kJ/mol
# Density = 1.860577 g / cm^3
# Si number density = 18.648215 Si / 1000 Ang^3
#
#
#
# Elastic Constant Matrix: (Units=GPa)
#
#
# Indices 1 2 3 4 5 6 
#
# 1 72.8591 0.3516 24.7280 0.0000 -0.8461 0.0000
# 2 0.3516 8.3372 5.2650 0.0000 -0.2865 0.0000
# 3 24.7280 5.2650 17.1031 0.0000 -28.4970 0.0000
# 4 0.0000 0.0000 0.0000 17.5011 0.0000 1.4674
# 5 -0.8461 -0.2865 -28.4970 0.0000 11.4719 0.0000
# 6 0.0000 0.0000 0.0000 1.4674 0.0000 26.1761
#
#
#
# Elastic Compliance Matrix: (Units=1/GPa)
#
#
# Indices 1 2 3 4 5 6 
#
# 1 0.012232 -0.003157 0.004888 0.000000 0.012964 0.000000
# 2 -0.003157 0.115543 0.008469 0.000000 0.023691 0.000000
# 3 0.004888 0.008469 -0.015849 0.000000 -0.038797 0.000000
# 4 0.000000 0.000000 0.000000 0.057409 0.000000 -0.003218
# 5 0.012964 0.023691 -0.038797 0.000000 -0.007658 0.000000
# 6 0.000000 0.000000 0.000000 -0.003218 0.000000 0.038383
#
#
# Mechanical properties :
#
#
# Convention : Reuss Voigt Hill
#
# Bulk Modulus (GPa) = 7.55709 17.66540 12.61124
# Shear Modulus (GPa) = 22.34451 15.56015 18.95233
#
# Velocity S-wave (km/s) = 3.46527 2.89174 3.19142
# Velocity P-wave (km/s) = 4.48019 4.54347 4.51194
#
# Compressibility (1/GPa) = 0.13232611
#
# Stress axis : x y z
#
# Youngs Moduli (GPa) = 81.75217 8.65481 -63.09657
#
# Poissons Ratio (x) = 0.02732 0.30839
# Poissons Ratio (y) = 0.25808 0.53438
# Poissons Ratio (z) = -0.39957 -0.07330
#
# Static dielectric constant tensor:
#      x y z
#    x 1.638620 0.000000 -0.006530 
#    y 0.000000 1.631390 0.000000 
#    z -0.006530 0.000000 1.677240 
# 
# From -- ./inp_files/61228.got.cif
#   From: 2010.05.17/outbox.cif.g08.bks.cpg/sg11_31_cif.got.tgz:61228.got - 2010.06.03 12:22:45.
