data_PCOD9160841
_publ_section_title
;
Structure prediction by ZEFSAII (Michael W. Deem and Ramdas Pophale) SiO2 
 PCOD9160841
Probable space group: P 21/M
;
_chemical_formula_sum "Si O2"
_cell_formula_units_Z 32
_cell_length_a 9.672389
_cell_length_b 15.286571
_cell_length_c 12.571458
_cell_angle_alpha 90.000000
_cell_angle_beta 139.221073
_cell_angle_gamma 90.000000
_cell_volume 1214.051716
_symmetry_space_group_name_H-M "P 21/M"
_symmetry_group_IT_number 11
_symmetry_cell_setting 'monoclinic'
loop_
_space_group_symop_operation_xyz
x,y,z
-x,1/2+y,-z
-x,-y,-z
x,1/2-y,z
loop_
_atom_site_type_symbol
_atom_site_label
_atom_site_fract_x
_atom_site_fract_y
_atom_site_fract_z
Si Si1 0.727766 0.591944 0.375169
Si Si2 0.091266 0.894315 0.836240
Si Si3 0.983953 0.901501 0.232739
Si Si4 0.387434 0.348616 0.473010
Si Si5 0.165628 0.612041 0.568304
Si Si6 0.591279 0.648631 0.739742
Si Si7 0.939934 0.354995 0.948053
Si Si8 0.466026 0.105166 0.964276
O O1 0.594564 0.604125 0.403807
O O2 0.783946 0.490724 0.390904
O O3 0.612055 0.622581 0.201803
O O4 0.961125 0.636146 0.518354
O O5 0.867843 0.846265 0.696564
O O6 0.154224 0.893361 0.998379
O O7 0.039691 0.993830 0.773037
O O8 0.294513 0.860025 0.890046
O O9 0.739977 0.866745 0.088389
O O10 0.086798 0.869053 0.401911
O O11 0.118010 0.879347 0.206182
O O12 0.467967 0.250000 0.534717
O O13 0.470154 0.390779 0.411521
O O14 0.401057 0.648303 0.711640
O O15 0.632640 0.750000 0.739734
O O16 0.815026 0.611274 0.905135
O O17 0.926288 0.250000 0.948486
O O18 0.500000 0.000000 0.000000
#
# Coordination Sequence:
#
# PCOD9160841 Si02
#       8
#     4   4   4   4   4   4   4   4
#     4  10  21  38  57  89 115 150 191 242 288 344
#     4  10  19  38  60  86 115 153 198 234 289 343
#     4  10  20  37  57  88 114 150 193 243 283 343
#     4  10  21  40  60  84 121 155 191 240 287 344
#     4  10  21  36  59  83 118 147 192 237 288 338
#     4   9  21  38  57  83 116 155 195 232 284 347
#     4  10  22  39  57  83 120 155 191 242 290 340
#     4   9  21  36  59  87 117 146 190 241 290 335
#
# _framework density 26.358021000000001
#
# number of rings (size 3 to 8) (size 9 to 14) (size 15 to 20)
#    0.000    2.250    1.250    1.500    5.250    2.500 
#    0.000    6.875    0.000    0.000    0.000    0.000 
#    0.000    0.000    0.000    0.000    0.000    0.000 
#
# Total GULP energy -178840.264626 kJ/mol
# GULP energy per Si atom -5588.758270 kJ/mol
# Density = 2.629803 g / cm^3
# Si number density = 26.358021 Si / 1000 Ang^3
#
#
#
# Elastic Constant Matrix: (Units=GPa)
#
#
# Indices 1 2 3 4 5 6 
#
# 1 148.5460 -11.8756 12.1022 0.0000 3.1500 0.0000
# 2 -11.8756 43.0179 -15.7238 0.0000 4.2304 0.0000
# 3 12.1022 -15.7238 81.2317 0.0000 0.4284 0.0000
# 4 0.0000 0.0000 0.0000 -56.2229 0.0000 98.9482
# 5 3.1500 4.2304 0.4284 0.0000 58.1656 0.0000
# 6 0.0000 0.0000 0.0000 98.9482 0.0000 -140.1065
#
#
#
# Elastic Compliance Matrix: (Units=1/GPa)
#
#
# Indices 1 2 3 4 5 6 
#
# 1 0.006936 0.001707 -0.000700 0.000000 -0.000495 0.000000
# 2 0.001707 0.025638 0.004719 0.000000 -0.001992 0.000000
# 3 -0.000700 0.004719 0.013330 0.000000 -0.000403 0.000000
# 4 0.000000 0.000000 0.000000 0.073218 0.000000 0.051709
# 5 -0.000495 -0.001992 -0.000403 0.000000 0.017367 0.000000
# 6 0.000000 0.000000 0.000000 0.051709 0.000000 0.029381
#
#
# Mechanical properties :
#
#
# Convention : Reuss Voigt Hill
#
# Bulk Modulus (GPa) = 17.43479 26.86680 22.15079
# Shear Modulus (GPa) = 28.81217 -8.41323 10.19947
#
# Velocity S-wave (km/s) = 3.30981 -1.78853 1.96926
# Velocity P-wave (km/s) = 4.60819 2.43927 3.68683
#
# Compressibility (1/GPa) = 0.05735659
#
# Stress axis : x y z
#
# Youngs Moduli (GPa) = 144.17611 39.00432 75.01692
#
# Poissons Ratio (x) = -0.06660 0.05253
# Poissons Ratio (y) = -0.24617 -0.35399
# Poissons Ratio (z) = 0.10096 -0.18405
#
# Static dielectric constant tensor:
#      x y z
#    x 2.078740 0.000000 -0.018480 
#    y 0.000000 1.997050 0.000000 
#    z -0.018480 0.000000 2.191150 
# 
# From -- ./inp_files/32836.got.cif
#   From: 2010.05.17/outbox.cif.g08.bks.cpg/sg11_17_cif.got.tgz:32836.got - 2010.06.03 12:22:45.
