data_PCOD9160102
_publ_section_title
;
Structure prediction by ZEFSAII (Michael W. Deem and Ramdas Pophale) SiO2 
 PCOD9160102
Probable space group: P 21/M
;
_chemical_formula_sum "Si O2"
_cell_formula_units_Z 32
_cell_length_a 8.951488
_cell_length_b 21.277931
_cell_length_c 10.508625
_cell_angle_alpha 90.000000
_cell_angle_beta 49.059559
_cell_angle_gamma 90.000000
_cell_volume 1511.967356
_symmetry_space_group_name_H-M "P 21/M"
_symmetry_group_IT_number 11
_symmetry_cell_setting 'monoclinic'
loop_
_space_group_symop_operation_xyz
x,y,z
-x,1/2+y,-z
-x,-y,-z
x,1/2-y,z
loop_
_atom_site_type_symbol
_atom_site_label
_atom_site_fract_x
_atom_site_fract_y
_atom_site_fract_z
Si Si1 0.996207 0.624945 0.328227
Si Si2 0.233456 0.980289 0.722194
Si Si3 0.975157 0.819164 0.613897
Si Si4 0.173321 0.409195 0.097753
Si Si5 0.385903 0.562458 0.178717
Si Si6 0.632206 0.535068 0.601810
Si Si7 0.591959 0.178819 0.637108
Si Si8 0.199887 0.371957 0.807217
O O1 0.009237 0.669859 0.443872
O O2 0.192012 0.581591 0.207889
O O3 0.799484 0.585403 0.476404
O O4 0.956994 0.650899 0.209109
O O5 0.401346 0.946666 0.714312
O O6 0.015666 0.952738 0.827027
O O7 0.327704 0.982518 0.529060
O O8 0.217400 0.052065 0.782016
O O9 0.890231 0.750000 0.680576
O O10 0.196278 0.822456 0.548342
O O11 0.855920 0.871459 0.755437
O O12 0.385991 0.443274 0.991300
O O13 0.171052 0.363193 0.974392
O O14 0.334111 0.500481 0.286331
O O15 0.403161 0.623397 0.262143
O O16 0.568417 0.250000 0.701521
O O17 0.405227 0.161143 0.656472
#
# Coordination Sequence:
#
# PCOD9160102 Si02
#       8
#     4   4   4   4   4   4   4   4
#     4  10  22  39  61  87 119 161 202 248 300 348
#     4  10  19  34  58  90 127 157 202 244 298 340
#     4  10  23  43  63  85 116 157 207 251 297 358
#     4  11  22  36  61  88 125 163 197 242 297 369
#     4  10  20  37  55  89 125 160 200 231 300 368
#     4  10  19  34  60  85 123 163 202 247 286 355
#     4   9  18  36  62  82 107 157 212 245 276 352
#     4  10  21  37  59  94 120 157 196 253 298 351
#
# _framework density 21.164477000000002
#
# number of rings (size 3 to 8) (size 9 to 14) (size 15 to 20)
#    0.000    2.000    2.500    2.250    3.500    3.500 
#    2.250    3.125    0.000    0.000    0.000    0.000 
#    0.000    0.000    0.000    0.000    0.000    0.000 
#
# Total GULP energy -178268.815142 kJ/mol
# GULP energy per Si atom -5570.900473 kJ/mol
# Density = 2.111631 g / cm^3
# Si number density = 21.164477 Si / 1000 Ang^3
#
#
#
# Elastic Constant Matrix: (Units=GPa)
#
#
# Indices 1 2 3 4 5 6 
#
# 1 90.5352 -2.1062 15.1483 0.0000 -8.2805 0.0000
# 2 -2.1062 51.6942 5.2064 0.0000 -10.0579 0.0000
# 3 15.1483 5.2064 59.4126 0.0000 -3.2811 0.0000
# 4 0.0000 0.0000 0.0000 13.3255 0.0000 3.2945
# 5 -8.2805 -10.0579 -3.2811 0.0000 42.3547 0.0000
# 6 0.0000 0.0000 0.0000 3.2945 0.0000 8.9648
#
#
#
# Elastic Compliance Matrix: (Units=1/GPa)
#
#
# Indices 1 2 3 4 5 6 
#
# 1 0.011790 0.001242 -0.002984 0.000000 0.002369 0.000000
# 2 0.001242 0.020550 -0.001842 0.000000 0.004980 0.000000
# 3 -0.002984 -0.001842 0.017773 0.000000 0.000356 0.000000
# 4 0.000000 0.000000 0.000000 0.082543 0.000000 -0.030334
# 5 0.002369 0.004980 0.000356 0.000000 0.025283 0.000000
# 6 0.000000 0.000000 0.000000 -0.030334 0.000000 0.122695
#
#
# Mechanical properties :
#
#
# Convention : Reuss Voigt Hill
#
# Bulk Modulus (GPa) = 23.28624 26.45989 24.87306
# Shear Modulus (GPa) = 16.54975 25.15524 20.85249
#
# Velocity S-wave (km/s) = 2.79939 3.45129 3.14229
# Velocity P-wave (km/s) = 4.63413 5.33020 4.99431
#
# Compressibility (1/GPa) = 0.04294382
#
# Stress axis : x y z
#
# Youngs Moduli (GPa) = 84.81566 48.66275 56.26376
#
# Poissons Ratio (x) = -0.06043 0.16790
# Poissons Ratio (y) = -0.10532 0.10366
# Poissons Ratio (z) = 0.25310 0.08966
#
# Static dielectric constant tensor:
#      x y z
#    x 1.863550 0.000000 0.004680 
#    y 0.000000 1.787980 0.000000 
#    z 0.004680 0.000000 1.826470 
# 
# From -- ./inp_files/32981.got.cif
#   From: 2010.05.17/outbox.cif.g08.bks.cpg/sg11_17_cif.got.tgz:32981.got - 2010.06.03 12:22:45.
