data_PCOD9160324
_publ_section_title
;
Structure prediction by ZEFSAII (Michael W. Deem and Ramdas Pophale) SiO2 
 PCOD9160324
Probable space group: P 21/M
;
_chemical_formula_sum "Si O2"
_cell_formula_units_Z 28
_cell_length_a 9.463823
_cell_length_b 8.662815
_cell_length_c 26.490034
_cell_angle_alpha 90.000000
_cell_angle_beta 44.890940
_cell_angle_gamma 90.000000
_cell_volume 1532.727434
_symmetry_space_group_name_H-M "P 21/M"
_symmetry_group_IT_number 11
_symmetry_cell_setting 'monoclinic'
loop_
_space_group_symop_operation_xyz
x,y,z
-x,1/2+y,-z
-x,-y,-z
x,1/2-y,z
loop_
_atom_site_type_symbol
_atom_site_label
_atom_site_fract_x
_atom_site_fract_y
_atom_site_fract_z
Si Si1 0.259208 0.066624 0.788204
Si Si2 0.174664 0.434033 0.079667
Si Si3 0.971542 0.437395 0.348224
Si Si4 0.649530 0.435444 0.505056
Si Si5 0.577039 0.562850 0.786906
Si Si6 0.352421 0.935207 0.654487
Si Si7 0.514088 0.435710 0.074989
O O1 0.269300 0.250000 0.783275
O O2 0.418845 0.003401 0.787820
O O3 0.307474 0.997283 0.721093
O O4 0.037828 0.014156 0.860578
O O5 0.146909 0.250000 0.086613
O O6 0.320290 0.474630 0.089870
O O7 0.295656 0.486218 0.999480
O O8 0.974098 0.250000 0.346058
O O9 0.197550 0.490199 0.283124
O O10 0.866713 0.480258 0.427864
O O11 0.824530 0.485475 0.339577
O O12 0.500000 0.500000 0.500000
O O13 0.637511 0.250000 0.509756
O O14 0.562069 0.504174 0.578593
O O15 0.573583 0.750000 0.785139
O O16 0.521463 0.519387 0.858289
O O17 0.355428 0.750000 0.654105
O O18 0.538427 0.250000 0.066381
#
# Coordination Sequence:
#
# PCOD9160324 Si02
#       7
#     4   4   4   4   4   4   4
#     4  12  25  38  52  77 111 144 181 224 268 320
#     4  10  20  37  61  85 109 140 177 218 268 323
#     4   8  16  32  57  83 107 137 177 222 266 317
#     4   9  16  29  51  82 113 141 177 223 271 319
#     4  10  20  37  57  77 106 145 182 218 265 318
#     4  10  19  35  58  82 107 140 181 225 275 326
#     4   9  19  36  60  87 111 137 176 223 267 315
#
# _framework density 18.268089
#
# number of rings (size 3 to 8) (size 9 to 14) (size 15 to 20)
#    0.000    2.286    0.000    4.286    0.000    4.000 
#    0.000    6.429    0.000    0.000    0.000    0.000 
#    0.000    0.000    0.000    0.000    0.000    0.000 
#
# Total GULP energy -156242.241358 kJ/mol
# GULP energy per Si atom -5580.080048 kJ/mol
# Density = 1.822651 g / cm^3
# Si number density = 18.268089 Si / 1000 Ang^3
#
#
#
# Elastic Constant Matrix: (Units=GPa)
#
#
# Indices 1 2 3 4 5 6 
#
# 1 90.4488 36.7751 97.8907 0.0000 -6.1255 0.0000
# 2 36.7751 55.1591 59.4922 0.0000 -1.6406 0.0000
# 3 97.8907 59.4922 192.6191 0.0000 -0.7030 0.0000
# 4 0.0000 0.0000 0.0000 29.3613 0.0000 4.4273
# 5 -6.1255 -1.6406 -0.7030 0.0000 -7.6494 0.0000
# 6 0.0000 0.0000 0.0000 4.4273 0.0000 19.9259
#
#
#
# Elastic Compliance Matrix: (Units=1/GPa)
#
#
# Indices 1 2 3 4 5 6 
#
# 1 0.022997 -0.004726 -0.010288 0.000000 -0.016457 0.000000
# 2 -0.004726 0.027962 -0.006241 0.000000 -0.001639 0.000000
# 3 -0.010288 -0.006241 0.012378 0.000000 0.008439 0.000000
# 4 0.000000 0.000000 0.000000 0.035239 0.000000 -0.007830
# 5 -0.016457 -0.001639 0.008439 0.000000 -0.117975 0.000000
# 6 0.000000 0.000000 0.000000 -0.007830 0.000000 0.051926
#
#
# Mechanical properties :
#
#
# Convention : Reuss Voigt Hill
#
# Bulk Modulus (GPa) = 48.01005 80.72699 64.36852
# Shear Modulus (GPa) = 60.99140 17.93218 39.46179
#
# Velocity S-wave (km/s) = 5.78440 3.13647 4.65278
# Velocity P-wave (km/s) = 8.42320 7.57646 8.01102
#
# Compressibility (1/GPa) = 0.02082897
#
# Stress axis : x y z
#
# Youngs Moduli (GPa) = 43.48356 35.76242 80.78725
#
# Poissons Ratio (x) = 0.16901 0.83112
# Poissons Ratio (y) = 0.20550 0.50416
# Poissons Ratio (z) = 0.44735 0.22318
#
# Static dielectric constant tensor:
#      x y z
#    x 1.609880 0.000000 0.011070 
#    y 0.000000 1.613100 0.000000 
#    z 0.011070 0.000000 1.649180 
# 
# From -- ./inp_files/70792.got.cif
#   From: 2010.05.17/outbox.cif.g08.bks.cpg/sg11_36_cif.got.tgz:70792.got - 2010.06.03 12:22:45.
