data_PCOD9160100
_publ_section_title
;
Structure prediction by ZEFSAII (Michael W. Deem and Ramdas Pophale) SiO2 
 PCOD9160100
Probable space group: P 21/M
;
_chemical_formula_sum "Si O2"
_cell_formula_units_Z 32
_cell_length_a 15.294979
_cell_length_b 18.674921
_cell_length_c 12.326656
_cell_angle_alpha 90.000000
_cell_angle_beta 28.231546
_cell_angle_gamma 90.000000
_cell_volume 1665.509281
_symmetry_space_group_name_H-M "P 21/M"
_symmetry_group_IT_number 11
_symmetry_cell_setting 'monoclinic'
loop_
_space_group_symop_operation_xyz
x,y,z
-x,1/2+y,-z
-x,-y,-z
x,1/2-y,z
loop_
_atom_site_type_symbol
_atom_site_label
_atom_site_fract_x
_atom_site_fract_y
_atom_site_fract_z
Si Si1 0.127359 0.167863 0.275061
Si Si2 0.577564 0.081991 0.413109
Si Si3 0.065036 0.056033 0.521156
Si Si4 0.135556 0.669064 0.773732
Si Si5 0.578825 0.482083 0.797336
Si Si6 0.232916 0.111706 0.926570
Si Si7 0.286182 0.827450 0.366788
Si Si8 0.281179 0.543756 0.956588
O O1 0.171200 0.250000 0.248427
O O2 0.151978 0.119591 0.354491
O O3 0.908393 0.162780 0.483552
O O4 0.227860 0.143723 0.053914
O O5 0.765329 0.106524 0.267042
O O6 0.420052 0.122561 0.654029
O O7 0.623482 0.094488 0.236561
O O8 0.500000 0.000000 0.500000
O O9 0.218043 0.017522 0.428508
O O10 0.000000 0.000000 0.500000
O O11 0.884924 0.074890 0.789362
O O12 0.141928 0.750000 0.814878
O O13 0.237464 0.673474 0.546736
O O14 0.929413 0.646602 0.966092
O O15 0.593083 0.396905 0.780298
O O16 0.442428 0.512708 0.856525
O O17 0.500000 0.500000 0.000000
O O18 0.202409 0.026574 0.979831
O O19 0.364767 0.750000 0.249719
#
# Coordination Sequence:
#
# PCOD9160100 Si02
#       8
#     4   4   4   4   4   4   4   4
#     4  10  19  34  58  89 118 150 194 250 305 357
#     4  10  23  38  58  89 124 158 203 246 298 365
#     4  12  20  38  61  85 120 163 198 248 306 354
#     4  10  21  37  60  88 119 158 200 247 307 369
#     4  12  21  35  59  85 118 156 206 246 300 362
#     4  10  19  37  60  88 121 151 198 254 315 364
#     4   9  17  31  54  84 115 146 185 243 306 356
#     4  11  23  37  58  88 117 159 203 247 300 361
#
# _framework density 19.213342000000001
#
# number of rings (size 3 to 8) (size 9 to 14) (size 15 to 20)
#    0.000    1.500    3.750    3.375    0.000    4.000 
#    0.000    5.000    0.000    2.250    0.000    0.000 
#    0.000    0.000    0.000    0.000    0.000    0.000 
#
# Total GULP energy -178486.456639 kJ/mol
# GULP energy per Si atom -5577.701770 kJ/mol
# Density = 1.916961 g / cm^3
# Si number density = 19.213342 Si / 1000 Ang^3
#
#
#
# Elastic Constant Matrix: (Units=GPa)
#
#
# Indices 1 2 3 4 5 6 
#
# 1 74.4623 34.6342 37.6952 0.0000 -10.7374 0.0000
# 2 34.6342 76.7777 30.5000 0.0000 -6.4173 0.0000
# 3 37.6952 30.5000 130.9244 0.0000 9.7762 0.0000
# 4 0.0000 0.0000 0.0000 16.0509 0.0000 7.6619
# 5 -10.7374 -6.4173 9.7762 0.0000 30.1965 0.0000
# 6 0.0000 0.0000 0.0000 7.6619 0.0000 6.6785
#
#
#
# Elastic Compliance Matrix: (Units=1/GPa)
#
#
# Indices 1 2 3 4 5 6 
#
# 1 0.019897 -0.006480 -0.004760 0.000000 0.007239 0.000000
# 2 -0.006480 0.017012 -0.002250 0.000000 0.002040 0.000000
# 3 -0.004760 -0.002250 0.009935 0.000000 -0.005387 0.000000
# 4 0.000000 0.000000 0.000000 0.137723 0.000000 -0.158001
# 5 0.007239 0.002040 -0.005387 0.000000 0.037868 0.000000
# 6 0.000000 0.000000 0.000000 -0.158001 0.000000 0.330998
#
#
# Mechanical properties :
#
#
# Convention : Reuss Voigt Hill
#
# Bulk Modulus (GPa) = 50.33914 54.20259 52.27086
# Shear Modulus (GPa) = 8.51743 22.54084 15.52914
#
# Velocity S-wave (km/s) = 2.10777 3.42890 2.84605
# Velocity P-wave (km/s) = 5.67279 6.62937 6.16965
#
# Compressibility (1/GPa) = 0.01986526
#
# Stress axis : x y z
#
# Youngs Moduli (GPa) = 50.25947 58.78299 100.65695
#
# Poissons Ratio (x) = 0.38089 0.47909
# Poissons Ratio (y) = 0.32566 0.22646
# Poissons Ratio (z) = 0.23922 0.13225
#
# Static dielectric constant tensor:
#      x y z
#    x 1.690190 0.000000 -0.032990 
#    y 0.000000 1.685230 0.000000 
#    z -0.032990 0.000000 1.705040 
# 
# From -- ./inp_files/39950.got.cif
#   From: 2010.05.17/outbox.cif.g08.bks.cpg/sg11_20_cif.got.tgz:39950.got - 2010.06.03 12:22:45.
