data_PCOD9160919
_publ_section_title
;
Structure prediction by ZEFSAII (Michael W. Deem and Ramdas Pophale) SiO2 
 PCOD9160919
Probable space group: P 21/M
;
_chemical_formula_sum "Si O2"
_cell_formula_units_Z 22
_cell_length_a 9.544134
_cell_length_b 13.736223
_cell_length_c 9.992639
_cell_angle_alpha 90.000000
_cell_angle_beta 108.660649
_cell_angle_gamma 90.000000
_cell_volume 1241.170107
_symmetry_space_group_name_H-M "P 21/M"
_symmetry_group_IT_number 11
_symmetry_cell_setting 'monoclinic'
loop_
_space_group_symop_operation_xyz
x,y,z
-x,1/2+y,-z
-x,-y,-z
x,1/2-y,z
loop_
_atom_site_type_symbol
_atom_site_label
_atom_site_fract_x
_atom_site_fract_y
_atom_site_fract_z
Si Si1 0.400986 0.594341 0.488967
Si Si2 0.004205 0.416277 0.114280
Si Si3 0.009663 0.250000 0.755900
Si Si4 0.942322 0.048123 0.614710
Si Si5 0.454448 0.750000 0.738630
Si Si6 0.755637 0.250000 0.065144
Si Si7 0.210144 0.250000 0.076453
Si Si8 0.334088 0.750000 0.252649
O O1 0.500000 0.500000 0.500000
O O2 0.231288 0.564870 0.452530
O O3 0.441525 0.658828 0.631752
O O4 0.401897 0.659051 0.353648
O O5 0.025102 0.474539 0.256023
O O6 0.141116 0.344917 0.126312
O O7 0.861447 0.345217 0.080880
O O8 0.000000 0.500000 0.000000
O O9 0.014318 0.152371 0.670767
O O10 0.845273 0.250000 0.775161
O O11 0.135988 0.250000 0.906727
O O12 0.000000 0.000000 0.500000
O O13 0.330624 0.750000 0.819058
O O14 0.614317 0.750000 0.858066
O O15 0.649622 0.250000 0.901901
#
# Coordination Sequence:
#
# PCOD9160919 Si02
#       8
#     4   4   2   4   2   2   2   2
#     4  10  21  41  60  82 118 160 200 233 297 373
#     4  11  20  37  66  89 114 156 211 245 291 367
#     4  10  19  40  61  84 119 158 194 253 299 352
#     4  11  22  37  62  90 116 151 196 253 304 346
#     4  11  24  39  58  90 125 160 192 251 309 356
#     4  11  22  39  59  93 124 153 198 258 312 351
#     4  11  21  39  62  87 121 158 207 246 288 370
#     4   9  18  39  64  80 113 159 197 238 304 359
#
# _framework density 17.725207999999999
#
# number of rings (size 3 to 8) (size 9 to 14) (size 15 to 20)
#    0.000    1.455    3.636    3.818    0.000    1.455 
#    3.273    2.727    0.000    0.000    0.000    0.000 
#    0.000    0.000    0.000    0.000    0.000    0.000 
#
# Total GULP energy -122778.090560 kJ/mol
# GULP energy per Si atom -5580.822298 kJ/mol
# Density = 1.768486 g / cm^3
# Si number density = 17.725208 Si / 1000 Ang^3
#
#
#
# Elastic Constant Matrix: (Units=GPa)
#
#
# Indices 1 2 3 4 5 6 
#
# 1 76.5923 69.1913 69.1244 0.0000 4.9675 0.0000
# 2 69.1913 169.7391 90.1594 0.0000 -0.4065 0.0000
# 3 69.1244 90.1594 160.6304 0.0000 1.3801 0.0000
# 4 0.0000 0.0000 0.0000 11.0610 0.0000 -1.0107
# 5 4.9675 -0.4065 1.3801 0.0000 31.0316 0.0000
# 6 0.0000 0.0000 0.0000 -1.0107 0.0000 25.9347
#
#
#
# Elastic Compliance Matrix: (Units=1/GPa)
#
#
# Indices 1 2 3 4 5 6 
#
# 1 0.026050 -0.006685 -0.007424 0.000000 -0.003927 0.000000
# 2 -0.006685 0.010112 -0.002811 0.000000 0.001328 0.000000
# 3 -0.007424 -0.002811 0.010992 0.000000 0.000663 0.000000
# 4 0.000000 0.000000 0.000000 0.090731 0.000000 0.003536
# 5 -0.003927 0.001328 0.000663 0.000000 0.032842 0.000000
# 6 0.000000 0.000000 0.000000 0.003536 0.000000 0.038696
#
#
# Mechanical properties :
#
#
# Convention : Reuss Voigt Hill
#
# Bulk Modulus (GPa) = 75.10198 95.99020 85.54609
# Shear Modulus (GPa) = 20.18552 25.50457 22.84504
#
# Velocity S-wave (km/s) = 3.37828 3.79738 3.59394
# Velocity P-wave (km/s) = 7.59468 8.57316 8.09871
#
# Compressibility (1/GPa) = 0.01331523
#
# Stress axis : x y z
#
# Youngs Moduli (GPa) = 38.38738 98.88806 90.97225
#
# Poissons Ratio (x) = 0.66104 0.67542
# Poissons Ratio (y) = 0.25661 0.25570
# Poissons Ratio (z) = 0.28501 0.27795
#
# Static dielectric constant tensor:
#      x y z
#    x 1.565890 0.000000 0.030400 
#    y 0.000000 1.625160 0.000000 
#    z 0.030400 0.000000 1.541750 
# 
# From -- ./inp_files/12660.got.cif
#   From: 2010.05.17/outbox.cif.g08.bks.cpg/sg11_7_cif.got.tgz:12660.got - 2010.06.03 12:22:45.
