data_PCOD9160962
_publ_section_title
;
Structure prediction by ZEFSAII (Michael W. Deem and Ramdas Pophale) SiO2 
 PCOD9160962
Probable space group: P 21/M
;
_chemical_formula_sum "Si O2"
_cell_formula_units_Z 32
_cell_length_a 15.522635
_cell_length_b 19.085306
_cell_length_c 7.435005
_cell_angle_alpha 90.000000
_cell_angle_beta 135.927779
_cell_angle_gamma 90.000000
_cell_volume 1532.086454
_symmetry_space_group_name_H-M "P 21/M"
_symmetry_group_IT_number 11
_symmetry_cell_setting 'monoclinic'
loop_
_space_group_symop_operation_xyz
x,y,z
-x,1/2+y,-z
-x,-y,-z
x,1/2-y,z
loop_
_atom_site_type_symbol
_atom_site_label
_atom_site_fract_x
_atom_site_fract_y
_atom_site_fract_z
Si Si1 0.255564 0.591545 0.599831
Si Si2 0.503786 0.828217 0.041890
Si Si3 0.987298 0.915017 0.773116
Si Si4 0.717129 0.931538 0.796513
Si Si5 0.496210 0.328217 0.530513
Si Si6 0.717131 0.568465 0.354880
Si Si7 0.012706 0.415020 0.811221
Si Si8 0.744432 0.408452 0.833116
O O1 0.290921 0.512807 0.713955
O O2 0.244819 0.587858 0.367236
O O3 0.117938 0.610613 0.462646
O O4 0.365002 0.644229 0.806925
O O5 0.519994 0.750000 0.993101
O O6 0.524633 0.824830 0.286956
O O7 0.602809 0.884726 0.121298
O O8 0.850546 0.901577 0.493426
O O9 0.983050 0.891565 0.974579
O O10 0.000001 0.999998 0.791893
O O11 0.117943 0.889383 0.891191
O O12 0.602810 0.884729 0.687139
O O13 0.718913 0.932209 0.578371
O O14 0.709075 0.012811 0.841180
O O15 0.850543 0.901582 0.058214
O O16 0.479998 0.250000 0.433096
O O17 0.634994 0.355768 0.711891
#
# Coordination Sequence:
#
# PCOD9160962 Si02
#       8
#     4   4   4   4   4   4   4   4
#     4   9  16  28  49  71  87 108 142 185 225 257
#     4  10  20  31  42  60  90 124 150 174 210 258
#     4   7  11  22  43  69  89 104 132 179 224 253
#     4   8  14  27  47  68  88 112 145 181 216 258
#     4  10  20  31  42  60  90 124 150 174 210 258
#     4   8  14  27  47  68  88 112 145 181 216 258
#     4   7  11  22  43  69  89 104 132 179 224 253
#     4   9  16  28  49  71  87 108 142 185 225 257
#
# _framework density 20.886548999999999
#
# number of rings (size 3 to 8) (size 9 to 14) (size 15 to 20)
#    0.000    3.500    0.000    3.750    0.000    0.500 
#    0.000    1.250    0.000   12.750    0.000    0.000 
#    0.000    0.000    0.000    0.000    0.000    0.000 
#
# Total GULP energy -178299.410496 kJ/mol
# GULP energy per Si atom -5571.856578 kJ/mol
# Density = 2.083901 g / cm^3
# Si number density = 20.886549 Si / 1000 Ang^3
#
#
#
# Elastic Constant Matrix: (Units=GPa)
#
#
# Indices 1 2 3 4 5 6 
#
# 1 46.3477 -1.6299 9.2451 0.0000 -9.5247 0.0000
# 2 -1.6299 34.4438 -1.4665 0.0000 0.1409 0.0000
# 3 9.2451 -1.4665 47.6763 0.0000 10.7016 0.0000
# 4 0.0000 0.0000 0.0000 -1.2334 0.0000 -4.3719
# 5 -9.5247 0.1409 10.7016 0.0000 31.2893 0.0000
# 6 0.0000 0.0000 0.0000 -4.3719 0.0000 3.6612
#
#
#
# Elastic Compliance Matrix: (Units=1/GPa)
#
#
# Indices 1 2 3 4 5 6 
#
# 1 0.025089 0.000844 -0.007098 0.000000 0.010061 0.000000
# 2 0.000844 0.029106 0.000762 0.000000 -0.000135 0.000000
# 3 -0.007098 0.000762 0.024761 0.000000 -0.010633 0.000000
# 4 0.000000 0.000000 0.000000 -0.154947 0.000000 -0.185022
# 5 0.010061 -0.000135 -0.010633 0.000000 0.038660 0.000000
# 6 0.000000 0.000000 0.000000 -0.185022 0.000000 0.052197
#
#
# Mechanical properties :
#
#
# Convention : Reuss Voigt Hill
#
# Bulk Modulus (GPa) = 14.71182 15.64059 15.17621
# Shear Modulus (GPa) = 103.07778 14.89805 58.98791
#
# Velocity S-wave (km/s) = 7.03267 2.67364 5.32009
# Velocity P-wave (km/s) = 8.54421 4.12743 6.70967
#
# Compressibility (1/GPa) = 0.06797254
#
# Stress axis : x y z
#
# Youngs Moduli (GPa) = 39.85801 34.35746 40.38577
#
# Poissons Ratio (x) = -0.02899 0.28664
# Poissons Ratio (y) = -0.03364 -0.03077
# Poissons Ratio (z) = 0.28289 -0.02618
#
# Static dielectric constant tensor:
#      x y z
#    x 1.824070 0.000000 -0.023680 
#    y 0.000000 1.706120 0.000000 
#    z -0.023680 0.000000 1.797570 
# 
# From -- ./inp_files/36221.got.cif
#   From: 2010.05.17/outbox.cif.g08.bks.cpg/sg11_19_cif.got.tgz:36221.got - 2010.06.03 12:22:45.
