data_PCOD9160617
_publ_section_title
;
Structure prediction by ZEFSAII (Michael W. Deem and Ramdas Pophale) SiO2 
 PCOD9160617
Probable space group: P 21/M
;
_chemical_formula_sum "Si O2"
_cell_formula_units_Z 28
_cell_length_a 27.896227
_cell_length_b 8.511254
_cell_length_c 9.692603
_cell_angle_alpha 90.000000
_cell_angle_beta 138.644826
_cell_angle_gamma 90.000000
_cell_volume 1520.547726
_symmetry_space_group_name_H-M "P 21/M"
_symmetry_group_IT_number 11
_symmetry_cell_setting 'monoclinic'
loop_
_space_group_symop_operation_xyz
x,y,z
-x,1/2+y,-z
-x,-y,-z
x,1/2-y,z
loop_
_atom_site_type_symbol
_atom_site_label
_atom_site_fract_x
_atom_site_fract_y
_atom_site_fract_z
Si Si1 0.564808 0.437237 0.731860
Si Si2 0.203348 0.434589 0.126911
Si Si3 0.737397 0.438191 0.463214
Si Si4 0.079662 0.437413 0.641525
Si Si5 0.826895 0.430644 0.393877
Si Si6 0.430233 0.563094 0.932443
Si Si7 0.286901 0.429309 0.043011
O O1 0.500000 0.500000 0.500000
O O2 0.576003 0.250000 0.736143
O O3 0.632890 0.536267 0.827961
O O4 0.555496 0.464082 0.874640
O O5 0.191834 0.250000 0.134024
O O6 0.223003 0.523998 0.308073
O O7 0.271839 0.446786 0.171888
O O8 0.135893 0.489155 0.884766
O O9 0.732716 0.250000 0.432312
O O10 0.789977 0.498282 0.453189
O O11 0.652948 0.496385 0.277696
O O12 0.080025 0.250000 0.645835
O O13 0.108475 0.489031 0.552666
O O14 0.000000 0.500000 0.500000
O O15 0.846978 0.250000 0.462075
O O16 0.761630 0.447401 0.143989
O O17 0.428097 0.750000 0.903015
O O18 0.500000 0.500000 0.000000
O O19 0.263972 0.250000 0.957806
#
# Coordination Sequence:
#
# PCOD9160617 Si02
#       7
#     4   4   4   4   4   4   4
#     4  11  23  39  56  78 110 144 189 243 293 345
#     4   9  21  37  56  85 117 146 185 234 280 333
#     4  10  21  38  58  83 115 151 195 237 284 345
#     4  10  21  39  62  91 121 151 190 233 281 341
#     4  10  19  36  60  85 114 150 188 233 282 332
#     4  10  23  41  56  79 113 151 194 243 293 344
#     4  10  20  36  56  81 109 144 191 237 284 340
#
# _framework density 18.414417
#
# number of rings (size 3 to 8) (size 9 to 14) (size 15 to 20)
#    0.000    2.000    1.429    2.571    2.000    6.286 
#    0.000    0.714    0.000    0.000    0.000    0.000 
#    0.000    0.000    0.000    0.000    0.000    0.000 
#
# Total GULP energy -156002.104386 kJ/mol
# GULP energy per Si atom -5571.503728 kJ/mol
# Density = 1.837250 g / cm^3
# Si number density = 18.414417 Si / 1000 Ang^3
#
#
#
# Elastic Constant Matrix: (Units=GPa)
#
#
# Indices 1 2 3 4 5 6 
#
# 1 164.0674 36.5190 66.7460 0.0000 11.6483 0.0000
# 2 36.5190 27.9425 21.2944 0.0000 -1.6436 0.0000
# 3 66.7460 21.2944 69.5890 0.0000 -2.9241 0.0000
# 4 0.0000 0.0000 0.0000 27.7098 0.0000 -2.4773
# 5 11.6483 -1.6436 -2.9241 0.0000 29.1818 0.0000
# 6 0.0000 0.0000 0.0000 -2.4773 0.0000 27.6271
#
#
#
# Elastic Compliance Matrix: (Units=1/GPa)
#
#
# Indices 1 2 3 4 5 6 
#
# 1 0.012470 -0.009592 -0.009296 0.000000 -0.006449 0.000000
# 2 -0.009592 0.054092 -0.007093 0.000000 0.006165 0.000000
# 3 -0.009296 -0.007093 0.025704 0.000000 0.005887 0.000000
# 4 0.000000 0.000000 0.000000 0.036380 0.000000 0.003262
# 5 -0.006449 0.006165 0.005887 0.000000 0.037779 0.000000
# 6 0.000000 0.000000 0.000000 0.003262 0.000000 0.036489
#
#
# Mechanical properties :
#
#
# Convention : Reuss Voigt Hill
#
# Bulk Modulus (GPa) = 24.81172 56.74643 40.77907
# Shear Modulus (GPa) = 18.63504 26.03972 22.33738
#
# Velocity S-wave (km/s) = 3.18462 3.76452 3.48665
# Velocity P-wave (km/s) = 5.19862 7.05540 6.19695
#
# Compressibility (1/GPa) = 0.04030354
#
# Stress axis : x y z
#
# Youngs Moduli (GPa) = 80.19305 18.48699 38.90394
#
# Poissons Ratio (x) = 0.17733 0.36166
# Poissons Ratio (y) = 0.76923 0.27595
# Poissons Ratio (z) = 0.74549 0.13113
#
# Static dielectric constant tensor:
#      x y z
#    x 1.657550 0.000000 0.017220 
#    y 0.000000 1.650890 0.000000 
#    z 0.017220 0.000000 1.632240 
# 
# From -- ./inp_files/28570.got.cif
#   From: 2010.05.17/outbox.cif.g08.bks.cpg/sg11_15_cif.got.tgz:28570.got - 2010.06.03 12:22:45.
