data_PCOD9160659
_publ_section_title
;
Structure prediction by ZEFSAII (Michael W. Deem and Ramdas Pophale) SiO2 
 PCOD9160659
Probable space group: P 21/M
;
_chemical_formula_sum "Si O2"
_cell_formula_units_Z 32
_cell_length_a 8.850073
_cell_length_b 14.571657
_cell_length_c 23.530041
_cell_angle_alpha 90.000000
_cell_angle_beta 145.934238
_cell_angle_gamma 90.000000
_cell_volume 1699.723279
_symmetry_space_group_name_H-M "P 21/M"
_symmetry_group_IT_number 11
_symmetry_cell_setting 'monoclinic'
loop_
_space_group_symop_operation_xyz
x,y,z
-x,1/2+y,-z
-x,-y,-z
x,1/2-y,z
loop_
_atom_site_type_symbol
_atom_site_label
_atom_site_fract_x
_atom_site_fract_y
_atom_site_fract_z
Si Si1 0.856263 0.141892 0.940861
Si Si2 0.572480 0.856415 0.294502
Si Si3 0.911970 0.029794 0.534787
Si Si4 0.888401 0.019004 0.165696
Si Si5 0.708770 0.983231 0.980950
Si Si6 0.639709 0.644758 0.644330
Si Si7 0.758183 0.355671 0.694975
Si Si8 0.277403 0.148595 0.463216
O O1 0.884809 0.250000 0.963911
O O2 0.645939 0.134169 0.823150
O O3 0.748366 0.077569 0.958038
O O4 0.131328 0.095626 0.003378
O O5 0.645281 0.750000 0.323187
O O6 0.435560 0.882702 0.312197
O O7 0.841759 0.910994 0.364778
O O8 0.636869 0.087177 0.442534
O O9 0.874739 0.938315 0.559683
O O10 0.000000 0.000000 0.500000
O O11 0.602712 0.042394 0.105410
O O12 0.122479 0.094020 0.247487
O O13 0.999046 0.925981 0.228844
O O14 0.836690 0.998506 0.083217
O O15 0.598022 0.750000 0.650258
O O16 0.726588 0.646697 0.605451
O O17 0.841167 0.250000 0.729767
O O18 0.580453 0.360905 0.582728
O O19 0.182731 0.250000 0.453612
#
# Coordination Sequence:
#
# PCOD9160659 Si02
#       8
#     4   4   4   4   4   4   4   4
#     4  10  22  43  65  89 120 154 197 257 307 352
#     4  10  20  35  60  90 120 154 199 245 299 357
#     4  12  22  36  62  90 122 160 197 244 294 353
#     4  11  22  41  62  90 118 162 201 249 302 354
#     4  10  24  40  65  91 119 151 208 254 302 360
#     4  11  25  41  58  87 128 165 199 239 297 364
#     4  10  19  36  61  89 121 156 199 248 300 352
#     4  10  22  39  59  88 123 160 199 242 292 355
#
# _framework density 18.826592999999999
#
# number of rings (size 3 to 8) (size 9 to 14) (size 15 to 20)
#    0.000    1.500    3.750    0.750    1.750    2.000 
#    0.000    5.000    0.000    0.000    0.000    0.000 
#    0.000    0.000    0.000    0.000    0.000    0.000 
#
# Total GULP energy -178689.560874 kJ/mol
# GULP energy per Si atom -5584.048777 kJ/mol
# Density = 1.878374 g / cm^3
# Si number density = 18.826593 Si / 1000 Ang^3
#
#
#
# Elastic Constant Matrix: (Units=GPa)
#
#
# Indices 1 2 3 4 5 6 
#
# 1 28.4881 14.2089 -0.5147 0.0000 13.5308 0.0000
# 2 14.2089 106.5878 33.6045 0.0000 24.1474 0.0000
# 3 -0.5147 33.6045 59.3351 0.0000 14.5058 0.0000
# 4 0.0000 0.0000 0.0000 28.4950 0.0000 -2.2047
# 5 13.5308 24.1474 14.5058 0.0000 29.8961 0.0000
# 6 0.0000 0.0000 0.0000 -2.2047 0.0000 25.9077
#
#
#
# Elastic Compliance Matrix: (Units=1/GPa)
#
#
# Indices 1 2 3 4 5 6 
#
# 1 0.047834 -0.003832 0.008080 0.000000 -0.022475 0.000000
# 2 -0.003832 0.013140 -0.006018 0.000000 -0.005959 0.000000
# 3 0.008080 -0.006018 0.022734 0.000000 -0.009827 0.000000
# 4 0.000000 0.000000 0.000000 0.035326 0.000000 0.003006
# 5 -0.022475 -0.005959 -0.009827 0.000000 0.053202 0.000000
# 6 0.000000 0.000000 0.000000 0.003006 0.000000 0.038854
#
#
# Mechanical properties :
#
#
# Convention : Reuss Voigt Hill
#
# Bulk Modulus (GPa) = 12.47396 32.11204 22.29300
# Shear Modulus (GPa) = 20.71625 26.66725 23.69175
#
# Velocity S-wave (km/s) = 3.32078 3.76768 3.55127
# Velocity P-wave (km/s) = 4.61991 6.00175 5.35558
#
# Compressibility (1/GPa) = 0.08016700
#
# Stress axis : x y z
#
# Youngs Moduli (GPa) = 20.90543 76.10200 43.98610
#
# Poissons Ratio (x) = 0.29166 -0.35540
# Poissons Ratio (y) = 0.08012 0.26473
# Poissons Ratio (z) = -0.16891 0.45802
#
# Static dielectric constant tensor:
#      x y z
#    x 1.648890 0.000000 -0.000350 
#    y 0.000000 1.670440 0.000000 
#    z -0.000350 0.000000 1.681430 
# 
# From -- ./inp_files/27775.got.cif
#   From: 2010.05.17/outbox.cif.g08.bks.cpg/sg11_14_cif.got.tgz:27775.got - 2010.06.03 12:22:45.
