data_PCOD9160761
_publ_section_title
;
Structure prediction by ZEFSAII (Michael W. Deem and Ramdas Pophale) SiO2 
 PCOD9160761
Probable space group: P 21/M
;
_chemical_formula_sum "Si O2"
_cell_formula_units_Z 32
_cell_length_a 20.365447
_cell_length_b 7.933260
_cell_length_c 25.886756
_cell_angle_alpha 90.000000
_cell_angle_beta 21.951335
_cell_angle_gamma 90.000000
_cell_volume 1563.452057
_symmetry_space_group_name_H-M "P 21/M"
_symmetry_group_IT_number 11
_symmetry_cell_setting 'monoclinic'
loop_
_space_group_symop_operation_xyz
x,y,z
-x,1/2+y,-z
-x,-y,-z
x,1/2-y,z
loop_
_atom_site_type_symbol
_atom_site_label
_atom_site_fract_x
_atom_site_fract_y
_atom_site_fract_z
Si Si1 0.556470 0.052708 0.599879
Si Si2 0.826590 0.451389 0.095553
Si Si3 0.418035 0.453539 0.114329
Si Si4 0.668392 0.454457 0.631394
Si Si5 0.027009 0.046946 0.420811
Si Si6 0.326349 0.444451 0.596280
Si Si7 0.389721 0.547896 0.923126
Si Si8 0.062754 0.543175 0.099645
O O1 0.599939 0.250000 0.564590
O O2 0.621572 0.986668 0.607928
O O3 0.346412 0.031614 0.753716
O O4 0.638688 0.966479 0.489981
O O5 0.803940 0.250000 0.113003
O O6 0.855317 0.505615 0.015312
O O7 0.000000 0.500000 0.000000
O O8 0.412921 0.250000 0.121968
O O9 0.217610 0.516001 0.264451
O O10 0.530983 0.517393 0.080891
O O11 0.500000 0.500000 0.000000
O O12 0.665666 0.250000 0.632745
O O13 0.525890 0.510593 0.777568
O O14 0.860320 0.513432 0.509621
O O15 0.027873 0.250000 0.416329
O O16 0.000000 0.000000 0.500000
O O17 0.500000 0.500000 0.500000
O O18 0.308671 0.250000 0.622288
O O19 0.136606 0.521353 0.749258
O O20 0.377460 0.750000 0.936781
O O21 0.197694 0.486087 0.045645
O O22 0.060524 0.750000 0.102363
#
# Coordination Sequence:
#
# PCOD9160761 Si02
#       8
#     4   4   4   4   4   4   4   4
#     4  11  23  39  57  85 121 156 196 243 291 351
#     4  11  21  36  60  88 116 151 192 243 297 349
#     4  10  22  37  57  85 119 155 193 239 290 350
#     4  10  21  36  58  87 120 153 193 248 299 343
#     4  10  20  36  58  86 116 154 200 245 296 348
#     4  11  23  41  62  86 117 157 197 244 301 357
#     4  10  19  37  61  85 114 151 194 243 294 348
#     4   9  20  37  59  84 113 147 192 242 292 347
#
# _framework density 20.46753
#
# number of rings (size 3 to 8) (size 9 to 14) (size 15 to 20)
#    0.000    1.750    2.500    1.875    0.000    3.500 
#    0.000    3.125    0.000    0.000    0.000    0.000 
#    0.000    0.000    0.000    0.000    0.000    0.000 
#
# Total GULP energy -178765.328517 kJ/mol
# GULP energy per Si atom -5586.416516 kJ/mol
# Density = 2.042094 g / cm^3
# Si number density = 20.467530 Si / 1000 Ang^3
#
#
#
# Elastic Constant Matrix: (Units=GPa)
#
#
# Indices 1 2 3 4 5 6 
#
# 1 88.4891 -3.7170 16.0352 0.0000 -15.5131 0.0000
# 2 -3.7170 15.7391 -3.6923 0.0000 -8.1868 0.0000
# 3 16.0352 -3.6923 107.9990 0.0000 -9.8227 0.0000
# 4 0.0000 0.0000 0.0000 19.2418 0.0000 3.3380
# 5 -15.5131 -8.1868 -9.8227 0.0000 38.8749 0.0000
# 6 0.0000 0.0000 0.0000 3.3380 0.0000 20.8833
#
#
#
# Elastic Compliance Matrix: (Units=1/GPa)
#
#
# Indices 1 2 3 4 5 6 
#
# 1 0.012822 0.005917 -0.001149 0.000000 0.006072 0.000000
# 2 0.005917 0.075721 0.003455 0.000000 0.019180 0.000000
# 3 -0.001149 0.003455 0.009798 0.000000 0.002745 0.000000
# 4 0.000000 0.000000 0.000000 0.053452 0.000000 -0.008544
# 5 0.006072 0.019180 0.002745 0.000000 0.032880 0.000000
# 6 0.000000 0.000000 0.000000 -0.008544 0.000000 0.049251
#
#
# Mechanical properties :
#
#
# Convention : Reuss Voigt Hill
#
# Bulk Modulus (GPa) = 8.71185 25.49765 17.10475
# Shear Modulus (GPa) = 19.55111 29.37341 24.46226
#
# Velocity S-wave (km/s) = 3.09403 3.79241 3.46088
# Velocity P-wave (km/s) = 4.12670 5.62683 4.93411
#
# Compressibility (1/GPa) = 0.11478612
#
# Stress axis : x y z
#
# Youngs Moduli (GPa) = 77.98973 13.20644 102.06466
#
# Poissons Ratio (x) = -0.07815 0.11729
# Poissons Ratio (y) = -0.46148 -0.35261
# Poissons Ratio (z) = 0.08962 -0.04562
#
# Static dielectric constant tensor:
#      x y z
#    x 1.716400 0.000000 -0.030480 
#    y 0.000000 1.722930 0.000000 
#    z -0.030480 0.000000 1.729020 
# 
# From -- ./inp_files/72056.got.cif
#   From: 2010.05.17/outbox.cif.g08.bks.cpg/sg11_37_cif.got.tgz:72056.got - 2010.06.03 12:22:45.
