data_PCOD9160716
_publ_section_title
;
Structure prediction by ZEFSAII (Michael W. Deem and Ramdas Pophale) SiO2 
 PCOD9160716
Probable space group: P 21/M
;
_chemical_formula_sum "Si O2"
_cell_formula_units_Z 32
_cell_length_a 13.821327
_cell_length_b 14.138585
_cell_length_c 10.178617
_cell_angle_alpha 90.000000
_cell_angle_beta 55.393158
_cell_angle_gamma 90.000000
_cell_volume 1637.119839
_symmetry_space_group_name_H-M "P 21/M"
_symmetry_group_IT_number 11
_symmetry_cell_setting 'monoclinic'
loop_
_space_group_symop_operation_xyz
x,y,z
-x,1/2+y,-z
-x,-y,-z
x,1/2-y,z
loop_
_atom_site_type_symbol
_atom_site_label
_atom_site_fract_x
_atom_site_fract_y
_atom_site_fract_z
Si Si1 0.364742 0.639265 0.460966
Si Si2 0.296844 0.636735 0.795809
Si Si3 0.934120 0.002751 0.690473
Si Si4 0.319621 0.536946 0.232831
Si Si5 0.957732 0.363737 0.903363
Si Si6 0.890238 0.638951 0.959936
Si Si7 0.543397 0.060617 0.108297
Si Si8 0.386045 0.358711 0.848976
O O1 0.336335 0.750000 0.478005
O O2 0.318404 0.598631 0.633379
O O3 0.307282 0.590810 0.379211
O O4 0.507079 0.632275 0.338389
O O5 0.290223 0.750000 0.792545
O O6 0.405054 0.610143 0.804944
O O7 0.174330 0.604743 0.953746
O O8 0.799941 0.015499 0.747847
O O9 0.981250 0.088085 0.745486
O O10 0.932800 0.916547 0.796969
O O11 0.000000 0.000000 0.500000
O O12 0.403878 0.448172 0.204316
O O13 0.394770 0.598876 0.070149
O O14 0.960226 0.250000 0.889152
O O15 0.042960 0.390447 0.958168
O O16 0.916098 0.750000 0.920661
O O17 0.749357 0.630143 0.088733
O O18 0.588001 0.950955 0.083328
O O19 0.396528 0.250000 0.893659
#
# Coordination Sequence:
#
# PCOD9160716 Si02
#       8
#     4   4   4   4   4   4   4   4
#     4   9  20  35  57  89 117 147 191 236 286 342
#     4  10  20  37  60  87 117 151 190 237 284 335
#     4  12  25  41  59  86 119 153 194 244 291 344
#     4  10  21  36  55  84 115 150 186 233 293 339
#     4  10  22  41  63  85 114 153 198 242 286 337
#     4  10  21  40  64  85 112 157 200 238 286 343
#     4  10  19  37  59  81 115 149 191 232 279 353
#     4   9  17  34  58  83 113 147 186 233 282 337
#
# _framework density 19.546522
#
# number of rings (size 3 to 8) (size 9 to 14) (size 15 to 20)
#    0.000    2.000    2.500    0.375    1.750    3.500 
#    2.250    2.500    0.000    0.000    0.000    0.875 
#    0.000    0.000    0.000    0.000    0.000    0.000 
#
# Total GULP energy -178281.686411 kJ/mol
# GULP energy per Si atom -5571.302700 kJ/mol
# Density = 1.950203 g / cm^3
# Si number density = 19.546522 Si / 1000 Ang^3
#
#
#
# Elastic Constant Matrix: (Units=GPa)
#
#
# Indices 1 2 3 4 5 6 
#
# 1 107.4474 22.8679 40.3934 0.0000 21.6478 0.0000
# 2 22.8679 46.1148 30.8969 0.0000 4.8110 0.0000
# 3 40.3934 30.8969 127.2932 0.0000 35.9181 0.0000
# 4 0.0000 0.0000 0.0000 31.7803 0.0000 26.1990
# 5 21.6478 4.8110 35.9181 0.0000 30.8983 0.0000
# 6 0.0000 0.0000 0.0000 26.1990 0.0000 59.0789
#
#
#
# Elastic Compliance Matrix: (Units=1/GPa)
#
#
# Indices 1 2 3 4 5 6 
#
# 1 0.011957 -0.004732 -0.000729 0.000000 -0.006793 0.000000
# 2 -0.004732 0.028272 -0.007521 0.000000 0.007656 0.000000
# 3 -0.000729 -0.007521 0.014045 0.000000 -0.014645 0.000000
# 4 0.000000 0.000000 0.000000 0.049598 0.000000 -0.021995
# 5 -0.006793 0.007656 -0.014645 0.000000 0.052956 0.000000
# 6 0.000000 0.000000 0.000000 -0.021995 0.000000 0.026680
#
#
# Mechanical properties :
#
#
# Convention : Reuss Voigt Hill
#
# Bulk Modulus (GPa) = 35.32338 52.13020 43.72679
# Shear Modulus (GPa) = 22.84063 36.79797 29.81930
#
# Velocity S-wave (km/s) = 3.42208 4.34358 3.91007
# Velocity P-wave (km/s) = 5.80731 7.20301 6.54248
#
# Compressibility (1/GPa) = 0.02830986
#
# Stress axis : x y z
#
# Youngs Moduli (GPa) = 83.63575 35.37080 71.19945
#
# Poissons Ratio (x) = 0.16738 0.05189
# Poissons Ratio (y) = 0.39578 0.53548
# Poissons Ratio (z) = 0.06095 0.26602
#
# Static dielectric constant tensor:
#      x y z
#    x 1.705910 0.000000 -0.022060 
#    y 0.000000 1.722740 0.000000 
#    z -0.022060 0.000000 1.714030 
# 
# From -- ./inp_files/22156.got.cif
#   From: 2010.05.17/outbox.cif.g08.bks.cpg/sg11_12_cif.got.tgz:22156.got - 2010.06.03 12:22:45.
