data_PCOD9160287
_publ_section_title
;
Structure prediction by ZEFSAII (Michael W. Deem and Ramdas Pophale) SiO2 
 PCOD9160287
Probable space group: P 21/M
;
_chemical_formula_sum "Si O2"
_cell_formula_units_Z 28
_cell_length_a 9.272544
_cell_length_b 13.961849
_cell_length_c 13.659255
_cell_angle_alpha 90.000000
_cell_angle_beta 118.440171
_cell_angle_gamma 90.000000
_cell_volume 1554.938724
_symmetry_space_group_name_H-M "P 21/M"
_symmetry_group_IT_number 11
_symmetry_cell_setting 'monoclinic'
loop_
_space_group_symop_operation_xyz
x,y,z
-x,1/2+y,-z
-x,-y,-z
x,1/2-y,z
loop_
_atom_site_type_symbol
_atom_site_label
_atom_site_fract_x
_atom_site_fract_y
_atom_site_fract_z
Si Si1 0.620366 0.360113 0.576568
Si Si2 0.216384 0.862349 0.823282
Si Si3 0.104752 0.480403 0.937017
Si Si4 0.593502 0.636419 0.881019
Si Si5 0.497366 0.537494 0.652492
Si Si6 0.858746 0.495143 0.373813
Si Si7 0.000661 0.639993 0.276388
O O1 0.580690 0.250000 0.589359
O O2 0.581426 0.438991 0.646147
O O3 0.523536 0.394386 0.448771
O O4 0.815598 0.364614 0.621027
O O5 0.184131 0.750000 0.822799
O O6 0.411973 0.876285 0.869103
O O7 0.155677 0.923071 0.896262
O O8 0.130641 0.905943 0.698231
O O9 0.004208 0.416935 0.826786
O O10 0.268099 0.421055 0.016302
O O11 0.000000 0.500000 0.000000
O O12 0.627516 0.750000 0.889316
O O13 0.585105 0.592607 0.769062
O O14 0.315690 0.511636 0.630814
O O15 0.000000 0.500000 0.500000
O O16 0.878133 0.587347 0.310656
O O17 0.956565 0.750000 0.246928
#
# Coordination Sequence:
#
# PCOD9160287 Si02
#       7
#     4   4   4   4   4   4   4
#     4  10  20  35  54  77 110 147 183 224 278 337
#     4   9  21  38  58  83 112 148 194 234 279 334
#     4  11  22  37  58  82 117 147 187 232 287 327
#     4  10  20  37  59  82 108 148 192 232 277 332
#     4  10  20  35  57  79 112 142 189 229 279 328
#     4  10  19  35  57  83 111 144 181 230 280 328
#     4  10  21  36  55  80 110 146 183 226 280 334
#
# _framework density 18.00714
#
# number of rings (size 3 to 8) (size 9 to 14) (size 15 to 20)
#    0.000    2.000    1.429    2.143    0.000    2.857 
#    0.000    0.714    0.000    0.000    0.000    0.000 
#    0.000    0.000    0.000    0.000    0.000    0.000 
#
# Total GULP energy -156256.143165 kJ/mol
# GULP energy per Si atom -5580.576542 kJ/mol
# Density = 1.796615 g / cm^3
# Si number density = 18.007140 Si / 1000 Ang^3
#
#
#
# Elastic Constant Matrix: (Units=GPa)
#
#
# Indices 1 2 3 4 5 6 
#
# 1 48.0059 49.9911 23.5816 0.0000 -16.2825 0.0000
# 2 49.9911 158.6659 41.3892 0.0000 -11.6956 0.0000
# 3 23.5816 41.3892 72.1340 0.0000 -1.2543 0.0000
# 4 0.0000 0.0000 0.0000 15.5143 0.0000 4.5787
# 5 -16.2825 -11.6956 -1.2543 0.0000 31.3793 0.0000
# 6 0.0000 0.0000 0.0000 4.5787 0.0000 24.2055
#
#
#
# Elastic Compliance Matrix: (Units=1/GPa)
#
#
# Indices 1 2 3 4 5 6 
#
# 1 0.040039 -0.009440 -0.007378 0.000000 0.016962 0.000000
# 2 -0.009440 0.009855 -0.002592 0.000000 -0.001329 0.000000
# 3 -0.007378 -0.002592 0.017691 0.000000 -0.004087 0.000000
# 4 0.000000 0.000000 0.000000 0.068268 0.000000 -0.012913
# 5 0.016962 -0.001329 -0.004087 0.000000 0.040011 0.000000
# 6 0.000000 0.000000 0.000000 -0.012913 0.000000 0.043756
#
#
# Mechanical properties :
#
#
# Convention : Reuss Voigt Hill
#
# Bulk Modulus (GPa) = 34.76370 56.52551 45.64461
# Shear Modulus (GPa) = 18.65491 25.14275 21.89883
#
# Velocity S-wave (km/s) = 3.22215 3.74072 3.49107
# Velocity P-wave (km/s) = 5.76111 7.07927 6.45393
#
# Compressibility (1/GPa) = 0.02876564
#
# Stress axis : x y z
#
# Youngs Moduli (GPa) = 24.97592 101.47179 56.52632
#
# Poissons Ratio (x) = 0.95791 0.41703
# Poissons Ratio (y) = 0.23578 0.14649
# Poissons Ratio (z) = 0.18426 0.26297
#
# Static dielectric constant tensor:
#      x y z
#    x 1.600430 0.000000 0.002370 
#    y 0.000000 1.593930 0.000000 
#    z 0.002370 0.000000 1.615880 
# 
# From -- ./inp_files/22288.got.cif
#   From: 2010.05.17/outbox.cif.g08.bks.cpg/sg11_12_cif.got.tgz:22288.got - 2010.06.03 12:22:45.
