data_PCOD9160550
_publ_section_title
;
Structure prediction by ZEFSAII (Michael W. Deem and Ramdas Pophale) SiO2 
 PCOD9160550
Probable space group: P 21/M
;
_chemical_formula_sum "Si O2"
_cell_formula_units_Z 32
_cell_length_a 24.262003
_cell_length_b 8.449741
_cell_length_c 15.159613
_cell_angle_alpha 90.000000
_cell_angle_beta 149.801839
_cell_angle_gamma 90.000000
_cell_volume 1563.217541
_symmetry_space_group_name_H-M "P 21/M"
_symmetry_group_IT_number 11
_symmetry_cell_setting 'monoclinic'
loop_
_space_group_symop_operation_xyz
x,y,z
-x,1/2+y,-z
-x,-y,-z
x,1/2-y,z
loop_
_atom_site_type_symbol
_atom_site_label
_atom_site_fract_x
_atom_site_fract_y
_atom_site_fract_z
Si Si1 0.904966 0.436756 0.927614
Si Si2 0.329019 0.562852 0.422664
Si Si3 0.219140 0.058455 0.938205
Si Si4 0.025913 0.560119 0.785890
Si Si5 0.430516 0.942642 0.741074
Si Si6 0.381654 0.066897 0.313600
Si Si7 0.222388 0.560893 0.571453
Si Si8 0.319120 0.442262 0.886876
O O1 0.915442 0.250000 0.953737
O O2 0.916637 0.499826 0.043755
O O3 0.795112 0.457591 0.718638
O O4 0.000000 0.500000 0.000000
O O5 0.347521 0.750000 0.428203
O O6 0.411460 0.512239 0.612492
O O7 0.325645 0.463774 0.329247
O O8 0.218408 0.250000 0.939992
O O9 0.260684 0.012879 0.898319
O O10 0.309469 0.997852 0.134441
O O11 0.100324 0.002404 0.807813
O O12 0.029410 0.750000 0.786311
O O13 0.898822 0.508233 0.612715
O O14 0.428937 0.750000 0.740877
O O15 0.325312 0.995916 0.652739
O O16 0.552316 0.991976 0.938003
O O17 0.395201 0.250000 0.311833
O O18 0.500000 0.000000 0.500000
O O19 0.215652 0.750000 0.551328
O O20 0.256929 0.515884 0.718345
O O21 0.316615 0.250000 0.877563
#
# Coordination Sequence:
#
# PCOD9160550 Si02
#       8
#     4   4   4   4   4   4   4   4
#     4  10  21  35  56  85 119 158 196 239 291 347
#     4  10  19  36  58  84 117 155 193 233 287 349
#     4  10  22  40  62  87 120 162 204 248 302 362
#     4  11  23  40  61  88 122 161 203 253 302 352
#     4   9  19  37  63  90 122 159 196 243 305 368
#     4  11  22  36  57  86 119 157 197 240 289 350
#     4  11  23  40  63  90 118 158 203 250 309 368
#     4  10  21  40  63  88 117 155 201 254 309 362
#
# _framework density 20.470600000000001
#
# number of rings (size 3 to 8) (size 9 to 14) (size 15 to 20)
#    0.000    1.750    1.250    3.000    0.000    6.000 
#    0.000    3.750    0.000    0.000    0.000    0.000 
#    0.000    0.000    0.000    0.000    0.000    0.000 
#
# Total GULP energy -178460.424010 kJ/mol
# GULP energy per Si atom -5576.888250 kJ/mol
# Density = 2.042401 g / cm^3
# Si number density = 20.470600 Si / 1000 Ang^3
#
#
#
# Elastic Constant Matrix: (Units=GPa)
#
#
# Indices 1 2 3 4 5 6 
#
# 1 82.2318 -2.9428 20.0680 0.0000 5.8816 0.0000
# 2 -2.9428 1.2131 10.3420 0.0000 3.3125 0.0000
# 3 20.0680 10.3420 101.4608 0.0000 4.7378 0.0000
# 4 0.0000 0.0000 0.0000 24.4859 0.0000 1.2816
# 5 5.8816 3.3125 4.7378 0.0000 35.1057 0.0000
# 6 0.0000 0.0000 0.0000 1.2816 0.0000 23.2903
#
#
#
# Elastic Compliance Matrix: (Units=1/GPa)
#
#
# Indices 1 2 3 4 5 6 
#
# 1 0.002045 -0.156120 0.014931 0.000000 0.012374 0.000000
# 2 -0.156120 -2.246782 0.250352 0.000000 0.204372 0.000000
# 3 0.014931 0.250352 -0.017506 0.000000 -0.023762 0.000000
# 4 0.000000 0.000000 0.000000 0.040958 0.000000 -0.002254
# 5 0.012374 0.204372 -0.023762 0.000000 0.010335 0.000000
# 6 0.000000 0.000000 0.000000 -0.002254 0.000000 0.043060
#
#
# Mechanical properties :
#
#
# Convention : Reuss Voigt Hill
#
# Bulk Modulus (GPa) = -0.48926 26.64889 13.07982
# Shear Modulus (GPa) = -1.62998 27.07228 12.72115
#
# Velocity S-wave (km/s) = -0.89330 3.64056 2.49556
# Velocity P-wave (km/s) = 1.14171 5.54238 3.83500
#
# Compressibility (1/GPa) = -2.04391618
#
# Stress axis : x y z
#
# Youngs Moduli (GPa) = 489.04783 -0.44508 -57.12220
#
# Poissons Ratio (x) = -0.06949 0.85290
# Poissons Ratio (y) = 76.35017 14.30068
# Poissons Ratio (z) = -7.30209 0.11143
#
# Static dielectric constant tensor:
#      x y z
#    x 2.649490 0.000000 0.520440 
#    y 0.000000 1.729670 0.000000 
#    z 0.520440 0.000000 2.057430 
# 
# From -- ./inp_files/49445.got.cif
#   From: 2010.05.17/outbox.cif.g08.bks.cpg/sg11_25_cif.got.tgz:49445.got - 2010.06.03 12:22:45.
