data_PCOD9160286
_publ_section_title
;
Structure prediction by ZEFSAII (Michael W. Deem and Ramdas Pophale) SiO2 
 PCOD9160286
Probable space group: P 21/M
;
_chemical_formula_sum "Si O2"
_cell_formula_units_Z 28
_cell_length_a 13.307677
_cell_length_b 13.049857
_cell_length_c 8.325703
_cell_angle_alpha 90.000000
_cell_angle_beta 60.070012
_cell_angle_gamma 90.000000
_cell_volume 1253.041651
_symmetry_space_group_name_H-M "P 21/M"
_symmetry_group_IT_number 11
_symmetry_cell_setting 'monoclinic'
loop_
_space_group_symop_operation_xyz
x,y,z
-x,1/2+y,-z
-x,-y,-z
x,1/2-y,z
loop_
_atom_site_type_symbol
_atom_site_label
_atom_site_fract_x
_atom_site_fract_y
_atom_site_fract_z
Si Si1 0.481739 0.872859 0.401405
Si Si2 0.149528 0.928421 0.920026
Si Si3 0.165760 0.051147 0.321152
Si Si4 0.660877 0.374512 0.797043
Si Si5 0.951717 0.983937 0.290986
Si Si6 0.401930 0.865427 0.807720
Si Si7 0.261167 0.364517 0.943089
O O1 0.458375 0.750000 0.432167
O O2 0.397712 0.907902 0.323807
O O3 0.460621 0.911382 0.601045
O O4 0.611066 0.881484 0.228906
O O5 0.263820 0.867303 0.876814
O O6 0.115763 0.932880 0.762065
O O7 0.184211 0.046381 0.929615
O O8 0.033805 0.912179 0.115867
O O9 0.136600 0.078013 0.526701
O O10 0.220039 0.936977 0.281496
O O11 0.250478 0.118511 0.143832
O O12 0.043149 0.045485 0.327823
O O13 0.672978 0.250000 0.790455
O O14 0.590627 0.405973 0.015839
O O15 0.445929 0.750000 0.785009
O O16 0.223574 0.250000 0.933914
#
# Coordination Sequence:
#
# PCOD9160286 Si02
#       7
#     4   4   4   4   4   4   4
#     4   9  20  36  55  80 114 145 175 222 275 326
#     4  10  19  38  55  80 109 142 180 224 270 324
#     4  10  19  38  55  80 109 142 180 224 270 324
#     4  10  19  35  57  83 110 137 176 227 277 326
#     4   9  19  35  58  77 111 141 175 231 274 307
#     4  10  19  35  57  83 110 137 176 227 277 326
#     4  10  21  39  54  73 111 150 181 217 264 325
#
# _framework density 22.345624999999998
#
# number of rings (size 3 to 8) (size 9 to 14) (size 15 to 20)
#    0.000    2.286    2.857    0.857    0.000    1.143 
#    2.571   15.000    0.000    0.000    0.000    0.000 
#    0.000    0.000    0.000    0.000    0.000    0.000 
#
# Total GULP energy -156043.427249 kJ/mol
# GULP energy per Si atom -5572.979545 kJ/mol
# Density = 2.229477 g / cm^3
# Si number density = 22.345625 Si / 1000 Ang^3
#
#
#
# Elastic Constant Matrix: (Units=GPa)
#
#
# Indices 1 2 3 4 5 6 
#
# 1 46.9393 2.4245 20.6383 0.0000 17.2416 0.0000
# 2 2.4245 70.4495 11.1402 0.0000 -1.8075 0.0000
# 3 20.6383 11.1402 157.8991 0.0000 16.0826 0.0000
# 4 0.0000 0.0000 0.0000 3.4108 0.0000 2.8690
# 5 17.2416 -1.8075 16.0826 0.0000 27.4429 0.0000
# 6 0.0000 0.0000 0.0000 2.8690 0.0000 18.8839
#
#
#
# Elastic Compliance Matrix: (Units=1/GPa)
#
#
# Indices 1 2 3 4 5 6 
#
# 1 0.028365 -0.001102 -0.001922 0.000000 -0.016767 0.000000
# 2 -0.001102 0.014467 -0.001110 0.000000 0.002296 0.000000
# 3 -0.001922 -0.001110 0.006963 0.000000 -0.002946 0.000000
# 4 0.000000 0.000000 0.000000 0.336141 0.000000 -0.051069
# 5 -0.016767 0.002296 -0.002946 0.000000 0.048851 0.000000
# 6 0.000000 0.000000 0.000000 -0.051069 0.000000 0.060714
#
#
# Mechanical properties :
#
#
# Convention : Reuss Voigt Hill
#
# Bulk Modulus (GPa) = 24.08177 38.18820 31.13498
# Shear Modulus (GPa) = 9.65973 26.01986 17.83980
#
# Velocity S-wave (km/s) = 2.08141 3.41607 2.82859
# Velocity P-wave (km/s) = 4.07145 5.71719 4.96301
#
# Compressibility (1/GPa) = 0.04152519
#
# Stress axis : x y z
#
# Youngs Moduli (GPa) = 35.25477 69.12272 143.62085
#
# Poissons Ratio (x) = 0.07620 0.27602
# Poissons Ratio (y) = 0.03887 0.15949
# Poissons Ratio (z) = 0.06776 0.07676
#
# Static dielectric constant tensor:
#      x y z
#    x 1.833580 0.000000 0.034000 
#    y 0.000000 1.828690 0.000000 
#    z 0.034000 0.000000 1.933450 
# 
# From -- ./inp_files/22098.got.cif
#   From: 2010.05.17/outbox.cif.g08.bks.cpg/sg11_12_cif.got.tgz:22098.got - 2010.06.03 12:22:45.
