data_PCOD9160869
_publ_section_title
;
Structure prediction by ZEFSAII (Michael W. Deem and Ramdas Pophale) SiO2 
 PCOD9160869
Probable space group: P 21/M
;
_chemical_formula_sum "Si O2"
_cell_formula_units_Z 32
_cell_length_a 8.931473
_cell_length_b 15.498779
_cell_length_c 10.742025
_cell_angle_alpha 90.000000
_cell_angle_beta 90.789880
_cell_angle_gamma 90.000000
_cell_volume 1486.844200
_symmetry_space_group_name_H-M "P 21/M"
_symmetry_group_IT_number 11
_symmetry_cell_setting 'monoclinic'
loop_
_space_group_symop_operation_xyz
x,y,z
-x,1/2+y,-z
-x,-y,-z
x,1/2-y,z
loop_
_atom_site_type_symbol
_atom_site_label
_atom_site_fract_x
_atom_site_fract_y
_atom_site_fract_z
Si Si1 0.285227 0.010525 0.930682
Si Si2 0.764621 0.472457 0.795350
Si Si3 0.749101 0.149667 0.421767
Si Si4 0.413652 0.648723 0.322322
Si Si5 0.577125 0.620141 0.696960
Si Si6 0.726947 0.848946 0.438651
Si Si7 0.506297 0.848946 0.964785
Si Si8 0.915220 0.990697 0.316979
O O1 0.379750 0.920845 0.928478
O O2 0.176570 0.015938 0.813419
O O3 0.208460 0.006296 0.065708
O O4 0.390960 0.095610 0.938973
O O5 0.683738 0.380217 0.796911
O O6 0.631156 0.523192 0.723055
O O7 0.913064 0.481081 0.717674
O O8 0.792944 0.250000 0.408565
O O9 0.697099 0.132844 0.562093
O O10 0.593941 0.134283 0.344862
O O11 0.870822 0.082009 0.376775
O O12 0.437783 0.750000 0.316031
O O13 0.579052 0.616790 0.363101
O O14 0.677434 0.651344 0.582778
O O15 0.595212 0.659390 0.834072
O O16 0.762221 0.750000 0.403723
O O17 0.857840 0.914617 0.406176
O O18 0.467983 0.750000 0.999850
#
# Coordination Sequence:
#
# PCOD9160869 Si02
#       8
#     4   4   4   4   4   4   4   4
#     4  10  24  40  58  89 117 157 204 244 291 351
#     4  11  24  40  58  84 124 167 201 241 294 353
#     4  10  20  38  64  90 118 153 199 253 302 352
#     4   9  20  38  60  89 121 156 201 250 299 351
#     4  10  19  38  64  90 116 149 198 248 302 352
#     4  10  22  38  63  93 122 156 196 248 302 355
#     4  10  20  38  66  91 113 144 198 261 300 339
#     4  12  24  40  59  86 127 165 196 238 298 362
#
# _framework density 21.522093999999999
#
# number of rings (size 3 to 8) (size 9 to 14) (size 15 to 20)
#    0.000    1.750    1.250    3.750    3.500    5.500 
#    0.000    5.000    0.000    4.500    0.000    0.000 
#    0.000    0.000    0.000    0.000    0.000    0.000 
#
# Total GULP energy -178601.552369 kJ/mol
# GULP energy per Si atom -5581.298512 kJ/mol
# Density = 2.147311 g / cm^3
# Si number density = 21.522094 Si / 1000 Ang^3
#
#
#
# Elastic Constant Matrix: (Units=GPa)
#
#
# Indices 1 2 3 4 5 6 
#
# 1 62.9482 49.3503 19.2761 0.0000 -20.4007 0.0000
# 2 49.3503 122.8290 29.8996 0.0000 -12.8202 0.0000
# 3 19.2761 29.8996 82.4180 0.0000 -3.2321 0.0000
# 4 0.0000 0.0000 0.0000 14.0666 0.0000 -0.5828
# 5 -20.4007 -12.8202 -3.2321 0.0000 42.0644 0.0000
# 6 0.0000 0.0000 0.0000 -0.5828 0.0000 0.6293
#
#
#
# Elastic Compliance Matrix: (Units=1/GPa)
#
#
# Indices 1 2 3 4 5 6 
#
# 1 0.027236 -0.009242 -0.002618 0.000000 0.010191 0.000000
# 2 -0.009242 0.012332 -0.002348 0.000000 -0.000904 0.000000
# 3 -0.002618 -0.002348 0.013560 0.000000 -0.000943 0.000000
# 4 0.000000 0.000000 0.000000 0.073927 0.000000 0.068474
# 5 0.010191 -0.000904 -0.000943 0.000000 0.028368 0.000000
# 6 0.000000 0.000000 0.000000 0.068474 0.000000 1.652560
#
#
# Mechanical properties :
#
#
# Convention : Reuss Voigt Hill
#
# Bulk Modulus (GPa) = 40.46359 51.69412 46.07886
# Shear Modulus (GPa) = 2.71056 22.66333 12.68695
#
# Velocity S-wave (km/s) = 1.12346 3.24856 2.43056
# Velocity P-wave (km/s) = 4.53042 6.17593 5.41603
#
# Compressibility (1/GPa) = 0.02471357
#
# Stress axis : x y z
#
# Youngs Moduli (GPa) = 36.71595 81.09138 73.74545
#
# Poissons Ratio (x) = 0.74945 0.19303
# Poissons Ratio (y) = 0.33933 0.17313
# Poissons Ratio (z) = 0.09611 0.19037
#
# Static dielectric constant tensor:
#      x y z
#    x 1.746880 0.000000 -0.015660 
#    y 0.000000 1.865580 0.000000 
#    z -0.015660 0.000000 1.845030 
# 
# From -- ./inp_files/31862.got.cif
#   From: 2010.05.17/outbox.cif.g08.bks.cpg/sg11_16_cif.got.tgz:31862.got - 2010.06.03 12:22:45.
