data_PCOD9160678
_publ_section_title
;
Structure prediction by ZEFSAII (Michael W. Deem and Ramdas Pophale) SiO2 
 PCOD9160678
Probable space group: P 21/M
;
_chemical_formula_sum "Si O2"
_cell_formula_units_Z 32
_cell_length_a 11.038887
_cell_length_b 15.984952
_cell_length_c 9.909975
_cell_angle_alpha 90.000000
_cell_angle_beta 118.288324
_cell_angle_gamma 90.000000
_cell_volume 1539.837937
_symmetry_space_group_name_H-M "P 21/M"
_symmetry_group_IT_number 11
_symmetry_cell_setting 'monoclinic'
loop_
_space_group_symop_operation_xyz
x,y,z
-x,1/2+y,-z
-x,-y,-z
x,1/2-y,z
loop_
_atom_site_type_symbol
_atom_site_label
_atom_site_fract_x
_atom_site_fract_y
_atom_site_fract_z
Si Si1 0.775881 0.847706 0.853903
Si Si2 0.885449 0.102190 0.642571
Si Si3 0.803886 0.907335 0.273768
Si Si4 0.104347 0.845013 0.055537
Si Si5 0.583523 0.929082 0.956085
Si Si6 0.848902 0.402512 0.195783
Si Si7 0.157623 0.096395 0.396451
Si Si8 0.335892 0.659492 0.693246
O O1 0.736724 0.750000 0.863828
O O2 0.705678 0.919385 0.907787
O O3 0.759802 0.865634 0.685293
O O4 0.939278 0.854535 0.966978
O O5 0.849037 0.137909 0.768953
O O6 0.778273 0.131484 0.473661
O O7 0.043987 0.125617 0.688682
O O8 0.868978 0.002213 0.641393
O O9 0.785352 0.893320 0.423052
O O10 0.819556 0.006853 0.246737
O O11 0.669155 0.879807 0.119238
O O12 0.136558 0.750000 0.033349
O O13 0.162763 0.904866 0.970925
O O14 0.463904 0.897635 0.793693
O O15 0.500000 0.000000 0.000000
O O16 0.741384 0.340944 0.204701
O O17 0.001192 0.369962 0.310373
O O18 0.387133 0.750000 0.680050
#
# Coordination Sequence:
#
# PCOD9160678 Si02
#       8
#     4   4   4   4   4   4   4   4
#     4  10  23  42  61  93 135 172 210 265 334 389
#     4  11  20  38  64  94 128 163 219 276 318 382
#     4  11  20  40  65  96 122 163 226 270 307 376
#     4  10  21  35  58  95 130 168 215 269 333 385
#     4  12  24  42  67  91 128 177 221 259 314 392
#     4  10  19  36  62  91 130 161 209 272 325 380
#     4  10  20  37  67  97 125 163 216 277 323 376
#     4  12  24  40  61  92 134 174 206 266 338 388
#
# _framework density 20.781407999999999
#
# number of rings (size 3 to 8) (size 9 to 14) (size 15 to 20)
#    0.000    1.250    5.000    1.875    1.750    2.000 
#    0.000    5.000    0.000    0.000    0.000    0.000 
#    0.000    0.000    0.000    0.000    0.000    0.000 
#
# Total GULP energy -178163.810391 kJ/mol
# GULP energy per Si atom -5567.619075 kJ/mol
# Density = 2.073411 g / cm^3
# Si number density = 20.781408 Si / 1000 Ang^3
#
#
#
# Elastic Constant Matrix: (Units=GPa)
#
#
# Indices 1 2 3 4 5 6 
#
# 1 34.1306 5.3172 42.5061 0.0000 -13.5166 0.0000
# 2 5.3172 31.0121 8.7758 0.0000 -9.2651 0.0000
# 3 42.5061 8.7758 124.8294 0.0000 -11.5189 0.0000
# 4 0.0000 0.0000 0.0000 5.1972 0.0000 -4.7470
# 5 -13.5166 -9.2651 -11.5189 0.0000 37.0760 0.0000
# 6 0.0000 0.0000 0.0000 -4.7470 0.0000 2.3142
#
#
#
# Elastic Compliance Matrix: (Units=1/GPa)
#
#
# Indices 1 2 3 4 5 6 
#
# 1 0.058478 -0.000157 -0.018467 0.000000 0.015542 0.000000
# 2 -0.000157 0.035199 -0.001662 0.000000 0.008222 0.000000
# 3 -0.018467 -0.001662 0.014163 0.000000 -0.002748 0.000000
# 4 0.000000 0.000000 0.000000 -0.220253 0.000000 -0.451801
# 5 0.015542 0.008222 -0.002748 0.000000 0.033839 0.000000
# 6 0.000000 0.000000 0.000000 -0.451801 0.000000 -0.494652
#
#
# Mechanical properties :
#
#
# Convention : Reuss Voigt Hill
#
# Bulk Modulus (GPa) = 14.86624 33.68557 24.27591
# Shear Modulus (GPa) = -9.79950 17.80902 4.00476
#
# Velocity S-wave (km/s) = -2.17388 2.93058 1.38970
# Velocity P-wave (km/s) = 0.93175 5.26267 3.77915
#
# Compressibility (1/GPa) = 0.06726649
#
# Stress axis : x y z
#
# Youngs Moduli (GPa) = 17.10049 28.40958 70.60852
#
# Poissons Ratio (x) = 0.00446 1.30395
# Poissons Ratio (y) = 0.00269 0.11738
# Poissons Ratio (z) = 0.31580 0.04723
#
# Static dielectric constant tensor:
#      x y z
#    x 1.775830 0.000000 0.008470 
#    y 0.000000 1.793800 0.000000 
#    z 0.008470 0.000000 1.767590 
# 
# From -- ./inp_files/18823.got.cif
#   From: 2010.05.17/outbox.cif.g08.bks.cpg/sg11_10_cif.got.tgz:18823.got - 2010.06.03 12:22:45.
