data_PCOD9160458
_publ_section_title
;
Structure prediction by ZEFSAII (Michael W. Deem and Ramdas Pophale) SiO2 
 PCOD9160458
Probable space group: P 21/M
;
_chemical_formula_sum "Si O2"
_cell_formula_units_Z 32
_cell_length_a 9.180254
_cell_length_b 13.992039
_cell_length_c 13.312608
_cell_angle_alpha 90.000000
_cell_angle_beta 93.159298
_cell_angle_gamma 90.000000
_cell_volume 1707.411850
_symmetry_space_group_name_H-M "P 21/M"
_symmetry_group_IT_number 11
_symmetry_cell_setting 'monoclinic'
loop_
_space_group_symop_operation_xyz
x,y,z
-x,1/2+y,-z
-x,-y,-z
x,1/2-y,z
loop_
_atom_site_type_symbol
_atom_site_label
_atom_site_fract_x
_atom_site_fract_y
_atom_site_fract_z
Si Si1 0.884687 0.638986 0.037605
Si Si2 0.789242 0.063450 0.955986
Si Si3 0.684440 0.351178 0.365250
Si Si4 0.400253 0.438332 0.420240
Si Si5 0.258744 0.138209 0.747837
Si Si6 0.567125 0.470663 0.785064
Si Si7 0.151496 0.464562 0.551324
Si Si8 0.393123 0.640637 0.863327
O O1 0.858755 0.750000 0.004433
O O2 0.816731 0.627955 0.146470
O O3 0.057287 0.617461 0.047914
O O4 0.820484 0.550636 0.970056
O O5 0.684047 0.082345 0.857784
O O6 0.705210 0.101143 0.050964
O O7 0.743687 0.250000 0.401819
O O8 0.512802 0.358531 0.385789
O O9 0.765680 0.437824 0.418096
O O10 0.694579 0.358657 0.245344
O O11 0.500000 0.500000 0.500000
O O12 0.367703 0.499903 0.319736
O O13 0.253946 0.411751 0.473174
O O14 0.283674 0.250000 0.729837
O O15 0.415260 0.084626 0.758216
O O16 0.159292 0.095233 0.654842
O O17 0.521149 0.565532 0.845786
O O18 0.000000 0.500000 0.500000
O O19 0.440099 0.750000 0.885088
#
# Coordination Sequence:
#
# PCOD9160458 Si02
#       8
#     4   4   4   4   4   4   4   4
#     4  10  23  41  58  86 127 164 199 246 299 358
#     4  11  22  37  63  87 122 161 205 243 297 359
#     4   9  18  36  61  83 112 151 195 243 294 348
#     4   9  18  38  58  82 114 149 192 240 293 348
#     4  11  23  41  61  87 122 158 197 244 301 359
#     4  11  21  39  60  92 117 152 200 249 302 342
#     4  11  22  38  62  85 119 155 195 245 300 358
#     4  10  19  35  61  86 116 152 196 245 295 352
#
# _framework density 18.741817999999999
#
# number of rings (size 3 to 8) (size 9 to 14) (size 15 to 20)
#    0.000    1.750    5.000    0.750    1.750    2.500 
#    0.000    0.000    0.000    0.000    0.000    0.000 
#    0.000    0.000    0.000    0.000    0.000    0.000 
#
# Total GULP energy -178360.005082 kJ/mol
# GULP energy per Si atom -5573.750159 kJ/mol
# Density = 1.869916 g / cm^3
# Si number density = 18.741818 Si / 1000 Ang^3
#
#
#
# Elastic Constant Matrix: (Units=GPa)
#
#
# Indices 1 2 3 4 5 6 
#
# 1 48.9039 -3.9469 24.9693 0.0000 17.4355 0.0000
# 2 -3.9469 80.6294 6.0053 0.0000 8.7088 0.0000
# 3 24.9693 6.0053 63.7079 0.0000 1.7219 0.0000
# 4 0.0000 0.0000 0.0000 12.4262 0.0000 1.5920
# 5 17.4355 8.7088 1.7219 0.0000 24.8484 0.0000
# 6 0.0000 0.0000 0.0000 1.5920 0.0000 6.3404
#
#
#
# Elastic Compliance Matrix: (Units=1/GPa)
#
#
# Indices 1 2 3 4 5 6 
#
# 1 0.038610 0.006046 -0.014941 0.000000 -0.028175 0.000000
# 2 0.006046 0.013914 -0.003441 0.000000 -0.008880 0.000000
# 3 -0.014941 -0.003441 0.021601 0.000000 0.010193 0.000000
# 4 0.000000 0.000000 0.000000 0.083150 0.000000 -0.020879
# 5 -0.028175 -0.008880 0.010193 0.000000 0.062420 0.000000
# 6 0.000000 0.000000 0.000000 -0.020879 0.000000 0.162962
#
#
# Mechanical properties :
#
#
# Convention : Reuss Voigt Hill
#
# Bulk Modulus (GPa) = 20.22124 27.47742 23.84933
# Shear Modulus (GPa) = 11.79763 19.80390 15.80077
#
# Velocity S-wave (km/s) = 2.51167 3.25417 2.90673
# Velocity P-wave (km/s) = 4.38453 5.36771 4.90084
#
# Compressibility (1/GPa) = 0.04945294
#
# Stress axis : x y z
#
# Youngs Moduli (GPa) = 25.90003 71.87089 46.29332
#
# Poissons Ratio (x) = -0.43453 0.69167
# Poissons Ratio (y) = -0.15659 0.15930
# Poissons Ratio (z) = 0.38697 0.24732
#
# Static dielectric constant tensor:
#      x y z
#    x 1.640730 0.000000 -0.008790 
#    y 0.000000 1.695680 0.000000 
#    z -0.008790 0.000000 1.648320 
# 
# From -- ./inp_files/31908.got.cif
#   From: 2010.05.17/outbox.cif.g08.bks.cpg/sg11_16_cif.got.tgz:31908.got - 2010.06.03 12:22:45.
