data_PCOD9160400
_publ_section_title
;
Structure prediction by ZEFSAII (Michael W. Deem and Ramdas Pophale) SiO2 
 PCOD9160400
Probable space group: P 21/M
;
_chemical_formula_sum "Si O2"
_cell_formula_units_Z 32
_cell_length_a 12.855241
_cell_length_b 8.554429
_cell_length_c 29.422652
_cell_angle_alpha 90.000000
_cell_angle_beta 30.233303
_cell_angle_gamma 90.000000
_cell_volume 1629.189879
_symmetry_space_group_name_H-M "P 21/M"
_symmetry_group_IT_number 11
_symmetry_cell_setting 'monoclinic'
loop_
_space_group_symop_operation_xyz
x,y,z
-x,1/2+y,-z
-x,-y,-z
x,1/2-y,z
loop_
_atom_site_type_symbol
_atom_site_label
_atom_site_fract_x
_atom_site_fract_y
_atom_site_fract_z
Si Si1 0.308477 0.565642 0.010577
Si Si2 0.708409 0.937529 0.732497
Si Si3 0.595574 0.430568 0.228901
Si Si4 0.964095 0.941375 0.213604
Si Si5 0.940587 0.439678 0.472215
Si Si6 0.264567 0.564234 0.176115
Si Si7 0.059031 0.070003 0.026059
Si Si8 0.514663 0.934485 0.354502
O O1 0.333428 0.750000 0.007576
O O2 0.531694 0.487264 0.928514
O O3 0.131799 0.509103 0.112186
O O4 0.221692 0.529375 0.993038
O O5 0.712360 0.750000 0.735502
O O6 0.500893 0.979389 0.782914
O O7 0.893170 0.985715 0.628702
O O8 0.724209 0.004680 0.776736
O O9 0.528535 0.250000 0.262323
O O10 0.520590 0.536340 0.298237
O O11 0.841485 0.433611 0.134679
O O12 0.958027 0.750000 0.213639
O O13 0.062446 0.988727 0.224552
O O14 0.731205 0.999039 0.292289
O O15 0.940253 0.250000 0.474491
O O16 0.709806 0.495233 0.545949
O O17 0.000000 0.500000 0.500000
O O18 0.262384 0.750000 0.177912
O O19 0.128041 0.250000 0.996288
O O20 0.000000 0.000000 0.000000
O O21 0.516131 0.750000 0.363451
#
# Coordination Sequence:
#
# PCOD9160400 Si02
#       8
#     4   4   4   4   4   4   4   4
#     4  11  21  37  59  82 111 150 191 241 293 340
#     4  10  21  38  56  82 119 153 185 231 288 340
#     4  10  20  34  53  78 113 147 179 228 280 328
#     4   9  20  38  59  83 114 149 191 240 287 334
#     4  10  20  34  59  88 116 148 185 230 282 341
#     4  11  23  39  58  82 111 150 197 242 285 340
#     4  11  22  34  51  80 115 154 194 232 280 339
#     4  10  19  35  59  86 111 143 184 227 279 339
#
# _framework density 19.641663999999999
#
# number of rings (size 3 to 8) (size 9 to 14) (size 15 to 20)
#    0.000    1.750    2.500    2.250    0.000    2.500 
#    0.000    3.750    0.000    0.000    0.000    0.000 
#    0.000    0.000    0.000    0.000    0.000    0.000 
#
# Total GULP energy -178627.093458 kJ/mol
# GULP energy per Si atom -5582.096671 kJ/mol
# Density = 1.959696 g / cm^3
# Si number density = 19.641664 Si / 1000 Ang^3
#
#
#
# Elastic Constant Matrix: (Units=GPa)
#
#
# Indices 1 2 3 4 5 6 
#
# 1 120.9366 7.8174 42.0988 0.0000 -24.1849 0.0000
# 2 7.8174 12.3085 14.8670 0.0000 -1.9928 0.0000
# 3 42.0988 14.8670 89.9956 0.0000 -20.5463 0.0000
# 4 0.0000 0.0000 0.0000 16.1037 0.0000 -3.3542
# 5 -24.1849 -1.9928 -20.5463 0.0000 30.3540 0.0000
# 6 0.0000 0.0000 0.0000 -3.3542 0.0000 16.1280
#
#
#
# Elastic Compliance Matrix: (Units=1/GPa)
#
#
# Indices 1 2 3 4 5 6 
#
# 1 0.010789 -0.001830 -0.003323 0.000000 0.006227 0.000000
# 2 -0.001830 0.102602 -0.017610 0.000000 -0.006642 0.000000
# 3 -0.003323 -0.017610 0.017395 0.000000 0.007971 0.000000
# 4 0.000000 0.000000 0.000000 0.064909 0.000000 0.013499
# 5 0.006227 -0.006642 0.007971 0.000000 0.042865 0.000000
# 6 0.000000 0.000000 0.000000 0.013499 0.000000 0.064811
#
#
# Mechanical properties :
#
#
# Convention : Reuss Voigt Hill
#
# Bulk Modulus (GPa) = 11.72888 39.20081 25.46484
# Shear Modulus (GPa) = 13.25140 23.08096 18.16618
#
# Velocity S-wave (km/s) = 2.60024 3.43170 3.04448
# Velocity P-wave (km/s) = 3.87290 5.97523 5.03501
#
# Compressibility (1/GPa) = 0.08525967
#
# Stress axis : x y z
#
# Youngs Moduli (GPa) = 92.68583 9.74639 57.48799
#
# Poissons Ratio (x) = 0.01784 0.19103
# Poissons Ratio (y) = 0.16966 1.01235
# Poissons Ratio (z) = 0.30800 0.17163
#
# Static dielectric constant tensor:
#      x y z
#    x 1.695700 0.000000 -0.024130 
#    y 0.000000 1.679750 0.000000 
#    z -0.024130 0.000000 1.717490 
# 
# From -- ./inp_files/38155.got.cif
#   From: 2010.05.17/outbox.cif.g08.bks.cpg/sg11_20_cif.got.tgz:38155.got - 2010.06.03 12:22:45.
