data_PCOD9160135
_publ_section_title
;
Structure prediction by ZEFSAII (Michael W. Deem and Ramdas Pophale) SiO2 
 PCOD9160135
Probable space group: P 21/M
;
_chemical_formula_sum "Si O2"
_cell_formula_units_Z 24
_cell_length_a 15.072132
_cell_length_b 8.394203
_cell_length_c 14.210176
_cell_angle_alpha 90.000000
_cell_angle_beta 38.416157
_cell_angle_gamma 90.000000
_cell_volume 1117.128219
_symmetry_space_group_name_H-M "P 21/M"
_symmetry_group_IT_number 11
_symmetry_cell_setting 'monoclinic'
loop_
_space_group_symop_operation_xyz
x,y,z
-x,1/2+y,-z
-x,-y,-z
x,1/2-y,z
loop_
_atom_site_type_symbol
_atom_site_label
_atom_site_fract_x
_atom_site_fract_y
_atom_site_fract_z
Si Si1 0.429205 0.562289 0.706337
Si Si2 0.038836 0.936849 0.707290
Si Si3 0.288837 0.557807 0.631392
Si Si4 0.203454 0.434740 0.392927
Si Si5 0.221246 0.564108 0.177279
Si Si6 0.513695 0.932586 0.144335
O O1 0.418140 0.750000 0.737030
O O2 0.317081 0.521346 0.717153
O O3 0.584837 0.525928 0.532108
O O4 0.417184 0.462633 0.810981
O O5 0.004970 0.750000 0.742826
O O6 0.136350 0.986007 0.714593
O O7 0.136775 0.966915 0.533916
O O8 0.894624 0.031619 0.807310
O O9 0.306020 0.750000 0.605381
O O10 0.164095 0.250000 0.436720
O O11 0.160785 0.497497 0.325634
O O12 0.374249 0.457928 0.255041
O O13 0.249212 0.750000 0.163040
O O14 0.367334 0.475792 0.030511
O O15 0.467869 0.750000 0.172648
#
# Coordination Sequence:
#
# PCOD9160135 Si02
#       6
#     4   4   4   4   4   4
#     4  10  19  34  59  91 121 154 198 246 295 352
#     4  11  22  40  63  91 124 160 200 246 297 353
#     4   9  19  35  59  89 122 156 196 245 295 349
#     4  12  24  41  64  91 119 157 203 249 296 355
#     4  12  26  43  61  86 121 161 201 249 302 359
#     4  12  24  41  62  89 122 159 200 249 302 357
#
# _framework density 21.483656
#
# number of rings (size 3 to 8) (size 9 to 14) (size 15 to 20)
#    0.000    1.000    1.667    6.500    0.000    1.333 
#    0.000    0.833    0.000    0.000    0.000    0.000 
#    0.000    0.000    0.000    0.000    0.000    0.000 
#
# Total GULP energy -134328.253517 kJ/mol
# GULP energy per Si atom -5597.010563 kJ/mol
# Density = 2.143476 g / cm^3
# Si number density = 21.483656 Si / 1000 Ang^3
#
#
#
# Elastic Constant Matrix: (Units=GPa)
#
#
# Indices 1 2 3 4 5 6 
#
# 1 119.7699 12.5601 -3.6202 0.0000 -5.1369 0.0000
# 2 12.5601 60.5835 -14.0589 0.0000 9.2525 0.0000
# 3 -3.6202 -14.0589 29.7587 0.0000 -2.0889 0.0000
# 4 0.0000 0.0000 0.0000 25.8700 0.0000 -0.1998
# 5 -5.1369 9.2525 -2.0889 0.0000 22.5639 0.0000
# 6 0.0000 0.0000 0.0000 -0.1998 0.0000 29.5614
#
#
#
# Elastic Compliance Matrix: (Units=1/GPa)
#
#
# Indices 1 2 3 4 5 6 
#
# 1 0.008711 -0.002197 0.000226 0.000000 0.002905 0.000000
# 2 -0.002197 0.020203 0.008717 0.000000 -0.007978 0.000000
# 3 0.000226 0.008717 0.037747 0.000000 -0.000029 0.000000
# 4 0.000000 0.000000 0.000000 0.038657 0.000000 0.000261
# 5 0.002905 -0.007978 -0.000029 0.000000 0.048249 0.000000
# 6 0.000000 0.000000 0.000000 0.000261 0.000000 0.033830
#
#
# Mechanical properties :
#
#
# Convention : Reuss Voigt Hill
#
# Bulk Modulus (GPa) = 12.47627 22.20824 17.34226
# Shear Modulus (GPa) = 24.92235 29.94779 27.43507
#
# Velocity S-wave (km/s) = 3.40966 3.73765 3.57742
# Velocity P-wave (km/s) = 4.61747 5.38391 5.01535
#
# Compressibility (1/GPa) = 0.08015214
#
# Stress axis : x y z
#
# Youngs Moduli (GPa) = 114.79485 49.49774 26.49202
#
# Poissons Ratio (x) = 0.10876 -0.00598
# Poissons Ratio (y) = 0.25224 -0.23093
# Poissons Ratio (z) = -0.02589 -0.43148
#
# Static dielectric constant tensor:
#      x y z
#    x 1.825670 0.000000 -0.008720 
#    y 0.000000 1.744740 0.000000 
#    z -0.008720 0.000000 1.739900 
# 
# From -- ./inp_files/51499.got.cif
#   From: 2010.05.17/outbox.cif.g08.bks.cpg/sg11_26_cif.got.tgz:51499.got - 2010.06.03 12:22:45.
