data_PCOD9160693
_publ_section_title
;
Structure prediction by ZEFSAII (Michael W. Deem and Ramdas Pophale) SiO2 
 PCOD9160693
Probable space group: P 21/M
;
_chemical_formula_sum "Si O2"
_cell_formula_units_Z 32
_cell_length_a 19.081028
_cell_length_b 8.598919
_cell_length_c 14.530109
_cell_angle_alpha 90.000000
_cell_angle_beta 135.715004
_cell_angle_gamma 90.000000
_cell_volume 1664.606793
_symmetry_space_group_name_H-M "P 21/M"
_symmetry_group_IT_number 11
_symmetry_cell_setting 'monoclinic'
loop_
_space_group_symop_operation_xyz
x,y,z
-x,1/2+y,-z
-x,-y,-z
x,1/2-y,z
loop_
_atom_site_type_symbol
_atom_site_label
_atom_site_fract_x
_atom_site_fract_y
_atom_site_fract_z
Si Si1 0.044864 0.063335 0.948226
Si Si2 0.800203 0.939540 0.199081
Si Si3 0.796458 0.561885 0.407835
Si Si4 0.597809 0.563859 0.330232
Si Si5 0.404465 0.934205 0.465607
Si Si6 0.383982 0.062256 0.102439
Si Si7 0.723818 0.937043 0.811091
Si Si8 0.010566 0.938441 0.303822
O O1 0.038195 0.250000 0.943686
O O2 0.990993 0.009461 0.804182
O O3 0.162737 0.024086 0.054697
O O4 0.000000 0.000000 0.000000
O O5 0.799365 0.750000 0.196196
O O6 0.795913 0.989292 0.300985
O O7 0.904958 0.987259 0.250666
O O8 0.702936 0.989675 0.049482
O O9 0.798599 0.750000 0.410468
O O10 0.695591 0.511238 0.365655
O O11 0.894847 0.501582 0.552048
O O12 0.596745 0.750000 0.330399
O O13 0.602467 0.503817 0.439250
O O14 0.493889 0.504518 0.188999
O O15 0.414484 0.750000 0.482315
O O16 0.500000 0.000000 0.500000
O O17 0.309981 0.981067 0.313973
O O18 0.388627 0.250000 0.103800
O O19 0.348453 0.018945 0.172232
O O20 0.716858 0.750000 0.792512
O O21 0.013297 0.750000 0.307931
#
# Coordination Sequence:
#
# PCOD9160693 Si02
#       8
#     4   4   4   4   4   4   4   4
#     4  10  22  38  57  86 120 155 192 237 293 350
#     4   9  18  38  65  89 113 150 197 246 300 355
#     4  10  23  40  59  85 120 158 195 241 299 350
#     4  11  24  40  56  84 124 159 194 241 293 348
#     4  12  24  38  59  85 114 151 193 237 285 344
#     4  10  19  36  64  88 112 153 199 242 293 350
#     4  10  20  37  59  84 115 153 196 239 291 349
#     4  10  20  38  63  88 116 151 197 244 290 351
#
# _framework density 19.223758
#
# number of rings (size 3 to 8) (size 9 to 14) (size 15 to 20)
#    0.000    1.750    2.500    1.875    1.750    2.500 
#    0.000    1.250    0.000    0.000    0.000    0.000 
#    0.000    0.000    0.000    0.000    0.000    0.000 
#
# Total GULP energy -178782.406669 kJ/mol
# GULP energy per Si atom -5586.950208 kJ/mol
# Density = 1.918000 g / cm^3
# Si number density = 19.223758 Si / 1000 Ang^3
#
#
#
# Elastic Constant Matrix: (Units=GPa)
#
#
# Indices 1 2 3 4 5 6 
#
# 1 140.6326 26.8714 92.9884 0.0000 -10.4090 0.0000
# 2 26.8714 19.5053 27.5121 0.0000 2.9861 0.0000
# 3 92.9884 27.5121 174.3688 0.0000 1.6909 0.0000
# 4 0.0000 0.0000 0.0000 32.1406 0.0000 3.9713
# 5 -10.4090 2.9861 1.6909 0.0000 28.8321 0.0000
# 6 0.0000 0.0000 0.0000 3.9713 0.0000 21.1892
#
#
#
# Elastic Compliance Matrix: (Units=1/GPa)
#
#
# Indices 1 2 3 4 5 6 
#
# 1 0.013370 -0.011898 -0.005314 0.000000 0.006371 0.000000
# 2 -0.011898 0.077668 -0.005793 0.000000 -0.012000 0.000000
# 3 -0.005314 -0.005793 0.009501 0.000000 -0.001876 0.000000
# 4 0.000000 0.000000 0.000000 0.031851 0.000000 -0.005970
# 5 0.006371 -0.012000 -0.001876 0.000000 0.038336 0.000000
# 6 0.000000 0.000000 0.000000 -0.005970 0.000000 0.048313
#
#
# Mechanical properties :
#
#
# Convention : Reuss Voigt Hill
#
# Bulk Modulus (GPa) = 18.33932 69.91672 44.12802
# Shear Modulus (GPa) = 17.65380 28.90803 23.28092
#
# Velocity S-wave (km/s) = 3.03369 3.88205 3.48379
# Velocity P-wave (km/s) = 4.67243 7.51948 6.25996
#
# Compressibility (1/GPa) = 0.05452765
#
# Stress axis : x y z
#
# Youngs Moduli (GPa) = 74.79663 12.87536 105.24963
#
# Poissons Ratio (x) = 0.15319 0.55933
# Poissons Ratio (y) = 0.88994 0.60971
# Poissons Ratio (z) = 0.39749 0.07459
#
# Static dielectric constant tensor:
#      x y z
#    x 1.656240 0.000000 0.003320 
#    y 0.000000 1.659000 0.000000 
#    z 0.003320 0.000000 1.662690 
# 
# From -- ./inp_files/54374.got.cif
#   From: 2010.05.17/outbox.cif.g08.bks.cpg/sg11_28_cif.got.tgz:54374.got - 2010.06.03 12:22:45.
