data_PCOD9160738
_publ_section_title
;
Structure prediction by ZEFSAII (Michael W. Deem and Ramdas Pophale) SiO2 
 PCOD9160738
Probable space group: P 21/M
;
_chemical_formula_sum "Si O2"
_cell_formula_units_Z 28
_cell_length_a 27.702360
_cell_length_b 8.848950
_cell_length_c 9.728893
_cell_angle_alpha 90.000000
_cell_angle_beta 140.094235
_cell_angle_gamma 90.000000
_cell_volume 1529.983523
_symmetry_space_group_name_H-M "P 21/M"
_symmetry_group_IT_number 11
_symmetry_cell_setting 'monoclinic'
loop_
_space_group_symop_operation_xyz
x,y,z
-x,1/2+y,-z
-x,-y,-z
x,1/2-y,z
loop_
_atom_site_type_symbol
_atom_site_label
_atom_site_fract_x
_atom_site_fract_y
_atom_site_fract_z
Si Si1 0.555417 0.573293 0.730701
Si Si2 0.433156 0.568703 0.946032
Si Si3 0.742678 0.066529 0.485740
Si Si4 0.829381 0.079212 0.399173
Si Si5 0.920635 0.570658 0.366412
Si Si6 0.689759 0.079532 0.886039
Si Si7 0.217654 0.431167 0.139602
O O1 0.500000 0.500000 0.500000
O O2 0.541472 0.750000 0.719603
O O3 0.552192 0.487485 0.867720
O O4 0.635946 0.539735 0.840206
O O5 0.436540 0.750000 0.946135
O O6 0.500000 0.500000 0.000000
O O7 0.346365 0.524305 0.719624
O O8 0.744965 0.250000 0.498947
O O9 0.790649 0.022232 0.454908
O O10 0.779563 0.992031 0.699957
O O11 0.857554 0.250000 0.485982
O O12 0.891451 0.985708 0.451528
O O13 0.761484 0.088951 0.141747
O O14 0.926954 0.750000 0.383817
O O15 0.000000 0.500000 0.500000
O O16 0.858153 0.533230 0.112590
O O17 0.657225 0.250000 0.805598
O O18 0.716233 0.017466 0.797739
O O19 0.228246 0.250000 0.158903
#
# Coordination Sequence:
#
# PCOD9160738 Si02
#       7
#     4   4   4   4   4   4   4
#     4  12  25  40  59  83 113 151 197 250 303 355
#     4  11  24  43  61  85 119 159 204 250 304 357
#     4  10  21  39  61  85 118 158 199 241 293 356
#     4   9  18  36  61  86 113 150 191 235 286 343
#     4  10  21  38  61  90 121 153 192 238 287 346
#     4  10  19  37  60  82 111 149 193 242 293 348
#     4  10  22  37  57  89 121 152 195 241 288 345
#
# _framework density 18.300851000000002
#
# number of rings (size 3 to 8) (size 9 to 14) (size 15 to 20)
#    0.000    1.714    1.429    3.000    2.000    4.000 
#    0.000    0.714    0.000    0.000    0.000    0.000 
#    0.000    0.000    0.000    0.000    0.000    0.000 
#
# Total GULP energy -156217.256666 kJ/mol
# GULP energy per Si atom -5579.187738 kJ/mol
# Density = 1.825920 g / cm^3
# Si number density = 18.300851 Si / 1000 Ang^3
#
#
#
# Elastic Constant Matrix: (Units=GPa)
#
#
# Indices 1 2 3 4 5 6 
#
# 1 162.2155 48.7068 62.5082 0.0000 -13.3861 0.0000
# 2 48.7068 60.0254 36.5357 0.0000 -1.3872 0.0000
# 3 62.5082 36.5357 67.4908 0.0000 -15.8158 0.0000
# 4 0.0000 0.0000 0.0000 28.5669 0.0000 -1.1622
# 5 -13.3861 -1.3872 -15.8158 0.0000 32.0990 0.0000
# 6 0.0000 0.0000 0.0000 -1.1622 0.0000 37.0056
#
#
#
# Elastic Compliance Matrix: (Units=1/GPa)
#
#
# Indices 1 2 3 4 5 6 
#
# 1 0.010126 -0.003833 -0.007182 0.000000 0.000519 0.000000
# 2 -0.003833 0.027470 -0.012907 0.000000 -0.006771 0.000000
# 3 -0.007182 -0.012907 0.031229 0.000000 0.011834 0.000000
# 4 0.000000 0.000000 0.000000 0.035050 0.000000 0.001101
# 5 0.000519 -0.006771 0.011834 0.000000 0.036908 0.000000
# 6 0.000000 0.000000 0.000000 0.001101 0.000000 0.027058
#
#
# Mechanical properties :
#
#
# Convention : Reuss Voigt Hill
#
# Bulk Modulus (GPa) = 47.66361 65.02592 56.34476
# Shear Modulus (GPa) = 22.45402 28.99969 25.72686
#
# Velocity S-wave (km/s) = 3.50657 3.98503 3.75343
# Velocity P-wave (km/s) = 6.51887 7.53543 7.04551
#
# Compressibility (1/GPa) = 0.02098037
#
# Stress axis : x y z
#
# Youngs Moduli (GPa) = 98.75805 36.40386 32.02188
#
# Poissons Ratio (x) = 0.13954 0.22997
# Poissons Ratio (y) = 0.37856 0.41331
# Poissons Ratio (z) = 0.70924 0.46986
#
# Static dielectric constant tensor:
#      x y z
#    x 1.638480 0.000000 -0.005390 
#    y 0.000000 1.635370 0.000000 
#    z -0.005390 0.000000 1.503550 
# 
# From -- ./inp_files/28637.got.cif
#   From: 2010.05.17/outbox.cif.g08.bks.cpg/sg11_15_cif.got.tgz:28637.got - 2010.06.03 12:22:45.
