data_PCOD9160666
_publ_section_title
;
Structure prediction by ZEFSAII (Michael W. Deem and Ramdas Pophale) SiO2 
 PCOD9160666
Probable space group: P 21/M
;
_chemical_formula_sum "Si O2"
_cell_formula_units_Z 32
_cell_length_a 13.031499
_cell_length_b 9.000944
_cell_length_c 32.475444
_cell_angle_alpha 90.000000
_cell_angle_beta 153.067688
_cell_angle_gamma 90.000000
_cell_volume 1725.344705
_symmetry_space_group_name_H-M "P 21/M"
_symmetry_group_IT_number 11
_symmetry_cell_setting 'monoclinic'
loop_
_space_group_symop_operation_xyz
x,y,z
-x,1/2+y,-z
-x,-y,-z
x,1/2-y,z
loop_
_atom_site_type_symbol
_atom_site_label
_atom_site_fract_x
_atom_site_fract_y
_atom_site_fract_z
Si Si1 0.578313 0.919935 0.645702
Si Si2 0.428042 0.430520 0.214860
Si Si3 0.766591 0.426773 0.403606
Si Si4 0.831609 0.928186 0.209777
Si Si5 0.069140 0.569688 0.932481
Si Si6 0.887909 0.077030 0.144618
Si Si7 0.645093 0.425288 0.587499
Si Si8 0.438206 0.428999 0.122813
O O1 0.539448 0.750000 0.617795
O O2 0.414716 0.950678 0.624982
O O3 0.838601 0.928646 0.753262
O O4 0.544420 0.028268 0.595513
O O5 0.432128 0.250000 0.217564
O O6 0.644878 0.482795 0.318483
O O7 0.433685 0.474223 0.169184
O O8 0.192053 0.473210 0.152410
O O9 0.801732 0.250000 0.412110
O O10 0.000000 0.500000 0.500000
O O11 0.808603 0.750000 0.203208
O O12 0.089126 0.969885 0.315000
O O13 0.656045 0.006277 0.177292
O O14 0.794904 0.983110 0.149600
O O15 0.082395 0.750000 0.939341
O O16 0.156069 0.526759 0.917899
O O17 0.223316 0.496055 0.022220
O O18 0.819086 0.250000 0.124410
O O19 0.500000 0.500000 0.500000
O O20 0.638538 0.250000 0.579720
O O21 0.436694 0.250000 0.120114
#
# Coordination Sequence:
#
# PCOD9160666 Si02
#       8
#     4   4   4   4   4   4   4   4
#     4   9  17  33  56  79 107 143 184 231 280 335
#     4   9  19  38  60  81 112 152 192 231 280 338
#     4  10  20  36  57  84 114 147 187 232 284 339
#     4  10  22  39  56  79 114 150 186 234 285 333
#     4  10  19  36  62  86 110 147 190 234 286 341
#     4   9  17  33  60  85 105 141 187 231 282 337
#     4  10  21  36  57  83 110 144 187 233 282 338
#     4  11  23  37  56  84 117 154 191 232 279 337
#
# _framework density 18.547018999999999
#
# number of rings (size 3 to 8) (size 9 to 14) (size 15 to 20)
#    0.000    2.250    1.250    1.500    0.000    4.000 
#    0.000    5.000    0.000    0.000    0.000    0.000 
#    0.000    0.000    0.000    0.000    0.000    0.000 
#
# Total GULP energy -178581.779315 kJ/mol
# GULP energy per Si atom -5580.680604 kJ/mol
# Density = 1.850480 g / cm^3
# Si number density = 18.547019 Si / 1000 Ang^3
#
#
#
# Elastic Constant Matrix: (Units=GPa)
#
#
# Indices 1 2 3 4 5 6 
#
# 1 81.8327 32.8420 48.9966 0.0000 -16.6571 0.0000
# 2 32.8420 22.4408 31.6997 0.0000 -7.5866 0.0000
# 3 48.9966 31.6997 111.8311 0.0000 -27.4860 0.0000
# 4 0.0000 0.0000 0.0000 31.9861 0.0000 -0.9043
# 5 -16.6571 -7.5866 -27.4860 0.0000 30.4076 0.0000
# 6 0.0000 0.0000 0.0000 -0.9043 0.0000 21.4353
#
#
#
# Elastic Compliance Matrix: (Units=1/GPa)
#
#
# Indices 1 2 3 4 5 6 
#
# 1 0.030627 -0.043239 0.000398 0.000000 0.006350 0.000000
# 2 -0.043239 0.135374 -0.021790 0.000000 -0.009607 0.000000
# 3 0.000398 -0.021790 0.017564 0.000000 0.010658 0.000000
# 4 0.000000 0.000000 0.000000 0.031301 0.000000 0.001320
# 5 0.006350 -0.009607 0.010658 0.000000 0.043602 0.000000
# 6 0.000000 0.000000 0.000000 0.001320 0.000000 0.046708
#
#
# Mechanical properties :
#
#
# Convention : Reuss Voigt Hill
#
# Bulk Modulus (GPa) = 18.41491 49.24235 33.82863
# Shear Modulus (GPa) = 11.04879 23.60353 17.32616
#
# Velocity S-wave (km/s) = 2.44338 3.57127 3.05974
# Velocity P-wave (km/s) = 4.23208 6.60401 5.54632
#
# Compressibility (1/GPa) = 0.05430382
#
# Stress axis : x y z
#
# Youngs Moduli (GPa) = 32.65098 7.38692 56.93556
#
# Poissons Ratio (x) = 0.31940 -0.02269
# Poissons Ratio (y) = 1.41179 1.24065
# Poissons Ratio (z) = -0.01301 0.16096
#
# Static dielectric constant tensor:
#      x y z
#    x 1.359110 0.000000 -0.204970 
#    y 0.000000 1.627130 0.000000 
#    z -0.204970 0.000000 1.492880 
# 
# From -- ./inp_files/54358.got.cif
#   From: 2010.05.17/outbox.cif.g08.bks.cpg/sg11_28_cif.got.tgz:54358.got - 2010.06.03 12:22:45.
