data_PCOD9160640
_publ_section_title
;
Structure prediction by ZEFSAII (Michael W. Deem and Ramdas Pophale) SiO2 
 PCOD9160640
Probable space group: P 21/M
;
_chemical_formula_sum "Si O2"
_cell_formula_units_Z 32
_cell_length_a 30.035457
_cell_length_b 8.129742
_cell_length_c 12.870074
_cell_angle_alpha 90.000000
_cell_angle_beta 29.982122
_cell_angle_gamma 90.000000
_cell_volume 1570.461363
_symmetry_space_group_name_H-M "P 21/M"
_symmetry_group_IT_number 11
_symmetry_cell_setting 'monoclinic'
loop_
_space_group_symop_operation_xyz
x,y,z
-x,1/2+y,-z
-x,-y,-z
x,1/2-y,z
loop_
_atom_site_type_symbol
_atom_site_label
_atom_site_fract_x
_atom_site_fract_y
_atom_site_fract_z
Si Si1 0.491258 0.052979 0.348748
Si Si2 0.453603 0.053892 0.198815
Si Si3 0.772645 0.447357 0.627755
Si Si4 0.711180 0.547878 0.189819
Si Si5 0.266799 0.558260 0.518767
Si Si6 0.680323 0.556067 0.026634
Si Si7 0.973400 0.050180 0.171210
Si Si8 0.856843 0.940727 0.059604
O O1 0.493153 0.250000 0.358272
O O2 0.507106 0.014637 0.194941
O O3 0.390287 0.997774 0.576530
O O4 0.574753 0.982861 0.241834
O O5 0.438538 0.250000 0.229283
O O6 0.359126 0.965053 0.390799
O O7 0.500000 0.000000 0.000000
O O8 0.773452 0.250000 0.627871
O O9 0.722832 0.495771 0.621654
O O10 0.874459 0.504266 0.404151
O O11 0.725800 0.498248 0.828595
O O12 0.711097 0.750000 0.196431
O O13 0.724491 0.493261 0.043996
O O14 0.788832 0.488746 0.110819
O O15 0.239550 0.750000 0.575212
O O16 0.195046 0.454474 0.726261
O O17 0.689489 0.750000 0.010616
O O18 0.974409 0.250000 0.170491
O O19 0.046595 0.988354 0.106729
O O20 0.000000 0.000000 0.000000
O O21 0.870021 0.750000 0.004846
#
# Coordination Sequence:
#
# PCOD9160640 Si02
#       8
#     4   4   4   4   4   4   4   4
#     4  10  20  37  58  78 109 150 186 230 286 336
#     4  11  22  35  52  77 112 151 188 227 280 338
#     4  10  22  39  55  80 119 153 181 224 285 340
#     4   9  19  38  59  82 112 146 189 235 281 329
#     4  11  21  34  54  80 114 148 181 227 278 330
#     4  11  23  37  57  83 110 146 194 241 275 323
#     4  10  20  35  60  88 114 147 184 227 279 338
#     4  10  19  36  61  85 110 144 183 226 281 339
#
# _framework density 20.376176000000001
#
# number of rings (size 3 to 8) (size 9 to 14) (size 15 to 20)
#    0.000    1.750    2.500    2.250    0.000    5.500 
#    0.000    2.500    0.000    0.000    0.000    0.000 
#    0.000    0.000    0.000    0.000    0.000    0.000 
#
# Total GULP energy -178575.070848 kJ/mol
# GULP energy per Si atom -5580.470964 kJ/mol
# Density = 2.032980 g / cm^3
# Si number density = 20.376176 Si / 1000 Ang^3
#
#
#
# Elastic Constant Matrix: (Units=GPa)
#
#
# Indices 1 2 3 4 5 6 
#
# 1 154.7199 15.0971 42.0890 0.0000 4.4833 0.0000
# 2 15.0971 12.4338 3.0988 0.0000 1.9412 0.0000
# 3 42.0890 3.0988 59.1280 0.0000 -1.5404 0.0000
# 4 0.0000 0.0000 0.0000 8.8604 0.0000 -0.4772
# 5 4.4833 1.9412 -1.5404 0.0000 33.4200 0.0000
# 6 0.0000 0.0000 0.0000 -0.4772 0.0000 17.2237
#
#
#
# Elastic Compliance Matrix: (Units=1/GPa)
#
#
# Indices 1 2 3 4 5 6 
#
# 1 0.009021 -0.009321 -0.005957 0.000000 -0.000943 0.000000
# 2 -0.009321 0.091943 0.001712 0.000000 -0.004011 0.000000
# 3 -0.005957 0.001712 0.021107 0.000000 0.001673 0.000000
# 4 0.000000 0.000000 0.000000 0.113030 0.000000 0.003131
# 5 -0.000943 -0.004011 0.001673 0.000000 0.030359 0.000000
# 6 0.000000 0.000000 0.000000 0.003131 0.000000 0.058146
#
#
# Mechanical properties :
#
#
# Convention : Reuss Voigt Hill
#
# Bulk Modulus (GPa) = 10.53321 38.53905 24.53613
# Shear Modulus (GPa) = 13.07584 22.96728 18.02156
#
# Velocity S-wave (km/s) = 2.53597 3.36097 2.97718
# Velocity P-wave (km/s) = 3.70884 5.83235 4.88732
#
# Compressibility (1/GPa) = 0.09493785
#
# Stress axis : x y z
#
# Youngs Moduli (GPa) = 110.85599 10.87630 47.37792
#
# Poissons Ratio (x) = 0.10138 0.28224
# Poissons Ratio (y) = 1.03328 -0.08110
# Poissons Ratio (z) = 0.66040 -0.01862
#
# Static dielectric constant tensor:
#      x y z
#    x 1.757940 0.000000 -0.004680 
#    y 0.000000 1.732070 0.000000 
#    z -0.004680 0.000000 1.723330 
# 
# From -- ./inp_files/45119.got.cif
#   From: 2010.05.17/outbox.cif.g08.bks.cpg/sg11_23_cif.got.tgz:45119.got - 2010.06.03 12:22:45.
