data_PCOD9160778
_publ_section_title
;
Structure prediction by ZEFSAII (Michael W. Deem and Ramdas Pophale) SiO2 
 PCOD9160778
Probable space group: P 21/M
;
_chemical_formula_sum "Si O2"
_cell_formula_units_Z 28
_cell_length_a 10.440277
_cell_length_b 15.179261
_cell_length_c 8.010824
_cell_angle_alpha 90.000000
_cell_angle_beta 75.534889
_cell_angle_gamma 90.000000
_cell_volume 1229.276950
_symmetry_space_group_name_H-M "P 21/M"
_symmetry_group_IT_number 11
_symmetry_cell_setting 'monoclinic'
loop_
_space_group_symop_operation_xyz
x,y,z
-x,1/2+y,-z
-x,-y,-z
x,1/2-y,z
loop_
_atom_site_type_symbol
_atom_site_label
_atom_site_fract_x
_atom_site_fract_y
_atom_site_fract_z
Si Si1 0.452349 0.349677 0.808592
Si Si2 0.745525 0.653667 0.632397
Si Si3 0.145039 0.146920 0.954220
Si Si4 0.522722 0.148218 0.444196
Si Si5 0.989574 0.152015 0.656949
Si Si6 0.585943 0.422278 0.061486
Si Si7 0.175088 0.497952 0.178746
O O1 0.436392 0.250000 0.756028
O O2 0.300126 0.379825 0.879068
O O3 0.537996 0.390378 0.626817
O O4 0.529892 0.347507 0.957594
O O5 0.722195 0.750000 0.720400
O O6 0.636631 0.648862 0.524936
O O7 0.893499 0.650953 0.515688
O O8 0.730918 0.568969 0.750963
O O9 0.139168 0.250000 0.009982
O O10 0.064410 0.143385 0.809857
O O11 0.090982 0.073788 0.100871
O O12 0.572380 0.250000 0.413611
O O13 0.569590 0.096842 0.262758
O O14 0.925700 0.250000 0.670277
O O15 0.898689 0.066278 0.677436
O O16 0.500000 0.500000 0.000000
O O17 0.737830 0.441645 0.970911
#
# Coordination Sequence:
#
# PCOD9160778 Si02
#       7
#     4   4   4   4   4   4   4
#     4  10  20  38  63  86 115 158 206 256 301 349
#     4  10  19  37  62  87 113 148 204 257 295 348
#     4  10  19  37  62  87 113 148 204 257 295 348
#     4  10  20  38  63  86 115 158 206 256 301 349
#     4  10  22  39  60  84 117 159 198 245 304 361
#     4  12  23  36  54  94 128 156 194 242 306 371
#     4  12  23  37  57  91 124 159 191 242 313 365
#
# _framework density 22.777618
#
# number of rings (size 3 to 8) (size 9 to 14) (size 15 to 20)
#    0.000    1.429    4.286    1.714    0.000    4.000 
#    2.571    0.000    0.000    0.000    0.000    0.000 
#    0.000    0.000    0.000    0.000    0.000    0.000 
#
# Total GULP energy -156043.835496 kJ/mol
# GULP energy per Si atom -5572.994125 kJ/mol
# Density = 2.272577 g / cm^3
# Si number density = 22.777618 Si / 1000 Ang^3
#
#
#
# Elastic Constant Matrix: (Units=GPa)
#
#
# Indices 1 2 3 4 5 6 
#
# 1 14.8592 11.6956 -8.6671 0.0000 -1.4484 0.0000
# 2 11.6956 111.6727 34.3342 0.0000 -13.7698 0.0000
# 3 -8.6671 34.3342 69.7649 0.0000 -6.9735 0.0000
# 4 0.0000 0.0000 0.0000 32.9349 0.0000 4.2704
# 5 -1.4484 -13.7698 -6.9735 0.0000 30.9690 0.0000
# 6 0.0000 0.0000 0.0000 4.2704 0.0000 10.9383
#
#
#
# Elastic Compliance Matrix: (Units=1/GPa)
#
#
# Indices 1 2 3 4 5 6 
#
# 1 0.090227 -0.015001 0.018770 0.000000 0.001776 0.000000
# 2 -0.015001 0.013454 -0.008140 0.000000 0.003447 0.000000
# 3 0.018770 -0.008140 0.020867 0.000000 0.001957 0.000000
# 4 0.000000 0.000000 0.000000 0.031982 0.000000 -0.012486
# 5 0.001776 0.003447 0.001957 0.000000 0.034347 0.000000
# 6 0.000000 0.000000 0.000000 -0.012486 0.000000 0.096297
#
#
# Mechanical properties :
#
#
# Convention : Reuss Voigt Hill
#
# Bulk Modulus (GPa) = 8.63527 30.11358 19.37443
# Shear Modulus (GPa) = 14.94683 25.56403 20.25543
#
# Velocity S-wave (km/s) = 2.56443 3.35376 2.98530
# Velocity P-wave (km/s) = 3.54511 5.31472 4.51741
#
# Compressibility (1/GPa) = 0.11580415
#
# Stress axis : x y z
#
# Youngs Moduli (GPa) = 11.08316 74.32926 47.92155
#
# Poissons Ratio (x) = 1.11504 -0.89947
# Poissons Ratio (y) = 0.16626 0.39009
# Poissons Ratio (z) = -0.20803 0.60505
#
# Static dielectric constant tensor:
#      x y z
#    x 1.831100 0.000000 0.023020 
#    y 0.000000 2.291260 0.000000 
#    z 0.023020 0.000000 1.971620 
# 
# From -- ./inp_files/17800.got.cif
#   From: 2010.05.17/outbox.cif.g08.bks.cpg/sg11_9_cif.got.tgz:17800.got - 2010.06.03 12:22:45.
