data_PCOD9160266
_publ_section_title
;
Structure prediction by ZEFSAII (Michael W. Deem and Ramdas Pophale) SiO2 
 PCOD9160266
Probable space group: P 21/M
;
_chemical_formula_sum "Si O2"
_cell_formula_units_Z 24
_cell_length_a 9.471753
_cell_length_b 26.507684
_cell_length_c 8.697070
_cell_angle_alpha 90.000000
_cell_angle_beta 149.050881
_cell_angle_gamma 90.000000
_cell_volume 1122.979788
_symmetry_space_group_name_H-M "P 21/M"
_symmetry_group_IT_number 11
_symmetry_cell_setting 'monoclinic'
loop_
_space_group_symop_operation_xyz
x,y,z
-x,1/2+y,-z
-x,-y,-z
x,1/2-y,z
loop_
_atom_site_type_symbol
_atom_site_label
_atom_site_fract_x
_atom_site_fract_y
_atom_site_fract_z
Si Si1 0.373470 0.750000 0.334724
Si Si2 0.740412 0.140217 0.761647
Si Si3 0.803497 0.638742 0.555376
Si Si4 0.567799 0.431372 0.319825
Si Si5 0.047625 0.009952 0.868832
Si Si6 0.896555 0.445399 0.335542
Si Si7 0.080331 0.250000 0.324978
O O1 0.275168 0.697794 0.313882
O O2 0.699182 0.750000 0.610737
O O3 0.225417 0.750000 0.028888
O O4 0.667657 0.105538 0.548443
O O5 0.504119 0.135804 0.670401
O O6 0.016195 0.132214 0.118398
O O7 0.882768 0.596824 0.504420
O O8 0.866131 0.695366 0.551273
O O9 0.679715 0.422180 0.252207
O O10 0.738437 0.481751 0.521881
O O11 0.244934 0.442151 0.023925
O O12 0.198353 0.965053 0.919714
O O13 0.000000 0.000000 0.000000
O O14 0.000000 0.500000 0.500000
#
# Coordination Sequence:
#
# PCOD9160266 Si02
#       7
#     2   4   4   4   4   4   2
#     4   8  16  30  53  80 105 128 172 228 268 308
#     4  10  19  35  57  81 104 139 181 222 267 319
#     4  10  20  36  58  80 106 141 182 223 266 321
#     4  11  22  35  52  77 108 137 172 216 267 318
#     4  11  22  37  55  74 101 140 184 219 255 313
#     4  10  23  38  53  79 114 147 178 223 275 321
#     4   8  16  32  55  80 101 132 180 226 262 308
#
# _framework density 21.37171
#
# number of rings (size 3 to 8) (size 9 to 14) (size 15 to 20)
#    0.000    2.000    0.000    4.000    0.000    6.667 
#    0.000    0.833    0.000    0.000    0.000   15.167 
#    0.000    0.000    0.000    0.000    0.000    0.000 
#
# Total GULP energy -133690.422210 kJ/mol
# GULP energy per Si atom -5570.434259 kJ/mol
# Density = 2.132307 g / cm^3
# Si number density = 21.371710 Si / 1000 Ang^3
#
#
#
# Elastic Constant Matrix: (Units=GPa)
#
#
# Indices 1 2 3 4 5 6 
#
# 1 110.2373 28.6636 0.4291 0.0000 -0.1790 0.0000
# 2 28.6636 120.6198 0.0424 0.0000 -1.9126 0.0000
# 3 0.4291 0.0424 66.0299 0.0000 17.6280 0.0000
# 4 0.0000 0.0000 0.0000 24.7521 0.0000 3.9419
# 5 -0.1790 -1.9126 17.6280 0.0000 19.7414 0.0000
# 6 0.0000 0.0000 0.0000 3.9419 0.0000 18.0045
#
#
#
# Elastic Compliance Matrix: (Units=1/GPa)
#
#
# Indices 1 2 3 4 5 6 
#
# 1 0.009669 -0.002299 -0.000033 0.000000 -0.000105 0.000000
# 2 -0.002299 0.008854 -0.000281 0.000000 0.001088 0.000000
# 3 -0.000033 -0.000281 0.019895 0.000000 -0.017793 0.000000
# 4 0.000000 0.000000 0.000000 0.041860 0.000000 -0.009165
# 5 -0.000105 0.001088 -0.017793 0.000000 0.066648 0.000000
# 6 0.000000 0.000000 0.000000 -0.009165 0.000000 0.057548
#
#
# Mechanical properties :
#
#
# Convention : Reuss Voigt Hill
#
# Bulk Modulus (GPa) = 30.12863 39.46191 34.79527
# Shear Modulus (GPa) = 22.64838 30.34971 26.49905
#
# Velocity S-wave (km/s) = 3.25889 3.77249 3.52506
# Velocity P-wave (km/s) = 5.31870 6.12211 5.73449
#
# Compressibility (1/GPa) = 0.03319102
#
# Stress axis : x y z
#
# Youngs Moduli (GPa) = 103.42138 112.93965 50.26325
#
# Poissons Ratio (x) = 0.25969 0.00167
# Poissons Ratio (y) = 0.23781 0.01414
# Poissons Ratio (z) = 0.00344 0.03176
#
# Static dielectric constant tensor:
#      x y z
#    x 1.820360 0.000000 -0.041790 
#    y 0.000000 1.881690 0.000000 
#    z -0.041790 0.000000 1.800790 
# 
# From -- ./inp_files/2906.got.cif
#   From: 2010.05.17/outbox.cif.g08.bks.cpg/sg11_2_cif.got.tgz:2906.got - 2010.06.03 12:22:45.
