data_PCOD9160504
_publ_section_title
;
Structure prediction by ZEFSAII (Michael W. Deem and Ramdas Pophale) SiO2 
 PCOD9160504
Probable space group: P 21/M
;
_chemical_formula_sum "Si O2"
_cell_formula_units_Z 26
_cell_length_a 8.806869
_cell_length_b 24.656635
_cell_length_c 11.114350
_cell_angle_alpha 90.000000
_cell_angle_beta 39.408013
_cell_angle_gamma 90.000000
_cell_volume 1532.155063
_symmetry_space_group_name_H-M "P 21/M"
_symmetry_group_IT_number 11
_symmetry_cell_setting 'monoclinic'
loop_
_space_group_symop_operation_xyz
x,y,z
-x,1/2+y,-z
-x,-y,-z
x,1/2-y,z
loop_
_atom_site_type_symbol
_atom_site_label
_atom_site_fract_x
_atom_site_fract_y
_atom_site_fract_z
Si Si1 0.035786 0.853948 0.508824
Si Si2 0.663222 0.049538 0.754017
Si Si3 0.180932 0.055945 0.194562
Si Si4 0.353582 0.545415 0.521893
Si Si5 0.586277 0.332505 0.515778
Si Si6 0.177489 0.250000 0.493282
Si Si7 0.279988 0.750000 0.767151
Si Si8 0.164249 0.250000 0.782209
O O1 0.165518 0.897936 0.343403
O O2 0.238434 0.832000 0.476664
O O3 0.859007 0.890978 0.698201
O O4 0.915937 0.804081 0.514696
O O5 0.632816 0.038384 0.630782
O O6 0.773278 0.996895 0.750874
O O7 0.408259 0.061612 0.969900
O O8 0.930903 0.046800 0.278155
O O9 0.500000 0.500000 0.500000
O O10 0.453893 0.604883 0.490132
O O11 0.710848 0.301326 0.328813
O O12 0.340438 0.301310 0.692708
O O13 0.465886 0.250000 0.320224
O O14 0.095811 0.250000 0.683028
O O15 0.058040 0.750000 0.992447
#
# Coordination Sequence:
#
# PCOD9160504 Si02
#       8
#     4   4   4   4   4   2   2   2
#     4  10  19  36  56  75 103 133 171 218 251 294
#     4   9  19  35  55  78 103 135 172 209 254 303
#     4   9  19  35  55  78 103 135 172 209 254 303
#     4  10  20  34  53  78 108 138 167 210 255 297
#     4   8  19  36  55  76  98 136 177 205 248 305
#     4  10  22  36  52  80 104 130 174 210 256 316
#     4  10  21  37  53  73 105 136 166 212 260 302
#     4  10  21  37  53  73 105 136 166 212 260 302
#
# _framework density 16.969562
#
# number of rings (size 3 to 8) (size 9 to 14) (size 15 to 20)
#    0.000    3.077    0.000    2.769    0.000   11.692 
#    0.000    4.615    0.000    0.000    0.000    0.000 
#    0.000    0.000    0.000    0.000    0.000    0.000 
#
# Total GULP energy -144914.176693 kJ/mol
# GULP energy per Si atom -5573.622181 kJ/mol
# Density = 1.693094 g / cm^3
# Si number density = 16.969562 Si / 1000 Ang^3
#
#
#
# Elastic Constant Matrix: (Units=GPa)
#
#
# Indices 1 2 3 4 5 6 
#
# 1 52.3546 44.7482 11.2628 0.0000 -3.0138 0.0000
# 2 44.7482 101.5763 14.2308 0.0000 -6.9992 0.0000
# 3 11.2628 14.2308 95.9627 0.0000 -5.7778 0.0000
# 4 0.0000 0.0000 0.0000 8.5114 0.0000 -4.8125
# 5 -3.0138 -6.9992 -5.7778 0.0000 8.7892 0.0000
# 6 0.0000 0.0000 0.0000 -4.8125 0.0000 34.1127
#
#
#
# Elastic Compliance Matrix: (Units=1/GPa)
#
#
# Indices 1 2 3 4 5 6 
#
# 1 0.030900 -0.013459 -0.001706 0.000000 -0.001244 0.000000
# 2 -0.013459 0.016389 -0.000357 0.000000 0.008202 0.000000
# 3 -0.001706 -0.000357 0.011059 0.000000 0.006401 0.000000
# 4 0.000000 0.000000 0.000000 0.127674 0.000000 0.018012
# 5 -0.001244 0.008202 0.006401 0.000000 0.124088 0.000000
# 6 0.000000 0.000000 0.000000 0.018012 0.000000 0.031856
#
#
# Mechanical properties :
#
#
# Convention : Reuss Voigt Hill
#
# Bulk Modulus (GPa) = 36.62378 43.37524 39.99951
# Shear Modulus (GPa) = 13.08521 22.25944 17.67232
#
# Velocity S-wave (km/s) = 2.77988 3.62571 3.23059
# Velocity P-wave (km/s) = 5.65089 6.56839 6.12684
#
# Compressibility (1/GPa) = 0.02730467
#
# Stress axis : x y z
#
# Youngs Moduli (GPa) = 32.36286 61.01554 90.42235
#
# Poissons Ratio (x) = 0.82122 0.15422
# Poissons Ratio (y) = 0.43558 0.03228
# Poissons Ratio (z) = 0.05520 0.02178
#
# Static dielectric constant tensor:
#      x y z
#    x 1.564900 0.000000 -0.002600 
#    y 0.000000 1.571970 0.000000 
#    z -0.002600 0.000000 1.566200 
# 
# From -- ./inp_files/32974.got.cif
#   From: 2010.05.17/outbox.cif.g08.bks.cpg/sg11_17_cif.got.tgz:32974.got - 2010.06.03 12:22:45.
