data_PCOD9160969
_publ_section_title
;
Structure prediction by ZEFSAII (Michael W. Deem and Ramdas Pophale) SiO2 
 PCOD9160969
Probable space group: P 21/M
;
_chemical_formula_sum "Si O2"
_cell_formula_units_Z 32
_cell_length_a 24.124864
_cell_length_b 7.592978
_cell_length_c 13.019052
_cell_angle_alpha 90.000000
_cell_angle_beta 44.294969
_cell_angle_gamma 90.000000
_cell_volume 1665.447824
_symmetry_space_group_name_H-M "P 21/M"
_symmetry_group_IT_number 11
_symmetry_cell_setting 'monoclinic'
loop_
_space_group_symop_operation_xyz
x,y,z
-x,1/2+y,-z
-x,-y,-z
x,1/2-y,z
loop_
_atom_site_type_symbol
_atom_site_label
_atom_site_fract_x
_atom_site_fract_y
_atom_site_fract_z
Si Si1 0.677688 0.533903 0.158932
Si Si2 0.988510 0.541221 0.635758
Si Si3 0.161834 0.043941 0.438128
Si Si4 0.817258 0.534086 0.823702
Si Si5 0.549233 0.040743 0.833692
Si Si6 0.505622 0.537564 0.314881
Si Si7 0.328706 0.041556 0.607798
Si Si8 0.277481 0.454600 0.455585
O O1 0.677398 0.750000 0.159441
O O2 0.588269 0.475240 0.252028
O O3 0.699789 0.473549 0.244391
O O4 0.740228 0.479461 0.989240
O O5 0.990477 0.750000 0.648750
O O6 0.067533 0.467669 0.583069
O O7 0.000000 0.500000 0.500000
O O8 0.898611 0.478733 0.773533
O O9 0.183339 0.250000 0.403383
O O10 0.179705 0.972733 0.299367
O O11 0.213303 0.965968 0.462693
O O12 0.818815 0.750000 0.818855
O O13 0.559806 0.250000 0.812240
O O14 0.503199 0.981867 0.792223
O O15 0.636873 0.960457 0.713164
O O16 0.500000 0.000000 0.000000
O O17 0.506591 0.750000 0.317139
O O18 0.424200 0.479436 0.476322
O O19 0.312970 0.250000 0.627432
O O20 0.292380 0.967360 0.549832
O O21 0.255349 0.250000 0.500698
#
# Coordination Sequence:
#
# PCOD9160969 Si02
#       8
#     4   4   4   4   4   4   4   4
#     4   9  16  27  46  68  88 114 153 191 223 267
#     4   9  16  28  46  68  94 120 148 184 226 273
#     4   9  17  29  48  68  89 120 153 184 221 276
#     4   8  15  26  43  67  89 113 146 181 220 267
#     4  10  20  31  44  64  92 124 154 187 230 274
#     4   9  18  30  46  65  86 119 157 188 222 271
#     4   9  17  30  47  66  89 116 150 195 231 258
#     4   9  18  31  47  67  90 119 154 188 227 271
#
# _framework density 19.214051000000001
#
# number of rings (size 3 to 8) (size 9 to 14) (size 15 to 20)
#    0.000    3.000    0.000    1.875    1.750    1.000 
#    0.000    0.000    0.000    6.000    0.000    0.000 
#    0.000    0.000    0.000    0.000    0.000    0.500 
#
# Total GULP energy -178294.388889 kJ/mol
# GULP energy per Si atom -5571.699653 kJ/mol
# Density = 1.917032 g / cm^3
# Si number density = 19.214051 Si / 1000 Ang^3
#
#
#
# Elastic Constant Matrix: (Units=GPa)
#
#
# Indices 1 2 3 4 5 6 
#
# 1 161.1296 5.8653 54.4011 0.0000 -0.9670 0.0000
# 2 5.8653 39.1487 4.3544 0.0000 4.5747 0.0000
# 3 54.4011 4.3544 60.4341 0.0000 7.9991 0.0000
# 4 0.0000 0.0000 0.0000 9.3917 0.0000 -8.4642
# 5 -0.9670 4.5747 7.9991 0.0000 9.7270 0.0000
# 6 0.0000 0.0000 0.0000 -8.4642 0.0000 9.5109
#
#
#
# Elastic Compliance Matrix: (Units=1/GPa)
#
#
# Indices 1 2 3 4 5 6 
#
# 1 0.009654 -0.001491 -0.009878 0.000000 0.009784 0.000000
# 2 -0.001491 0.027264 0.001228 0.000000 -0.013981 0.000000
# 3 -0.009878 0.001228 0.028678 0.000000 -0.025144 0.000000
# 4 0.000000 0.000000 0.000000 0.537914 0.000000 0.478712
# 5 0.009784 -0.013981 -0.025144 0.000000 0.131031 0.000000
# 6 0.000000 0.000000 0.000000 0.478712 0.000000 0.531168
#
#
# Mechanical properties :
#
#
# Convention : Reuss Voigt Hill
#
# Bulk Modulus (GPa) = 22.06776 43.32823 32.69799
# Shear Modulus (GPa) = 3.84291 18.79870 11.32081
#
# Velocity S-wave (km/s) = 1.41577 3.13130 2.42997
# Velocity P-wave (km/s) = 3.76599 5.97266 4.99276
#
# Compressibility (1/GPa) = 0.04531498
#
# Stress axis : x y z
#
# Youngs Moduli (GPa) = 103.58138 36.67829 34.86944
#
# Poissons Ratio (x) = 0.05469 0.34444
# Poissons Ratio (y) = 0.15444 -0.04283
# Poissons Ratio (z) = 1.02319 -0.04505
#
# Static dielectric constant tensor:
#      x y z
#    x 1.699640 0.000000 0.014490 
#    y 0.000000 1.718350 0.000000 
#    z 0.014490 0.000000 1.649370 
# 
# From -- ./inp_files/43760.got.cif
#   From: 2010.05.17/outbox.cif.g08.bks.cpg/sg11_22_cif.got.tgz:43760.got - 2010.06.03 12:22:45.
