data_PCOD9160343
_publ_section_title
;
Structure prediction by ZEFSAII (Michael W. Deem and Ramdas Pophale) SiO2 
 PCOD9160343
Probable space group: P 21/M
;
_chemical_formula_sum "Si O2"
_cell_formula_units_Z 32
_cell_length_a 26.872072
_cell_length_b 8.914289
_cell_length_c 21.454084
_cell_angle_alpha 90.000000
_cell_angle_beta 159.071456
_cell_angle_gamma 90.000000
_cell_volume 1835.749338
_symmetry_space_group_name_H-M "P 21/M"
_symmetry_group_IT_number 11
_symmetry_cell_setting 'monoclinic'
loop_
_space_group_symop_operation_xyz
x,y,z
-x,1/2+y,-z
-x,-y,-z
x,1/2-y,z
loop_
_atom_site_type_symbol
_atom_site_label
_atom_site_fract_x
_atom_site_fract_y
_atom_site_fract_z
Si Si1 0.418397 0.429718 0.462625
Si Si2 0.097487 0.069755 0.062235
Si Si3 0.397709 0.070534 0.969205
Si Si4 0.022975 0.070938 0.343354
Si Si5 0.280370 0.570111 0.958126
Si Si6 0.912401 0.572127 0.090495
Si Si7 0.397133 0.072841 0.218272
Si Si8 0.701858 0.429370 0.275905
O O1 0.500000 0.500000 0.500000
O O2 0.433731 0.250000 0.479728
O O3 0.256843 0.467746 0.264590
O O4 0.482802 0.496073 0.601050
O O5 0.085697 0.250000 0.049140
O O6 0.062359 0.020909 0.950573
O O7 0.000000 0.000000 0.000000
O O8 0.380752 0.250000 0.950919
O O9 0.562769 0.037495 0.153757
O O10 0.333461 0.998118 0.955707
O O11 0.324134 0.004053 0.821725
O O12 0.039191 0.250000 0.364039
O O13 0.881468 0.031863 0.216003
O O14 0.158727 0.992965 0.530264
O O15 0.995006 0.016013 0.240217
O O16 0.291913 0.750000 0.970915
O O17 0.369826 0.502995 0.119785
O O18 0.943619 0.750000 0.132223
O O19 0.747999 0.554979 0.913400
O O20 0.422758 0.250000 0.241045
O O21 0.711146 0.250000 0.279847
#
# Coordination Sequence:
#
# PCOD9160343 Si02
#       8
#     4   4   4   4   4   4   4   4
#     4  11  21  36  58  84 111 144 188 233 278 333
#     4  10  22  39  56  80 112 146 185 231 281 332
#     4  10  21  38  60  85 113 148 187 228 275 327
#     4  10  21  36  57  86 113 144 187 229 274 332
#     4  10  21  37  57  85 117 148 184 230 279 327
#     4   9  18  36  57  78 110 147 183 228 277 329
#     4  10  19  35  58  84 112 145 185 231 281 331
#     4  10  21  38  60  84 112 149 188 227 274 329
#
# _framework density 17.431574000000001
#
# number of rings (size 3 to 8) (size 9 to 14) (size 15 to 20)
#    0.000    2.000    1.250    2.250    0.000    5.500 
#    2.250    0.000    0.000    0.000    0.000    0.000 
#    0.000    0.000    0.000    0.000    0.000    0.000 
#
# Total GULP energy -178678.347072 kJ/mol
# GULP energy per Si atom -5583.698346 kJ/mol
# Density = 1.739190 g / cm^3
# Si number density = 17.431574 Si / 1000 Ang^3
#
#
#
# Elastic Constant Matrix: (Units=GPa)
#
#
# Indices 1 2 3 4 5 6 
#
# 1 165.0021 67.0565 93.5580 0.0000 -7.4315 0.0000
# 2 67.0565 72.4713 72.1701 0.0000 -1.7359 0.0000
# 3 93.5580 72.1701 150.3280 0.0000 -12.1383 0.0000
# 4 0.0000 0.0000 0.0000 33.4773 0.0000 -3.6817
# 5 -7.4315 -1.7359 -12.1383 0.0000 16.8660 0.0000
# 6 0.0000 0.0000 0.0000 -3.6817 0.0000 34.8539
#
#
#
# Elastic Compliance Matrix: (Units=1/GPa)
#
#
# Indices 1 2 3 4 5 6 
#
# 1 0.010697 -0.006432 -0.003443 0.000000 0.001574 0.000000
# 2 -0.006432 0.031064 -0.011552 0.000000 -0.007951 0.000000
# 3 -0.003443 -0.011552 0.014993 0.000000 0.008085 0.000000
# 4 0.000000 0.000000 0.000000 0.030222 0.000000 0.003192
# 5 0.001574 -0.007951 0.008085 0.000000 0.064985 0.000000
# 6 0.000000 0.000000 0.000000 0.003192 0.000000 0.029028
#
#
# Mechanical properties :
#
#
# Convention : Reuss Voigt Hill
#
# Bulk Modulus (GPa) = 71.93762 94.81897 83.37830
# Shear Modulus (GPa) = 21.88403 27.37389 24.62896
#
# Velocity S-wave (km/s) = 3.54704 3.96708 3.76293
# Velocity P-wave (km/s) = 7.62453 8.68888 8.17405
#
# Compressibility (1/GPa) = 0.01390093
#
# Stress axis : x y z
#
# Youngs Moduli (GPa) = 93.48056 32.19179 66.69588
#
# Poissons Ratio (x) = 0.20706 0.22960
# Poissons Ratio (y) = 0.60128 0.77048
# Poissons Ratio (z) = 0.32181 0.37188
#
# Static dielectric constant tensor:
#      x y z
#    x 1.570970 0.000000 0.002870 
#    y 0.000000 1.580210 0.000000 
#    z 0.002870 0.000000 1.573650 
# 
# From -- ./inp_files/67170.got.cif
#   From: 2010.05.17/outbox.cif.g08.bks.cpg/sg11_34_cif.got.tgz:67170.got - 2010.06.03 12:22:45.
