data_PCOD9160898
_publ_section_title
;
Structure prediction by ZEFSAII (Michael W. Deem and Ramdas Pophale) SiO2 
 PCOD9160898
Probable space group: P 21/M
;
_chemical_formula_sum "Si O2"
_cell_formula_units_Z 24
_cell_length_a 11.349092
_cell_length_b 14.102398
_cell_length_c 21.220409
_cell_angle_alpha 90.000000
_cell_angle_beta 157.881264
_cell_angle_gamma 90.000000
_cell_volume 1278.804673
_symmetry_space_group_name_H-M "P 21/M"
_symmetry_group_IT_number 11
_symmetry_cell_setting 'monoclinic'
loop_
_space_group_symop_operation_xyz
x,y,z
-x,1/2+y,-z
-x,-y,-z
x,1/2-y,z
loop_
_atom_site_type_symbol
_atom_site_label
_atom_site_fract_x
_atom_site_fract_y
_atom_site_fract_z
Si Si1 0.648323 0.144211 0.722453
Si Si2 0.609569 0.893073 0.544266
Si Si3 0.331940 0.532534 0.636157
Si Si4 0.150271 0.645359 0.424203
Si Si5 0.752661 0.466978 0.175782
Si Si6 0.610539 0.861767 0.892492
O O1 0.575920 0.250000 0.711715
O O2 0.524225 0.139858 0.589216
O O3 0.491824 0.059778 0.684205
O O4 0.022325 0.131672 0.908877
O O5 0.440944 0.846618 0.519911
O O6 0.982931 0.899378 0.724193
O O7 0.500000 0.000000 0.500000
O O8 0.272019 0.608552 0.551443
O O9 0.534706 0.580974 0.791342
O O10 0.000000 0.500000 0.500000
O O11 0.002391 0.750000 0.355075
O O12 0.922718 0.562000 0.286275
O O13 0.590354 0.410141 0.151863
O O14 0.500000 0.500000 0.000000
O O15 0.532405 0.750000 0.847291
#
# Coordination Sequence:
#
# PCOD9160898 Si02
#       6
#     4   4   4   4   4   4
#     4  11  23  41  68  94 125 168 212 259 317 380
#     4  10  19  39  62  91 123 160 209 258 316 368
#     4  12  23  43  64  92 127 170 211 265 310 374
#     4  11  23  41  64  92 129 168 212 261 319 376
#     4  11  23  40  67  94 129 164 209 268 317 374
#     4  11  24  42  65  95 129 168 211 257 316 383
#
# _framework density 18.767526
#
# number of rings (size 3 to 8) (size 9 to 14) (size 15 to 20)
#    0.000    1.000    5.000    3.500    0.000    6.000 
#    0.000    0.000    0.000    0.000    0.000    0.000 
#    0.000    0.000    0.000    0.000    0.000    0.000 
#
# Total GULP energy -133990.831218 kJ/mol
# GULP energy per Si atom -5582.951301 kJ/mol
# Density = 1.872481 g / cm^3
# Si number density = 18.767526 Si / 1000 Ang^3
#
#
#
# Elastic Constant Matrix: (Units=GPa)
#
#
# Indices 1 2 3 4 5 6 
#
# 1 131.4662 53.3540 52.2488 0.0000 -0.9774 0.0000
# 2 53.3540 126.8513 23.2466 0.0000 10.4270 0.0000
# 3 52.2488 23.2466 116.1372 0.0000 -8.5049 0.0000
# 4 0.0000 0.0000 0.0000 22.3334 0.0000 13.1253
# 5 -0.9774 10.4270 -8.5049 0.0000 30.6174 0.0000
# 6 0.0000 0.0000 0.0000 13.1253 0.0000 -11.8775
#
#
#
# Elastic Compliance Matrix: (Units=1/GPa)
#
#
# Indices 1 2 3 4 5 6 
#
# 1 0.010772 -0.003834 -0.004040 0.000000 0.000527 0.000000
# 2 -0.003834 0.009890 -0.000521 0.000000 -0.003635 0.000000
# 3 -0.004040 -0.000521 0.010755 0.000000 0.003036 0.000000
# 4 0.000000 0.000000 0.000000 0.027146 0.000000 0.029998
# 5 0.000527 -0.003635 0.003036 0.000000 0.034759 0.000000
# 6 0.000000 0.000000 0.000000 0.029998 0.000000 -0.051043
#
#
# Mechanical properties :
#
#
# Convention : Reuss Voigt Hill
#
# Bulk Modulus (GPa) = 68.36781 70.23930 69.30355
# Shear Modulus (GPa) = 78.19249 24.58833 51.39041
#
# Velocity S-wave (km/s) = 6.46175 3.62353 5.23852
# Velocity P-wave (km/s) = 9.60105 7.41713 8.57887
#
# Compressibility (1/GPa) = 0.01462677
#
# Stress axis : x y z
#
# Youngs Moduli (GPa) = 92.83332 101.11210 92.98176
#
# Poissons Ratio (x) = 0.38763 0.37567
# Poissons Ratio (y) = 0.35589 0.04846
# Poissons Ratio (z) = 0.37507 0.05269
#
# Static dielectric constant tensor:
#      x y z
#    x 1.643040 0.000000 0.011130 
#    y 0.000000 1.666510 0.000000 
#    z 0.011130 0.000000 1.635980 
# 
# From -- ./inp_files/64829.got.cif
#   From: 2010.05.17/outbox.cif.g08.bks.cpg/sg11_33_cif.got.tgz:64829.got - 2010.06.03 12:22:45.
