data_PCOD9160834
_publ_section_title
;
Structure prediction by ZEFSAII (Michael W. Deem and Ramdas Pophale) SiO2 
 PCOD9160834
Probable space group: P 21/M
;
_chemical_formula_sum "Si O2"
_cell_formula_units_Z 28
_cell_length_a 5.255816
_cell_length_b 14.043314
_cell_length_c 17.829455
_cell_angle_alpha 90.000000
_cell_angle_beta 103.229840
_cell_angle_gamma 90.000000
_cell_volume 1281.049374
_symmetry_space_group_name_H-M "P 21/M"
_symmetry_group_IT_number 11
_symmetry_cell_setting 'monoclinic'
loop_
_space_group_symop_operation_xyz
x,y,z
-x,1/2+y,-z
-x,-y,-z
x,1/2-y,z
loop_
_atom_site_type_symbol
_atom_site_label
_atom_site_fract_x
_atom_site_fract_y
_atom_site_fract_z
Si Si1 0.989231 0.022399 0.732135
Si Si2 0.316703 0.636302 0.014346
Si Si3 0.800206 0.857971 0.509841
Si Si4 0.428763 0.536254 0.178558
Si Si5 0.222980 0.509095 0.601550
Si Si6 0.341410 0.142607 0.325104
Si Si7 0.746530 0.636858 0.918189
O O1 0.264274 0.047826 0.787613
O O2 0.023740 0.042535 0.645782
O O3 0.756351 0.067873 0.764987
O O4 0.915276 0.909396 0.724063
O O5 0.305589 0.750000 0.023339
O O6 0.345427 0.589076 0.096931
O O7 0.563256 0.615385 0.977653
O O8 0.045121 0.608616 0.955862
O O9 0.825722 0.750000 0.484369
O O10 0.687030 0.854094 0.586081
O O11 0.075553 0.912180 0.541546
O O12 0.654395 0.928464 0.442914
O O13 0.366836 0.425650 0.156502
O O14 0.422609 0.568094 0.666547
O O15 0.383027 0.250000 0.301295
O O16 0.735384 0.750000 0.903320
#
# Coordination Sequence:
#
# PCOD9160834 Si02
#       7
#     4   4   4   4   4   4   4
#     4  11  24  38  57  85 123 162 199 233 291 361
#     4  10  21  39  62  87 115 151 199 249 293 344
#     4   9  19  34  61  91 112 153 205 255 302 344
#     4  12  22  39  61  86 120 160 196 236 296 354
#     4  10  19  38  58  84 125 156 197 250 297 354
#     4  10  20  37  60  86 119 157 199 242 300 357
#     4  10  21  37  60  90 117 146 194 250 298 342
#
# _framework density 21.857081999999998
#
# number of rings (size 3 to 8) (size 9 to 14) (size 15 to 20)
#    0.000    1.714    1.429    3.429    0.000    1.714 
#    0.000    1.429    0.000    0.857    0.000    0.000 
#    0.000    0.000    0.000    0.000    0.000    0.000 
#
# Total GULP energy -156297.537879 kJ/mol
# GULP energy per Si atom -5582.054924 kJ/mol
# Density = 2.180733 g / cm^3
# Si number density = 21.857082 Si / 1000 Ang^3
#
#
#
# Elastic Constant Matrix: (Units=GPa)
#
#
# Indices 1 2 3 4 5 6 
#
# 1 105.9295 11.6882 20.9989 0.0000 7.0422 0.0000
# 2 11.6882 42.8055 5.6176 0.0000 -4.1459 0.0000
# 3 20.9989 5.6176 52.4632 0.0000 -4.2875 0.0000
# 4 0.0000 0.0000 0.0000 17.5951 0.0000 1.2454
# 5 7.0422 -4.1459 -4.2875 0.0000 41.7378 0.0000
# 6 0.0000 0.0000 0.0000 1.2454 0.0000 17.6540
#
#
#
# Elastic Compliance Matrix: (Units=1/GPa)
#
#
# Indices 1 2 3 4 5 6 
#
# 1 0.010732 -0.002619 -0.004220 0.000000 -0.002504 0.000000
# 2 -0.002619 0.024520 -0.001353 0.000000 0.002738 0.000000
# 3 -0.004220 -0.001353 0.021119 0.000000 0.002747 0.000000
# 4 0.000000 0.000000 0.000000 0.057119 0.000000 -0.004029
# 5 -0.002504 0.002738 0.002747 0.000000 0.024936 0.000000
# 6 0.000000 0.000000 0.000000 -0.004029 0.000000 0.056929
#
#
# Mechanical properties :
#
#
# Convention : Reuss Voigt Hill
#
# Bulk Modulus (GPa) = 25.00856 30.86753 27.93804
# Shear Modulus (GPa) = 22.21545 26.25696 24.23620
#
# Velocity S-wave (km/s) = 3.19156 3.46974 3.33355
# Velocity P-wave (km/s) = 5.00480 5.49593 5.25611
#
# Compressibility (1/GPa) = 0.03998631
#
# Stress axis : x y z
#
# Youngs Moduli (GPa) = 93.17691 40.78383 47.34975
#
# Poissons Ratio (x) = 0.10682 0.19981
# Poissons Ratio (y) = 0.24405 0.06408
# Poissons Ratio (z) = 0.39320 0.05519
#
# Static dielectric constant tensor:
#      x y z
#    x 1.862630 0.000000 -0.018430 
#    y 0.000000 1.798330 0.000000 
#    z -0.018430 0.000000 1.835240 
# 
# From -- ./inp_files/56958.got.cif
#   From: 2010.05.17/outbox.cif.g08.bks.cpg/sg11_29_cif.got.tgz:56958.got - 2010.06.03 12:22:45.
