data_PCOD9160430
_publ_section_title
;
Structure prediction by ZEFSAII (Michael W. Deem and Ramdas Pophale) SiO2 
 PCOD9160430
Probable space group: P 21/M
;
_chemical_formula_sum "Si O2"
_cell_formula_units_Z 24
_cell_length_a 10.915826
_cell_length_b 12.524680
_cell_length_c 11.971775
_cell_angle_alpha 90.000000
_cell_angle_beta 52.065113
_cell_angle_gamma 90.000000
_cell_volume 1290.919270
_symmetry_space_group_name_H-M "P 21/M"
_symmetry_group_IT_number 11
_symmetry_cell_setting 'monoclinic'
loop_
_space_group_symop_operation_xyz
x,y,z
-x,1/2+y,-z
-x,-y,-z
x,1/2-y,z
loop_
_atom_site_type_symbol
_atom_site_label
_atom_site_fract_x
_atom_site_fract_y
_atom_site_fract_z
Si Si1 0.037191 0.370089 0.232408
Si Si2 0.734302 0.510458 0.446823
Si Si3 0.362968 0.873023 0.108483
Si Si4 0.669728 0.549062 0.048024
Si Si5 0.170368 0.036721 0.367663
Si Si6 0.568608 0.623853 0.343258
O O1 0.980931 0.250000 0.246773
O O2 0.138337 0.376927 0.290194
O O3 0.895516 0.452633 0.324400
O O4 0.159109 0.405634 0.070045
O O5 0.747026 0.563596 0.562431
O O6 0.679758 0.592638 0.383483
O O7 0.602263 0.419488 0.530833
O O8 0.317563 0.750000 0.131903
O O9 0.540536 0.885372 0.049695
O O10 0.262092 0.941166 0.254025
O O11 0.341615 0.931964 0.001667
O O12 0.624259 0.561444 0.201641
O O13 0.000000 0.000000 0.500000
O O14 0.567436 0.750000 0.321743
#
# Coordination Sequence:
#
# PCOD9160430 Si02
#       6
#     4   4   4   4   4   4
#     4  10  20  36  58  83 115 149 187 244 301 338
#     4  10  22  38  56  84 116 151 203 238 281 359
#     4  10  19  35  60  85 118 156 190 240 298 344
#     4  10  21  36  57  89 114 148 202 239 277 358
#     4   9  19  34  55  87 116 141 189 244 282 350
#     4  11  22  39  61  81 115 161 196 240 295 343
#
# _framework density 18.591401999999999
#
# number of rings (size 3 to 8) (size 9 to 14) (size 15 to 20)
#    0.000    2.000    1.667    2.000    0.000    4.000 
#    0.000   10.833    0.000    0.000    0.000    0.000 
#    0.000    0.000    0.000    0.000    0.000    0.000 
#
# Total GULP energy -133848.577894 kJ/mol
# GULP energy per Si atom -5577.024079 kJ/mol
# Density = 1.854909 g / cm^3
# Si number density = 18.591402 Si / 1000 Ang^3
#
#
#
# Elastic Constant Matrix: (Units=GPa)
#
#
# Indices 1 2 3 4 5 6 
#
# 1 69.9471 0.0242 25.7616 0.0000 5.2194 0.0000
# 2 0.0242 27.8528 21.3948 0.0000 -1.2200 0.0000
# 3 25.7616 21.3948 107.8403 0.0000 -7.1689 0.0000
# 4 0.0000 0.0000 0.0000 7.3146 0.0000 -3.2596
# 5 5.2194 -1.2200 -7.1689 0.0000 38.5392 0.0000
# 6 0.0000 0.0000 0.0000 -3.2596 0.0000 8.2477
#
#
#
# Elastic Compliance Matrix: (Units=1/GPa)
#
#
# Indices 1 2 3 4 5 6 
#
# 1 0.016282 0.003534 -0.004789 0.000000 -0.002984 0.000000
# 2 0.003534 0.043127 -0.009458 0.000000 -0.000873 0.000000
# 3 -0.004789 -0.009458 0.012471 0.000000 0.002669 0.000000
# 4 0.000000 0.000000 0.000000 0.165937 0.000000 0.065581
# 5 -0.002984 -0.000873 0.002669 0.000000 0.026821 0.000000
# 6 0.000000 0.000000 0.000000 0.065581 0.000000 0.147164
#
#
# Mechanical properties :
#
#
# Convention : Reuss Voigt Hill
#
# Bulk Modulus (GPa) = 19.82060 33.33350 26.57705
# Shear Modulus (GPa) = 11.10997 21.38428 16.24713
#
# Velocity S-wave (km/s) = 2.44721 3.39517 2.95940
# Velocity P-wave (km/s) = 4.32081 5.77391 5.09939
#
# Compressibility (1/GPa) = 0.05045255
#
# Stress axis : x y z
#
# Youngs Moduli (GPa) = 61.41855 23.18734 80.18687
#
# Poissons Ratio (x) = -0.08194 0.38401
# Poissons Ratio (y) = -0.21703 0.75843
# Poissons Ratio (z) = 0.29413 0.21931
#
# Static dielectric constant tensor:
#      x y z
#    x 1.663370 0.000000 0.010590 
#    y 0.000000 1.609380 0.000000 
#    z 0.010590 0.000000 1.644270 
# 
# From -- ./inp_files/34463.got.cif
#   From: 2010.05.17/outbox.cif.g08.bks.cpg/sg11_18_cif.got.tgz:34463.got - 2010.06.03 12:22:45.
