data_PCOD9160520
_publ_section_title
;
Structure prediction by ZEFSAII (Michael W. Deem and Ramdas Pophale) SiO2 
 PCOD9160520
Probable space group: P 21/M
;
_chemical_formula_sum "Si O2"
_cell_formula_units_Z 32
_cell_length_a 28.065075
_cell_length_b 13.904063
_cell_length_c 9.331492
_cell_angle_alpha 90.000000
_cell_angle_beta 28.855490
_cell_angle_gamma 90.000000
_cell_volume 1757.309522
_symmetry_space_group_name_H-M "P 21/M"
_symmetry_group_IT_number 11
_symmetry_cell_setting 'monoclinic'
loop_
_space_group_symop_operation_xyz
x,y,z
-x,1/2+y,-z
-x,-y,-z
x,1/2-y,z
loop_
_atom_site_type_symbol
_atom_site_label
_atom_site_fract_x
_atom_site_fract_y
_atom_site_fract_z
Si Si1 0.184548 0.638630 0.066382
Si Si2 0.005696 0.529830 0.651323
Si Si3 0.702310 0.638202 0.210024
Si Si4 0.120512 0.362708 0.486244
Si Si5 0.272048 0.468836 0.282588
Si Si6 0.211714 0.021128 0.762021
Si Si7 0.667529 0.362861 0.075676
Si Si8 0.563830 0.865619 0.319119
O O1 0.170491 0.750000 0.070732
O O2 0.096815 0.603404 0.403593
O O3 0.190402 0.576811 0.906245
O O4 0.283921 0.623946 0.896416
O O5 0.034499 0.437350 0.671257
O O6 0.000000 0.500000 0.500000
O O7 0.897189 0.567477 0.974291
O O8 0.685207 0.750000 0.286447
O O9 0.722119 0.582135 0.302902
O O10 0.615159 0.603938 0.334053
O O11 0.801604 0.630542 0.851601
O O12 0.093589 0.250000 0.573392
O O13 0.182176 0.403904 0.457986
O O14 0.260773 0.488678 0.479136
O O15 0.277064 0.567631 0.180158
O O16 0.371959 0.413081 0.975234
O O17 0.677938 0.250000 0.010980
O O18 0.551578 0.387176 0.381218
O O19 0.576164 0.750000 0.277650
#
# Coordination Sequence:
#
# PCOD9160520 Si02
#       8
#     4   4   4   4   4   4   4   4
#     4  10  20  38  59  80 110 151 201 238 270 336
#     4  10  19  36  57  81 110 149 195 229 275 333
#     4   9  17  33  56  80 111 146 191 237 277 331
#     4  10  19  36  59  80 109 150 196 238 274 329
#     4  11  21  36  57  83 121 147 183 241 296 342
#     4  11  23  35  54  84 121 150 183 235 295 345
#     4  10  20  38  63  83 107 150 201 239 277 341
#     4   9  19  37  62  86 107 148 198 238 283 339
#
# _framework density 18.209654
#
# number of rings (size 3 to 8) (size 9 to 14) (size 15 to 20)
#    0.000    2.000    3.750    2.250    0.000    4.500 
#    0.000    2.500    0.000    4.500    0.000    0.000 
#    0.000    0.000    0.000    0.000    0.000    0.000 
#
# Total GULP energy -178460.984344 kJ/mol
# GULP energy per Si atom -5576.905761 kJ/mol
# Density = 1.816821 g / cm^3
# Si number density = 18.209654 Si / 1000 Ang^3
#
#
#
# Elastic Constant Matrix: (Units=GPa)
#
#
# Indices 1 2 3 4 5 6 
#
# 1 92.0047 49.2059 54.2271 0.0000 6.1742 0.0000
# 2 49.2059 86.9991 30.3488 0.0000 10.6345 0.0000
# 3 54.2271 30.3488 56.8017 0.0000 4.2539 0.0000
# 4 0.0000 0.0000 0.0000 7.9410 0.0000 -4.1373
# 5 6.1742 10.6345 4.2539 0.0000 34.7707 0.0000
# 6 0.0000 0.0000 0.0000 -4.1373 0.0000 20.0268
#
#
#
# Elastic Compliance Matrix: (Units=1/GPa)
#
#
# Indices 1 2 3 4 5 6 
#
# 1 0.029028 -0.008326 -0.023282 0.000000 0.000240 0.000000
# 2 -0.008326 0.016932 -0.000829 0.000000 -0.003599 0.000000
# 3 -0.023282 -0.000829 0.040315 0.000000 -0.000545 0.000000
# 4 0.000000 0.000000 0.000000 0.141119 0.000000 0.029154
# 5 0.000240 -0.003599 -0.000545 0.000000 0.029885 0.000000
# 6 0.000000 0.000000 0.000000 0.029154 0.000000 0.055956
#
#
# Mechanical properties :
#
#
# Convention : Reuss Voigt Hill
#
# Bulk Modulus (GPa) = 46.72327 55.92991 51.32659
# Shear Modulus (GPa) = 12.97888 19.34928 16.16408
#
# Velocity S-wave (km/s) = 2.67263 3.26327 2.98260
# Velocity P-wave (km/s) = 5.93617 6.70669 6.33316
#
# Compressibility (1/GPa) = 0.02140261
#
# Stress axis : x y z
#
# Youngs Moduli (GPa) = 34.45000 59.05834 24.80455
#
# Poissons Ratio (x) = 0.49169 0.57749
# Poissons Ratio (y) = 0.28682 0.02057
# Poissons Ratio (z) = 0.80205 0.04897
#
# Static dielectric constant tensor:
#      x y z
#    x 1.622830 0.000000 -0.044070 
#    y 0.000000 1.666160 0.000000 
#    z -0.044070 0.000000 1.625230 
# 
# From -- ./inp_files/28856.got.cif
#   From: 2010.05.17/outbox.cif.g08.bks.cpg/sg11_15_cif.got.tgz:28856.got - 2010.06.03 12:22:45.
