data_PCOD9160488
_publ_section_title
;
Structure prediction by ZEFSAII (Michael W. Deem and Ramdas Pophale) SiO2 
 PCOD9160488
Probable space group: P 21/M
;
_chemical_formula_sum "Si O2"
_cell_formula_units_Z 28
_cell_length_a 19.089359
_cell_length_b 18.726768
_cell_length_c 11.066559
_cell_angle_alpha 90.000000
_cell_angle_beta 157.098093
_cell_angle_gamma 90.000000
_cell_volume 1539.532846
_symmetry_space_group_name_H-M "P 21/M"
_symmetry_group_IT_number 11
_symmetry_cell_setting 'monoclinic'
loop_
_space_group_symop_operation_xyz
x,y,z
-x,1/2+y,-z
-x,-y,-z
x,1/2-y,z
loop_
_atom_site_type_symbol
_atom_site_label
_atom_site_fract_x
_atom_site_fract_y
_atom_site_fract_z
Si Si1 0.294774 0.968400 0.668961
Si Si2 0.193234 0.831984 0.344437
Si Si3 0.358718 0.937746 0.271117
Si Si4 0.993425 0.587004 0.822635
Si Si5 0.139576 0.937364 0.685723
Si Si6 0.463339 0.171007 0.283125
Si Si7 0.889415 0.664776 0.406826
O O1 0.256570 0.893335 0.539165
O O2 0.223617 0.954471 0.691165
O O3 0.160035 0.028172 0.399118
O O4 0.500000 0.000000 0.000000
O O5 0.153108 0.750000 0.323867
O O6 0.364863 0.824987 0.529790
O O7 0.037414 0.864516 0.009397
O O8 0.468104 0.869972 0.491847
O O9 0.500000 0.000000 0.500000
O O10 0.289674 0.933153 0.026315
O O11 0.183941 0.947148 0.080370
O O12 0.933957 0.632195 0.609169
O O13 0.029854 0.864172 0.530826
O O14 0.000000 0.000000 0.500000
O O15 0.402654 0.250000 0.221109
O O16 0.302613 0.138164 0.948922
O O17 0.891015 0.750000 0.420296
#
# Coordination Sequence:
#
# PCOD9160488 Si02
#       7
#     4   4   4   4   4   4   4
#     4  12  25  40  64  91 128 168 214 254 315 374
#     4  10  22  40  61  88 127 165 206 258 316 374
#     4  10  20  32  61  85 118 149 196 250 303 344
#     4  10  21  38  61  92 120 161 209 256 300 382
#     4  11  22  39  58  87 123 155 205 253 303 363
#     4   9  19  35  58  89 119 155 201 247 303 373
#     4  10  19  35  63  90 119 158 205 257 311 364
#
# _framework density 18.187334
#
# number of rings (size 3 to 8) (size 9 to 14) (size 15 to 20)
#    0.000    1.714    2.857    2.571    4.000    4.000 
#    0.000    0.714    0.000    0.000    0.000    0.000 
#    0.000    0.000    0.000    0.000    0.000    0.000 
#
# Total GULP energy -156002.851648 kJ/mol
# GULP energy per Si atom -5571.530416 kJ/mol
# Density = 1.814594 g / cm^3
# Si number density = 18.187334 Si / 1000 Ang^3
#
#
#
# Elastic Constant Matrix: (Units=GPa)
#
#
# Indices 1 2 3 4 5 6 
#
# 1 69.4935 48.0020 29.2870 0.0000 -20.2155 0.0000
# 2 48.0020 117.7685 64.4293 0.0000 -10.1119 0.0000
# 3 29.2870 64.4293 130.2249 0.0000 -12.3616 0.0000
# 4 0.0000 0.0000 0.0000 28.6396 0.0000 -0.1985
# 5 -20.2155 -10.1119 -12.3616 0.0000 18.3371 0.0000
# 6 0.0000 0.0000 0.0000 -0.1985 0.0000 25.3886
#
#
#
# Elastic Compliance Matrix: (Units=1/GPa)
#
#
# Indices 1 2 3 4 5 6 
#
# 1 0.028583 -0.009909 0.001011 0.000000 0.026729 0.000000
# 2 -0.009909 0.015205 -0.005914 0.000000 -0.006526 0.000000
# 3 0.001011 -0.005914 0.010869 0.000000 0.005181 0.000000
# 4 0.000000 0.000000 0.000000 0.034919 0.000000 0.000273
# 5 0.026729 -0.006526 0.005181 0.000000 0.083895 0.000000
# 6 0.000000 0.000000 0.000000 0.000273 0.000000 0.039390
#
#
# Mechanical properties :
#
#
# Convention : Reuss Voigt Hill
#
# Bulk Modulus (GPa) = 39.94353 66.76929 53.35641
# Shear Modulus (GPa) = 19.93390 26.19097 23.06244
#
# Velocity S-wave (km/s) = 3.31423 3.79894 3.56483
# Velocity P-wave (km/s) = 6.05437 7.48560 6.80770
#
# Compressibility (1/GPa) = 0.02503534
#
# Stress axis : x y z
#
# Youngs Moduli (GPa) = 34.98534 65.76765 92.00266
#
# Poissons Ratio (x) = 0.65168 -0.09305
# Poissons Ratio (y) = 0.34666 0.54408
# Poissons Ratio (z) = -0.03538 0.38893
#
# Static dielectric constant tensor:
#      x y z
#    x 1.607920 0.000000 -0.007030 
#    y 0.000000 1.770390 0.000000 
#    z -0.007030 0.000000 1.635100 
# 
# From -- ./inp_files/43533.got.cif
#   From: 2010.05.17/outbox.cif.g08.bks.cpg/sg11_22_cif.got.tgz:43533.got - 2010.06.03 12:22:45.
