data_PCOD9160633
_publ_section_title
;
Structure prediction by ZEFSAII (Michael W. Deem and Ramdas Pophale) SiO2 
 PCOD9160633
Probable space group: P 21/M
;
_chemical_formula_sum "Si O2"
_cell_formula_units_Z 28
_cell_length_a 12.364788
_cell_length_b 20.524791
_cell_length_c 5.260494
_cell_angle_alpha 90.000000
_cell_angle_beta 94.236801
_cell_angle_gamma 90.000000
_cell_volume 1331.384499
_symmetry_space_group_name_H-M "P 21/M"
_symmetry_group_IT_number 11
_symmetry_cell_setting 'monoclinic'
loop_
_space_group_symop_operation_xyz
x,y,z
-x,1/2+y,-z
-x,-y,-z
x,1/2-y,z
loop_
_atom_site_type_symbol
_atom_site_label
_atom_site_fract_x
_atom_site_fract_y
_atom_site_fract_z
Si Si1 0.826431 0.497824 0.016406
Si Si2 0.325401 0.750000 0.903761
Si Si3 0.529140 0.250000 0.561266
Si Si4 0.959701 0.325842 0.676551
Si Si5 0.013807 0.406942 0.198012
Si Si6 0.402388 0.999751 0.782729
Si Si7 0.520201 0.389511 0.517231
Si Si8 0.255945 0.864615 0.192948
O O1 0.876804 0.555453 0.859984
O O2 0.788494 0.437028 0.842080
O O3 0.717380 0.515906 0.144661
O O4 0.922578 0.464512 0.198367
O O5 0.421255 0.750000 0.142290
O O6 0.256913 0.814552 0.956923
O O7 0.374403 0.750000 0.632203
O O8 0.469221 0.317888 0.484981
O O9 0.990207 0.250000 0.680054
O O10 0.828728 0.331662 0.629317
O O11 0.013089 0.366255 0.456505
O O12 0.986571 0.360027 0.952461
O O13 0.411300 0.925312 0.690019
O O14 0.436244 0.055270 0.587079
O O15 0.500000 0.000000 0.000000
O O16 0.618557 0.375165 0.724805
#
# Coordination Sequence:
#
# PCOD9160633 Si02
#       8
#     4   2   2   4   4   4   4   4
#     4  10  21  39  63  89 126 162 209 256 306 369
#     4  10  20  34  54  92 122 161 187 246 322 366
#     4  10  22  36  58  80 126 159 203 246 304 370
#     4  11  22  40  63  93 125 159 207 257 319 369
#     4  10  24  40  64  92 125 164 207 259 310 366
#     4  11  21  38  61  90 125 162 211 253 311 365
#     4  10  22  36  59  91 125 166 199 257 312 378
#     4  10  19  36  60  94 127 158 196 254 317 376
#
# _framework density 21.030739000000001
#
# number of rings (size 3 to 8) (size 9 to 14) (size 15 to 20)
#    0.000    1.714    2.143    2.143    2.000    9.714 
#    0.000    0.000    3.143    0.000    0.000    0.000 
#    0.000    0.000    0.000    0.000    0.000    0.000 
#
# Total GULP energy -156048.082341 kJ/mol
# GULP energy per Si atom -5573.145798 kJ/mol
# Density = 2.098287 g / cm^3
# Si number density = 21.030739 Si / 1000 Ang^3
#
#
#
# Elastic Constant Matrix: (Units=GPa)
#
#
# Indices 1 2 3 4 5 6 
#
# 1 81.6845 23.6490 9.9699 0.0000 -24.5605 0.0000
# 2 23.6490 128.6292 13.3589 0.0000 -13.2824 0.0000
# 3 9.9699 13.3589 57.8411 0.0000 -11.5748 0.0000
# 4 0.0000 0.0000 0.0000 31.4263 0.0000 -9.3919
# 5 -24.5605 -13.2824 -11.5748 0.0000 20.9240 0.0000
# 6 0.0000 0.0000 0.0000 -9.3919 0.0000 28.9343
#
#
#
# Elastic Compliance Matrix: (Units=1/GPa)
#
#
# Indices 1 2 3 4 5 6 
#
# 1 0.019231 -0.001365 0.001512 0.000000 0.022543 0.000000
# 2 -0.001365 0.008465 -0.001085 0.000000 0.003171 0.000000
# 3 0.001512 -0.001085 0.019674 0.000000 0.011969 0.000000
# 4 0.000000 0.000000 0.000000 0.035239 0.000000 0.011438
# 5 0.022543 0.003171 0.011969 0.000000 0.082887 0.000000
# 6 0.000000 0.000000 0.000000 0.011438 0.000000 0.038274
#
#
# Mechanical properties :
#
#
# Convention : Reuss Voigt Hill
#
# Bulk Modulus (GPa) = 21.98121 40.23449 31.10785
# Shear Modulus (GPa) = 22.64373 31.00207 26.82290
#
# Velocity S-wave (km/s) = 3.28487 3.84361 3.57517
# Velocity P-wave (km/s) = 4.98616 6.23463 5.64501
#
# Compressibility (1/GPa) = 0.04549340
#
# Stress axis : x y z
#
# Youngs Moduli (GPa) = 51.99926 118.12779 50.82860
#
# Poissons Ratio (x) = 0.16123 -0.07683
# Poissons Ratio (y) = 0.07097 0.05516
# Poissons Ratio (z) = -0.07860 0.12820
#
# Static dielectric constant tensor:
#      x y z
#    x 1.835180 0.000000 0.047300 
#    y 0.000000 1.951470 0.000000 
#    z 0.047300 0.000000 1.874710 
# 
# From -- ./inp_files/4914.got.cif
#   From: 2010.05.17/outbox.cif.g08.bks.cpg/sg11_3_cif.got.tgz:4914.got - 2010.06.03 12:22:45.
