data_PCOD9160635
_publ_section_title
;
Structure prediction by ZEFSAII (Michael W. Deem and Ramdas Pophale) SiO2 
 PCOD9160635
Probable space group: P 21/M
;
_chemical_formula_sum "Si O2"
_cell_formula_units_Z 22
_cell_length_a 19.034368
_cell_length_b 14.396160
_cell_length_c 9.662488
_cell_angle_alpha 90.000000
_cell_angle_beta 28.536140
_cell_angle_gamma 90.000000
_cell_volume 1264.856172
_symmetry_space_group_name_H-M "P 21/M"
_symmetry_group_IT_number 11
_symmetry_cell_setting 'monoclinic'
loop_
_space_group_symop_operation_xyz
x,y,z
-x,1/2+y,-z
-x,-y,-z
x,1/2-y,z
loop_
_atom_site_type_symbol
_atom_site_label
_atom_site_fract_x
_atom_site_fract_y
_atom_site_fract_z
Si Si1 0.722591 0.750000 0.096933
Si Si2 0.054280 0.750000 0.621026
Si Si3 0.544413 0.750000 0.689114
Si Si4 0.640951 0.602245 0.011194
Si Si5 0.700082 0.099325 0.827104
Si Si6 0.929545 0.250000 0.074296
Si Si7 0.750206 0.750000 0.601609
Si Si8 0.663849 0.141899 0.580293
O O1 0.634186 0.750000 0.392363
O O2 0.679264 0.660430 0.080754
O O3 0.895944 0.750000 0.826696
O O4 0.153261 0.660838 0.410654
O O5 0.039424 0.750000 0.814228
O O6 0.657011 0.750000 0.622212
O O7 0.437206 0.661242 0.885682
O O8 0.701024 0.498582 0.900818
O O9 0.707352 0.661054 0.768115
O O10 0.464824 0.602330 0.290750
O O11 0.678956 0.087372 0.697448
O O12 0.822028 0.161037 0.236512
O O13 0.077878 0.250000 0.733068
O O14 0.621527 0.250000 0.691887
#
# Coordination Sequence:
#
# PCOD9160635 Si02
#       8
#     2   2   2   4   4   2   2   4
#     4  11  23  37  53  79 116 147 171 236 270 322
#     4   9  19  38  55  75 114 151 178 216 277 323
#     4  11  20  36  59  78 104 150 193 210 269 333
#     4  11  21  35  58  85 113 134 185 233 275 307
#     4  10  19  36  61  82 102 149 187 223 263 335
#     4   8  16  31  54  74 110 143 179 211 271 322
#     4  11  18  34  55  88 106 145 183 219 271 332
#     4   9  15  34  57  81 107 143 174 227 275 310
#
# _framework density 17.393281999999999
#
# number of rings (size 3 to 8) (size 9 to 14) (size 15 to 20)
#    0.545    1.455    6.364    0.545    0.000    1.455 
#    0.000   12.727    0.000    0.000    0.000    0.000 
#    0.000    0.000    0.000    0.000    0.000    0.000 
#
# Total GULP energy -122616.955760 kJ/mol
# GULP energy per Si atom -5573.497989 kJ/mol
# Density = 1.735369 g / cm^3
# Si number density = 17.393282 Si / 1000 Ang^3
#
#
#
# Elastic Constant Matrix: (Units=GPa)
#
#
# Indices 1 2 3 4 5 6 
#
# 1 90.3925 23.8906 61.0022 0.0000 -9.6146 0.0000
# 2 23.8906 88.5808 37.2815 0.0000 1.8329 0.0000
# 3 61.0022 37.2815 135.8319 0.0000 -10.5084 0.0000
# 4 0.0000 0.0000 0.0000 1.7858 0.0000 -0.1051
# 5 -9.6146 1.8329 -10.5084 0.0000 27.8233 0.0000
# 6 0.0000 0.0000 0.0000 -0.1051 0.0000 3.9315
#
#
#
# Elastic Compliance Matrix: (Units=1/GPa)
#
#
# Indices 1 2 3 4 5 6 
#
# 1 0.016318 -0.001684 -0.006614 0.000000 0.003252 0.000000
# 2 -0.001684 0.013073 -0.003032 0.000000 -0.002588 0.000000
# 3 -0.006614 -0.003032 0.011335 0.000000 0.002195 0.000000
# 4 0.000000 0.000000 0.000000 0.560865 0.000000 0.014987
# 5 0.003252 -0.002588 0.002195 0.000000 0.038064 0.000000
# 6 0.000000 0.000000 0.000000 0.014987 0.000000 0.254758
#
#
# Mechanical properties :
#
#
# Convention : Reuss Voigt Hill
#
# Bulk Modulus (GPa) = 55.35923 62.12819 58.74371
# Shear Modulus (GPa) = 5.41656 19.55017 12.48337
#
# Velocity S-wave (km/s) = 1.76661 3.35626 2.68192
# Velocity P-wave (km/s) = 6.00485 7.12857 6.59070
#
# Compressibility (1/GPa) = 0.01806383
#
# Stress axis : x y z
#
# Youngs Moduli (GPa) = 61.28313 76.49335 88.22575
#
# Poissons Ratio (x) = 0.12884 0.58356
# Poissons Ratio (y) = 0.10322 0.26749
# Poissons Ratio (z) = 0.40535 0.23192
#
# Static dielectric constant tensor:
#      x y z
#    x 1.585240 0.000000 -0.015260 
#    y 0.000000 1.591080 0.000000 
#    z -0.015260 0.000000 1.593820 
# 
# From -- ./inp_files/24808.got.cif
#   From: 2010.05.17/outbox.cif.g08.bks.cpg/sg11_13_cif.got.tgz:24808.got - 2010.06.03 12:22:45.
