data_PCOD9160043
_publ_section_title
;
Structure prediction by ZEFSAII (Michael W. Deem and Ramdas Pophale) SiO2 
 PCOD9160043
Probable space group: P 21/M
;
_chemical_formula_sum "Si O2"
_cell_formula_units_Z 24
_cell_length_a 5.067645
_cell_length_b 9.532497
_cell_length_c 23.471800
_cell_angle_alpha 90.000000
_cell_angle_beta 97.237616
_cell_angle_gamma 90.000000
_cell_volume 1124.825174
_symmetry_space_group_name_H-M "P 21/M"
_symmetry_group_IT_number 11
_symmetry_cell_setting 'monoclinic'
loop_
_space_group_symop_operation_xyz
x,y,z
-x,1/2+y,-z
-x,-y,-z
x,1/2-y,z
loop_
_atom_site_type_symbol
_atom_site_label
_atom_site_fract_x
_atom_site_fract_y
_atom_site_fract_z
Si Si1 0.765626 0.589693 0.798807
Si Si2 0.012849 0.918646 0.373078
Si Si3 0.444058 0.079861 0.556901
Si Si4 0.767063 0.921432 0.243631
Si Si5 0.341038 0.043111 0.075551
Si Si6 0.167011 0.106176 0.944990
O O1 0.779355 0.750000 0.775621
O O2 0.520026 0.494994 0.769522
O O3 0.715471 0.605445 0.864895
O O4 0.031010 0.499244 0.794011
O O5 0.001776 0.750000 0.373919
O O6 0.316931 0.956190 0.392990
O O7 0.828571 0.965962 0.420418
O O8 0.891083 0.956613 0.309033
O O9 0.442615 0.250000 0.548465
O O10 0.500000 0.000000 0.500000
O O11 0.754995 0.750000 0.236798
O O12 0.652064 0.016038 0.075397
O O13 0.145690 0.909116 0.070602
O O14 0.237727 0.109652 0.013948
O O15 0.258586 0.250000 0.919665
#
# Coordination Sequence:
#
# PCOD9160043 Si02
#       6
#     4   4   4   4   4   4
#     4  12  25  42  62  90 127 161 197 251 318 370
#     4   9  19  37  59  81 114 156 196 240 291 345
#     4  10  19  34  57  86 117 151 190 235 290 348
#     4  11  24  43  67  91 117 162 217 257 293 353
#     4  10  22  36  55  80 111 151 186 230 300 370
#     4  10  20  36  56  80 108 143 192 241 288 350
#
# _framework density 21.336651
#
# number of rings (size 3 to 8) (size 9 to 14) (size 15 to 20)
#    0.000    1.667    0.000    4.500    0.000    6.667 
#    0.000   10.000    0.000    0.000    0.000    0.000 
#    0.000    0.000    0.000    0.000    0.000    0.000 
#
# Total GULP energy -133814.345361 kJ/mol
# GULP energy per Si atom -5575.597723 kJ/mol
# Density = 2.128809 g / cm^3
# Si number density = 21.336651 Si / 1000 Ang^3
#
#
#
# Elastic Constant Matrix: (Units=GPa)
#
#
# Indices 1 2 3 4 5 6 
#
# 1 70.4810 16.8483 -17.8253 0.0000 5.1896 0.0000
# 2 16.8483 97.1338 6.4661 0.0000 4.3364 0.0000
# 3 -17.8253 6.4661 65.2852 0.0000 0.5673 0.0000
# 4 0.0000 0.0000 0.0000 81.6273 0.0000 27.9758
# 5 5.1896 4.3364 0.5673 0.0000 34.7576 0.0000
# 6 0.0000 0.0000 0.0000 27.9758 0.0000 29.4021
#
#
#
# Elastic Compliance Matrix: (Units=1/GPa)
#
#
# Indices 1 2 3 4 5 6 
#
# 1 0.016278 -0.003046 0.004765 0.000000 -0.002128 0.000000
# 2 -0.003046 0.010990 -0.001912 0.000000 -0.000885 0.000000
# 3 0.004765 -0.001912 0.016814 0.000000 -0.000747 0.000000
# 4 0.000000 0.000000 0.000000 0.018179 0.000000 -0.017297
# 5 -0.002128 -0.000885 -0.000747 0.000000 0.029211 0.000000
# 6 0.000000 0.000000 0.000000 -0.017297 0.000000 0.050469
#
#
# Mechanical properties :
#
#
# Convention : Reuss Voigt Hill
#
# Bulk Modulus (GPa) = 22.88558 27.09757 24.99157
# Shear Modulus (GPa) = 31.86873 44.31815 38.09344
#
# Velocity S-wave (km/s) = 3.86892 4.56245 4.22993
# Velocity P-wave (km/s) = 5.54142 6.36257 5.96614
#
# Compressibility (1/GPa) = 0.04369564
#
# Stress axis : x y z
#
# Youngs Moduli (GPa) = 61.43255 90.99032 59.47344
#
# Poissons Ratio (x) = 0.27713 -0.28337
# Poissons Ratio (y) = 0.18710 0.11374
# Poissons Ratio (z) = -0.29270 0.17401
#
# Static dielectric constant tensor:
#      x y z
#    x 1.742390 0.000000 -0.000510 
#    y 0.000000 1.880130 0.000000 
#    z -0.000510 0.000000 1.781280 
# 
# From -- ./inp_files/67520.got.cif
#   From: 2010.05.17/outbox.cif.g08.bks.cpg/sg11_34_cif.got.tgz:67520.got - 2010.06.03 12:22:45.
