data_PCOD9160880
_publ_section_title
;
Structure prediction by ZEFSAII (Michael W. Deem and Ramdas Pophale) SiO2 
 PCOD9160880
Probable space group: P 21/M
;
_chemical_formula_sum "Si O2"
_cell_formula_units_Z 32
_cell_length_a 9.170591
_cell_length_b 19.669534
_cell_length_c 12.310830
_cell_angle_alpha 90.000000
_cell_angle_beta 128.643297
_cell_angle_gamma 90.000000
_cell_volume 1734.430487
_symmetry_space_group_name_H-M "P 21/M"
_symmetry_group_IT_number 11
_symmetry_cell_setting 'monoclinic'
loop_
_space_group_symop_operation_xyz
x,y,z
-x,1/2+y,-z
-x,-y,-z
x,1/2-y,z
loop_
_atom_site_type_symbol
_atom_site_label
_atom_site_fract_x
_atom_site_fract_y
_atom_site_fract_z
Si Si1 0.261764 0.948007 0.906015
Si Si2 0.191030 0.172117 0.003480
Si Si3 0.184180 0.169640 0.745319
Si Si4 0.507397 0.039809 0.389142
Si Si5 0.603544 0.959582 0.219087
Si Si6 0.083339 0.060098 0.112100
Si Si7 0.384732 0.674404 0.823039
Si Si8 0.242410 0.671036 0.525558
O O1 0.351542 0.880622 0.897938
O O2 0.055773 0.934688 0.851760
O O3 0.270302 0.001710 0.811974
O O4 0.397144 0.967766 0.069254
O O5 0.131358 0.250000 0.984474
O O6 0.186457 0.152846 0.874805
O O7 0.078622 0.125085 0.031518
O O8 0.410233 0.166696 0.133322
O O9 0.233538 0.250000 0.756052
O O10 0.321676 0.117723 0.747560
O O11 0.969705 0.160761 0.610215
O O12 0.294179 0.050466 0.250812
O O13 0.620653 0.111238 0.452327
O O14 0.500000 0.000000 0.500000
O O15 0.602357 0.995744 0.335546
O O16 0.000000 0.000000 0.000000
O O17 0.374242 0.750000 0.864246
O O18 0.246372 0.666505 0.658266
O O19 0.297583 0.750000 0.523926
#
# Coordination Sequence:
#
# PCOD9160880 Si02
#       8
#     4   4   4   4   4   4   4   4
#     4  11  22  36  64  95 123 161 207 267 313 361
#     4  10  20  38  64  90 121 166 214 255 310 380
#     4  10  22  38  66  96 122 165 215 262 314 379
#     4  12  27  43  62  95 132 170 211 257 320 386
#     4  11  22  41  63  90 127 161 208 263 318 367
#     4  12  24  39  60  92 129 167 207 260 314 368
#     4  10  19  38  65  91 120 161 210 258 309 374
#     4  10  22  42  65  89 125 166 209 252 309 380
#
# _framework density 18.449860999999999
#
# number of rings (size 3 to 8) (size 9 to 14) (size 15 to 20)
#    0.000    1.250    5.000    0.750    3.500    2.000 
#    0.000    0.625    0.000    0.000    0.000    0.000 
#    0.000    0.000    0.000    0.000    0.000    0.000 
#
# Total GULP energy -178565.113844 kJ/mol
# GULP energy per Si atom -5580.159808 kJ/mol
# Density = 1.840787 g / cm^3
# Si number density = 18.449861 Si / 1000 Ang^3
#
#
#
# Elastic Constant Matrix: (Units=GPa)
#
#
# Indices 1 2 3 4 5 6 
#
# 1 84.3959 60.9764 19.3114 0.0000 -4.7193 0.0000
# 2 60.9764 111.1326 28.4392 0.0000 -14.3547 0.0000
# 3 19.3114 28.4392 85.1256 0.0000 -4.5810 0.0000
# 4 0.0000 0.0000 0.0000 25.7237 0.0000 -1.7241
# 5 -4.7193 -14.3547 -4.5810 0.0000 23.4040 0.0000
# 6 0.0000 0.0000 0.0000 -1.7241 0.0000 30.7210
#
#
#
# Elastic Compliance Matrix: (Units=1/GPa)
#
#
# Indices 1 2 3 4 5 6 
#
# 1 0.019886 -0.011041 -0.000981 0.000000 -0.002954 0.000000
# 2 -0.011041 0.016709 -0.002674 0.000000 0.007499 0.000000
# 3 -0.000981 -0.002674 0.012900 0.000000 0.000687 0.000000
# 4 0.000000 0.000000 0.000000 0.039021 0.000000 0.002190
# 5 -0.002954 0.007499 0.000687 0.000000 0.046866 0.000000
# 6 0.000000 0.000000 0.000000 0.002190 0.000000 0.032674
#
#
# Mechanical properties :
#
#
# Convention : Reuss Voigt Hill
#
# Bulk Modulus (GPa) = 49.74696 55.34534 52.54615
# Shear Modulus (GPa) = 24.49171 27.43154 25.96163
#
# Velocity S-wave (km/s) = 3.64740 3.86011 3.75526
# Velocity P-wave (km/s) = 6.69029 7.06612 6.88077
#
# Compressibility (1/GPa) = 0.02010173
#
# Stress axis : x y z
#
# Youngs Moduli (GPa) = 50.28728 59.84681 77.51751
#
# Poissons Ratio (x) = 0.66079 0.07608
# Poissons Ratio (y) = 0.55524 0.20728
# Poissons Ratio (z) = 0.04936 0.16003
#
# Static dielectric constant tensor:
#      x y z
#    x 1.622670 0.000000 0.012000 
#    y 0.000000 1.674430 0.000000 
#    z 0.012000 0.000000 1.677120 
# 
# From -- ./inp_files/32839.got.cif
#   From: 2010.05.17/outbox.cif.g08.bks.cpg/sg11_17_cif.got.tgz:32839.got - 2010.06.03 12:22:45.
