data_PCOD9160573
_publ_section_title
;
Structure prediction by ZEFSAII (Michael W. Deem and Ramdas Pophale) SiO2 
 PCOD9160573
Probable space group: P 21/M
;
_chemical_formula_sum "Si O2"
_cell_formula_units_Z 28
_cell_length_a 12.595263
_cell_length_b 14.284790
_cell_length_c 8.171665
_cell_angle_alpha 90.000000
_cell_angle_beta 119.294600
_cell_angle_gamma 90.000000
_cell_volume 1282.229033
_symmetry_space_group_name_H-M "P 21/M"
_symmetry_group_IT_number 11
_symmetry_cell_setting 'monoclinic'
loop_
_space_group_symop_operation_xyz
x,y,z
-x,1/2+y,-z
-x,-y,-z
x,1/2-y,z
loop_
_atom_site_type_symbol
_atom_site_label
_atom_site_fract_x
_atom_site_fract_y
_atom_site_fract_z
Si Si1 0.263634 0.548863 0.381386
Si Si2 0.817759 0.646547 0.219021
Si Si3 0.610365 0.139979 0.834407
Si Si4 0.324709 0.857795 0.754570
Si Si5 0.007451 0.467495 0.823113
Si Si6 0.042111 0.649829 0.635436
Si Si7 0.675705 0.859461 0.429659
O O1 0.313521 0.585321 0.245904
O O2 0.340815 0.588452 0.595162
O O3 0.270658 0.436325 0.407018
O O4 0.123772 0.581382 0.301049
O O5 0.780279 0.750000 0.138265
O O6 0.864280 0.584473 0.106985
O O7 0.722327 0.612716 0.282229
O O8 0.944401 0.651064 0.416652
O O9 0.649179 0.250000 0.864512
O O10 0.469466 0.136614 0.677160
O O11 0.621860 0.106207 0.031840
O O12 0.366602 0.750000 0.764754
O O13 0.180015 0.856687 0.679990
O O14 0.012506 0.558279 0.713490
O O15 0.000000 0.500000 0.000000
O O16 0.029269 0.750000 0.715282
O O17 0.713536 0.750000 0.482133
#
# Coordination Sequence:
#
# PCOD9160573 Si02
#       7
#     4   4   4   4   4   4   4
#     4  12  22  38  65  91 124 163 208 255 314 375
#     4  10  20  38  63  86 115 159 205 246 302 368
#     4  10  23  42  62  92 126 159 209 263 311 368
#     4  10  21  38  63  92 122 159 202 255 315 371
#     4  12  24  36  57  93 128 155 199 255 308 367
#     4  10  19  36  59  83 115 155 199 243 301 365
#     4  10  22  41  64  87 122 167 210 257 303 365
#
# _framework density 21.836973
#
# number of rings (size 3 to 8) (size 9 to 14) (size 15 to 20)
#    0.000    1.429    2.857    3.000    0.000    1.714 
#    0.000    1.429    0.000    4.286    0.000    0.000 
#    0.000    0.000    0.000    0.000    0.000    0.000 
#
# Total GULP energy -156270.216765 kJ/mol
# GULP energy per Si atom -5581.079170 kJ/mol
# Density = 2.178727 g / cm^3
# Si number density = 21.836973 Si / 1000 Ang^3
#
#
#
# Elastic Constant Matrix: (Units=GPa)
#
#
# Indices 1 2 3 4 5 6 
#
# 1 67.1881 22.1816 0.0563 0.0000 -0.3683 0.0000
# 2 22.1816 43.2510 14.1254 0.0000 -16.9913 0.0000
# 3 0.0563 14.1254 53.4101 0.0000 -19.6066 0.0000
# 4 0.0000 0.0000 0.0000 -11.8297 0.0000 -23.9599
# 5 -0.3683 -16.9913 -19.6066 0.0000 29.2573 0.0000
# 6 0.0000 0.0000 0.0000 -23.9599 0.0000 3.7408
#
#
#
# Elastic Compliance Matrix: (Units=1/GPa)
#
#
# Indices 1 2 3 4 5 6 
#
# 1 0.019001 -0.012581 0.000946 0.000000 -0.006434 0.000000
# 2 -0.012581 0.038454 -0.002675 0.000000 0.020381 0.000000
# 3 0.000946 -0.002675 0.025018 0.000000 0.015224 0.000000
# 4 0.000000 0.000000 0.000000 -0.006050 0.000000 -0.038749
# 5 -0.006434 0.020381 0.015224 0.000000 0.056137 0.000000
# 6 0.000000 0.000000 0.000000 -0.038749 0.000000 0.019132
#
#
# Mechanical properties :
#
#
# Convention : Reuss Voigt Hill
#
# Bulk Modulus (GPa) = 18.56936 26.28620 22.42778
# Shear Modulus (GPa) = 25.21893 12.73274 18.97583
#
# Velocity S-wave (km/s) = 3.40203 2.41733 2.95104
# Velocity P-wave (km/s) = 4.89426 4.45588 4.68021
#
# Compressibility (1/GPa) = 0.05385216
#
# Stress axis : x y z
#
# Youngs Moduli (GPa) = 52.62852 26.00534 39.97087
#
# Poissons Ratio (x) = 0.32718 -0.03780
# Poissons Ratio (y) = 0.66213 0.10691
# Poissons Ratio (z) = -0.04976 0.06956
#
# Static dielectric constant tensor:
#      x y z
#    x 1.649840 0.000000 0.049270 
#    y 0.000000 1.896690 0.000000 
#    z 0.049270 0.000000 1.804090 
# 
# From -- ./inp_files/18127.got.cif
#   From: 2010.05.17/outbox.cif.g08.bks.cpg/sg11_10_cif.got.tgz:18127.got - 2010.06.03 12:22:45.
