data_PCOD9160930
_publ_section_title
;
Structure prediction by ZEFSAII (Michael W. Deem and Ramdas Pophale) SiO2 
 PCOD9160930
Probable space group: P 21/M
;
_chemical_formula_sum "Si O2"
_cell_formula_units_Z 32
_cell_length_a 12.427609
_cell_length_b 17.908460
_cell_length_c 15.878995
_cell_angle_alpha 90.000000
_cell_angle_beta 27.079013
_cell_angle_gamma 90.000000
_cell_volume 1608.751713
_symmetry_space_group_name_H-M "P 21/M"
_symmetry_group_IT_number 11
_symmetry_cell_setting 'monoclinic'
loop_
_space_group_symop_operation_xyz
x,y,z
-x,1/2+y,-z
-x,-y,-z
x,1/2-y,z
loop_
_atom_site_type_symbol
_atom_site_label
_atom_site_fract_x
_atom_site_fract_y
_atom_site_fract_z
Si Si1 0.451979 0.529995 0.712608
Si Si2 0.020032 0.515651 0.632011
Si Si3 0.306424 0.162634 0.534352
Si Si4 0.818065 0.832000 0.719246
Si Si5 0.246972 0.467123 0.704383
Si Si6 0.027032 0.362919 0.559263
Si Si7 0.764883 0.522301 0.975041
Si Si8 0.489786 0.331825 0.907514
O O1 0.715096 0.496318 0.519333
O O2 0.476958 0.613019 0.655755
O O3 0.274635 0.475737 0.785623
O O4 0.384240 0.528902 0.857822
O O5 0.985214 0.599742 0.627762
O O6 0.998247 0.451880 0.578385
O O7 0.818777 0.497812 0.841812
O O8 0.353685 0.250000 0.519200
O O9 0.225069 0.113123 0.672435
O O10 0.114205 0.158650 0.591940
O O11 0.920228 0.750000 0.665610
O O12 0.786054 0.838288 0.641570
O O13 0.594278 0.839790 0.936449
O O14 0.500000 0.500000 0.500000
O O15 0.029739 0.519137 0.827883
O O16 0.771690 0.333284 0.711629
O O17 0.632681 0.601493 0.058580
O O18 0.408735 0.250000 0.934549
#
# Coordination Sequence:
#
# PCOD9160930 Si02
#       8
#     4   4   4   4   4   4   4   4
#     4  10  21  37  66  85 114 151 199 239 293 349
#     4  10  21  37  56  88 114 153 199 238 284 352
#     4  10  21  39  60  85 121 155 195 244 292 342
#     4  10  21  35  54  81 117 152 193 240 289 339
#     4  10  19  41  61  84 116 152 194 238 298 352
#     4  11  20  37  58  79 117 162 195 234 287 347
#     4  11  20  38  62  88 115 155 194 242 291 350
#     4  10  23  38  56  86 122 153 193 243 293 341
#
# _framework density 19.891200000000001
#
# number of rings (size 3 to 8) (size 9 to 14) (size 15 to 20)
#    0.000    1.750    3.750    2.625    0.000    5.000 
#    0.000    4.375    0.000    0.000    0.000    0.000 
#    0.000    0.000    0.000    0.000    0.000    0.000 
#
# Total GULP energy -178151.695040 kJ/mol
# GULP energy per Si atom -5567.240470 kJ/mol
# Density = 1.984593 g / cm^3
# Si number density = 19.891200 Si / 1000 Ang^3
#
#
#
# Elastic Constant Matrix: (Units=GPa)
#
#
# Indices 1 2 3 4 5 6 
#
# 1 56.3574 52.7180 26.4046 0.0000 6.7746 0.0000
# 2 52.7180 136.6059 26.6510 0.0000 7.6978 0.0000
# 3 26.4046 26.6510 71.9333 0.0000 9.2675 0.0000
# 4 0.0000 0.0000 0.0000 16.3945 0.0000 3.8688
# 5 6.7746 7.6978 9.2675 0.0000 23.6903 0.0000
# 6 0.0000 0.0000 0.0000 3.8688 0.0000 18.4330
#
#
#
# Elastic Compliance Matrix: (Units=1/GPa)
#
#
# Indices 1 2 3 4 5 6 
#
# 1 0.031296 -0.010512 -0.007245 0.000000 -0.002700 0.000000
# 2 -0.010512 0.011472 -0.000315 0.000000 -0.000599 0.000000
# 3 -0.007245 -0.000315 0.017268 0.000000 -0.004581 0.000000
# 4 0.000000 0.000000 0.000000 0.064175 0.000000 -0.013469
# 5 -0.002700 -0.000599 -0.004581 0.000000 0.044970 0.000000
# 6 0.000000 0.000000 0.000000 -0.013469 0.000000 0.057077
#
#
# Mechanical properties :
#
#
# Convention : Reuss Voigt Hill
#
# Bulk Modulus (GPa) = 41.85442 52.93821 47.39631
# Shear Modulus (GPa) = 18.49342 22.31176 20.40259
#
# Velocity S-wave (km/s) = 3.05245 3.35280 3.20614
# Velocity P-wave (km/s) = 5.78884 6.45446 6.13069
#
# Compressibility (1/GPa) = 0.02389234
#
# Stress axis : x y z
#
# Youngs Moduli (GPa) = 31.95278 87.16770 57.91016
#
# Poissons Ratio (x) = 0.91630 0.41959
# Poissons Ratio (y) = 0.33589 0.01822
# Poissons Ratio (z) = 0.23151 0.02743
#
# Static dielectric constant tensor:
#      x y z
#    x 1.774850 0.000000 0.056990 
#    y 0.000000 1.725320 0.000000 
#    z 0.056990 0.000000 1.741010 
# 
# From -- ./inp_files/50674.got.cif
#   From: 2010.05.17/outbox.cif.g08.bks.cpg/sg11_26_cif.got.tgz:50674.got - 2010.06.03 12:22:45.
