data_PCOD9160210
_publ_section_title
;
Structure prediction by ZEFSAII (Michael W. Deem and Ramdas Pophale) SiO2 
 PCOD9160210
Probable space group: P 21/M
;
_chemical_formula_sum "Si O2"
_cell_formula_units_Z 28
_cell_length_a 12.529048
_cell_length_b 21.837609
_cell_length_c 5.125253
_cell_angle_alpha 90.000000
_cell_angle_beta 96.145815
_cell_angle_gamma 90.000000
_cell_volume 1394.232579
_symmetry_space_group_name_H-M "P 21/M"
_symmetry_group_IT_number 11
_symmetry_cell_setting 'monoclinic'
loop_
_space_group_symop_operation_xyz
x,y,z
-x,1/2+y,-z
-x,-y,-z
x,1/2-y,z
loop_
_atom_site_type_symbol
_atom_site_label
_atom_site_fract_x
_atom_site_fract_y
_atom_site_fract_z
Si Si1 0.105584 0.680069 0.825748
Si Si2 0.850461 0.106181 0.649848
Si Si3 0.914593 0.935053 0.276759
Si Si4 0.273988 0.407906 0.403204
Si Si5 0.247603 0.986119 0.016515
Si Si6 0.573352 0.513971 0.269742
Si Si7 0.133991 0.179872 0.111124
O O1 0.138291 0.750000 0.802036
O O2 0.164883 0.637469 0.632802
O O3 0.976275 0.676498 0.748783
O O4 0.124030 0.657860 0.125434
O O5 0.761253 0.065842 0.770462
O O6 0.959461 0.066472 0.647476
O O7 0.838614 0.932443 0.508016
O O8 0.883134 0.872700 0.110775
O O9 0.870494 0.993594 0.108187
O O10 0.295368 0.453100 0.166849
O O11 0.368134 0.421406 0.635113
O O12 0.240032 0.340986 0.296772
O O13 0.321700 0.974156 0.785449
O O14 0.500000 0.500000 0.500000
O O15 0.500000 0.500000 0.000000
O O16 0.141048 0.250000 0.017572
#
# Coordination Sequence:
#
# PCOD9160210 Si02
#       7
#     4   4   4   4   4   4   4
#     4  10  21  35  52  77 114 156 196 229 267 320
#     4  11  21  34  54  79 116 155 189 222 275 327
#     4   9  19  32  47  81 120 156 178 223 267 327
#     4  10  19  35  55  83 116 145 189 230 280 342
#     4  10  22  34  56  84 114 144 192 225 282 343
#     4  11  22  39  59  80 112 142 179 235 296 341
#     4   9  18  33  51  78 115 157 192 225 269 329
#
# _framework density 20.082732
#
# number of rings (size 3 to 8) (size 9 to 14) (size 15 to 20)
#    0.000    2.000    2.857    0.857    4.000    1.714 
#    0.000    0.000    0.000    0.000    0.000    6.000 
#    0.000    0.000    0.000    0.000    0.000    0.000 
#
# Total GULP energy -156004.763747 kJ/mol
# GULP energy per Si atom -5571.598705 kJ/mol
# Density = 2.003702 g / cm^3
# Si number density = 20.082732 Si / 1000 Ang^3
#
#
#
# Elastic Constant Matrix: (Units=GPa)
#
#
# Indices 1 2 3 4 5 6 
#
# 1 51.9270 27.1421 19.9716 0.0000 -19.0790 0.0000
# 2 27.1421 71.7194 17.4423 0.0000 -4.1979 0.0000
# 3 19.9716 17.4423 96.7640 0.0000 -16.0515 0.0000
# 4 0.0000 0.0000 0.0000 22.3777 0.0000 -0.3519
# 5 -19.0790 -4.1979 -16.0515 0.0000 40.5229 0.0000
# 6 0.0000 0.0000 0.0000 -0.3519 0.0000 19.5048
#
#
#
# Elastic Compliance Matrix: (Units=1/GPa)
#
#
# Indices 1 2 3 4 5 6 
#
# 1 0.029832 -0.010012 -0.002349 0.000000 0.012078 0.000000
# 2 -0.010012 0.017952 -0.001759 0.000000 -0.003551 0.000000
# 3 -0.002349 -0.001759 0.011691 0.000000 0.003343 0.000000
# 4 0.000000 0.000000 0.000000 0.044700 0.000000 0.000806
# 5 0.012078 -0.003551 0.003343 0.000000 0.031320 0.000000
# 6 0.000000 0.000000 0.000000 0.000806 0.000000 0.051284
#
#
# Mechanical properties :
#
#
# Convention : Reuss Voigt Hill
#
# Bulk Modulus (GPa) = 32.01408 38.83582 35.42495
# Shear Modulus (GPa) = 22.17989 26.87137 24.52563
#
# Velocity S-wave (km/s) = 3.32690 3.66188 3.49840
# Velocity P-wave (km/s) = 5.54377 6.10402 5.83063
#
# Compressibility (1/GPa) = 0.03123626
#
# Stress axis : x y z
#
# Youngs Moduli (GPa) = 33.52111 55.70410 85.53781
#
# Poissons Ratio (x) = 0.55769 0.20093
# Poissons Ratio (y) = 0.33560 0.15043
# Poissons Ratio (z) = 0.07874 0.09796
#
# Static dielectric constant tensor:
#      x y z
#    x 1.768260 0.000000 0.031310 
#    y 0.000000 1.732110 0.000000 
#    z 0.031310 0.000000 1.816750 
# 
# From -- ./inp_files/4874.got.cif
#   From: 2010.05.17/outbox.cif.g08.bks.cpg/sg11_3_cif.got.tgz:4874.got - 2010.06.03 12:22:45.
