data_PCOD9160830
_publ_section_title
;
Structure prediction by ZEFSAII (Michael W. Deem and Ramdas Pophale) SiO2 
 PCOD9160830
Probable space group: P 21/M
;
_chemical_formula_sum "Si O2"
_cell_formula_units_Z 24
_cell_length_a 7.079958
_cell_length_b 17.302187
_cell_length_c 9.859508
_cell_angle_alpha 90.000000
_cell_angle_beta 133.071828
_cell_angle_gamma 90.000000
_cell_volume 882.279213
_symmetry_space_group_name_H-M "P 21/M"
_symmetry_group_IT_number 11
_symmetry_cell_setting 'monoclinic'
loop_
_space_group_symop_operation_xyz
x,y,z
-x,1/2+y,-z
-x,-y,-z
x,1/2-y,z
loop_
_atom_site_type_symbol
_atom_site_label
_atom_site_fract_x
_atom_site_fract_y
_atom_site_fract_z
Si Si1 0.058167 0.118799 0.309164
Si Si2 0.818459 0.081501 0.471613
Si Si3 0.683649 0.500601 0.774929
Si Si4 0.125344 0.250000 0.935671
Si Si5 0.873521 0.914437 0.114007
Si Si6 0.312313 0.250000 0.590557
Si Si7 0.211899 0.750000 0.487188
Si Si8 0.206546 0.750000 0.973062
O O1 0.166470 0.063215 0.245765
O O2 0.280221 0.174957 0.479715
O O3 0.924278 0.079033 0.372412
O O4 0.839230 0.174641 0.139205
O O5 0.613851 0.014261 0.402850
O O6 0.054276 0.079880 0.693885
O O7 0.678095 0.165507 0.424232
O O8 0.838924 0.422673 0.816122
O O9 0.715995 0.523843 0.948729
O O10 0.037903 0.250000 0.045975
O O11 0.254549 0.331294 0.969353
O O12 0.876780 0.250000 0.712637
O O13 0.052070 0.250000 0.553863
O O14 0.543202 0.250000 0.810232
#
# Coordination Sequence:
#
# PCOD9160830 Si02
#       8
#     4   4   4   2   4   2   2   2
#     4  10  23  39  61  99 125 164 225 257 308 394
#     4  10  22  41  62  92 131 167 208 265 316 370
#     4  11  23  41  66  91 130 169 209 261 325 370
#     4  10  19  37  67  83 119 162 205 256 308 370
#     4  10  23  42  62  97 126 165 219 260 307 398
#     4   9  21  38  59  91 133 167 208 270 317 360
#     4   8  19  36  59  94 121 156 223 250 303 393
#     4  11  21  39  61  94 131 167 212 268 310 377
#
# _framework density 27.202273999999999
#
# number of rings (size 3 to 8) (size 9 to 14) (size 15 to 20)
#    0.000    2.000    1.667    1.000    4.667    6.000 
#    0.000    3.333    0.000    0.000    0.000    0.000 
#    0.000    0.000    0.000    0.000    0.000    0.000 
#
# Total GULP energy -134435.938299 kJ/mol
# GULP energy per Si atom -5601.497429 kJ/mol
# Density = 2.714036 g / cm^3
# Si number density = 27.202274 Si / 1000 Ang^3
#
#
#
# Elastic Constant Matrix: (Units=GPa)
#
#
# Indices 1 2 3 4 5 6 
#
# 1 105.1967 23.2653 28.0774 0.0000 -19.2148 0.0000
# 2 23.2653 119.1203 29.7307 0.0000 -6.1252 0.0000
# 3 28.0774 29.7307 154.5235 0.0000 -15.7894 0.0000
# 4 0.0000 0.0000 0.0000 27.1305 0.0000 -20.7041
# 5 -19.2148 -6.1252 -15.7894 0.0000 43.9414 0.0000
# 6 0.0000 0.0000 0.0000 -20.7041 0.0000 19.7790
#
#
#
# Elastic Compliance Matrix: (Units=1/GPa)
#
#
# Indices 1 2 3 4 5 6 
#
# 1 0.010950 -0.001613 -0.001259 0.000000 0.004111 0.000000
# 2 -0.001613 0.009073 -0.001449 0.000000 0.000039 0.000000
# 3 -0.001259 -0.001449 0.007165 0.000000 0.001822 0.000000
# 4 0.000000 0.000000 0.000000 0.183212 0.000000 0.191781
# 5 0.004111 0.000039 0.001822 0.000000 0.025215 0.000000
# 6 0.000000 0.000000 0.000000 0.191781 0.000000 0.251309
#
#
# Mechanical properties :
#
#
# Convention : Reuss Voigt Hill
#
# Bulk Modulus (GPa) = 53.91797 60.10971 57.01384
# Shear Modulus (GPa) = 9.96514 38.02132 23.99323
#
# Velocity S-wave (km/s) = 1.91606 3.74267 2.97312
# Velocity P-wave (km/s) = 4.97586 6.38922 5.72631
#
# Compressibility (1/GPa) = 0.01854669
#
# Stress axis : x y z
#
# Youngs Moduli (GPa) = 91.32708 110.21139 139.56284
#
# Poissons Ratio (x) = 0.17776 0.17574
# Poissons Ratio (y) = 0.14730 0.20219
# Poissons Ratio (z) = 0.11500 0.15966
#
# Static dielectric constant tensor:
#      x y z
#    x 2.076610 0.000000 0.029170 
#    y 0.000000 2.203920 0.000000 
#    z 0.029170 0.000000 2.105010 
# 
# From -- ./inp_files/32749.got.cif
#   From: 2010.05.17/outbox.cif.g08.bks.cpg/sg11_17_cif.got.tgz:32749.got - 2010.06.03 12:22:45.
