data_PCOD9160979
_publ_section_title
;
Structure prediction by ZEFSAII (Michael W. Deem and Ramdas Pophale) SiO2 
 PCOD9160979
Probable space group: P 21/M
;
_chemical_formula_sum "Si O2"
_cell_formula_units_Z 28
_cell_length_a 14.271198
_cell_length_b 7.586269
_cell_length_c 16.675953
_cell_angle_alpha 90.000000
_cell_angle_beta 49.787754
_cell_angle_gamma 90.000000
_cell_volume 1378.726965
_symmetry_space_group_name_H-M "P 21/M"
_symmetry_group_IT_number 11
_symmetry_cell_setting 'monoclinic'
loop_
_space_group_symop_operation_xyz
x,y,z
-x,1/2+y,-z
-x,-y,-z
x,1/2-y,z
loop_
_atom_site_type_symbol
_atom_site_label
_atom_site_fract_x
_atom_site_fract_y
_atom_site_fract_z
Si Si1 0.002540 0.460441 0.128734
Si Si2 0.197132 0.462969 0.893775
Si Si3 0.728371 0.042023 0.560370
Si Si4 0.468996 0.044285 0.760093
Si Si5 0.175227 0.462807 0.318923
Si Si6 0.051801 0.966847 0.662456
Si Si7 0.561011 0.540584 0.881722
O O1 0.018457 0.250000 0.126451
O O2 0.884099 0.493991 0.138862
O O3 0.982859 0.527148 0.229336
O O4 0.119504 0.528428 0.013739
O O5 0.202686 0.250000 0.897103
O O6 0.335789 0.531927 0.813898
O O7 0.712780 0.250000 0.554436
O O8 0.592312 0.966565 0.651585
O O9 0.815462 0.972216 0.442150
O O10 0.803212 0.023453 0.602255
O O11 0.465056 0.250000 0.739333
O O12 0.490702 0.036022 0.843787
O O13 0.172171 0.250000 0.321950
O O14 0.297366 0.518667 0.202933
O O15 0.052576 0.523169 0.342829
O O16 0.052944 0.750000 0.661948
O O17 0.560430 0.750000 0.871078
O O18 0.500000 0.500000 0.000000
#
# Coordination Sequence:
#
# PCOD9160979 Si02
#       7
#     4   4   4   4   4   4   4
#     4   9  18  32  51  71  92 121 160 201 238 285
#     4   9  18  33  52  70  93 124 157 196 245 292
#     4   9  17  31  49  71  98 125 160 198 231 279
#     4   9  18  32  51  70  94 129 159 191 241 290
#     4   9  18  31  48  69  96 130 163 192 233 283
#     4   9  17  30  50  72  94 126 163 196 235 282
#     4  10  20  31  46  70 100 129 161 199 234 281
#
# _framework density 20.308589999999999
#
# number of rings (size 3 to 8) (size 9 to 14) (size 15 to 20)
#    0.000    2.857    0.000    0.857    2.000    1.143 
#    0.000    2.143    0.000    0.000    0.000    0.000 
#    0.000    0.000    0.000    0.000    0.000    0.000 
#
# Total GULP energy -156180.881519 kJ/mol
# GULP energy per Si atom -5577.888626 kJ/mol
# Density = 2.026237 g / cm^3
# Si number density = 20.308590 Si / 1000 Ang^3
#
#
#
# Elastic Constant Matrix: (Units=GPa)
#
#
# Indices 1 2 3 4 5 6 
#
# 1 81.6165 -0.3042 39.0917 0.0000 -27.0400 0.0000
# 2 -0.3042 44.8606 4.1147 0.0000 -3.8108 0.0000
# 3 39.0917 4.1147 88.7000 0.0000 -9.5704 0.0000
# 4 0.0000 0.0000 0.0000 -0.4506 0.0000 7.8271
# 5 -27.0400 -3.8108 -9.5704 0.0000 17.9969 0.0000
# 6 0.0000 0.0000 0.0000 7.8271 0.0000 17.6500
#
#
#
# Elastic Compliance Matrix: (Units=1/GPa)
#
#
# Indices 1 2 3 4 5 6 
#
# 1 0.030599 0.004622 -0.009159 0.000000 0.042082 0.000000
# 2 0.004622 0.023425 -0.001951 0.000000 0.010868 0.000000
# 3 -0.009159 -0.001951 0.014716 0.000000 -0.006349 0.000000
# 4 0.000000 0.000000 0.000000 -0.254994 0.000000 0.113080
# 5 0.042082 0.010868 -0.006349 0.000000 0.117718 0.000000
# 6 0.000000 0.000000 0.000000 0.113080 0.000000 0.006510
#
#
# Mechanical properties :
#
#
# Convention : Reuss Voigt Hill
#
# Bulk Modulus (GPa) = 17.93298 33.44239 25.68769
# Shear Modulus (GPa) = -164.13957 18.52425 -72.80766
#
# Velocity S-wave (km/s) = -8.99990 3.02344 -5.99404
# Velocity P-wave (km/s) = 9.95732 5.35641 5.93536
#
# Compressibility (1/GPa) = 0.05576317
#
# Stress axis : x y z
#
# Youngs Moduli (GPa) = 32.68103 42.68987 67.95273
#
# Poissons Ratio (x) = -0.19733 0.62240
# Poissons Ratio (y) = -0.15106 0.13259
# Poissons Ratio (z) = 0.29934 0.08330
#
# Static dielectric constant tensor:
#      x y z
#    x 1.693050 0.000000 -0.038020 
#    y 0.000000 1.753160 0.000000 
#    z -0.038020 0.000000 1.742130 
# 
# From -- ./inp_files/37411.got.cif
#   From: 2010.05.17/outbox.cif.g08.bks.cpg/sg11_19_cif.got.tgz:37411.got - 2010.06.03 12:22:45.
