data_PCOD9160308
_publ_section_title
;
Structure prediction by ZEFSAII (Michael W. Deem and Ramdas Pophale) SiO2 
 PCOD9160308
Probable space group: P 21/M
;
_chemical_formula_sum "Si O2"
_cell_formula_units_Z 32
_cell_length_a 11.990915
_cell_length_b 14.581169
_cell_length_c 17.858529
_cell_angle_alpha 90.000000
_cell_angle_beta 153.567182
_cell_angle_gamma 90.000000
_cell_volume 1389.936399
_symmetry_space_group_name_H-M "P 21/M"
_symmetry_group_IT_number 11
_symmetry_cell_setting 'monoclinic'
loop_
_space_group_symop_operation_xyz
x,y,z
-x,1/2+y,-z
-x,-y,-z
x,1/2-y,z
loop_
_atom_site_type_symbol
_atom_site_label
_atom_site_fract_x
_atom_site_fract_y
_atom_site_fract_z
Si Si1 0.946900 0.150153 0.866390
Si Si2 0.233721 0.523936 0.981305
Si Si3 0.032856 0.851035 0.390916
Si Si4 0.750638 0.061827 0.336832
Si Si5 0.125501 0.544699 0.745471
Si Si6 0.905043 0.589575 0.901264
Si Si7 0.512124 0.146902 0.437152
Si Si8 0.389505 0.142846 0.535199
O O1 0.937768 0.250000 0.822362
O O2 0.669726 0.135139 0.735645
O O3 0.116741 0.156308 0.042275
O O4 0.054148 0.066782 0.881665
O O5 0.493175 0.495935 0.177975
O O6 0.242036 0.550439 0.898619
O O7 0.095441 0.602642 0.946730
O O8 0.916189 0.750000 0.328880
O O9 0.211936 0.869078 0.571197
O O10 0.207762 0.851834 0.422838
O O11 0.858070 0.938597 0.271580
O O12 0.764429 0.099908 0.259635
O O13 0.000000 0.000000 0.500000
O O14 0.835196 0.577172 0.575956
O O15 0.638584 0.577020 0.703777
O O16 0.000000 0.500000 0.000000
O O17 0.409904 0.250000 0.362553
O O18 0.456260 0.124932 0.488588
O O19 0.310737 0.250000 0.496368
#
# Coordination Sequence:
#
# PCOD9160308 Si02
#       8
#     4   4   4   4   4   4   4   4
#     4  10  22  37  58  93 131 164 206 261 319 384
#     4  11  22  38  62  92 123 164 216 264 324 376
#     4  10  22  39  64  94 125 165 213 265 316 376
#     4  10  24  42  63  87 121 165 218 270 313 376
#     4  11  23  40  66  90 131 171 214 264 317 378
#     4  10  20  31  53  85 119 156 196 246 310 377
#     4  10  19  35  57  87 124 159 200 252 310 378
#     4  10  22  38  60  95 133 169 207 253 325 395
#
# _framework density 23.022635000000001
#
# number of rings (size 3 to 8) (size 9 to 14) (size 15 to 20)
#    0.000    1.750    1.250    3.000    7.000    4.500 
#    0.000    0.000    0.000    6.750    0.000    0.000 
#    0.000    0.000    0.000    0.000    0.000    0.000 
#
# Total GULP energy -178336.015370 kJ/mol
# GULP energy per Si atom -5573.000480 kJ/mol
# Density = 2.297023 g / cm^3
# Si number density = 23.022635 Si / 1000 Ang^3
#
#
#
# Elastic Constant Matrix: (Units=GPa)
#
#
# Indices 1 2 3 4 5 6 
#
# 1 91.2575 0.1146 1.6830 0.0000 -19.0562 0.0000
# 2 0.1146 67.1695 -1.6020 0.0000 4.4889 0.0000
# 3 1.6830 -1.6020 69.8790 0.0000 -2.7274 0.0000
# 4 0.0000 0.0000 0.0000 20.0327 0.0000 -6.7873
# 5 -19.0562 4.4889 -2.7274 0.0000 46.8138 0.0000
# 6 0.0000 0.0000 0.0000 -6.7873 0.0000 10.6697
#
#
#
# Elastic Compliance Matrix: (Units=1/GPa)
#
#
# Indices 1 2 3 4 5 6 
#
# 1 0.011985 -0.000351 -0.000105 0.000000 0.004906 0.000000
# 2 -0.000351 0.015000 0.000291 0.000000 -0.001564 0.000000
# 3 -0.000105 0.000291 0.014350 0.000000 0.000765 0.000000
# 4 0.000000 0.000000 0.000000 0.063633 0.000000 0.040479
# 5 0.004906 -0.001564 0.000765 0.000000 0.023553 0.000000
# 6 0.000000 0.000000 0.000000 0.040479 0.000000 0.119473
#
#
# Mechanical properties :
#
#
# Convention : Reuss Voigt Hill
#
# Bulk Modulus (GPa) = 24.38747 25.41080 24.89913
# Shear Modulus (GPa) = 19.08466 30.71060 24.89763
#
# Velocity S-wave (km/s) = 2.88228 3.65626 3.29210
# Velocity P-wave (km/s) = 4.65752 5.37454 5.02882
#
# Compressibility (1/GPa) = 0.04100467
#
# Stress axis : x y z
#
# Youngs Moduli (GPa) = 83.43862 66.66761 69.68868
#
# Poissons Ratio (x) = 0.02339 0.00733
# Poissons Ratio (y) = 0.02927 -0.02030
# Poissons Ratio (z) = 0.00878 -0.01942
#
# Static dielectric constant tensor:
#      x y z
#    x 1.910440 0.000000 -0.033620 
#    y 0.000000 1.983200 0.000000 
#    z -0.033620 0.000000 1.916580 
# 
# From -- ./inp_files/59481.got.cif
#   From: 2010.05.17/outbox.cif.g08.bks.cpg/sg11_30_cif.got.tgz:59481.got - 2010.06.03 12:22:45.
