data_PCOD9160012
_publ_section_title
;
Structure prediction by ZEFSAII (Michael W. Deem and Ramdas Pophale) SiO2 
 PCOD9160012
Probable space group: P 21/M
;
_chemical_formula_sum "Si O2"
_cell_formula_units_Z 32
_cell_length_a 21.002329
_cell_length_b 8.768450
_cell_length_c 12.543352
_cell_angle_alpha 90.000000
_cell_angle_beta 127.689381
_cell_angle_gamma 90.000000
_cell_volume 1827.954120
_symmetry_space_group_name_H-M "P 21/M"
_symmetry_group_IT_number 11
_symmetry_cell_setting 'monoclinic'
loop_
_space_group_symop_operation_xyz
x,y,z
-x,1/2+y,-z
-x,-y,-z
x,1/2-y,z
loop_
_atom_site_type_symbol
_atom_site_label
_atom_site_fract_x
_atom_site_fract_y
_atom_site_fract_z
Si Si1 0.520626 0.067081 0.357187
Si Si2 0.538059 0.566117 0.932530
Si Si3 0.277801 0.065381 0.921125
Si Si4 0.983567 0.433237 0.649816
Si Si5 0.125657 0.066903 0.632718
Si Si6 0.779905 0.431518 0.912478
Si Si7 0.630908 0.931100 0.644801
Si Si8 0.043631 0.066428 0.941626
O O1 0.532688 0.250000 0.374435
O O2 0.509028 0.019726 0.223142
O O3 0.437244 0.035313 0.335088
O O4 0.591276 0.984916 0.493818
O O5 0.536062 0.750000 0.934888
O O6 0.500000 0.500000 0.000000
O O7 0.631419 0.521029 0.014262
O O8 0.275299 0.250000 0.931651
O O9 0.213715 0.023181 0.764101
O O10 0.249545 0.992406 0.002807
O O11 0.980068 0.250000 0.643694
O O12 0.061232 0.479973 0.658244
O O13 0.997877 0.481030 0.785823
O O14 0.906189 0.498106 0.509918
O O15 0.122797 0.250000 0.622129
O O16 0.787312 0.250000 0.921872
O O17 0.711944 0.483088 0.759089
O O18 0.865482 0.506262 0.973725
O O19 0.644676 0.750000 0.659186
O O20 0.044377 0.250000 0.946239
O O21 0.000000 0.000000 0.000000
#
# Coordination Sequence:
#
# PCOD9160012 Si02
#       8
#     4   4   4   4   4   4   4   4
#     4   9  18  34  55  81 112 148 189 234 285 334
#     4  10  21  37  57  80 114 153 189 231 282 338
#     4  10  19  37  58  81 112 149 188 233 282 329
#     4   9  18  33  54  80 112 145 179 225 279 329
#     4   9  17  31  55  82 109 142 184 230 276 328
#     4  12  23  35  57  88 115 145 189 237 282 337
#     4  10  19  34  57  83 113 146 185 235 286 336
#     4  11  23  41  60  82 115 154 192 232 284 339
#
# _framework density 17.50591
#
# number of rings (size 3 to 8) (size 9 to 14) (size 15 to 20)
#    0.000    2.000    2.500    1.875    0.000    3.000 
#    0.000    1.250    0.000    6.000    0.000    0.000 
#    0.000    0.000    0.000    0.000    0.000    0.000 
#
# Total GULP energy -178625.888515 kJ/mol
# GULP energy per Si atom -5582.059016 kJ/mol
# Density = 1.746607 g / cm^3
# Si number density = 17.505910 Si / 1000 Ang^3
#
#
#
# Elastic Constant Matrix: (Units=GPa)
#
#
# Indices 1 2 3 4 5 6 
#
# 1 113.0219 39.1121 81.2751 0.0000 -7.9454 0.0000
# 2 39.1121 41.1065 48.1260 0.0000 -0.6964 0.0000
# 3 81.2751 48.1260 177.0438 0.0000 -7.2795 0.0000
# 4 0.0000 0.0000 0.0000 32.8636 0.0000 -2.4040
# 5 -7.9454 -0.6964 -7.2795 0.0000 25.0889 0.0000
# 6 0.0000 0.0000 0.0000 -2.4040 0.0000 25.9206
#
#
#
# Elastic Compliance Matrix: (Units=1/GPa)
#
#
# Indices 1 2 3 4 5 6 
#
# 1 0.015575 -0.009614 -0.004397 0.000000 0.003390 0.000000
# 2 -0.009614 0.041702 -0.007085 0.000000 -0.003943 0.000000
# 3 -0.004397 -0.007085 0.009643 0.000000 0.001208 0.000000
# 4 0.000000 0.000000 0.000000 0.030637 0.000000 0.002841
# 5 0.003390 -0.003943 0.001208 0.000000 0.041173 0.000000
# 6 0.000000 0.000000 0.000000 0.002841 0.000000 0.038843
#
#
# Mechanical properties :
#
#
# Convention : Reuss Voigt Hill
#
# Bulk Modulus (GPa) = 40.43969 74.24426 57.34197
# Shear Modulus (GPa) = 21.92915 27.61855 24.77385
#
# Velocity S-wave (km/s) = 3.54315 3.97630 3.76596
# Velocity P-wave (km/s) = 6.31580 7.97398 7.19283
#
# Compressibility (1/GPa) = 0.02472818
#
# Stress axis : x y z
#
# Youngs Moduli (GPa) = 64.20419 23.97959 103.70731
#
# Poissons Ratio (x) = 0.23054 0.45604
# Poissons Ratio (y) = 0.61725 0.73473
# Poissons Ratio (z) = 0.28233 0.16989
#
# Static dielectric constant tensor:
#      x y z
#    x 1.564810 0.000000 0.003440 
#    y 0.000000 1.590960 0.000000 
#    z 0.003440 0.000000 1.601200 
# 
# From -- ./inp_files/42901.got.cif
#   From: 2010.05.17/outbox.cif.g08.bks.cpg/sg11_22_cif.got.tgz:42901.got - 2010.06.03 12:22:45.
