data_PCOD9160805
_publ_section_title
;
Structure prediction by ZEFSAII (Michael W. Deem and Ramdas Pophale) SiO2 
 PCOD9160805
Probable space group: P 21/M
;
_chemical_formula_sum "Si O2"
_cell_formula_units_Z 32
_cell_length_a 12.442151
_cell_length_b 8.342809
_cell_length_c 15.986229
_cell_angle_alpha 90.000000
_cell_angle_beta 90.123746
_cell_angle_gamma 90.000000
_cell_volume 1659.406495
_symmetry_space_group_name_H-M "P 21/M"
_symmetry_group_IT_number 11
_symmetry_cell_setting 'monoclinic'
loop_
_space_group_symop_operation_xyz
x,y,z
-x,1/2+y,-z
-x,-y,-z
x,1/2-y,z
loop_
_atom_site_type_symbol
_atom_site_label
_atom_site_fract_x
_atom_site_fract_y
_atom_site_fract_z
Si Si1 0.498876 0.556848 0.405669
Si Si2 0.221636 0.444652 0.845993
Si Si3 0.376632 0.058753 0.998980
Si Si4 0.266721 0.944493 0.344034
Si Si5 0.876911 0.557802 0.500545
Si Si6 0.765554 0.060348 0.845628
Si Si7 0.729276 0.945561 0.343757
Si Si8 0.992124 0.559897 0.905821
O O1 0.500000 0.500000 0.500000
O O2 0.499515 0.750000 0.402271
O O3 0.387282 0.502415 0.366266
O O4 0.608809 0.500038 0.364343
O O5 0.218286 0.250000 0.849390
O O6 0.247104 0.493640 0.751116
O O7 0.104293 0.511885 0.865117
O O8 0.307479 0.497677 0.917380
O O9 0.379549 0.250000 0.994293
O O10 0.311969 0.011497 0.083090
O O11 0.500000 0.000000 0.000000
O O12 0.261534 0.750000 0.345031
O O13 0.247507 0.999996 0.249256
O O14 0.185263 0.003195 0.415601
O O15 0.876677 0.750000 0.499018
O O16 0.811115 0.501461 0.417394
O O17 0.000000 0.500000 0.500000
O O18 0.744465 0.250000 0.845679
O O19 0.888650 0.025790 0.867920
O O20 0.731411 0.750000 0.345486
O O21 0.975762 0.750000 0.902498
O O22 0.000000 0.500000 0.000000
#
# Coordination Sequence:
#
# PCOD9160805 Si02
#       8
#     4   4   4   4   4   4   4   4
#     4  10  19  37  63  89 118 154 200 250 299 359
#     4  10  22  41  65  90 120 162 208 254 304 364
#     4  11  24  41  64  91 126 166 206 252 308 368
#     4  10  23  40  63  91 121 162 206 250 309 371
#     4  11  23  40  61  87 123 162 202 252 306 365
#     4  11  24  42  65  91 123 162 208 258 309 370
#     4   9  20  38  62  88 118 158 201 245 304 363
#     4  12  24  41  65  92 123 160 204 255 311 367
#
# _framework density 19.284002000000001
#
# number of rings (size 3 to 8) (size 9 to 14) (size 15 to 20)
#    0.000    1.500    2.500    2.250    3.500    1.500 
#    0.000    1.250    0.000    0.000    0.000    0.000 
#    0.000    0.000    0.000    0.000    0.000    0.000 
#
# Total GULP energy -178688.108604 kJ/mol
# GULP energy per Si atom -5584.003394 kJ/mol
# Density = 1.924011 g / cm^3
# Si number density = 19.284002 Si / 1000 Ang^3
#
#
#
# Elastic Constant Matrix: (Units=GPa)
#
#
# Indices 1 2 3 4 5 6 
#
# 1 181.2076 9.4125 106.9607 0.0000 -5.4950 0.0000
# 2 9.4125 20.5197 14.3212 0.0000 -3.4448 0.0000
# 3 106.9607 14.3212 198.7191 0.0000 -3.3285 0.0000
# 4 0.0000 0.0000 0.0000 27.4970 0.0000 -5.1702
# 5 -5.4950 -3.4448 -3.3285 0.0000 43.2219 0.0000
# 6 0.0000 0.0000 0.0000 -5.1702 0.0000 32.0582
#
#
#
# Elastic Compliance Matrix: (Units=1/GPa)
#
#
# Indices 1 2 3 4 5 6 
#
# 1 0.008116 -0.000603 -0.004314 0.000000 0.000652 0.000000
# 2 -0.000603 0.051994 -0.003359 0.000000 0.003809 0.000000
# 3 -0.004314 -0.003359 0.007593 0.000000 -0.000231 0.000000
# 4 0.000000 0.000000 0.000000 0.037505 0.000000 0.006049
# 5 0.000652 0.003809 -0.000231 0.000000 0.023505 0.000000
# 6 0.000000 0.000000 0.000000 0.006049 0.000000 0.032169
#
#
# Mechanical properties :
#
#
# Convention : Reuss Voigt Hill
#
# Bulk Modulus (GPa) = 19.54997 73.53723 46.54360
# Shear Modulus (GPa) = 25.70925 38.53887 32.12406
#
# Velocity S-wave (km/s) = 3.65525 4.47530 4.08590
# Velocity P-wave (km/s) = 5.28908 8.05735 6.81525
#
# Compressibility (1/GPa) = 0.05115097
#
# Stress axis : x y z
#
# Youngs Moduli (GPa) = 123.21202 19.23312 131.70857
#
# Poissons Ratio (x) = 0.01159 0.56821
# Poissons Ratio (y) = 0.07424 0.44240
# Poissons Ratio (z) = 0.53156 0.06460
#
# Static dielectric constant tensor:
#      x y z
#    x 1.626690 0.000000 0.011540 
#    y 0.000000 1.671000 0.000000 
#    z 0.011540 0.000000 1.685840 
# 
# From -- ./inp_files/49314.got.cif
#   From: 2010.05.17/outbox.cif.g08.bks.cpg/sg11_25_cif.got.tgz:49314.got - 2010.06.03 12:22:45.
