data_PCOD9160335
_publ_section_title
;
Structure prediction by ZEFSAII (Michael W. Deem and Ramdas Pophale) SiO2 
 PCOD9160335
Probable space group: P 21/M
;
_chemical_formula_sum "Si O2"
_cell_formula_units_Z 28
_cell_length_a 29.686182
_cell_length_b 8.553999
_cell_length_c 9.247656
_cell_angle_alpha 90.000000
_cell_angle_beta 140.795266
_cell_angle_gamma 90.000000
_cell_volume 1484.350333
_symmetry_space_group_name_H-M "P 21/M"
_symmetry_group_IT_number 11
_symmetry_cell_setting 'monoclinic'
loop_
_space_group_symop_operation_xyz
x,y,z
-x,1/2+y,-z
-x,-y,-z
x,1/2-y,z
loop_
_atom_site_type_symbol
_atom_site_label
_atom_site_fract_x
_atom_site_fract_y
_atom_site_fract_z
Si Si1 0.004404 0.437857 0.346424
Si Si2 0.568761 0.438724 0.254963
Si Si3 0.154510 0.562504 0.718477
Si Si4 0.290177 0.560330 0.568661
Si Si5 0.151653 0.939893 0.049167
Si Si6 0.292684 0.063980 0.899933
Si Si7 0.569417 0.062182 0.590639
O O1 0.009156 0.250000 0.358561
O O2 0.077505 0.507932 0.468158
O O3 0.000000 0.500000 0.500000
O O4 0.927222 0.484649 0.090997
O O5 0.566993 0.250000 0.249447
O O6 0.641130 0.487526 0.354158
O O7 0.568523 0.489964 0.421189
O O8 0.500000 0.500000 0.000000
O O9 0.157799 0.750000 0.722764
O O10 0.219775 0.493057 0.792434
O O11 0.159656 0.512452 0.900656
O O12 0.289146 0.750000 0.571666
O O13 0.217628 0.506739 0.309541
O O14 0.295579 0.496419 0.743212
O O15 0.153164 0.750000 0.051830
O O16 0.296125 0.250000 0.910401
O O17 0.359542 0.996346 0.154282
O O18 0.568780 0.250000 0.591804
O O19 0.500000 0.000000 0.500000
#
# Coordination Sequence:
#
# PCOD9160335 Si02
#       7
#     4   4   4   4   4   4   4
#     4   9  16  29  51  82 114 145 183 232 283 339
#     4  10  22  38  60  86 114 146 185 227 272 325
#     4  10  19  35  58  83 110 146 188 234 284 338
#     4  10  20  38  59  79 106 147 189 230 279 331
#     4   8  16  32  57  83 108 140 185 233 281 334
#     4  12  25  39  55  82 115 149 188 233 279 332
#     4  11  23  41  63  89 117 149 186 227 273 329
#
# _framework density 18.863472000000002
#
# number of rings (size 3 to 8) (size 9 to 14) (size 15 to 20)
#    0.000    2.000    0.000    5.143    0.000    6.286 
#    0.000    6.429    0.000    0.000    0.000    0.000 
#    0.000    0.000    0.000    0.000    0.000    0.000 
#
# Total GULP energy -156339.837431 kJ/mol
# GULP energy per Si atom -5583.565623 kJ/mol
# Density = 1.882054 g / cm^3
# Si number density = 18.863472 Si / 1000 Ang^3
#
#
#
# Elastic Constant Matrix: (Units=GPa)
#
#
# Indices 1 2 3 4 5 6 
#
# 1 168.0340 39.9033 114.3510 0.0000 16.8898 0.0000
# 2 39.9033 50.6301 38.1440 0.0000 3.9371 0.0000
# 3 114.3510 38.1440 194.6331 0.0000 18.3363 0.0000
# 4 0.0000 0.0000 0.0000 29.2458 0.0000 6.4109
# 5 16.8898 3.9371 18.3363 0.0000 36.9456 0.0000
# 6 0.0000 0.0000 0.0000 6.4109 0.0000 27.7886
#
#
#
# Elastic Compliance Matrix: (Units=1/GPa)
#
#
# Indices 1 2 3 4 5 6 
#
# 1 0.010782 -0.004356 -0.005309 0.000000 -0.001830 0.000000
# 2 -0.004356 0.024934 -0.002376 0.000000 0.000513 0.000000
# 3 -0.005309 -0.002376 0.008885 0.000000 -0.001730 0.000000
# 4 0.000000 0.000000 0.000000 0.036014 0.000000 -0.008309
# 5 -0.001830 0.000513 -0.001730 0.000000 0.028707 0.000000
# 6 0.000000 0.000000 0.000000 -0.008309 0.000000 0.037903
#
#
# Mechanical properties :
#
#
# Convention : Reuss Voigt Hill
#
# Bulk Modulus (GPa) = 48.73066 88.67709 68.70388
# Shear Modulus (GPa) = 28.06668 33.52259 30.79464
#
# Velocity S-wave (km/s) = 3.86150 4.22016 4.04481
# Velocity P-wave (km/s) = 6.76542 8.41774 7.63640
#
# Compressibility (1/GPa) = 0.02052096
#
# Stress axis : x y z
#
# Youngs Moduli (GPa) = 92.74490 40.10574 112.54440
#
# Poissons Ratio (x) = 0.17470 0.59746
# Poissons Ratio (y) = 0.40400 0.26737
# Poissons Ratio (z) = 0.49235 0.09528
#
# Static dielectric constant tensor:
#      x y z
#    x 1.632870 0.000000 0.013260 
#    y 0.000000 1.645850 0.000000 
#    z 0.013260 0.000000 1.647950 
# 
# From -- ./inp_files/28550.got.cif
#   From: 2010.05.17/outbox.cif.g08.bks.cpg/sg11_15_cif.got.tgz:28550.got - 2010.06.03 12:22:45.
