data_PCOD9160214
_publ_section_title
;
Structure prediction by ZEFSAII (Michael W. Deem and Ramdas Pophale) SiO2 
 PCOD9160214
Probable space group: P 21/M
;
_chemical_formula_sum "Si O2"
_cell_formula_units_Z 32
_cell_length_a 12.460859
_cell_length_b 7.742079
_cell_length_c 20.653060
_cell_angle_alpha 90.000000
_cell_angle_beta 129.668052
_cell_angle_gamma 90.000000
_cell_volume 1533.708591
_symmetry_space_group_name_H-M "P 21/M"
_symmetry_group_IT_number 11
_symmetry_cell_setting 'monoclinic'
loop_
_space_group_symop_operation_xyz
x,y,z
-x,1/2+y,-z
-x,-y,-z
x,1/2-y,z
loop_
_atom_site_type_symbol
_atom_site_label
_atom_site_fract_x
_atom_site_fract_y
_atom_site_fract_z
Si Si1 0.349122 0.043091 0.310960
Si Si2 0.337955 0.458099 0.928085
Si Si3 0.342273 0.538182 0.546798
Si Si4 0.150161 0.955399 0.588583
Si Si5 0.155130 0.958288 0.354330
Si Si6 0.861439 0.958323 0.032241
Si Si7 0.155027 0.455961 0.740105
Si Si8 0.824006 0.957681 0.872233
O O1 0.362414 0.250000 0.310601
O O2 0.498594 0.977583 0.392386
O O3 0.296665 0.976492 0.221443
O O4 0.230884 0.004797 0.317551
O O5 0.329179 0.250000 0.925303
O O6 0.238318 0.521066 0.948526
O O7 0.273318 0.521596 0.834866
O O8 0.500000 0.500000 0.000000
O O9 0.341561 0.750000 0.544994
O O10 0.266860 0.481297 0.583525
O O11 0.250447 0.479736 0.450648
O O12 0.158729 0.750000 0.593393
O O13 0.171689 0.015720 0.670099
O O14 0.000000 0.000000 0.500000
O O15 0.149090 0.750000 0.356528
O O16 0.997738 0.024911 0.299217
O O17 0.852143 0.750000 0.028383
O O18 0.819354 0.022994 0.944218
O O19 0.025009 0.002105 0.100593
O O20 0.150775 0.250000 0.747767
O O21 0.813369 0.750000 0.871494
#
# Coordination Sequence:
#
# PCOD9160214 Si02
#       8
#     4   4   4   4   4   4   4   4
#     4  10  20  33  50  78 111 138 173 219 269 323
#     4  10  22  38  57  81 112 147 185 231 279 330
#     4   9  19  35  54  76 106 143 176 218 272 320
#     4  11  21  37  60  83 109 145 188 232 275 326
#     4  10  19  35  56  76 106 144 180 220 268 323
#     4   9  18  35  57  77 101 141 183 217 268 330
#     4  10  21  38  58  82 112 146 184 231 281 328
#     4   9  18  32  53  80 107 134 171 225 271 315
#
# _framework density 20.864457999999999
#
# number of rings (size 3 to 8) (size 9 to 14) (size 15 to 20)
#    0.000    2.250    1.250    1.500    0.000    4.000 
#    0.000    3.750    0.000    0.000    0.000    0.000 
#    0.000    0.000    0.000    0.000    0.000    0.000 
#
# Total GULP energy -178659.538376 kJ/mol
# GULP energy per Si atom -5583.110574 kJ/mol
# Density = 2.081697 g / cm^3
# Si number density = 20.864458 Si / 1000 Ang^3
#
#
#
# Elastic Constant Matrix: (Units=GPa)
#
#
# Indices 1 2 3 4 5 6 
#
# 1 26.9283 -0.5880 38.3818 0.0000 -30.6430 0.0000
# 2 -0.5880 29.6115 10.5703 0.0000 1.4444 0.0000
# 3 38.3818 10.5703 177.8297 0.0000 -7.2013 0.0000
# 4 0.0000 0.0000 0.0000 17.5945 0.0000 -2.4576
# 5 -30.6430 1.4444 -7.2013 0.0000 17.7077 0.0000
# 6 0.0000 0.0000 0.0000 -2.4576 0.0000 21.6371
#
#
#
# Elastic Compliance Matrix: (Units=1/GPa)
#
#
# Indices 1 2 3 4 5 6 
#
# 1 -0.033397 0.000299 0.004930 0.000000 -0.055813 0.000000
# 2 0.000299 0.034741 -0.002261 0.000000 -0.003235 0.000000
# 3 0.004930 -0.002261 0.005131 0.000000 0.010803 0.000000
# 4 0.000000 0.000000 0.000000 0.057752 0.000000 0.006560
# 5 -0.055813 -0.003235 0.010803 0.000000 -0.035454 0.000000
# 6 0.000000 0.000000 0.000000 0.006560 0.000000 0.046962
#
#
# Mechanical properties :
#
#
# Convention : Reuss Voigt Hill
#
# Bulk Modulus (GPa) = 80.56001 36.78867 58.67434
# Shear Modulus (GPa) = 67.62667 23.78822 45.70744
#
# Velocity S-wave (km/s) = 5.69936 3.38025 4.68555
# Velocity P-wave (km/s) = 9.05568 5.73631 7.57992
#
# Compressibility (1/GPa) = 0.01241311
#
# Stress axis : x y z
#
# Youngs Moduli (GPa) = -29.94258 28.78412 194.89108
#
# Poissons Ratio (x) = -0.00862 -0.96087
# Poissons Ratio (y) = 0.00896 0.44058
# Poissons Ratio (z) = 0.14763 0.06507
#
# Static dielectric constant tensor:
#      x y z
#    x 1.721870 0.000000 -0.011630 
#    y 0.000000 1.770440 0.000000 
#    z -0.011630 0.000000 1.743270 
# 
# From -- ./inp_files/64413.got.cif
#   From: 2010.05.17/outbox.cif.g08.bks.cpg/sg11_33_cif.got.tgz:64413.got - 2010.06.03 12:22:45.
