data_PCOD9160449
_publ_section_title
;
Structure prediction by ZEFSAII (Michael W. Deem and Ramdas Pophale) SiO2 
 PCOD9160449
Probable space group: P 21/M
;
_chemical_formula_sum "Si O2"
_cell_formula_units_Z 26
_cell_length_a 12.378950
_cell_length_b 13.671370
_cell_length_c 7.784586
_cell_angle_alpha 90.000000
_cell_angle_beta 129.005055
_cell_angle_gamma 90.000000
_cell_volume 1023.771253
_symmetry_space_group_name_H-M "P 21/M"
_symmetry_group_IT_number 11
_symmetry_cell_setting 'monoclinic'
loop_
_space_group_symop_operation_xyz
x,y,z
-x,1/2+y,-z
-x,-y,-z
x,1/2-y,z
loop_
_atom_site_type_symbol
_atom_site_label
_atom_site_fract_x
_atom_site_fract_y
_atom_site_fract_z
Si Si1 0.993180 0.862132 0.306032
Si Si2 0.612969 0.922599 0.280888
Si Si3 0.313924 0.354546 0.999036
Si Si4 0.999699 0.580126 0.714034
Si Si5 0.189432 0.250000 0.374442
Si Si6 0.430713 0.911575 0.535092
Si Si7 0.694864 0.359024 0.930758
O O1 0.050433 0.750000 0.340472
O O2 0.837336 0.860391 0.070890
O O3 0.971376 0.880051 0.490637
O O4 0.051922 0.968432 0.309701
O O5 0.658138 0.925384 0.129156
O O6 0.695490 0.838109 0.466055
O O7 0.449888 0.895803 0.133833
O O8 0.640408 0.030280 0.382781
O O9 0.315071 0.250000 0.907688
O O10 0.437598 0.355832 0.257305
O O11 0.930533 0.662606 0.762100
O O12 0.166459 0.580042 0.899266
O O13 0.334368 0.858469 0.303500
O O14 0.500000 0.000000 0.500000
O O15 0.721793 0.250000 0.022631
#
# Coordination Sequence:
#
# PCOD9160449 Si02
#       7
#     4   4   4   4   2   4   4
#     4  10  19  35  60  94 129 167 217 267 325 379
#     4  11  21  39  65  95 125 163 221 272 322 376
#     4  11  19  38  65  96 128 163 215 275 321 377
#     4  11  21  36  64  91 128 172 216 262 317 394
#     4  12  20  42  64  94 122 172 226 268 320 380
#     4  10  23  36  57  95 130 167 207 261 326 387
#     4  11  21  40  63  97 132 169 212 261 323 398
#
# _framework density 25.396297000000001
#
# number of rings (size 3 to 8) (size 9 to 14) (size 15 to 20)
#    0.000    1.231    4.615    2.769    0.000    0.000 
#    0.000    0.769    1.692    0.923    0.000    0.000 
#    0.000    0.000    0.000    0.000    0.000    0.000 
#
# Total GULP energy -144745.830224 kJ/mol
# GULP energy per Si atom -5567.147316 kJ/mol
# Density = 2.533849 g / cm^3
# Si number density = 25.396297 Si / 1000 Ang^3
#
#
#
# Elastic Constant Matrix: (Units=GPa)
#
#
# Indices 1 2 3 4 5 6 
#
# 1 60.5428 19.7895 43.1954 0.0000 14.3968 0.0000
# 2 19.7895 186.4773 8.3253 0.0000 8.0260 0.0000
# 3 43.1954 8.3253 82.6159 0.0000 37.7738 0.0000
# 4 0.0000 0.0000 0.0000 34.8776 0.0000 -13.5020
# 5 14.3968 8.0260 37.7738 0.0000 40.3249 0.0000
# 6 0.0000 0.0000 0.0000 -13.5020 0.0000 108.0278
#
#
#
# Elastic Compliance Matrix: (Units=1/GPa)
#
#
# Indices 1 2 3 4 5 6 
#
# 1 0.028363 -0.002519 -0.017798 0.000000 0.007047 0.000000
# 2 -0.002519 0.005633 0.001488 0.000000 -0.001616 0.000000
# 3 -0.017798 0.001488 0.032342 0.000000 -0.024238 0.000000
# 4 0.000000 0.000000 0.000000 0.030130 0.000000 0.003766
# 5 0.007047 -0.001616 -0.024238 0.000000 0.045309 0.000000
# 6 0.000000 0.000000 0.000000 0.003766 0.000000 0.009728
#
#
# Mechanical properties :
#
#
# Convention : Reuss Voigt Hill
#
# Bulk Modulus (GPa) = 34.86624 52.47295 43.66959
# Shear Modulus (GPa) = 25.16106 53.86777 39.51442
#
# Velocity S-wave (km/s) = 3.15101 4.61052 3.94878
# Velocity P-wave (km/s) = 5.19588 7.00350 6.16629
#
# Compressibility (1/GPa) = 0.02868104
#
# Stress axis : x y z
#
# Youngs Moduli (GPa) = 35.25745 177.52587 30.91994
#
# Poissons Ratio (x) = 0.44713 0.55030
# Poissons Ratio (y) = 0.08880 -0.04601
# Poissons Ratio (z) = 0.62750 -0.26416
#
# Static dielectric constant tensor:
#      x y z
#    x 2.194910 0.000000 -0.036670 
#    y 0.000000 2.246510 0.000000 
#    z -0.036670 0.000000 2.045040 
# 
# From -- ./inp_files/22435.got.cif
#   From: 2010.05.17/outbox.cif.g08.bks.cpg/sg11_12_cif.got.tgz:22435.got - 2010.06.03 12:22:45.
