data_PCOD9160134
_publ_section_title
;
Structure prediction by ZEFSAII (Michael W. Deem and Ramdas Pophale) SiO2 
 PCOD9160134
Probable space group: P 21/M
;
_chemical_formula_sum "Si O2"
_cell_formula_units_Z 28
_cell_length_a 15.277814
_cell_length_b 8.820277
_cell_length_c 11.685073
_cell_angle_alpha 90.000000
_cell_angle_beta 65.603255
_cell_angle_gamma 90.000000
_cell_volume 1434.014717
_symmetry_space_group_name_H-M "P 21/M"
_symmetry_group_IT_number 11
_symmetry_cell_setting 'monoclinic'
loop_
_space_group_symop_operation_xyz
x,y,z
-x,1/2+y,-z
-x,-y,-z
x,1/2-y,z
loop_
_atom_site_type_symbol
_atom_site_label
_atom_site_fract_x
_atom_site_fract_y
_atom_site_fract_z
Si Si1 0.348038 0.931743 0.827331
Si Si2 0.043044 0.930790 0.795307
Si Si3 0.394143 0.931144 0.549591
Si Si4 0.862710 0.432420 0.009870
Si Si5 0.524709 0.431019 0.864838
Si Si6 0.289220 0.933379 0.373462
Si Si7 0.087069 0.069240 0.525856
O O1 0.359353 0.750000 0.834161
O O2 0.339859 0.964831 0.696879
O O3 0.248776 0.975687 0.942116
O O4 0.442641 0.011483 0.823134
O O5 0.046459 0.750000 0.776886
O O6 0.103875 0.966609 0.877576
O O7 0.079727 0.009977 0.660629
O O8 0.935591 0.985526 0.885151
O O9 0.404634 0.750000 0.535213
O O10 0.335833 0.980422 0.469873
O O11 0.500000 0.000000 0.500000
O O12 0.871148 0.250000 0.990870
O O13 0.521921 0.250000 0.870898
O O14 0.630701 0.474348 0.763617
O O15 0.500000 0.500000 0.000000
O O16 0.277265 0.750000 0.379807
O O17 0.186879 0.011312 0.418337
O O18 0.082111 0.250000 0.527063
O O19 0.000000 0.000000 0.500000
#
# Coordination Sequence:
#
# PCOD9160134 Si02
#       7
#     4   4   4   4   4   4   4
#     4  10  20  35  58  87 121 158 196 241 293 352
#     4  10  20  38  62  89 123 158 198 249 302 358
#     4  10  19  34  59  90 124 158 195 242 297 353
#     4   9  19  36  60  89 123 162 199 242 299 356
#     4  11  24  41  61  84 117 158 199 244 293 351
#     4  10  22  42  64  89 123 160 197 248 307 357
#     4  12  26  43  65  90 118 157 205 255 307 366
#
# _framework density 19.525601999999999
#
# number of rings (size 3 to 8) (size 9 to 14) (size 15 to 20)
#    0.000    1.714    1.429    3.000    0.000    6.286 
#    0.000    2.857    0.000    0.000    0.000    0.000 
#    0.000    0.000    0.000    0.000    0.000    0.000 
#
# Total GULP energy -156473.817778 kJ/mol
# GULP energy per Si atom -5588.350635 kJ/mol
# Density = 1.948116 g / cm^3
# Si number density = 19.525602 Si / 1000 Ang^3
#
#
#
# Elastic Constant Matrix: (Units=GPa)
#
#
# Indices 1 2 3 4 5 6 
#
# 1 104.6500 41.8366 54.9564 0.0000 -31.3780 0.0000
# 2 41.8366 58.5009 54.5308 0.0000 -12.5581 0.0000
# 3 54.9564 54.5308 125.1194 0.0000 -22.6233 0.0000
# 4 0.0000 0.0000 0.0000 34.7076 0.0000 -3.1285
# 5 -31.3780 -12.5581 -22.6233 0.0000 37.0759 0.0000
# 6 0.0000 0.0000 0.0000 -3.1285 0.0000 31.3782
#
#
#
# Elastic Compliance Matrix: (Units=1/GPa)
#
#
# Indices 1 2 3 4 5 6 
#
# 1 0.016939 -0.007917 -0.002116 0.000000 0.010363 0.000000
# 2 -0.007917 0.032674 -0.011210 0.000000 -0.002473 0.000000
# 3 -0.002116 -0.011210 0.014384 0.000000 0.003189 0.000000
# 4 0.000000 0.000000 0.000000 0.029073 0.000000 0.002899
# 5 0.010363 -0.002473 0.003189 0.000000 0.036850 0.000000
# 6 0.000000 0.000000 0.000000 0.002899 0.000000 0.032158
#
#
# Mechanical properties :
#
#
# Convention : Reuss Voigt Hill
#
# Bulk Modulus (GPa) = 46.48766 65.65753 56.07259
# Shear Modulus (GPa) = 23.61436 29.76212 26.68824
#
# Velocity S-wave (km/s) = 3.48142 3.90841 3.70108
# Velocity P-wave (km/s) = 6.32619 7.35303 6.85885
#
# Compressibility (1/GPa) = 0.02151109
#
# Stress axis : x y z
#
# Youngs Moduli (GPa) = 59.03499 30.60549 69.52110
#
# Poissons Ratio (x) = 0.24230 0.14710
# Poissons Ratio (y) = 0.46738 0.77934
# Poissons Ratio (z) = 0.12491 0.34309
#
# Static dielectric constant tensor:
#      x y z
#    x 1.665760 0.000000 0.001870 
#    y 0.000000 1.653380 0.000000 
#    z 0.001870 0.000000 1.684830 
# 
# From -- ./inp_files/37927.got.cif
#   From: 2010.05.17/outbox.cif.g08.bks.cpg/sg11_19_cif.got.tgz:37927.got - 2010.06.03 12:22:45.
