data_PCOD9160755
_publ_section_title
;
Structure prediction by ZEFSAII (Michael W. Deem and Ramdas Pophale) SiO2 
 PCOD9160755
Probable space group: P 21/M
;
_chemical_formula_sum "Si O2"
_cell_formula_units_Z 28
_cell_length_a 28.318319
_cell_length_b 7.577643
_cell_length_c 9.616049
_cell_angle_alpha 90.000000
_cell_angle_beta 35.013554
_cell_angle_gamma 90.000000
_cell_volume 1183.957920
_symmetry_space_group_name_H-M "P 21/M"
_symmetry_group_IT_number 11
_symmetry_cell_setting 'monoclinic'
loop_
_space_group_symop_operation_xyz
x,y,z
-x,1/2+y,-z
-x,-y,-z
x,1/2-y,z
loop_
_atom_site_type_symbol
_atom_site_label
_atom_site_fract_x
_atom_site_fract_y
_atom_site_fract_z
Si Si1 0.526772 0.541514 0.778557
Si Si2 0.072546 0.453540 0.660522
Si Si3 0.140493 0.964694 0.201003
Si Si4 0.775404 0.049806 0.525926
Si Si5 0.383173 0.533042 0.924817
Si Si6 0.896753 0.033357 0.016342
Si Si7 0.670956 0.040739 0.243598
O O1 0.523775 0.750000 0.773848
O O2 0.617305 0.487470 0.510599
O O3 0.500000 0.500000 0.000000
O O4 0.461873 0.469671 0.821389
O O5 0.075643 0.250000 0.697379
O O6 0.093474 0.462428 0.446706
O O7 0.145892 0.551919 0.561586
O O8 0.979607 0.523728 0.894952
O O9 0.138296 0.750000 0.213846
O O10 0.102975 0.018992 0.144241
O O11 0.235707 0.024637 0.975392
O O12 0.750577 0.250000 0.550949
O O13 0.698158 0.973640 0.794265
O O14 0.814395 0.970365 0.292622
O O15 0.383955 0.750000 0.921216
O O16 0.374997 0.473058 0.784782
O O17 0.896708 0.250000 0.021319
O O18 0.678291 0.250000 0.207569
#
# Coordination Sequence:
#
# PCOD9160755 Si02
#       7
#     4   4   4   4   4   4   4
#     4  11  24  40  61  90 121 150 183 229 285 338
#     4  11  21  35  53  84 121 149 186 239 293 336
#     4  10  20  37  61  84 109 153 201 234 274 339
#     4  10  19  37  61  82 108 150 198 235 275 335
#     4   9  19  37  62  87 110 146 195 235 271 332
#     4   9  20  34  56  85 113 149 194 241 285 332
#     4  10  20  38  63  88 112 146 195 237 276 334
#
# _framework density 23.649488999999999
#
# number of rings (size 3 to 8) (size 9 to 14) (size 15 to 20)
#    0.000    2.000    1.429    2.143    2.000    0.571 
#    0.000    4.286    0.000    0.000    0.000    0.000 
#    0.000    0.000    0.000    0.000    0.000    0.000 
#
# Total GULP energy -156533.026469 kJ/mol
# GULP energy per Si atom -5590.465231 kJ/mol
# Density = 2.359566 g / cm^3
# Si number density = 23.649489 Si / 1000 Ang^3
#
#
#
# Elastic Constant Matrix: (Units=GPa)
#
#
# Indices 1 2 3 4 5 6 
#
# 1 59.2107 1.1752 -1.5766 0.0000 -3.5025 0.0000
# 2 1.1752 59.6372 -6.8426 0.0000 -3.6337 0.0000
# 3 -1.5766 -6.8426 118.4262 0.0000 -0.8826 0.0000
# 4 0.0000 0.0000 0.0000 11.9498 0.0000 5.3940
# 5 -3.5025 -3.6337 -0.8826 0.0000 34.2888 0.0000
# 6 0.0000 0.0000 0.0000 5.3940 0.0000 13.1252
#
#
#
# Elastic Compliance Matrix: (Units=1/GPa)
#
#
# Indices 1 2 3 4 5 6 
#
# 1 0.017001 -0.000204 0.000227 0.000000 0.001721 0.000000
# 2 -0.000204 0.016996 0.000993 0.000000 0.001806 0.000000
# 3 0.000227 0.000993 0.008507 0.000000 0.000347 0.000000
# 4 0.000000 0.000000 0.000000 0.102743 0.000000 -0.042224
# 5 0.001721 0.001806 0.000347 0.000000 0.029540 0.000000
# 6 0.000000 0.000000 0.000000 -0.042224 0.000000 0.093542
#
#
# Mechanical properties :
#
#
# Convention : Reuss Voigt Hill
#
# Bulk Modulus (GPa) = 22.45379 24.75400 23.60389
# Shear Modulus (GPa) = 17.78461 28.17396 22.97929
#
# Velocity S-wave (km/s) = 2.74525 3.45529 3.12053
# Velocity P-wave (km/s) = 4.42307 5.13891 4.79437
#
# Compressibility (1/GPa) = 0.04453592
#
# Stress axis : x y z
#
# Youngs Moduli (GPa) = 58.82100 58.83731 117.54951
#
# Poissons Ratio (x) = 0.01201 -0.02673
# Poissons Ratio (y) = 0.01200 -0.11670
# Poissons Ratio (z) = -0.01337 -0.05841
#
# Static dielectric constant tensor:
#      x y z
#    x 1.880450 0.000000 -0.000050 
#    y 0.000000 1.907420 0.000000 
#    z -0.000050 0.000000 1.823350 
# 
# From -- ./inp_files/28256.got.cif
#   From: 2010.05.17/outbox.cif.g08.bks.cpg/sg11_15_cif.got.tgz:28256.got - 2010.06.03 12:22:45.
