data_PCOD9160164
_publ_section_title
;
Structure prediction by ZEFSAII (Michael W. Deem and Ramdas Pophale) SiO2 
 PCOD9160164
Probable space group: P 21/M
;
_chemical_formula_sum "Si O2"
_cell_formula_units_Z 28
_cell_length_a 9.008842
_cell_length_b 20.703299
_cell_length_c 13.556856
_cell_angle_alpha 90.000000
_cell_angle_beta 32.485877
_cell_angle_gamma 90.000000
_cell_volume 1358.050595
_symmetry_space_group_name_H-M "P 21/M"
_symmetry_group_IT_number 11
_symmetry_cell_setting 'monoclinic'
loop_
_space_group_symop_operation_xyz
x,y,z
-x,1/2+y,-z
-x,-y,-z
x,1/2-y,z
loop_
_atom_site_type_symbol
_atom_site_label
_atom_site_fract_x
_atom_site_fract_y
_atom_site_fract_z
Si Si1 0.671402 0.820654 0.391208
Si Si2 0.910799 0.117753 0.698846
Si Si3 0.560187 0.567640 0.702746
Si Si4 0.224289 0.513771 0.062899
Si Si5 0.668421 0.947661 0.263995
Si Si6 0.672991 0.619758 0.049692
Si Si7 0.788999 0.318966 0.183411
O O1 0.691650 0.750000 0.329624
O O2 0.609934 0.884401 0.362004
O O3 0.426534 0.817358 0.606846
O O4 0.943634 0.834970 0.304050
O O5 0.827373 0.055300 0.810722
O O6 0.629485 0.143976 0.809197
O O7 0.141256 0.098412 0.487866
O O8 0.521939 0.511256 0.641114
O O9 0.322832 0.621891 0.818949
O O10 0.488036 0.538452 0.850506
O O11 0.959499 0.526013 0.140845
O O12 0.239569 0.437403 0.074136
O O13 0.665791 0.919222 0.156228
O O14 0.913408 0.670100 0.935065
O O15 0.780165 0.250000 0.134960
#
# Coordination Sequence:
#
# PCOD9160164 Si02
#       7
#     4   4   4   4   4   4   4
#     4   9  21  39  56  81 110 147 195 233 281 349
#     4  10  23  34  57  85 115 154 178 230 297 334
#     4  10  19  38  58  83 117 146 195 230 284 342
#     4  10  19  36  56  85 116 149 184 235 273 343
#     4  10  19  34  62  82 111 150 190 245 274 329
#     4  11  20  36  53  88 116 140 189 235 284 337
#     4  10  20  35  59  81 109 149 191 237 280 336
#
# _framework density 20.617788999999998
#
# number of rings (size 3 to 8) (size 9 to 14) (size 15 to 20)
#    0.000    2.000    2.857    1.286    2.000    5.143 
#    2.571    0.000    0.000    0.000    0.000    0.000 
#    0.000    0.000    0.000    0.000    0.000    0.000 
#
# Total GULP energy -156078.188380 kJ/mol
# GULP energy per Si atom -5574.221014 kJ/mol
# Density = 2.057086 g / cm^3
# Si number density = 20.617789 Si / 1000 Ang^3
#
#
#
# Elastic Constant Matrix: (Units=GPa)
#
#
# Indices 1 2 3 4 5 6 
#
# 1 51.4985 -0.3632 13.3995 0.0000 -25.1509 0.0000
# 2 -0.3632 105.1774 8.7525 0.0000 -10.0872 0.0000
# 3 13.3995 8.7525 51.2236 0.0000 -15.9011 0.0000
# 4 0.0000 0.0000 0.0000 -10.3204 0.0000 -5.6384
# 5 -25.1509 -10.0872 -15.9011 0.0000 30.6965 0.0000
# 6 0.0000 0.0000 0.0000 -5.6384 0.0000 -4.0063
#
#
#
# Elastic Compliance Matrix: (Units=1/GPa)
#
#
# Indices 1 2 3 4 5 6 
#
# 1 0.033167 0.002827 -0.000518 0.000000 0.027836 0.000000
# 2 0.002827 0.010086 -0.000852 0.000000 0.005190 0.000000
# 3 -0.000518 -0.000852 0.023337 0.000000 0.011384 0.000000
# 4 0.000000 0.000000 0.000000 -0.419281 0.000000 0.590084
# 5 0.027836 0.005190 0.011384 0.000000 0.062987 0.000000
# 6 0.000000 0.000000 0.000000 0.590084 0.000000 -1.080071
#
#
# Mechanical properties :
#
#
# Convention : Reuss Voigt Hill
#
# Bulk Modulus (GPa) = 14.38744 27.94188 21.16466
# Shear Modulus (GPa) = -3.70502 15.68134 5.98816
#
# Velocity S-wave (km/s) = -1.34198 2.76084 1.70607
# Velocity P-wave (km/s) = 2.14292 4.87286 3.76410
#
# Compressibility (1/GPa) = 0.06950507
#
# Stress axis : x y z
#
# Youngs Moduli (GPa) = 30.15012 99.14604 42.84962
#
# Poissons Ratio (x) = -0.28032 0.02221
# Poissons Ratio (y) = -0.08524 0.03651
# Poissons Ratio (z) = 0.01563 0.08447
#
# Static dielectric constant tensor:
#      x y z
#    x 1.758010 0.000000 0.008090 
#    y 0.000000 1.839390 0.000000 
#    z 0.008090 0.000000 1.763540 
# 
# From -- ./inp_files/23186.got.cif
#   From: 2010.05.17/outbox.cif.g08.bks.cpg/sg11_12_cif.got.tgz:23186.got - 2010.06.03 12:22:45.
