data_PCOD9160436
_publ_section_title
;
Structure prediction by ZEFSAII (Michael W. Deem and Ramdas Pophale) SiO2 
 PCOD9160436
Probable space group: P 21/M
;
_chemical_formula_sum "Si O2"
_cell_formula_units_Z 28
_cell_length_a 7.445802
_cell_length_b 16.424255
_cell_length_c 14.147030
_cell_angle_alpha 90.000000
_cell_angle_beta 39.567839
_cell_angle_gamma 90.000000
_cell_volume 1102.036549
_symmetry_space_group_name_H-M "P 21/M"
_symmetry_group_IT_number 11
_symmetry_cell_setting 'monoclinic'
loop_
_space_group_symop_operation_xyz
x,y,z
-x,1/2+y,-z
-x,-y,-z
x,1/2-y,z
loop_
_atom_site_type_symbol
_atom_site_label
_atom_site_fract_x
_atom_site_fract_y
_atom_site_fract_z
Si Si1 0.879698 0.150828 0.570409
Si Si2 0.933623 0.876578 0.201033
Si Si3 0.468132 0.651062 0.686188
Si Si4 0.653817 0.845547 0.110665
Si Si5 0.806201 0.544780 0.877839
Si Si6 0.500425 0.842568 0.880058
Si Si7 0.628124 0.156124 0.476455
O O1 0.862488 0.250000 0.575365
O O2 0.202149 0.128459 0.451779
O O3 0.669292 0.126779 0.740069
O O4 0.757835 0.119466 0.519612
O O5 0.250809 0.842857 0.058817
O O6 0.794764 0.856288 0.155960
O O7 0.711333 0.843247 0.366705
O O8 0.974885 0.971812 0.203607
O O9 0.441264 0.750000 0.693629
O O10 0.381808 0.626573 0.827361
O O11 0.328529 0.620436 0.645927
O O12 0.667454 0.750000 0.079311
O O13 0.801579 0.899283 0.972435
O O14 0.763686 0.604468 0.806357
O O15 0.500000 0.500000 0.000000
O O16 0.593126 0.750000 0.828426
O O17 0.721375 0.250000 0.435543
#
# Coordination Sequence:
#
# PCOD9160436 Si02
#       7
#     4   4   4   4   4   4   4
#     4   8  16  30  52  81 107 135 185 238 280 326
#     4  10  20  36  58  82 114 143 186 237 286 336
#     4   9  18  32  53  79 112 148 183 235 285 327
#     4  10  19  35  60  87 107 141 193 240 278 327
#     4  10  22  35  53  80 117 152 180 226 289 339
#     4  10  20  36  54  82 115 147 191 231 278 340
#     4   9  17  32  56  81 105 143 192 238 281 328
#
# _framework density 25.407505
#
# number of rings (size 3 to 8) (size 9 to 14) (size 15 to 20)
#    0.000    2.571    0.000    3.000    4.000    0.000 
#    2.571    0.714    0.000    1.714    0.000    0.000 
#    0.000    0.000    0.000    0.000    0.000    0.000 
#
# Total GULP energy -156591.022709 kJ/mol
# GULP energy per Si atom -5592.536525 kJ/mol
# Density = 2.534968 g / cm^3
# Si number density = 25.407505 Si / 1000 Ang^3
#
#
#
# Elastic Constant Matrix: (Units=GPa)
#
#
# Indices 1 2 3 4 5 6 
#
# 1 98.7138 16.4959 21.0312 0.0000 20.3673 0.0000
# 2 16.4959 88.5002 10.8439 0.0000 11.0289 0.0000
# 3 21.0312 10.8439 112.6815 0.0000 12.4286 0.0000
# 4 0.0000 0.0000 0.0000 4.2698 0.0000 -12.0512
# 5 20.3673 11.0289 12.4286 0.0000 47.3504 0.0000
# 6 0.0000 0.0000 0.0000 -12.0512 0.0000 13.9011
#
#
#
# Elastic Compliance Matrix: (Units=1/GPa)
#
#
# Indices 1 2 3 4 5 6 
#
# 1 0.011576 -0.001439 -0.001555 0.000000 -0.004236 0.000000
# 2 -0.001439 0.011895 -0.000658 0.000000 -0.001979 0.000000
# 3 -0.001555 -0.000658 0.009410 0.000000 -0.001648 0.000000
# 4 0.000000 0.000000 0.000000 -0.161874 0.000000 -0.140332
# 5 -0.004236 -0.001979 -0.001648 0.000000 0.023835 0.000000
# 6 0.000000 0.000000 0.000000 -0.140332 0.000000 -0.049720
#
#
# Mechanical properties :
#
#
# Convention : Reuss Voigt Hill
#
# Bulk Modulus (GPa) = 39.09786 44.07083 41.58434
# Shear Modulus (GPa) = -35.95860 29.87256 -3.04302
#
# Velocity S-wave (km/s) = -3.76610 3.43262 -1.09558
# Velocity P-wave (km/s) = 1.86804 5.75272 3.84735
#
# Compressibility (1/GPa) = 0.02557685
#
# Stress axis : x y z
#
# Youngs Moduli (GPa) = 86.38505 84.06973 106.27171
#
# Poissons Ratio (x) = 0.12100 0.16524
# Poissons Ratio (y) = 0.12433 0.06991
# Poissons Ratio (z) = 0.13432 0.05530
#
# Static dielectric constant tensor:
#      x y z
#    x 2.051710 0.000000 -0.039000 
#    y 0.000000 1.985260 0.000000 
#    z -0.039000 0.000000 2.082270 
# 
# From -- ./inp_files/47994.got.cif
#   From: 2010.05.17/outbox.cif.g08.bks.cpg/sg11_24_cif.got.tgz:47994.got - 2010.06.03 12:22:45.
