data_PCOD9160544
_publ_section_title
;
Structure prediction by ZEFSAII (Michael W. Deem and Ramdas Pophale) SiO2 
 PCOD9160544
Probable space group: P 21/M
;
_chemical_formula_sum "Si O2"
_cell_formula_units_Z 30
_cell_length_a 26.521923
_cell_length_b 12.733973
_cell_length_c 13.036759
_cell_angle_alpha 90.000000
_cell_angle_beta 15.453305
_cell_angle_gamma 90.000000
_cell_volume 1173.165002
_symmetry_space_group_name_H-M "P 21/M"
_symmetry_group_IT_number 11
_symmetry_cell_setting 'monoclinic'
loop_
_space_group_symop_operation_xyz
x,y,z
-x,1/2+y,-z
-x,-y,-z
x,1/2-y,z
loop_
_atom_site_type_symbol
_atom_site_label
_atom_site_fract_x
_atom_site_fract_y
_atom_site_fract_z
Si Si1 0.571196 0.863072 0.448498
Si Si2 0.979218 0.136621 0.483724
Si Si3 0.665229 0.420304 0.516209
Si Si4 0.861818 0.634364 0.175201
Si Si5 0.473886 0.901519 0.415630
Si Si6 0.103919 0.422047 0.451451
Si Si7 0.191826 0.750000 0.595937
Si Si8 0.754604 0.873477 0.622686
O O1 0.537205 0.750000 0.564530
O O2 0.531908 0.971978 0.579607
O O3 0.451649 0.869355 0.576883
O O4 0.795048 0.867994 0.982091
O O5 0.908506 0.250000 0.591546
O O6 0.968241 0.122258 0.628652
O O7 0.889578 0.043275 0.595297
O O8 0.769786 0.532652 0.307369
O O9 0.661650 0.368338 0.409948
O O10 0.736424 0.342127 0.464549
O O11 0.440184 0.436375 0.981508
O O12 0.774541 0.750000 0.318161
O O13 0.827543 0.620054 0.364234
O O14 0.085083 0.658767 0.732120
O O15 0.689830 0.870846 0.969132
O O16 0.085888 0.405841 0.607762
O O17 0.711811 0.750000 0.721910
#
# Coordination Sequence:
#
# PCOD9160544 Si02
#       8
#     4   4   4   4   4   4   2   4
#     4   9  18  34  51  74 112 142 175 220 268 314
#     4   9  17  31  50  73 104 144 177 214 270 326
#     4  11  20  37  62  83 108 145 192 223 274 338
#     4   9  22  38  56  82 114 142 177 233 281 321
#     4   9  20  32  53  81 102 141 180 222 262 316
#     4   9  18  31  53  76 105 138 178 227 263 316
#     4  10  22  36  58  82 110 146 176 234 274 334
#     4  10  19  36  58  83 107 140 185 229 274 320
#
# _framework density 25.571853000000001
#
# number of rings (size 3 to 8) (size 9 to 14) (size 15 to 20)
#    0.400    2.133    0.667    1.200    0.933    3.733 
#    0.000    2.000    4.400    0.000    0.000    0.000 
#    0.000    0.000    0.000    0.000    0.000    0.000 
#
# Total GULP energy -167053.913675 kJ/mol
# GULP energy per Si atom -5568.463789 kJ/mol
# Density = 2.551365 g / cm^3
# Si number density = 25.571853 Si / 1000 Ang^3
#
#
#
# Elastic Constant Matrix: (Units=GPa)
#
#
# Indices 1 2 3 4 5 6 
#
# 1 80.8652 22.0642 19.9745 0.0000 -28.8873 0.0000
# 2 22.0642 162.1806 16.1907 0.0000 -18.6592 0.0000
# 3 19.9745 16.1907 86.7657 0.0000 -25.1113 0.0000
# 4 0.0000 0.0000 0.0000 21.7993 0.0000 8.5726
# 5 -28.8873 -18.6592 -25.1113 0.0000 38.0026 0.0000
# 6 0.0000 0.0000 0.0000 8.5726 0.0000 4.8004
#
#
#
# Elastic Compliance Matrix: (Units=1/GPa)
#
#
# Indices 1 2 3 4 5 6 
#
# 1 0.017096 -0.000876 -0.000168 0.000000 0.012454 0.000000
# 2 -0.000876 0.006589 -0.000351 0.000000 0.002337 0.000000
# 3 -0.000168 -0.000351 0.014272 0.000000 0.009131 0.000000
# 4 0.000000 0.000000 0.000000 0.154071 0.000000 -0.275139
# 5 0.012454 0.002337 0.009131 0.000000 0.042962 0.000000
# 6 0.000000 0.000000 0.000000 -0.275139 0.000000 0.699654
#
#
# Mechanical properties :
#
#
# Convention : Reuss Voigt Hill
#
# Bulk Modulus (GPa) = 28.43654 49.58560 39.01107
# Shear Modulus (GPa) = 5.26784 31.02593 18.14688
#
# Velocity S-wave (km/s) = 1.43683 3.48700 2.66680
# Velocity P-wave (km/s) = 3.72787 5.97035 4.97705
#
# Compressibility (1/GPa) = 0.03516602
#
# Stress axis : x y z
#
# Youngs Moduli (GPa) = 58.49418 151.76501 70.06716
#
# Poissons Ratio (x) = 0.13298 0.01175
# Poissons Ratio (y) = 0.05125 0.02463
# Poissons Ratio (z) = 0.00981 0.05334
#
# Static dielectric constant tensor:
#      x y z
#    x 2.014940 0.000000 0.043780 
#    y 0.000000 1.957170 0.000000 
#    z 0.043780 0.000000 2.094310 
# 
# From -- ./inp_files/56313.got.cif
#   From: 2010.05.17/outbox.cif.g08.bks.cpg/sg11_29_cif.got.tgz:56313.got - 2010.06.03 12:22:45.
