data_PCOD9160799
_publ_section_title
;
Structure prediction by ZEFSAII (Michael W. Deem and Ramdas Pophale) SiO2 
 PCOD9160799
Probable space group: P 21/M
;
_chemical_formula_sum "Si O2"
_cell_formula_units_Z 32
_cell_length_a 13.137646
_cell_length_b 8.664852
_cell_length_c 32.681739
_cell_angle_alpha 90.000000
_cell_angle_beta 153.468966
_cell_angle_gamma 90.000000
_cell_volume 1661.815423
_symmetry_space_group_name_H-M "P 21/M"
_symmetry_group_IT_number 11
_symmetry_cell_setting 'monoclinic'
loop_
_space_group_symop_operation_xyz
x,y,z
-x,1/2+y,-z
-x,-y,-z
x,1/2-y,z
loop_
_atom_site_type_symbol
_atom_site_label
_atom_site_fract_x
_atom_site_fract_y
_atom_site_fract_z
Si Si1 0.582664 0.928606 0.647847
Si Si2 0.428152 0.564993 0.217388
Si Si3 0.755566 0.434576 0.400110
Si Si4 0.834304 0.064306 0.212230
Si Si5 0.048592 0.562891 0.923770
Si Si6 0.879946 0.070738 0.139037
Si Si7 0.665041 0.430994 0.593464
Si Si8 0.438225 0.563802 0.126423
O O1 0.535718 0.750000 0.619447
O O2 0.419501 0.972352 0.626173
O O3 0.845657 0.933675 0.756572
O O4 0.558248 0.034001 0.599500
O O5 0.421278 0.750000 0.216138
O O6 0.649177 0.505785 0.320906
O O7 0.203088 0.499999 0.158582
O O8 0.429837 0.514343 0.170592
O O9 0.764562 0.250000 0.399431
O O10 0.000000 0.500000 0.500000
O O11 0.834306 0.250000 0.210674
O O12 0.787356 0.004702 0.148639
O O13 0.649810 0.004444 0.177692
O O14 0.086324 0.009914 0.315843
O O15 0.034637 0.750000 0.916158
O O16 0.155460 0.504796 0.919091
O O17 0.210939 0.520211 0.019808
O O18 0.806510 0.250000 0.111227
O O19 0.500000 0.500000 0.500000
O O20 0.693991 0.250000 0.597468
O O21 0.455089 0.750000 0.131717
#
# Coordination Sequence:
#
# PCOD9160799 Si02
#       8
#     4   4   4   4   4   4   4   4
#     4   9  18  36  58  81 113 149 188 238 293 344
#     4  11  23  39  58  86 122 157 201 253 297 351
#     4  11  23  40  62  88 117 153 194 243 301 358
#     4  10  21  38  58  83 118 155 197 246 299 353
#     4  10  19  37  63  87 115 159 205 244 299 359
#     4   8  15  32  58  84 110 145 189 239 291 342
#     4  11  22  37  60  87 115 150 194 239 291 354
#     4  10  23  39  57  85 124 164 201 247 300 352
#
# _framework density 19.256049000000001
#
# number of rings (size 3 to 8) (size 9 to 14) (size 15 to 20)
#    0.000    2.000    1.250    3.375    0.000    4.000 
#    0.000    1.875    0.000    0.000    0.000    0.000 
#    0.000    0.000    0.000    0.000    0.000    0.000 
#
# Total GULP energy -178656.856041 kJ/mol
# GULP energy per Si atom -5583.026751 kJ/mol
# Density = 1.921222 g / cm^3
# Si number density = 19.256049 Si / 1000 Ang^3
#
#
#
# Elastic Constant Matrix: (Units=GPa)
#
#
# Indices 1 2 3 4 5 6 
#
# 1 86.2635 14.6778 37.4046 0.0000 -17.2825 0.0000
# 2 14.6778 23.7971 19.0617 0.0000 -9.4946 0.0000
# 3 37.4046 19.0617 100.9061 0.0000 -24.4059 0.0000
# 4 0.0000 0.0000 0.0000 26.1496 0.0000 2.2360
# 5 -17.2825 -9.4946 -24.4059 0.0000 32.9733 0.0000
# 6 0.0000 0.0000 0.0000 2.2360 0.0000 29.7519
#
#
#
# Elastic Compliance Matrix: (Units=1/GPa)
#
#
# Indices 1 2 3 4 5 6 
#
# 1 0.014717 -0.004668 -0.003694 0.000000 0.003635 0.000000
# 2 -0.004668 0.053254 -0.006349 0.000000 0.008188 0.000000
# 3 -0.003694 -0.006349 0.014091 0.000000 0.006665 0.000000
# 4 0.000000 0.000000 0.000000 0.038489 0.000000 -0.002893
# 5 0.003635 0.008188 0.006665 0.000000 0.039524 0.000000
# 6 0.000000 0.000000 0.000000 -0.002893 0.000000 0.033829
#
#
# Mechanical properties :
#
#
# Convention : Reuss Voigt Hill
#
# Bulk Modulus (GPa) = 18.99725 39.25055 29.12390
# Shear Modulus (GPa) = 20.75793 27.09647 23.92720
#
# Velocity S-wave (km/s) = 3.28685 3.75529 3.52885
# Velocity P-wave (km/s) = 4.92864 6.26344 5.63570
#
# Compressibility (1/GPa) = 0.05263919
#
# Stress axis : x y z
#
# Youngs Moduli (GPa) = 67.94971 18.77810 70.96635
#
# Poissons Ratio (x) = 0.08765 0.26218
# Poissons Ratio (y) = 0.31716 0.45058
# Poissons Ratio (z) = 0.25103 0.11923
#
# Static dielectric constant tensor:
#      x y z
#    x 1.679200 0.000000 -0.023110 
#    y 0.000000 1.629780 0.000000 
#    z -0.023110 0.000000 1.654400 
# 
# From -- ./inp_files/73138.got.cif
#   From: 2010.05.17/outbox.cif.g08.bks.cpg/sg11_37_cif.got.tgz:73138.got - 2010.06.03 12:22:45.
