data_PCOD9160536
_publ_section_title
;
Structure prediction by ZEFSAII (Michael W. Deem and Ramdas Pophale) SiO2 
 PCOD9160536
Probable space group: P 21/M
;
_chemical_formula_sum "Si O2"
_cell_formula_units_Z 32
_cell_length_a 22.787436
_cell_length_b 15.539601
_cell_length_c 5.217227
_cell_angle_alpha 90.000000
_cell_angle_beta 70.239938
_cell_angle_gamma 90.000000
_cell_volume 1738.675438
_symmetry_space_group_name_H-M "P 21/M"
_symmetry_group_IT_number 11
_symmetry_cell_setting 'monoclinic'
loop_
_space_group_symop_operation_xyz
x,y,z
-x,1/2+y,-z
-x,-y,-z
x,1/2-y,z
loop_
_atom_site_type_symbol
_atom_site_label
_atom_site_fract_x
_atom_site_fract_y
_atom_site_fract_z
Si Si1 0.486849 0.651553 0.089794
Si Si2 0.841902 0.847156 0.497475
Si Si3 0.634916 0.648065 0.849898
Si Si4 0.555427 0.066379 0.355934
Si Si5 0.812173 0.948638 0.056331
Si Si6 0.055725 0.509603 0.118793
Si Si7 0.977086 0.850152 0.469913
Si Si8 0.325756 0.452122 0.717516
O O1 0.482058 0.750000 0.015200
O O2 0.457412 0.639094 0.412774
O O3 0.560657 0.630544 0.987736
O O4 0.453430 0.595345 0.922720
O O5 0.824323 0.750000 0.594785
O O6 0.814094 0.873245 0.266258
O O7 0.917676 0.849028 0.365398
O O8 0.822142 0.910854 0.755844
O O9 0.643307 0.750000 0.800460
O O10 0.659767 0.595418 0.570535
O O11 0.667655 0.616249 0.060605
O O12 0.500000 0.000000 0.500000
O O13 0.621427 0.022538 0.308424
O O14 0.743976 0.988899 0.175685
O O15 0.871128 0.007479 0.050550
O O16 0.046454 0.420815 0.291013
O O17 0.038071 0.600641 0.276862
O O18 0.000000 0.500000 0.000000
O O19 0.986487 0.750000 0.534706
#
# Coordination Sequence:
#
# PCOD9160536 Si02
#       8
#     4   4   4   4   4   4   4   4
#     4  11  22  38  61  86 111 143 188 239 284 328
#     4  10  20  35  55  80 114 151 187 223 271 345
#     4  11  22  37  55  83 118 151 185 224 281 344
#     4  12  21  38  60  83 112 146 188 233 276 330
#     4  11  23  36  53  82 114 151 189 226 284 335
#     4  10  19  36  58  81 114 149 189 242 283 340
#     4   9  19  34  57  86 112 146 191 238 289 339
#     4  12  24  36  55  83 113 154 189 229 278 338
#
# _framework density 18.404814999999999
#
# number of rings (size 3 to 8) (size 9 to 14) (size 15 to 20)
#    0.000    1.250    3.750    3.000    0.000    6.000 
#    0.000    0.000    0.000    1.500    0.000    0.000 
#    0.000    0.000    0.000    0.000    0.000    0.000 
#
# Total GULP energy -178461.984142 kJ/mol
# GULP energy per Si atom -5576.937004 kJ/mol
# Density = 1.836292 g / cm^3
# Si number density = 18.404815 Si / 1000 Ang^3
#
#
#
# Elastic Constant Matrix: (Units=GPa)
#
#
# Indices 1 2 3 4 5 6 
#
# 1 107.2998 24.2770 18.1915 0.0000 -33.7577 0.0000
# 2 24.2770 63.6392 2.3650 0.0000 -9.9218 0.0000
# 3 18.1915 2.3650 40.9728 0.0000 4.8185 0.0000
# 4 0.0000 0.0000 0.0000 20.9244 0.0000 4.9993
# 5 -33.7577 -9.9218 4.8185 0.0000 30.4118 0.0000
# 6 0.0000 0.0000 0.0000 4.9993 0.0000 18.5511
#
#
#
# Elastic Compliance Matrix: (Units=1/GPa)
#
#
# Indices 1 2 3 4 5 6 
#
# 1 0.018503 -0.003378 -0.010501 0.000000 0.021100 0.000000
# 2 -0.003378 0.017279 0.000286 0.000000 0.001842 0.000000
# 3 -0.010501 0.000286 0.030990 0.000000 -0.016474 0.000000
# 4 0.000000 0.000000 0.000000 0.051080 0.000000 -0.013766
# 5 0.021100 0.001842 -0.016474 0.000000 0.059515 0.000000
# 6 0.000000 0.000000 0.000000 -0.013766 0.000000 0.057615
#
#
# Mechanical properties :
#
#
# Convention : Reuss Voigt Hill
#
# Bulk Modulus (GPa) = 25.26290 33.50874 29.38582
# Shear Modulus (GPa) = 18.15784 25.11603 21.63694
#
# Velocity S-wave (km/s) = 3.14440 3.69812 3.43244
# Velocity P-wave (km/s) = 5.19028 6.03993 5.63115
#
# Compressibility (1/GPa) = 0.03958374
#
# Stress axis : x y z
#
# Youngs Moduli (GPa) = 54.04579 57.87404 32.26872
#
# Poissons Ratio (x) = 0.19553 0.33887
# Poissons Ratio (y) = 0.18259 -0.00923
# Poissons Ratio (z) = 0.56756 -0.01656
#
# Static dielectric constant tensor:
#      x y z
#    x 1.677830 0.000000 -0.005450 
#    y 0.000000 1.639640 0.000000 
#    z -0.005450 0.000000 1.684800 
# 
# From -- ./inp_files/9019.got.cif
#   From: 2010.05.17/outbox.cif.g08.bks.cpg/sg11_5_cif.got.tgz:9019.got - 2010.06.03 12:22:45.
