data_PCOD9160532
_publ_section_title
;
Structure prediction by ZEFSAII (Michael W. Deem and Ramdas Pophale) SiO2 
 PCOD9160532
Probable space group: P 21/M
;
_chemical_formula_sum "Si O2"
_cell_formula_units_Z 32
_cell_length_a 22.206712
_cell_length_b 8.601330
_cell_length_c 28.746378
_cell_angle_alpha 90.000000
_cell_angle_beta 18.808788
_cell_angle_gamma 90.000000
_cell_volume 1770.283014
_symmetry_space_group_name_H-M "P 21/M"
_symmetry_group_IT_number 11
_symmetry_cell_setting 'monoclinic'
loop_
_space_group_symop_operation_xyz
x,y,z
-x,1/2+y,-z
-x,-y,-z
x,1/2-y,z
loop_
_atom_site_type_symbol
_atom_site_label
_atom_site_fract_x
_atom_site_fract_y
_atom_site_fract_z
Si Si1 0.989558 0.436335 0.559709
Si Si2 0.796347 0.563907 0.360061
Si Si3 0.899192 0.560448 0.181093
Si Si4 0.606067 0.936545 0.316351
Si Si5 0.708008 0.563369 0.841656
Si Si6 0.981625 0.064577 0.311254
Si Si7 0.303766 0.937775 0.851481
Si Si8 0.297216 0.062552 0.408870
O O1 0.977695 0.250000 0.567254
O O2 0.816486 0.500019 0.716862
O O3 0.000000 0.500000 0.500000
O O4 0.176903 0.480595 0.451564
O O5 0.782344 0.750000 0.370763
O O6 0.841211 0.510397 0.275029
O O7 0.599981 0.494276 0.520213
O O8 0.953375 0.512418 0.281998
O O9 0.899896 0.750000 0.180724
O O10 0.750773 0.511743 0.250560
O O11 0.107124 0.507848 0.015824
O O12 0.606389 0.750000 0.314242
O O13 0.667098 0.001630 0.221915
O O14 0.704886 0.750000 0.841402
O O15 0.835752 0.517952 0.792769
O O16 0.500000 0.500000 0.000000
O O17 0.980375 0.250000 0.307311
O O18 0.807948 0.012437 0.470408
O O19 0.299536 0.750000 0.853050
O O20 0.486181 0.982974 0.748008
O O21 0.286339 0.250000 0.421755
#
# Coordination Sequence:
#
# PCOD9160532 Si02
#       8
#     4   4   4   4   4   4   4   4
#     4  10  20  36  57  85 117 151 189 231 277 331
#     4  11  21  36  56  79 108 147 188 225 271 328
#     4   9  21  37  53  78 112 143 179 229 280 328
#     4  11  21  35  56  81 107 141 184 230 277 327
#     4  10  21  38  60  86 116 150 186 230 281 334
#     4  10  20  35  57  83 113 143 181 229 274 320
#     4  10  19  36  58  80 107 141 182 227 273 329
#     4   9  18  33  57  82 108 143 187 224 264 325
#
# _framework density 18.076205999999999
#
# number of rings (size 3 to 8) (size 9 to 14) (size 15 to 20)
#    0.000    2.000    1.250    2.625    0.000    2.000 
#    2.250    3.750    0.000    0.000    0.000    0.000 
#    0.000    0.000    0.000    0.000    0.000    0.000 
#
# Total GULP energy -178648.881364 kJ/mol
# GULP energy per Si atom -5582.777543 kJ/mol
# Density = 1.803506 g / cm^3
# Si number density = 18.076206 Si / 1000 Ang^3
#
#
#
# Elastic Constant Matrix: (Units=GPa)
#
#
# Indices 1 2 3 4 5 6 
#
# 1 121.3488 20.4470 59.0391 0.0000 -4.4548 0.0000
# 2 20.4470 21.2284 18.5110 0.0000 -6.0035 0.0000
# 3 59.0391 18.5110 111.9353 0.0000 -11.3801 0.0000
# 4 0.0000 0.0000 0.0000 15.8496 0.0000 -4.5605
# 5 -4.4548 -6.0035 -11.3801 0.0000 26.8409 0.0000
# 6 0.0000 0.0000 0.0000 -4.5605 0.0000 23.7106
#
#
#
# Elastic Compliance Matrix: (Units=1/GPa)
#
#
# Indices 1 2 3 4 5 6 
#
# 1 0.012006 -0.007498 -0.005289 0.000000 -0.001927 0.000000
# 2 -0.007498 0.061806 -0.005212 0.000000 0.010370 0.000000
# 3 -0.005289 -0.005212 0.012935 0.000000 0.003441 0.000000
# 4 0.000000 0.000000 0.000000 0.066789 0.000000 0.012846
# 5 -0.001927 0.010370 0.003441 0.000000 0.040715 0.000000
# 6 0.000000 0.000000 0.000000 0.012846 0.000000 0.044646
#
#
# Mechanical properties :
#
#
# Convention : Reuss Voigt Hill
#
# Bulk Modulus (GPa) = 19.70429 50.05631 34.88030
# Shear Modulus (GPa) = 17.13437 23.71459 20.42448
#
# Velocity S-wave (km/s) = 3.08213 3.62598 3.36506
# Velocity P-wave (km/s) = 4.85699 6.72921 5.86825
#
# Compressibility (1/GPa) = 0.05075038
#
# Stress axis : x y z
#
# Youngs Moduli (GPa) = 83.28936 16.17967 77.31040
#
# Poissons Ratio (x) = 0.12131 0.40886
# Poissons Ratio (y) = 0.62447 0.40295
# Poissons Ratio (z) = 0.44048 0.08433
#
# Static dielectric constant tensor:
#      x y z
#    x 1.618550 0.000000 -0.024410 
#    y 0.000000 1.611910 0.000000 
#    z -0.024410 0.000000 1.595010 
# 
# From -- ./inp_files/72102.got.cif
#   From: 2010.05.17/outbox.cif.g08.bks.cpg/sg11_37_cif.got.tgz:72102.got - 2010.06.03 12:22:45.
