data_PCOD9160735
_publ_section_title
;
Structure prediction by ZEFSAII (Michael W. Deem and Ramdas Pophale) SiO2 
 PCOD9160735
Probable space group: P 21/M
;
_chemical_formula_sum "Si O2"
_cell_formula_units_Z 28
_cell_length_a 9.649919
_cell_length_b 8.211457
_cell_length_c 33.016577
_cell_angle_alpha 90.000000
_cell_angle_beta 34.339656
_cell_angle_gamma 90.000000
_cell_volume 1475.809324
_symmetry_space_group_name_H-M "P 21/M"
_symmetry_group_IT_number 11
_symmetry_cell_setting 'monoclinic'
loop_
_space_group_symop_operation_xyz
x,y,z
-x,1/2+y,-z
-x,-y,-z
x,1/2-y,z
loop_
_atom_site_type_symbol
_atom_site_label
_atom_site_fract_x
_atom_site_fract_y
_atom_site_fract_z
Si Si1 0.915461 0.446488 0.564080
Si Si2 0.367684 0.436218 0.703298
Si Si3 0.754834 0.445581 0.919243
Si Si4 0.735725 0.935647 0.176265
Si Si5 0.225967 0.943070 0.264419
Si Si6 0.784928 0.553058 0.429632
Si Si7 0.135520 0.062835 0.197934
O O1 0.906941 0.250000 0.568909
O O2 0.637718 0.505762 0.634773
O O3 0.000000 0.500000 0.500000
O O4 0.086850 0.501623 0.559416
O O5 0.355027 0.250000 0.690037
O O6 0.316585 0.425332 0.763276
O O7 0.158338 0.541286 0.733339
O O8 0.772913 0.250000 0.915237
O O9 0.772960 0.499452 0.867862
O O10 0.989523 0.509982 0.888889
O O11 0.500000 0.500000 0.000000
O O12 0.756240 0.750000 0.154825
O O13 0.488854 0.011570 0.216789
O O14 0.234235 0.750000 0.271778
O O15 0.976889 0.002515 0.347699
O O16 0.215963 0.969625 0.218835
O O17 0.500000 0.500000 0.500000
O O18 0.780638 0.750000 0.428972
O O19 0.205883 0.250000 0.185154
#
# Coordination Sequence:
#
# PCOD9160735 Si02
#       7
#     4   4   4   4   4   4   4
#     4  10  21  36  54  77 106 141 186 236 286 340
#     4   9  17  35  57  76 101 141 189 233 279 333
#     4  10  20  38  64  91 118 148 182 224 274 332
#     4   8  15  32  60  83 102 138 186 228 269 322
#     4  10  19  37  60  80 107 149 194 234 279 334
#     4  10  22  38  56  78 110 149 191 237 289 340
#     4  11  23  36  54  85 118 147 184 230 277 330
#
# _framework density 18.972640999999999
#
# number of rings (size 3 to 8) (size 9 to 14) (size 15 to 20)
#    0.000    2.286    1.429    2.571    2.000    1.714 
#    0.000    4.286    0.000    0.000    0.000    0.000 
#    0.000    0.000    0.000    0.000    0.000    0.000 
#
# Total GULP energy -155945.681272 kJ/mol
# GULP energy per Si atom -5569.488617 kJ/mol
# Density = 1.892946 g / cm^3
# Si number density = 18.972641 Si / 1000 Ang^3
#
#
#
# Elastic Constant Matrix: (Units=GPa)
#
#
# Indices 1 2 3 4 5 6 
#
# 1 110.6730 1.1815 70.6266 0.0000 -15.3799 0.0000
# 2 1.1815 17.1614 9.4556 0.0000 -4.2411 0.0000
# 3 70.6266 9.4556 140.8083 0.0000 -31.1729 0.0000
# 4 0.0000 0.0000 0.0000 26.2415 0.0000 -1.3520
# 5 -15.3799 -4.2411 -31.1729 0.0000 30.1733 0.0000
# 6 0.0000 0.0000 0.0000 -1.3520 0.0000 13.6463
#
#
#
# Elastic Compliance Matrix: (Units=1/GPa)
#
#
# Indices 1 2 3 4 5 6 
#
# 1 0.013427 0.002909 -0.006903 0.000000 0.000121 0.000000
# 2 0.002909 0.061874 -0.004357 0.000000 0.005678 0.000000
# 3 -0.006903 -0.004357 0.012891 0.000000 0.009187 0.000000
# 4 0.000000 0.000000 0.000000 0.038303 0.000000 0.003795
# 5 0.000121 0.005678 0.009187 0.000000 0.043493 0.000000
# 6 0.000000 0.000000 0.000000 0.003795 0.000000 0.073656
#
#
# Mechanical properties :
#
#
# Convention : Reuss Voigt Hill
#
# Bulk Modulus (GPa) = 13.98815 47.90780 30.94797
# Shear Modulus (GPa) = 17.59480 26.50415 22.04947
#
# Velocity S-wave (km/s) = 3.04859 3.74166 3.41276
# Velocity P-wave (km/s) = 4.44755 6.63117 5.64593
#
# Compressibility (1/GPa) = 0.07148910
#
# Stress axis : x y z
#
# Youngs Moduli (GPa) = 74.47879 16.16190 77.57529
#
# Poissons Ratio (x) = -0.04701 0.53551
# Poissons Ratio (y) = -0.21666 0.33799
# Poissons Ratio (z) = 0.51414 0.07042
#
# Static dielectric constant tensor:
#      x y z
#    x 1.660030 0.000000 -0.040650 
#    y 0.000000 1.739630 0.000000 
#    z -0.040650 0.000000 1.732350 
# 
# From -- ./inp_files/63070.got.cif
#   From: 2010.05.17/outbox.cif.g08.bks.cpg/sg11_32_cif.got.tgz:63070.got - 2010.06.03 12:22:45.
