data_PCOD9160271
_publ_section_title
;
Structure prediction by ZEFSAII (Michael W. Deem and Ramdas Pophale) SiO2 
 PCOD9160271
Probable space group: P 21/M
;
_chemical_formula_sum "Si O2"
_cell_formula_units_Z 24
_cell_length_a 14.997613
_cell_length_b 7.627691
_cell_length_c 15.469644
_cell_angle_alpha 90.000000
_cell_angle_beta 138.916836
_cell_angle_gamma 90.000000
_cell_volume 1162.954086
_symmetry_space_group_name_H-M "P 21/M"
_symmetry_group_IT_number 11
_symmetry_cell_setting 'monoclinic'
loop_
_space_group_symop_operation_xyz
x,y,z
-x,1/2+y,-z
-x,-y,-z
x,1/2-y,z
loop_
_atom_site_type_symbol
_atom_site_label
_atom_site_fract_x
_atom_site_fract_y
_atom_site_fract_z
Si Si1 0.640951 0.043777 0.331719
Si Si2 0.651900 0.958553 0.142477
Si Si3 0.659397 0.964709 0.837853
Si Si4 0.151951 0.465202 0.867829
Si Si5 0.344718 0.040872 0.361496
Si Si6 0.847561 0.454462 0.622370
O O1 0.632447 0.250000 0.347124
O O2 0.490081 0.974232 0.241202
O O3 0.756618 0.967411 0.478545
O O4 0.672828 0.027578 0.254215
O O5 0.664925 0.750000 0.156405
O O6 0.758587 0.022048 0.148976
O O7 0.500000 0.000000 0.000000
O O8 0.658860 0.750000 0.838187
O O9 0.682406 0.020574 0.756085
O O10 0.771788 0.021202 0.988973
O O11 0.153028 0.250000 0.869965
O O12 0.997587 0.527871 0.746940
O O13 0.328622 0.250000 0.351587
O O14 0.500000 0.000000 0.500000
O O15 0.242880 0.964932 0.357700
O O16 0.869961 0.250000 0.617080
#
# Coordination Sequence:
#
# PCOD9160271 Si02
#       6
#     4   4   4   4   4   4
#     4  10  19  35  57  81 110 146 184 226 278 333
#     4  11  21  35  58  86 111 146 190 232 274 327
#     4   9  17  33  56  80 108 145 183 221 275 334
#     4   9  19  36  57  79 110 148 184 222 279 342
#     4  11  21  35  58  85 112 146 187 232 276 328
#     4  10  21  38  58  81 111 149 185 225 280 336
#
# _framework density 20.637101000000001
#
# number of rings (size 3 to 8) (size 9 to 14) (size 15 to 20)
#    0.000    2.000    3.333    1.000    0.000    2.000 
#    0.000    1.667    0.000    0.000    0.000    0.000 
#    0.000    0.000    0.000    0.000    0.000    0.000 
#
# Total GULP energy -134047.589703 kJ/mol
# GULP energy per Si atom -5585.316238 kJ/mol
# Density = 2.059013 g / cm^3
# Si number density = 20.637101 Si / 1000 Ang^3
#
#
#
# Elastic Constant Matrix: (Units=GPa)
#
#
# Indices 1 2 3 4 5 6 
#
# 1 135.5669 -22.4032 115.7562 0.0000 2.0207 0.0000
# 2 -22.4032 37.2409 -2.2451 0.0000 5.0739 0.0000
# 3 115.7562 -2.2451 231.6407 0.0000 0.2870 0.0000
# 4 0.0000 0.0000 0.0000 4.0031 0.0000 -8.4807
# 5 2.0207 5.0739 0.2870 0.0000 44.4409 0.0000
# 6 0.0000 0.0000 0.0000 -8.4807 0.0000 22.6231
#
#
#
# Elastic Compliance Matrix: (Units=1/GPa)
#
#
# Indices 1 2 3 4 5 6 
#
# 1 0.015377 0.009022 -0.007595 0.000000 -0.001680 0.000000
# 2 0.009022 0.032586 -0.004187 0.000000 -0.004104 0.000000
# 3 -0.007595 -0.004187 0.008071 0.000000 0.000771 0.000000
# 4 0.000000 0.000000 0.000000 1.213677 0.000000 0.454969
# 5 -0.001680 -0.004104 0.000771 0.000000 0.023042 0.000000
# 6 0.000000 0.000000 0.000000 0.454969 0.000000 0.214756
#
#
# Mechanical properties :
#
#
# Convention : Reuss Voigt Hill
#
# Bulk Modulus (GPa) = 19.79688 65.18492 42.49090
# Shear Modulus (GPa) = 3.26825 35.10279 19.18552
#
# Velocity S-wave (km/s) = 1.25981 4.12874 3.05234
# Velocity P-wave (km/s) = 3.42489 7.37452 5.74949
#
# Compressibility (1/GPa) = 0.05051301
#
# Stress axis : x y z
#
# Youngs Moduli (GPa) = 65.03035 30.68798 123.90262
#
# Poissons Ratio (x) = -0.27686 0.94103
# Poissons Ratio (y) = -0.58669 0.51883
# Poissons Ratio (z) = 0.49390 0.12850
#
# Static dielectric constant tensor:
#      x y z
#    x 1.714720 0.000000 0.002920 
#    y 0.000000 1.813180 0.000000 
#    z 0.002920 0.000000 1.721560 
# 
# From -- ./inp_files/20637.got.cif
#   From: 2010.05.17/outbox.cif.g08.bks.cpg/sg11_11_cif.got.tgz:20637.got - 2010.06.03 12:22:45.
