data_PCOD9160513
_publ_section_title
;
Structure prediction by ZEFSAII (Michael W. Deem and Ramdas Pophale) SiO2 
 PCOD9160513
Probable space group: P 21/M
;
_chemical_formula_sum "Si O2"
_cell_formula_units_Z 28
_cell_length_a 6.319410
_cell_length_b 12.825622
_cell_length_c 19.894341
_cell_angle_alpha 90.000000
_cell_angle_beta 121.025569
_cell_angle_gamma 90.000000
_cell_volume 1381.763164
_symmetry_space_group_name_H-M "P 21/M"
_symmetry_group_IT_number 11
_symmetry_cell_setting 'monoclinic'
loop_
_space_group_symop_operation_xyz
x,y,z
-x,1/2+y,-z
-x,-y,-z
x,1/2-y,z
loop_
_atom_site_type_symbol
_atom_site_label
_atom_site_fract_x
_atom_site_fract_y
_atom_site_fract_z
Si Si1 0.711791 0.634745 0.167681
Si Si2 0.633007 0.634146 0.730792
Si Si3 0.109109 0.564947 0.608981
Si Si4 0.839276 0.060174 0.679434
Si Si5 0.634241 0.930564 0.465410
Si Si6 0.850329 0.629852 0.038388
Si Si7 0.307370 0.029487 0.121060
O O1 0.618641 0.750000 0.171025
O O2 0.711606 0.625538 0.086948
O O3 0.548417 0.541629 0.169450
O O4 0.988365 0.622313 0.241184
O O5 0.713843 0.750000 0.724292
O O6 0.334510 0.628180 0.677699
O O7 0.744226 0.544282 0.701522
O O8 0.714384 0.606047 0.819548
O O9 0.236166 0.505067 0.567760
O O10 0.006201 0.479804 0.644802
O O11 0.865337 0.623502 0.540510
O O12 0.597242 0.119703 0.611590
O O13 0.500000 0.000000 0.500000
O O14 0.928218 0.750000 0.040761
O O15 0.080807 0.551690 0.081460
O O16 0.691928 0.591562 0.948923
#
# Coordination Sequence:
#
# PCOD9160513 Si02
#       7
#     4   4   4   4   4   4   4
#     4  11  22  38  60  87 116 153 195 238 291 349
#     4  11  22  35  56  86 118 156 200 241 290 348
#     4   9  17  34  57  82 116 155 192 235 294 338
#     4  10  19  36  56  86 119 154 193 241 287 343
#     4   8  16  31  59  85 112 156 191 235 290 336
#     4  10  22  39  60  84 114 153 193 239 291 345
#     4  11  21  39  60  83 118 151 195 241 290 343
#
# _framework density 20.263967000000001
#
# number of rings (size 3 to 8) (size 9 to 14) (size 15 to 20)
#    0.000    2.000    2.857    1.286    0.000    0.571 
#    0.000    0.714    0.000   26.571    0.000    0.000 
#    0.000    0.000    0.000    0.000    0.000    0.000 
#
# Total GULP energy -156085.840752 kJ/mol
# GULP energy per Si atom -5574.494313 kJ/mol
# Density = 2.021784 g / cm^3
# Si number density = 20.263967 Si / 1000 Ang^3
#
#
#
# Elastic Constant Matrix: (Units=GPa)
#
#
# Indices 1 2 3 4 5 6 
#
# 1 60.2136 4.6235 15.9449 0.0000 -4.2764 0.0000
# 2 4.6235 69.1596 11.3629 0.0000 -1.0622 0.0000
# 3 15.9449 11.3629 97.6062 0.0000 3.8841 0.0000
# 4 0.0000 0.0000 0.0000 29.3526 0.0000 26.3726
# 5 -4.2764 -1.0622 3.8841 0.0000 33.6851 0.0000
# 6 0.0000 0.0000 0.0000 26.3726 0.0000 38.1587
#
#
#
# Elastic Compliance Matrix: (Units=1/GPa)
#
#
# Indices 1 2 3 4 5 6 
#
# 1 0.017607 -0.000661 -0.002901 0.000000 0.002549 0.000000
# 2 -0.000661 0.014781 -0.001635 0.000000 0.000571 0.000000
# 3 -0.002901 -0.001635 0.010977 0.000000 -0.001686 0.000000
# 4 0.000000 0.000000 0.000000 0.089881 0.000000 -0.062120
# 5 0.002549 0.000571 -0.001686 0.000000 0.030223 0.000000
# 6 0.000000 0.000000 0.000000 -0.062120 0.000000 0.069139
#
#
# Mechanical properties :
#
#
# Convention : Reuss Voigt Hill
#
# Bulk Modulus (GPa) = 30.33063 32.31576 31.32320
# Shear Modulus (GPa) = 19.68557 33.24249 26.46403
#
# Velocity S-wave (km/s) = 3.12020 4.05467 3.61773
# Velocity P-wave (km/s) = 5.28972 6.15650 5.73950
#
# Compressibility (1/GPa) = 0.03296997
#
# Stress axis : x y z
#
# Youngs Moduli (GPa) = 56.79399 67.65447 91.10304
#
# Poissons Ratio (x) = 0.04474 0.26427
# Poissons Ratio (y) = 0.03756 0.14899
# Poissons Ratio (z) = 0.16475 0.11064
#
# Static dielectric constant tensor:
#      x y z
#    x 1.712330 0.000000 0.033750 
#    y 0.000000 1.686630 0.000000 
#    z 0.033750 0.000000 1.755620 
# 
# From -- ./inp_files/57118.got.cif
#   From: 2010.05.17/outbox.cif.g08.bks.cpg/sg11_29_cif.got.tgz:57118.got - 2010.06.03 12:22:45.
