data_PCOD9160067
_publ_section_title
;
Structure prediction by ZEFSAII (Michael W. Deem and Ramdas Pophale) SiO2 
 PCOD9160067
Probable space group: P 21/M
;
_chemical_formula_sum "Si O2"
_cell_formula_units_Z 28
_cell_length_a 23.457597
_cell_length_b 9.220868
_cell_length_c 20.450455
_cell_angle_alpha 90.000000
_cell_angle_beta 160.155020
_cell_angle_gamma 90.000000
_cell_volume 1501.647361
_symmetry_space_group_name_H-M "P 21/M"
_symmetry_group_IT_number 11
_symmetry_cell_setting 'monoclinic'
loop_
_space_group_symop_operation_xyz
x,y,z
-x,1/2+y,-z
-x,-y,-z
x,1/2-y,z
loop_
_atom_site_type_symbol
_atom_site_label
_atom_site_fract_x
_atom_site_fract_y
_atom_site_fract_z
Si Si1 0.464068 0.426262 0.392211
Si Si2 0.738170 0.426382 0.579634
Si Si3 0.154361 0.081499 0.852725
Si Si4 0.414032 0.416545 0.847551
Si Si5 0.455994 0.918498 0.757631
Si Si6 0.019483 0.083456 0.453001
Si Si7 0.103289 0.426382 0.944755
O O1 0.500000 0.500000 0.500000
O O2 0.466820 0.250000 0.400464
O O3 0.608101 0.470214 0.495573
O O4 0.279362 0.470218 0.166836
O O5 0.735020 0.250000 0.575676
O O6 0.668453 0.471726 0.433380
O O7 0.931840 0.472532 0.795527
O O8 0.101991 0.250000 0.788671
O O9 0.096476 0.028277 0.861406
O O10 0.083242 0.991787 0.715755
O O11 0.356251 0.078128 0.068751
O O12 0.471319 0.250000 0.908704
O O13 0.450729 0.491783 0.818216
O O14 0.214708 0.419331 0.644126
O O15 0.500000 0.500000 0.000000
O O16 0.415307 0.750000 0.728629
O O17 0.966061 0.250000 0.403445
O O18 0.000000 0.000000 0.500000
O O19 0.105634 0.250000 0.946292
#
# Coordination Sequence:
#
# PCOD9160067 Si02
#       7
#     4   4   4   4   4   4   4
#     4  10  20  36  56  82 114 148 188 230 276 336
#     4   9  17  32  56  83 111 145 185 229 277 331
#     4  10  19  34  58  85 109 138 182 233 281 335
#     4  11  24  39  54  77 109 145 186 231 280 336
#     4  10  19  34  58  85 109 138 182 233 281 335
#     4  11  24  39  54  77 109 145 186 231 280 336
#     4   9  17  32  56  83 111 145 185 229 277 331
#
# _framework density 18.646190000000001
#
# number of rings (size 3 to 8) (size 9 to 14) (size 15 to 20)
#    0.000    2.000    1.429    2.571    0.000    8.000 
#    0.000    1.429    0.000    1.714    0.000    0.000 
#    0.000    0.000    0.000    0.000    0.000    0.000 
#
# Total GULP energy -156323.921840 kJ/mol
# GULP energy per Si atom -5582.997209 kJ/mol
# Density = 1.860375 g / cm^3
# Si number density = 18.646190 Si / 1000 Ang^3
#
#
#
# Elastic Constant Matrix: (Units=GPa)
#
#
# Indices 1 2 3 4 5 6 
#
# 1 135.1972 38.7023 71.9575 0.0000 -7.6397 0.0000
# 2 38.7023 56.5863 32.1349 0.0000 -6.2249 0.0000
# 3 71.9575 32.1349 123.2077 0.0000 -3.7397 0.0000
# 4 0.0000 0.0000 0.0000 21.5897 0.0000 -7.6403
# 5 -7.6397 -6.2249 -3.7397 0.0000 31.2907 0.0000
# 6 0.0000 0.0000 0.0000 -7.6403 0.0000 29.6502
#
#
#
# Elastic Compliance Matrix: (Units=1/GPa)
#
#
# Indices 1 2 3 4 5 6 
#
# 1 0.011824 -0.004751 -0.005628 0.000000 0.001269 0.000000
# 2 -0.004751 0.023042 -0.003142 0.000000 0.003048 0.000000
# 3 -0.005628 -0.003142 0.012206 0.000000 -0.000540 0.000000
# 4 0.000000 0.000000 0.000000 0.050966 0.000000 0.013133
# 5 0.001269 0.003048 -0.000540 0.000000 0.032810 0.000000
# 6 0.000000 0.000000 0.000000 0.013133 0.000000 0.037111
#
#
# Mechanical properties :
#
#
# Convention : Reuss Voigt Hill
#
# Bulk Modulus (GPa) = 49.92738 66.73118 58.32928
# Shear Modulus (GPa) = 24.79207 27.98587 26.38897
#
# Velocity S-wave (km/s) = 3.65033 3.87833 3.76606
# Velocity P-wave (km/s) = 6.67839 7.47804 7.08950
#
# Compressibility (1/GPa) = 0.02002909
#
# Stress axis : x y z
#
# Youngs Moduli (GPa) = 84.57546 43.39982 81.92483
#
# Poissons Ratio (x) = 0.20621 0.46105
# Poissons Ratio (y) = 0.40185 0.25743
# Poissons Ratio (z) = 0.47597 0.13637
#
# Static dielectric constant tensor:
#      x y z
#    x 1.624710 0.000000 0.026380 
#    y 0.000000 1.628610 0.000000 
#    z 0.026380 0.000000 1.652550 
# 
# From -- ./inp_files/66682.got.cif
#   From: 2010.05.17/outbox.cif.g08.bks.cpg/sg11_34_cif.got.tgz:66682.got - 2010.06.03 12:22:45.
