data_PCOD9160788
_publ_section_title
;
Structure prediction by ZEFSAII (Michael W. Deem and Ramdas Pophale) SiO2 
 PCOD9160788
Probable space group: P 21/M
;
_chemical_formula_sum "Si O2"
_cell_formula_units_Z 32
_cell_length_a 23.876462
_cell_length_b 14.253783
_cell_length_c 8.631645
_cell_angle_alpha 90.000000
_cell_angle_beta 148.512751
_cell_angle_gamma 90.000000
_cell_volume 1534.337959
_symmetry_space_group_name_H-M "P 21/M"
_symmetry_group_IT_number 11
_symmetry_cell_setting 'monoclinic'
loop_
_space_group_symop_operation_xyz
x,y,z
-x,1/2+y,-z
-x,-y,-z
x,1/2-y,z
loop_
_atom_site_type_symbol
_atom_site_label
_atom_site_fract_x
_atom_site_fract_y
_atom_site_fract_z
Si Si1 0.057297 0.979191 0.294416
Si Si2 0.246365 0.857155 0.626426
Si Si3 0.100074 0.460057 0.830279
Si Si4 0.563611 0.599542 0.662560
Si Si5 0.506596 0.101637 0.834777
Si Si6 0.536473 0.117323 0.250673
Si Si7 0.215288 0.850666 0.191981
Si Si8 0.190114 0.360710 0.768492
O O1 0.162118 0.914543 0.527996
O O2 0.961668 0.929124 0.162823
O O3 0.101892 0.077554 0.468886
O O4 0.000000 0.000000 0.000000
O O5 0.258136 0.750000 0.708398
O O6 0.202007 0.855335 0.346159
O O7 0.365139 0.900216 0.892950
O O8 0.162311 0.381963 0.882240
O O9 0.000000 0.500000 0.500000
O O10 0.171052 0.552598 0.022505
O O11 0.500000 0.500000 0.500000
O O12 0.541525 0.642816 0.438783
O O13 0.520901 0.643809 0.723209
O O14 0.691659 0.597344 0.982647
O O15 0.463407 0.996015 0.748278
O O16 0.491350 0.144196 0.972417
O O17 0.658352 0.150314 0.542496
O O18 0.168608 0.750000 0.027354
O O19 0.187728 0.250000 0.728945
#
# Coordination Sequence:
#
# PCOD9160788 Si02
#       8
#     4   4   4   4   4   4   4   4
#     4  11  22  42  70  94 122 169 224 278 337 396
#     4  10  21  37  62  98 130 162 214 275 332 393
#     4  10  22  40  63  90 124 171 214 263 333 400
#     4  10  19  37  62  89 129 175 214 263 325 388
#     4   9  18  34  58  88 129 169 207 263 323 391
#     4   9  18  33  58  89 123 169 215 258 321 393
#     4  10  20  37  62  93 129 166 211 271 331 391
#     4  11  26  45  63  93 136 176 219 275 336 398
#
# _framework density 20.855899000000001
#
# number of rings (size 3 to 8) (size 9 to 14) (size 15 to 20)
#    0.000    2.000    1.250    3.000    0.000    5.000 
#    2.250    4.375    0.000    0.000    0.000    0.000 
#    0.000    0.000    0.000    0.000    0.000    0.000 
#
# Total GULP energy -178276.375201 kJ/mol
# GULP energy per Si atom -5571.136725 kJ/mol
# Density = 2.080843 g / cm^3
# Si number density = 20.855899 Si / 1000 Ang^3
#
#
#
# Elastic Constant Matrix: (Units=GPa)
#
#
# Indices 1 2 3 4 5 6 
#
# 1 149.5747 17.2848 31.4016 0.0000 -2.2657 0.0000
# 2 17.2848 125.5728 24.2711 0.0000 17.6607 0.0000
# 3 31.4016 24.2711 73.7979 0.0000 -7.0708 0.0000
# 4 0.0000 0.0000 0.0000 4.7877 0.0000 -5.4138
# 5 -2.2657 17.6607 -7.0708 0.0000 37.2485 0.0000
# 6 0.0000 0.0000 0.0000 -5.4138 0.0000 -0.7506
#
#
#
# Elastic Compliance Matrix: (Units=1/GPa)
#
#
# Indices 1 2 3 4 5 6 
#
# 1 0.007364 -0.000452 -0.002975 0.000000 0.000098 0.000000
# 2 -0.000452 0.009403 -0.003391 0.000000 -0.005129 0.000000
# 3 -0.002975 -0.003391 0.016366 0.000000 0.004534 0.000000
# 4 0.000000 0.000000 0.000000 0.022814 0.000000 -0.164538
# 5 0.000098 -0.005129 0.004534 0.000000 0.030145 0.000000
# 6 0.000000 0.000000 0.000000 -0.164538 0.000000 -0.145511
#
#
# Mechanical properties :
#
#
# Convention : Reuss Voigt Hill
#
# Bulk Modulus (GPa) = 51.29541 54.98449 53.13995
# Shear Modulus (GPa) = -127.28335 26.65631 -50.31352
#
# Velocity S-wave (km/s) = -7.82064 3.57896 -4.91698
# Velocity P-wave (km/s) = 7.54330 6.59544 2.58858
#
# Compressibility (1/GPa) = 0.01949492
#
# Stress axis : x y z
#
# Youngs Moduli (GPa) = 135.79563 106.35269 61.10101
#
# Poissons Ratio (x) = 0.04810 0.18180
# Poissons Ratio (y) = 0.06142 0.20722
# Poissons Ratio (z) = 0.40404 0.36069
#
# Static dielectric constant tensor:
#      x y z
#    x 1.790510 0.000000 -0.069500 
#    y 0.000000 2.446600 0.000000 
#    z -0.069500 0.000000 1.737480 
# 
# From -- ./inp_files/27815.got.cif
#   From: 2010.05.17/outbox.cif.g08.bks.cpg/sg11_14_cif.got.tgz:27815.got - 2010.06.03 12:22:45.
