data_PCOD9160479
_publ_section_title
;
Structure prediction by ZEFSAII (Michael W. Deem and Ramdas Pophale) SiO2 
 PCOD9160479
Probable space group: P 21/M
;
_chemical_formula_sum "Si O2"
_cell_formula_units_Z 32
_cell_length_a 18.521251
_cell_length_b 14.212723
_cell_length_c 11.865717
_cell_angle_alpha 90.000000
_cell_angle_beta 152.155335
_cell_angle_gamma 90.000000
_cell_volume 1458.912405
_symmetry_space_group_name_H-M "P 21/M"
_symmetry_group_IT_number 11
_symmetry_cell_setting 'monoclinic'
loop_
_space_group_symop_operation_xyz
x,y,z
-x,1/2+y,-z
-x,-y,-z
x,1/2-y,z
loop_
_atom_site_type_symbol
_atom_site_label
_atom_site_fract_x
_atom_site_fract_y
_atom_site_fract_z
Si Si1 0.363679 0.862282 0.750296
Si Si2 0.834251 0.978196 0.916932
Si Si3 0.296049 0.637977 0.397959
Si Si4 0.657302 0.861893 0.498069
Si Si5 0.863238 0.925410 0.313122
Si Si6 0.695130 0.862895 0.293439
Si Si7 0.588814 0.515853 0.778374
Si Si8 0.039306 0.643861 0.354963
O O1 0.384354 0.750000 0.776935
O O2 0.308442 0.886102 0.547972
O O3 0.217238 0.881533 0.627810
O O4 0.528788 0.898321 0.018162
O O5 0.784938 0.897072 0.761841
O O6 0.696981 0.991628 0.818780
O O7 0.832888 0.075094 0.843631
O O8 0.974387 0.935864 0.181912
O O9 0.278159 0.750000 0.358332
O O10 0.463442 0.599138 0.588085
O O11 0.631976 0.750000 0.467978
O O12 0.706977 0.889721 0.440135
O O13 0.506253 0.921874 0.323983
O O14 0.827116 0.892756 0.388910
O O15 0.930579 0.852823 0.314184
O O16 0.703467 0.960627 0.038715
O O17 0.000000 0.000000 0.500000
O O18 0.693715 0.750000 0.289605
O O19 0.039784 0.750000 0.305084
#
# Coordination Sequence:
#
# PCOD9160479 Si02
#       8
#     4   4   4   4   4   4   4   4
#     4   9  19  36  61  94 121 160 221 259 307 386
#     4  10  22  38  58  94 130 161 216 260 316 390
#     4  10  19  35  62  91 123 163 208 265 318 375
#     4  10  21  37  62  91 125 168 210 267 327 377
#     4  11  24  39  59  92 129 162 211 265 323 383
#     4  10  21  40  65  93 125 164 216 269 323 388
#     4  10  22  38  57  88 125 164 211 258 310 390
#     4  10  22  41  65  89 125 173 213 263 320 381
#
# _framework density 21.934146999999999
#
# number of rings (size 3 to 8) (size 9 to 14) (size 15 to 20)
#    0.000    2.000    1.250    2.250    1.750    7.000 
#    0.000    1.875    0.000    4.500    0.000    0.000 
#    0.000    0.000    0.000    0.000    0.000    0.000 
#
# Total GULP energy -178695.220297 kJ/mol
# GULP energy per Si atom -5584.225634 kJ/mol
# Density = 2.188422 g / cm^3
# Si number density = 21.934147 Si / 1000 Ang^3
#
#
#
# Elastic Constant Matrix: (Units=GPa)
#
#
# Indices 1 2 3 4 5 6 
#
# 1 108.0916 11.2690 24.8833 0.0000 -11.9171 0.0000
# 2 11.2690 109.9492 6.5658 0.0000 -5.5494 0.0000
# 3 24.8833 6.5658 41.2627 0.0000 3.4875 0.0000
# 4 0.0000 0.0000 0.0000 -0.9930 0.0000 9.5834
# 5 -11.9171 -5.5494 3.4875 0.0000 30.3944 0.0000
# 6 0.0000 0.0000 0.0000 9.5834 0.0000 27.1268
#
#
#
# Elastic Compliance Matrix: (Units=1/GPa)
#
#
# Indices 1 2 3 4 5 6 
#
# 1 0.011578 -0.000480 -0.007353 0.000000 0.005296 0.000000
# 2 -0.000480 0.009308 -0.001332 0.000000 0.001664 0.000000
# 3 -0.007353 -0.001332 0.029431 0.000000 -0.006503 0.000000
# 4 0.000000 0.000000 0.000000 -0.228382 0.000000 0.080683
# 5 0.005296 0.001664 -0.006503 0.000000 0.036027 0.000000
# 6 0.000000 0.000000 0.000000 0.080683 0.000000 0.008360
#
#
# Mechanical properties :
#
#
# Convention : Reuss Voigt Hill
#
# Bulk Modulus (GPa) = 31.26405 38.30440 34.78422
# Shear Modulus (GPa) = -47.76274 25.74466 -11.00904
#
# Velocity S-wave (km/s) = -4.67149 3.42968 -2.24277
# Velocity P-wave (km/s) = 3.84870 5.76064 3.03087
#
# Compressibility (1/GPa) = 0.03198562
#
# Stress axis : x y z
#
# Youngs Moduli (GPa) = 86.37002 107.43602 33.97785
#
# Poissons Ratio (x) = 0.05160 0.24985
# Poissons Ratio (y) = 0.04148 0.04526
# Poissons Ratio (z) = 0.63510 0.14311
#
# Static dielectric constant tensor:
#      x y z
#    x 1.847300 0.000000 -0.015250 
#    y 0.000000 1.831680 0.000000 
#    z -0.015250 0.000000 1.787810 
# 
# From -- ./inp_files/41735.got.cif
#   From: 2010.05.17/outbox.cif.g08.bks.cpg/sg11_21_cif.got.tgz:41735.got - 2010.06.03 12:22:45.
