data_PCOD9160270
_publ_section_title
;
Structure prediction by ZEFSAII (Michael W. Deem and Ramdas Pophale) SiO2 
 PCOD9160270
Probable space group: P 21/M
;
_chemical_formula_sum "Si O2"
_cell_formula_units_Z 32
_cell_length_a 26.974867
_cell_length_b 8.339858
_cell_length_c 21.495077
_cell_angle_alpha 90.000000
_cell_angle_beta 20.830554
_cell_angle_gamma 90.000000
_cell_volume 1719.591741
_symmetry_space_group_name_H-M "P 21/M"
_symmetry_group_IT_number 11
_symmetry_cell_setting 'monoclinic'
loop_
_space_group_symop_operation_xyz
x,y,z
-x,1/2+y,-z
-x,-y,-z
x,1/2-y,z
loop_
_atom_site_type_symbol
_atom_site_label
_atom_site_fract_x
_atom_site_fract_y
_atom_site_fract_z
Si Si1 0.736589 0.556459 0.969209
Si Si2 0.142677 0.560041 0.302209
Si Si3 0.149368 0.057510 0.800923
Si Si4 0.572532 0.558011 0.977282
Si Si5 0.341970 0.056536 0.688376
Si Si6 0.849086 0.553653 0.971327
Si Si7 0.843784 0.443093 0.347161
Si Si8 0.555489 0.445403 0.742297
O O1 0.735343 0.750000 0.971936
O O2 0.825192 0.506994 0.804639
O O3 0.797938 0.500769 0.963155
O O4 0.576530 0.503042 0.144946
O O5 0.138745 0.750000 0.302532
O O6 0.272944 0.508270 0.192280
O O7 0.000000 0.500000 0.500000
O O8 0.151372 0.250000 0.795687
O O9 0.261617 0.003621 0.720398
O O10 0.172161 0.988259 0.706009
O O11 0.000000 0.000000 0.000000
O O12 0.580655 0.750000 0.967939
O O13 0.500000 0.500000 0.000000
O O14 0.482395 0.507370 0.143127
O O15 0.339930 0.250000 0.691898
O O16 0.500000 0.000000 0.500000
O O17 0.256138 0.002636 0.850216
O O18 0.849489 0.750000 0.970887
O O19 0.006525 0.500187 0.802638
O O20 0.845981 0.250000 0.349608
O O21 0.706388 0.503266 0.543849
O O22 0.557801 0.250000 0.737383
#
# Coordination Sequence:
#
# PCOD9160270 Si02
#       8
#     4   4   4   4   4   4   4   4
#     4   9  18  35  56  79 109 147 189 232 275 330
#     4  11  22  38  59  85 116 153 193 236 288 340
#     4  11  22  38  57  80 111 144 184 232 282 333
#     4  10  20  37  59  88 121 152 192 236 280 337
#     4  10  22  38  55  81 111 144 187 232 280 334
#     4   9  18  34  55  79 110 144 183 229 276 333
#     4  10  19  35  57  81 109 145 186 227 274 332
#     4   8  17  32  54  80 107 145 188 222 267 332
#
# _framework density 18.609068000000001
#
# number of rings (size 3 to 8) (size 9 to 14) (size 15 to 20)
#    0.000    2.250    1.250    2.625    1.750    2.000 
#    0.000    6.875    0.000    0.000    0.000    0.000 
#    0.000    0.000    0.000    0.000    0.000    0.000 
#
# Total GULP energy -178586.892039 kJ/mol
# GULP energy per Si atom -5580.840376 kJ/mol
# Density = 1.856671 g / cm^3
# Si number density = 18.609068 Si / 1000 Ang^3
#
#
#
# Elastic Constant Matrix: (Units=GPa)
#
#
# Indices 1 2 3 4 5 6 
#
# 1 196.3742 15.6563 110.9763 0.0000 -14.8645 0.0000
# 2 15.6563 16.4955 15.5100 0.0000 -3.3528 0.0000
# 3 110.9763 15.5100 202.6017 0.0000 -12.0804 0.0000
# 4 0.0000 0.0000 0.0000 24.3338 0.0000 1.8702
# 5 -14.8645 -3.3528 -12.0804 0.0000 19.8933 0.0000
# 6 0.0000 0.0000 0.0000 1.8702 0.0000 28.2976
#
#
#
# Elastic Compliance Matrix: (Units=1/GPa)
#
#
# Indices 1 2 3 4 5 6 
#
# 1 0.007719 -0.003147 -0.003813 0.000000 0.002922 0.000000
# 2 -0.003147 0.067947 -0.003045 0.000000 0.007251 0.000000
# 3 -0.003813 -0.003045 0.007322 0.000000 0.001084 0.000000
# 4 0.000000 0.000000 0.000000 0.041305 0.000000 -0.002730
# 5 0.002922 0.007251 0.001084 0.000000 0.054332 0.000000
# 6 0.000000 0.000000 0.000000 -0.002730 0.000000 0.035519
#
#
# Mechanical properties :
#
#
# Convention : Reuss Voigt Hill
#
# Bulk Modulus (GPa) = 15.87888 77.75075 46.81482
# Shear Modulus (GPa) = 19.59647 32.72687 26.16167
#
# Velocity S-wave (km/s) = 3.24861 4.19818 3.75354
# Velocity P-wave (km/s) = 4.75633 8.08526 6.63303
#
# Compressibility (1/GPa) = 0.06297672
#
# Stress axis : x y z
#
# Youngs Moduli (GPa) = 129.54490 14.71740 136.57039
#
# Poissons Ratio (x) = 0.04632 0.52076
# Poissons Ratio (y) = 0.40772 0.41590
# Poissons Ratio (z) = 0.49397 0.04482
#
# Static dielectric constant tensor:
#      x y z
#    x 1.596300 0.000000 -0.006870 
#    y 0.000000 1.641300 0.000000 
#    z -0.006870 0.000000 1.625460 
# 
# From -- ./inp_files/66953.got.cif
#   From: 2010.05.17/outbox.cif.g08.bks.cpg/sg11_34_cif.got.tgz:66953.got - 2010.06.03 12:22:45.
