data_PCOD9160246
_publ_section_title
;
Structure prediction by ZEFSAII (Michael W. Deem and Ramdas Pophale) SiO2 
 PCOD9160246
Probable space group: P 21/M
;
_chemical_formula_sum "Si O2"
_cell_formula_units_Z 28
_cell_length_a 10.633798
_cell_length_b 12.473883
_cell_length_c 21.931528
_cell_angle_alpha 90.000000
_cell_angle_beta 29.207397
_cell_angle_gamma 90.000000
_cell_volume 1419.561389
_symmetry_space_group_name_H-M "P 21/M"
_symmetry_group_IT_number 11
_symmetry_cell_setting 'monoclinic'
loop_
_space_group_symop_operation_xyz
x,y,z
-x,1/2+y,-z
-x,-y,-z
x,1/2-y,z
loop_
_atom_site_type_symbol
_atom_site_label
_atom_site_fract_x
_atom_site_fract_y
_atom_site_fract_z
Si Si1 0.385365 0.626862 0.331803
Si Si2 0.425559 0.978606 0.444920
Si Si3 0.563259 0.912319 0.062515
Si Si4 0.602029 0.632954 0.903681
Si Si5 0.206710 0.870480 0.648848
Si Si6 0.100237 0.126030 0.966801
Si Si7 0.939290 0.125632 0.644698
O O1 0.316563 0.750000 0.375670
O O2 0.409178 0.561851 0.383470
O O3 0.655904 0.628371 0.181818
O O4 0.179086 0.585549 0.369509
O O5 0.373021 0.886819 0.517059
O O6 0.687597 0.040883 0.349483
O O7 0.190134 0.060300 0.555924
O O8 0.788410 0.873825 0.011341
O O9 0.292271 0.882106 0.208632
O O10 0.563515 0.040839 0.056920
O O11 0.575239 0.872304 0.988252
O O12 0.527603 0.750000 0.913098
O O13 0.904860 0.614859 0.762649
O O14 0.238934 0.750000 0.659109
O O15 0.977187 0.250000 0.011150
O O16 0.000000 0.000000 0.000000
O O17 0.005652 0.250000 0.609573
#
# Coordination Sequence:
#
# PCOD9160246 Si02
#       7
#     4   4   4   4   4   4   4
#     4   9  20  37  58  81 111 147 188 234 285 340
#     4  11  20  35  57  80 111 150 184 230 278 338
#     4  10  20  37  60  82 112 151 190 233 291 342
#     4  10  20  36  58  83 112 148 190 239 286 340
#     4  10  22  36  53  80 114 148 185 232 283 333
#     4  10  22  40  62  88 119 153 191 239 291 347
#     4  10  19  35  56  83 110 143 187 232 279 338
#
# _framework density 19.724402999999999
#
# number of rings (size 3 to 8) (size 9 to 14) (size 15 to 20)
#    0.000    2.000    1.429    3.429    2.000    0.571 
#    0.000    0.714    0.000    0.857    0.000    0.000 
#    0.000    0.000    0.000    0.000    0.000    0.000 
#
# Total GULP energy -156017.292665 kJ/mol
# GULP energy per Si atom -5572.046167 kJ/mol
# Density = 1.967951 g / cm^3
# Si number density = 19.724403 Si / 1000 Ang^3
#
#
#
# Elastic Constant Matrix: (Units=GPa)
#
#
# Indices 1 2 3 4 5 6 
#
# 1 42.7048 19.4471 4.1538 0.0000 13.2548 0.0000
# 2 19.4471 116.4982 9.9512 0.0000 -7.5572 0.0000
# 3 4.1538 9.9512 19.0149 0.0000 10.2640 0.0000
# 4 0.0000 0.0000 0.0000 6.2713 0.0000 -6.9581
# 5 13.2548 -7.5572 10.2640 0.0000 22.1292 0.0000
# 6 0.0000 0.0000 0.0000 -6.9581 0.0000 24.3334
#
#
#
# Elastic Compliance Matrix: (Units=1/GPa)
#
#
# Indices 1 2 3 4 5 6 
#
# 1 0.035866 -0.009162 0.013667 0.000000 -0.030951 0.000000
# 2 -0.009162 0.012221 -0.012818 0.000000 0.015607 0.000000
# 3 0.013667 -0.012818 0.084167 0.000000 -0.051602 0.000000
# 4 0.000000 0.000000 0.000000 0.233556 0.000000 0.066785
# 5 -0.030951 0.015607 -0.051602 0.000000 0.092992 0.000000
# 6 0.000000 0.000000 0.000000 0.066785 0.000000 0.060193
#
#
# Mechanical properties :
#
#
# Convention : Reuss Voigt Hill
#
# Bulk Modulus (GPa) = 8.64855 27.25801 17.95328
# Shear Modulus (GPa) = 8.70831 20.19117 14.44974
#
# Velocity S-wave (km/s) = 2.10347 3.20295 2.70956
# Velocity P-wave (km/s) = 3.20837 5.24671 4.34865
#
# Compressibility (1/GPa) = 0.11562637
#
# Stress axis : x y z
#
# Youngs Moduli (GPa) = 27.88143 81.82881 11.88112
#
# Poissons Ratio (x) = 0.74974 -0.16238
# Poissons Ratio (y) = 0.25546 0.15230
# Poissons Ratio (z) = -0.38105 1.04891
#
# Static dielectric constant tensor:
#      x y z
#    x 1.679810 0.000000 -0.001290 
#    y 0.000000 1.760970 0.000000 
#    z -0.001290 0.000000 1.665920 
# 
# From -- ./inp_files/68522.got.cif
#   From: 2010.05.17/outbox.cif.g08.bks.cpg/sg11_35_cif.got.tgz:68522.got - 2010.06.03 12:22:45.
