data_PCOD9160644
_publ_section_title
;
Structure prediction by ZEFSAII (Michael W. Deem and Ramdas Pophale) SiO2 
 PCOD9160644
Probable space group: P 21/M
;
_chemical_formula_sum "Si O2"
_cell_formula_units_Z 32
_cell_length_a 27.309058
_cell_length_b 9.138983
_cell_length_c 21.327795
_cell_angle_alpha 90.000000
_cell_angle_beta 160.347372
_cell_angle_gamma 90.000000
_cell_volume 1790.189597
_symmetry_space_group_name_H-M "P 21/M"
_symmetry_group_IT_number 11
_symmetry_cell_setting 'monoclinic'
loop_
_space_group_symop_operation_xyz
x,y,z
-x,1/2+y,-z
-x,-y,-z
x,1/2-y,z
loop_
_atom_site_type_symbol
_atom_site_label
_atom_site_fract_x
_atom_site_fract_y
_atom_site_fract_z
Si Si1 0.648646 0.921724 0.344308
Si Si2 0.992123 0.925335 0.754119
Si Si3 0.793175 0.574799 0.082525
Si Si4 0.944536 0.074440 0.027723
Si Si5 0.449457 0.075135 0.002812
Si Si6 0.227265 0.074110 0.285487
Si Si7 0.491950 0.423386 0.688605
Si Si8 0.852933 0.574162 0.299275
O O1 0.627054 0.750000 0.302011
O O2 0.595566 0.940434 0.351633
O O3 0.819561 0.954106 0.544595
O O4 0.553578 0.020503 0.184003
O O5 0.011964 0.750000 0.770953
O O6 0.078050 0.008890 0.803977
O O7 0.050282 0.967422 0.893295
O O8 0.791684 0.750000 0.077103
O O9 0.815345 0.532921 0.182212
O O10 0.641193 0.510514 0.874268
O O11 0.929677 0.250000 0.006399
O O12 0.820005 0.999233 0.836338
O O13 0.098933 0.037156 0.180637
O O14 0.456686 0.250000 0.005773
O O15 0.284567 0.034495 0.823111
O O16 0.500000 0.000000 0.000000
O O17 0.227375 0.250000 0.279355
O O18 0.382282 0.029870 0.501148
O O19 0.523026 0.250000 0.718572
O O20 0.869303 0.750000 0.320929
O O21 0.000000 0.500000 0.500000
#
# Coordination Sequence:
#
# PCOD9160644 Si02
#       8
#     4   4   4   4   4   4   4   4
#     4  10  20  37  62  88 114 148 192 238 285 338
#     4  10  21  38  59  85 117 153 193 235 283 342
#     4  11  24  41  58  84 118 150 191 239 284 334
#     4   9  17  32  53  82 117 149 185 234 285 337
#     4  11  24  42  61  88 120 150 188 237 287 337
#     4   9  17  31  54  84 115 147 187 234 283 340
#     4  10  19  36  61  86 112 151 194 233 283 343
#     4  10  24  43  61  83 115 152 189 231 281 339
#
# _framework density 17.875202000000002
#
# number of rings (size 3 to 8) (size 9 to 14) (size 15 to 20)
#    0.000    2.000    2.500    0.750    1.750    3.500 
#    0.000    0.625    0.000    0.000    0.000    0.000 
#    0.000    0.000    0.000    0.000    0.000    0.000 
#
# Total GULP energy -178671.043218 kJ/mol
# GULP energy per Si atom -5583.470101 kJ/mol
# Density = 1.783452 g / cm^3
# Si number density = 17.875202 Si / 1000 Ang^3
#
#
#
# Elastic Constant Matrix: (Units=GPa)
#
#
# Indices 1 2 3 4 5 6 
#
# 1 82.9218 37.2821 43.6577 0.0000 8.4974 0.0000
# 2 37.2821 35.5990 48.8774 0.0000 4.0854 0.0000
# 3 43.6577 48.8774 123.3034 0.0000 -3.3752 0.0000
# 4 0.0000 0.0000 0.0000 33.9679 0.0000 -3.6101
# 5 8.4974 4.0854 -3.3752 0.0000 29.3946 0.0000
# 6 0.0000 0.0000 0.0000 -3.6101 0.0000 30.5110
#
#
#
# Elastic Compliance Matrix: (Units=1/GPa)
#
#
# Indices 1 2 3 4 5 6 
#
# 1 0.023509 -0.028084 0.002738 0.000000 -0.002578 0.000000
# 2 -0.028084 0.099251 -0.029648 0.000000 -0.009080 0.000000
# 3 0.002738 -0.029648 0.019044 0.000000 0.005516 0.000000
# 4 0.000000 0.000000 0.000000 0.029814 0.000000 0.003528
# 5 -0.002578 -0.009080 0.005516 0.000000 0.036660 0.000000
# 6 0.000000 0.000000 0.000000 0.003528 0.000000 0.033192
#
#
# Mechanical properties :
#
#
# Convention : Reuss Voigt Hill
#
# Bulk Modulus (GPa) = 31.43034 55.71762 43.57398
# Shear Modulus (GPa) = 13.80970 26.24185 20.02578
#
# Velocity S-wave (km/s) = 2.78252 3.83568 3.35074
# Velocity P-wave (km/s) = 5.28626 7.13124 6.27691
#
# Compressibility (1/GPa) = 0.03181639
#
# Stress axis : x y z
#
# Youngs Moduli (GPa) = 42.53722 10.07546 52.50990
#
# Poissons Ratio (x) = 0.28296 -0.14378
# Poissons Ratio (y) = 1.19461 1.55681
# Poissons Ratio (z) = -0.11647 0.29872
#
# Static dielectric constant tensor:
#      x y z
#    x 1.599430 0.000000 -0.003140 
#    y 0.000000 1.594090 0.000000 
#    z -0.003140 0.000000 1.590800 
# 
# From -- ./inp_files/67221.got.cif
#   From: 2010.05.17/outbox.cif.g08.bks.cpg/sg11_34_cif.got.tgz:67221.got - 2010.06.03 12:22:45.
