data_PCOD9160590
_publ_section_title
;
Structure prediction by ZEFSAII (Michael W. Deem and Ramdas Pophale) SiO2 
 PCOD9160590
Probable space group: P 21/M
;
_chemical_formula_sum "Si O2"
_cell_formula_units_Z 28
_cell_length_a 13.018061
_cell_length_b 8.345848
_cell_length_c 14.989048
_cell_angle_alpha 90.000000
_cell_angle_beta 58.718475
_cell_angle_gamma 90.000000
_cell_volume 1391.768745
_symmetry_space_group_name_H-M "P 21/M"
_symmetry_group_IT_number 11
_symmetry_cell_setting 'monoclinic'
loop_
_space_group_symop_operation_xyz
x,y,z
-x,1/2+y,-z
-x,-y,-z
x,1/2-y,z
loop_
_atom_site_type_symbol
_atom_site_label
_atom_site_fract_x
_atom_site_fract_y
_atom_site_fract_z
Si Si1 0.851895 0.941778 0.809907
Si Si2 0.413627 0.558345 0.117475
Si Si3 0.501271 0.554294 0.272194
Si Si4 0.274782 0.443016 0.720048
Si Si5 0.989654 0.942063 0.105685
Si Si6 0.689038 0.056350 0.491941
Si Si7 0.043405 0.943309 0.576305
O O1 0.848501 0.750000 0.809474
O O2 0.950223 0.999782 0.693453
O O3 0.721522 0.004925 0.842697
O O4 0.901140 0.995927 0.883373
O O5 0.416937 0.750000 0.118531
O O6 0.458866 0.498804 0.194045
O O7 0.500000 0.500000 0.000000
O O8 0.499547 0.750000 0.271455
O O9 0.634509 0.504563 0.242637
O O10 0.409117 0.503237 0.391556
O O11 0.271780 0.250000 0.722093
O O12 0.326960 0.496332 0.601376
O O13 0.138322 0.500880 0.796104
O O14 0.989405 0.750000 0.107900
O O15 0.000000 0.000000 0.000000
O O16 0.686965 0.250000 0.491203
O O17 0.821547 0.002479 0.463374
O O18 0.044151 0.750000 0.577329
O O19 0.000000 0.000000 0.500000
#
# Coordination Sequence:
#
# PCOD9160590 Si02
#       7
#     4   4   4   4   4   4   4
#     4  11  23  42  64  89 125 162 205 258 311 369
#     4  11  24  43  66  91 122 162 208 257 311 371
#     4   9  20  38  61  87 122 162 199 245 306 365
#     4  10  21  38  60  90 122 159 198 245 306 366
#     4  11  24  40  63  92 124 162 208 258 314 374
#     4  10  19  36  59  87 120 158 199 244 300 362
#     4  10  21  35  57  87 120 160 203 251 305 363
#
# _framework density 20.118285
#
# number of rings (size 3 to 8) (size 9 to 14) (size 15 to 20)
#    0.000    1.714    1.429    2.571    2.000    3.429 
#    0.000    2.857    0.000    0.000    0.000    0.000 
#    0.000    0.000    0.000    0.000    0.000    0.000 
#
# Total GULP energy -156496.184370 kJ/mol
# GULP energy per Si atom -5589.149442 kJ/mol
# Density = 2.007250 g / cm^3
# Si number density = 20.118285 Si / 1000 Ang^3
#
#
#
# Elastic Constant Matrix: (Units=GPa)
#
#
# Indices 1 2 3 4 5 6 
#
# 1 162.5684 14.5274 42.2178 0.0000 20.5015 0.0000
# 2 14.5274 21.4988 6.8210 0.0000 0.3168 0.0000
# 3 42.2178 6.8210 85.1463 0.0000 21.4241 0.0000
# 4 0.0000 0.0000 0.0000 29.4892 0.0000 6.9377
# 5 20.5015 0.3168 21.4241 0.0000 40.5161 0.0000
# 6 0.0000 0.0000 0.0000 6.9377 0.0000 23.8683
#
#
#
# Elastic Compliance Matrix: (Units=1/GPa)
#
#
# Indices 1 2 3 4 5 6 
#
# 1 0.007548 -0.004168 -0.002833 0.000000 -0.002289 0.000000
# 2 -0.004168 0.050156 -0.002749 0.000000 0.003171 0.000000
# 3 -0.002833 -0.002749 0.014999 0.000000 -0.006476 0.000000
# 4 0.000000 0.000000 0.000000 0.036400 0.000000 -0.010580
# 5 -0.002289 0.003171 -0.006476 0.000000 0.029239 0.000000
# 6 0.000000 0.000000 0.000000 -0.010580 0.000000 0.044972
#
#
# Mechanical properties :
#
#
# Convention : Reuss Voigt Hill
#
# Bulk Modulus (GPa) = 18.79579 44.03844 31.41712
# Shear Modulus (GPa) = 22.67079 32.48454 27.57767
#
# Velocity S-wave (km/s) = 3.36054 4.02266 3.70642
# Velocity P-wave (km/s) = 4.94171 6.59644 5.82810
#
# Compressibility (1/GPa) = 0.05320339
#
# Stress axis : x y z
#
# Youngs Moduli (GPa) = 132.48552 19.93770 66.67227
#
# Poissons Ratio (x) = 0.08310 0.18886
# Poissons Ratio (y) = 0.55220 0.18329
# Poissons Ratio (z) = 0.37529 0.05481
#
# Static dielectric constant tensor:
#      x y z
#    x 1.700190 0.000000 -0.010070 
#    y 0.000000 1.694300 0.000000 
#    z -0.010070 0.000000 1.687810 
# 
# From -- ./inp_files/49116.got.cif
#   From: 2010.05.17/outbox.cif.g08.bks.cpg/sg11_25_cif.got.tgz:49116.got - 2010.06.03 12:22:45.
