data_PCOD9160172
_publ_section_title
;
Structure prediction by ZEFSAII (Michael W. Deem and Ramdas Pophale) SiO2 
 PCOD9160172
Probable space group: P 21/M
;
_chemical_formula_sum "Si O2"
_cell_formula_units_Z 32
_cell_length_a 14.893381
_cell_length_b 20.845546
_cell_length_c 15.164482
_cell_angle_alpha 90.000000
_cell_angle_beta 161.177859
_cell_angle_gamma 90.000000
_cell_volume 1518.941003
_symmetry_space_group_name_H-M "P 21/M"
_symmetry_group_IT_number 11
_symmetry_cell_setting 'monoclinic'
loop_
_space_group_symop_operation_xyz
x,y,z
-x,1/2+y,-z
-x,-y,-z
x,1/2-y,z
loop_
_atom_site_type_symbol
_atom_site_label
_atom_site_fract_x
_atom_site_fract_y
_atom_site_fract_z
Si Si1 0.892750 0.403652 0.153950
Si Si2 0.742085 0.907048 0.247210
Si Si3 0.511639 0.822952 0.890769
Si Si4 0.322181 0.326232 0.650796
Si Si5 0.456738 0.565295 0.637110
Si Si6 0.092017 0.821762 0.345668
Si Si7 0.168190 0.990903 0.535723
Si Si8 0.001666 0.501984 0.106203
O O1 0.901340 0.438862 0.067059
O O2 0.130364 0.350679 0.392434
O O3 0.973102 0.460067 0.298574
O O4 0.607052 0.366716 0.907342
O O5 0.520373 0.874087 0.976993
O O6 0.818741 0.851391 0.388901
O O7 0.980867 0.938043 0.408886
O O8 0.668493 0.967574 0.240223
O O9 0.562519 0.750000 0.971194
O O10 0.771623 0.838997 0.067199
O O11 0.237462 0.820673 0.577237
O O12 0.361905 0.250000 0.688853
O O13 0.292507 0.631958 0.477293
O O14 0.374661 0.539383 0.657328
O O15 0.304086 0.518669 0.425658
O O16 0.782869 0.557958 0.928516
O O17 0.095689 0.750000 0.312552
O O18 0.000000 0.500000 0.000000
#
# Coordination Sequence:
#
# PCOD9160172 Si02
#       8
#     4   4   4   4   4   4   4   4
#     4  10  22  41  61  88 119 153 199 247 307 365
#     4  10  19  35  52  83 119 157 209 250 284 327
#     4  10  20  34  50  74 110 154 204 244 278 322
#     4  11  23  40  61  85 121 167 208 247 287 342
#     4  11  21  39  61  89 121 157 192 233 303 366
#     4  10  21  36  55  79 111 156 196 233 278 343
#     4   9  20  35  56  86 118 164 194 251 297 348
#     4  11  23  40  68  96 119 145 186 248 310 370
#
# _framework density 21.067309999999999
#
# number of rings (size 3 to 8) (size 9 to 14) (size 15 to 20)
#    0.000    1.750    1.250    4.125    1.750    2.500 
#    0.000    3.750    0.000    4.500    0.000    0.000 
#    0.000    0.000    0.000    0.000    0.000    0.000 
#
# Total GULP energy -178801.130686 kJ/mol
# GULP energy per Si atom -5587.535334 kJ/mol
# Density = 2.101936 g / cm^3
# Si number density = 21.067310 Si / 1000 Ang^3
#
#
#
# Elastic Constant Matrix: (Units=GPa)
#
#
# Indices 1 2 3 4 5 6 
#
# 1 96.5984 44.4670 20.4047 0.0000 -10.9598 0.0000
# 2 44.4670 126.1182 21.2835 0.0000 3.5841 0.0000
# 3 20.4047 21.2835 85.7833 0.0000 8.8898 0.0000
# 4 0.0000 0.0000 0.0000 32.1707 0.0000 4.8493
# 5 -10.9598 3.5841 8.8898 0.0000 23.3993 0.0000
# 6 0.0000 0.0000 0.0000 4.8493 0.0000 17.1043
#
#
#
# Elastic Compliance Matrix: (Units=1/GPa)
#
#
# Indices 1 2 3 4 5 6 
#
# 1 0.014134 -0.004706 -0.003076 0.000000 0.008509 0.000000
# 2 -0.004706 0.009848 -0.000978 0.000000 -0.003341 0.000000
# 3 -0.003076 -0.000978 0.013289 0.000000 -0.006340 0.000000
# 4 0.000000 0.000000 0.000000 0.032472 0.000000 -0.009206
# 5 0.008509 -0.003341 -0.006340 0.000000 0.049642 0.000000
# 6 0.000000 0.000000 0.000000 -0.009206 0.000000 0.061075
#
#
# Mechanical properties :
#
#
# Convention : Reuss Voigt Hill
#
# Bulk Modulus (GPa) = 50.63118 53.42336 52.02727
# Shear Modulus (GPa) = 24.44234 29.35783 26.90008
#
# Velocity S-wave (km/s) = 3.40987 3.73705 3.57720
# Velocity P-wave (km/s) = 6.29191 6.63582 6.46615
#
# Compressibility (1/GPa) = 0.01975067
#
# Stress axis : x y z
#
# Youngs Moduli (GPa) = 70.75303 101.54054 75.25279
#
# Poissons Ratio (x) = 0.47785 0.23149
# Poissons Ratio (y) = 0.33296 0.07358
# Poissons Ratio (z) = 0.21764 0.09929
#
# Static dielectric constant tensor:
#      x y z
#    x 1.750200 0.000000 -0.002230 
#    y 0.000000 1.817390 0.000000 
#    z -0.002230 0.000000 1.772640 
# 
# From -- ./inp_files/52714.got.cif
#   From: 2010.05.17/outbox.cif.g08.bks.cpg/sg11_27_cif.got.tgz:52714.got - 2010.06.03 12:22:45.
