data_PCOD9160303
_publ_section_title
;
Structure prediction by ZEFSAII (Michael W. Deem and Ramdas Pophale) SiO2 
 PCOD9160303
Probable space group: P 21/M
;
_chemical_formula_sum "Si O2"
_cell_formula_units_Z 26
_cell_length_a 12.432254
_cell_length_b 9.064841
_cell_length_c 17.855118
_cell_angle_alpha 90.000000
_cell_angle_beta 138.156092
_cell_angle_gamma 90.000000
_cell_volume 1342.350873
_symmetry_space_group_name_H-M "P 21/M"
_symmetry_group_IT_number 11
_symmetry_cell_setting 'monoclinic'
loop_
_space_group_symop_operation_xyz
x,y,z
-x,1/2+y,-z
-x,-y,-z
x,1/2-y,z
loop_
_atom_site_type_symbol
_atom_site_label
_atom_site_fract_x
_atom_site_fract_y
_atom_site_fract_z
Si Si1 0.527381 0.574955 0.196803
Si Si2 0.487005 0.077157 0.633429
Si Si3 0.817820 0.529657 0.745446
Si Si4 0.021863 0.250000 0.880803
Si Si5 0.135526 0.250000 0.100516
Si Si6 0.913048 0.921547 0.385222
Si Si7 0.621846 0.750000 0.902151
Si Si8 0.142186 0.414714 0.403875
O O1 0.484389 0.750000 0.150165
O O2 0.484865 0.570488 0.263011
O O3 0.720464 0.563942 0.288977
O O4 0.459297 0.414746 0.129826
O O5 0.488407 0.250000 0.612327
O O6 0.629836 0.999378 0.663251
O O7 0.308955 0.018812 0.522241
O O8 0.926812 0.386631 0.800470
O O9 0.878667 0.615754 0.850115
O O10 0.839917 0.597030 0.675516
O O11 0.013210 0.250000 0.967664
O O12 0.212386 0.250000 0.963968
O O13 0.307569 0.250000 0.146717
O O14 0.952690 0.750000 0.408492
O O15 0.000000 0.000000 0.500000
O O16 0.990071 0.992595 0.351345
O O17 0.126377 0.250000 0.428644
#
# Coordination Sequence:
#
# PCOD9160303 Si02
#       8
#     4   4   4   2   2   4   2   4
#     4  10  21  38  62  93 125 161 212 263 312 369
#     4  10  19  35  57  85 128 168 202 245 304 376
#     4  12  21  41  58  88 129 161 206 258 312 385
#     4  10  24  40  64  89 118 163 214 262 322 375
#     4  10  22  38  58  91 116 161 206 259 318 371
#     4  11  23  39  62  92 127 168 212 255 304 372
#     4  10  22  40  64  94 118 162 210 273 318 374
#     4  11  24  38  57  90 129 171 205 247 309 377
#
# _framework density 19.369002999999999
#
# number of rings (size 3 to 8) (size 9 to 14) (size 15 to 20)
#    0.462    0.923    4.615    1.385    3.231    0.000 
#    2.769    0.000    0.000    0.923    0.000    0.000 
#    0.000    0.000    0.000    0.000    0.000    0.000 
#
# Total GULP energy -144746.554565 kJ/mol
# GULP energy per Si atom -5567.175176 kJ/mol
# Density = 1.932492 g / cm^3
# Si number density = 19.369003 Si / 1000 Ang^3
#
#
#
# Elastic Constant Matrix: (Units=GPa)
#
#
# Indices 1 2 3 4 5 6 
#
# 1 88.1313 27.2715 3.2059 0.0000 20.7788 0.0000
# 2 27.2715 130.1307 35.4134 0.0000 25.8741 0.0000
# 3 3.2059 35.4134 35.5266 0.0000 12.3925 0.0000
# 4 0.0000 0.0000 0.0000 101.9685 0.0000 166.7158
# 5 20.7788 25.8741 12.3925 0.0000 18.4279 0.0000
# 6 0.0000 0.0000 0.0000 166.7158 0.0000 315.6999
#
#
#
# Elastic Compliance Matrix: (Units=1/GPa)
#
#
# Indices 1 2 3 4 5 6 
#
# 1 0.016638 -0.001063 0.007292 0.000000 -0.022172 0.000000
# 2 -0.001063 0.012283 -0.008557 0.000000 -0.010293 0.000000
# 3 0.007292 -0.008557 0.045330 0.000000 -0.026691 0.000000
# 4 0.000000 0.000000 0.000000 0.071794 0.000000 -0.037913
# 5 -0.022172 -0.010293 -0.026691 0.000000 0.111667 0.000000
# 6 0.000000 0.000000 0.000000 -0.037913 0.000000 0.023189
#
#
# Mechanical properties :
#
#
# Convention : Reuss Voigt Hill
#
# Bulk Modulus (GPa) = 14.36886 42.84112 28.60499
# Shear Modulus (GPa) = 16.19407 99.74578 57.96992
#
# Velocity S-wave (km/s) = 2.89464 7.18397 5.47670
# Velocity P-wave (km/s) = 4.31353 9.53829 7.40221
#
# Compressibility (1/GPa) = 0.06959494
#
# Stress axis : x y z
#
# Youngs Moduli (GPa) = 60.10402 81.41645 22.06026
#
# Poissons Ratio (x) = 0.08653 -0.16086
# Poissons Ratio (y) = 0.06388 0.18877
# Poissons Ratio (z) = -0.43828 0.69670
#
# Static dielectric constant tensor:
#      x y z
#    x 1.661680 0.000000 0.003290 
#    y 0.000000 1.680910 0.000000 
#    z 0.003290 0.000000 1.664670 
# 
# From -- ./inp_files/64492.got.cif
#   From: 2010.05.17/outbox.cif.g08.bks.cpg/sg11_33_cif.got.tgz:64492.got - 2010.06.03 12:22:45.
