data_PCOD9160848
_publ_section_title
;
Structure prediction by ZEFSAII (Michael W. Deem and Ramdas Pophale) SiO2 
 PCOD9160848
Probable space group: P 21/M
;
_chemical_formula_sum "Si O2"
_cell_formula_units_Z 28
_cell_length_a 9.259245
_cell_length_b 15.292218
_cell_length_c 20.358676
_cell_angle_alpha 90.000000
_cell_angle_beta 151.195696
_cell_angle_gamma 90.000000
_cell_volume 1388.928724
_symmetry_space_group_name_H-M "P 21/M"
_symmetry_group_IT_number 11
_symmetry_cell_setting 'monoclinic'
loop_
_space_group_symop_operation_xyz
x,y,z
-x,1/2+y,-z
-x,-y,-z
x,1/2-y,z
loop_
_atom_site_type_symbol
_atom_site_label
_atom_site_fract_x
_atom_site_fract_y
_atom_site_fract_z
Si Si1 0.139955 0.474311 0.985931
Si Si2 0.864423 0.847317 0.343604
Si Si3 0.599343 0.907782 0.102114
Si Si4 0.088891 0.443229 0.295164
Si Si5 0.560143 0.343316 0.103329
Si Si6 0.325871 0.999160 0.531279
Si Si7 0.600185 0.147293 0.727689
O O1 0.902411 0.409779 0.855911
O O2 0.278037 0.557191 0.001563
O O3 0.438018 0.414290 0.106263
O O4 0.000000 0.500000 0.000000
O O5 0.998357 0.750000 0.405090
O O6 0.765388 0.860230 0.228484
O O7 0.566035 0.850793 0.268513
O O8 0.081415 0.926049 0.452964
O O9 0.563337 0.857062 0.019811
O O10 0.820184 0.988631 0.173078
O O11 0.354542 0.450586 0.349400
O O12 0.223280 0.469924 0.418649
O O13 0.915037 0.353488 0.235491
O O14 0.467315 0.250000 0.091455
O O15 0.387097 0.086734 0.597235
O O16 0.641969 0.250000 0.723888
#
# Coordination Sequence:
#
# PCOD9160848 Si02
#       7
#     4   4   4   4   4   4   4
#     4  11  21  38  61  85 116 156 195 247 307 364
#     4  10  21  36  57  86 119 157 203 249 297 355
#     4  10  19  38  61  86 116 157 198 244 309 361
#     4   9  20  36  58  82 112 152 199 241 297 354
#     4  11  22  36  58  89 121 153 194 250 305 365
#     4  10  20  38  59  82 115 160 200 248 298 349
#     4  11  22  37  59  87 118 157 203 248 298 362
#
# _framework density 20.159423
#
# number of rings (size 3 to 8) (size 9 to 14) (size 15 to 20)
#    0.000    1.714    1.429    4.714    0.000    1.143 
#    0.000    7.143    0.000    0.857    0.000    0.000 
#    0.000    0.000    0.000    0.000    0.000    0.000 
#
# Total GULP energy -155984.247889 kJ/mol
# GULP energy per Si atom -5570.865996 kJ/mol
# Density = 2.011354 g / cm^3
# Si number density = 20.159423 Si / 1000 Ang^3
#
#
#
# Elastic Constant Matrix: (Units=GPa)
#
#
# Indices 1 2 3 4 5 6 
#
# 1 81.1520 18.2898 10.7374 0.0000 13.1447 0.0000
# 2 18.2898 102.8108 24.3389 0.0000 2.6438 0.0000
# 3 10.7374 24.3389 70.6847 0.0000 10.7844 0.0000
# 4 0.0000 0.0000 0.0000 21.8547 0.0000 2.4223
# 5 13.1447 2.6438 10.7844 0.0000 23.7885 0.0000
# 6 0.0000 0.0000 0.0000 2.4223 0.0000 22.7731
#
#
#
# Elastic Compliance Matrix: (Units=1/GPa)
#
#
# Indices 1 2 3 4 5 6 
#
# 1 0.014063 -0.002257 -0.000227 0.000000 -0.007417 0.000000
# 2 -0.002257 0.010958 -0.003690 0.000000 0.001702 0.000000
# 3 -0.000227 -0.003690 0.016513 0.000000 -0.006950 0.000000
# 4 0.000000 0.000000 0.000000 0.046303 0.000000 -0.004925
# 5 -0.007417 0.001702 -0.006950 0.000000 0.049097 0.000000
# 6 0.000000 0.000000 0.000000 -0.004925 0.000000 0.044435
#
#
# Mechanical properties :
#
#
# Convention : Reuss Voigt Hill
#
# Bulk Modulus (GPa) = 34.26501 40.15331 37.20916
# Shear Modulus (GPa) = 24.57660 27.10202 25.83931
#
# Velocity S-wave (km/s) = 3.49537 3.67056 3.58404
# Velocity P-wave (km/s) = 5.77270 6.15834 5.96863
#
# Compressibility (1/GPa) = 0.02918429
#
# Stress axis : x y z
#
# Youngs Moduli (GPa) = 71.11022 91.25824 60.55892
#
# Poissons Ratio (x) = 0.20598 0.01377
# Poissons Ratio (y) = 0.16051 0.22346
# Poissons Ratio (z) = 0.01617 0.33674
#
# Static dielectric constant tensor:
#      x y z
#    x 1.707920 0.000000 0.014020 
#    y 0.000000 1.775490 0.000000 
#    z 0.014020 0.000000 1.758260 
# 
# From -- ./inp_files/63891.got.cif
#   From: 2010.05.17/outbox.cif.g08.bks.cpg/sg11_32_cif.got.tgz:63891.got - 2010.06.03 12:22:45.
