data_PCOD9160170
_publ_section_title
;
Structure prediction by ZEFSAII (Michael W. Deem and Ramdas Pophale) SiO2 
 PCOD9160170
Probable space group: P 21/M
;
_chemical_formula_sum "Si O2"
_cell_formula_units_Z 32
_cell_length_a 9.251943
_cell_length_b 25.431060
_cell_length_c 14.065238
_cell_angle_alpha 90.000000
_cell_angle_beta 148.717060
_cell_angle_gamma 90.000000
_cell_volume 1718.435643
_symmetry_space_group_name_H-M "P 21/M"
_symmetry_group_IT_number 11
_symmetry_cell_setting 'monoclinic'
loop_
_space_group_symop_operation_xyz
x,y,z
-x,1/2+y,-z
-x,-y,-z
x,1/2-y,z
loop_
_atom_site_type_symbol
_atom_site_label
_atom_site_fract_x
_atom_site_fract_y
_atom_site_fract_z
Si Si1 0.993499 0.480123 0.601688
Si Si2 0.502516 0.914052 0.053644
Si Si3 0.925290 0.968827 0.748507
Si Si4 0.466279 0.415566 0.324552
Si Si5 0.132693 0.192062 0.918950
Si Si6 0.819470 0.577950 0.036757
Si Si7 0.217126 0.308592 0.739842
Si Si8 0.403681 0.691923 0.665620
O O1 0.876354 0.522659 0.609409
O O2 0.787489 0.431319 0.498237
O O3 0.000000 0.500000 0.500000
O O4 0.300013 0.461402 0.800739
O O5 0.586868 0.911927 0.988810
O O6 0.587879 0.859849 0.153841
O O7 0.192069 0.930917 0.902413
O O8 0.678778 0.943978 0.669741
O O9 0.006076 0.026893 0.833876
O O10 0.459681 0.352759 0.322031
O O11 0.319615 0.432366 0.143327
O O12 0.014651 0.250000 0.882066
O O13 0.014319 0.133770 0.876278
O O14 0.143852 0.193369 0.811277
O O15 0.434351 0.189819 0.142366
O O16 0.330324 0.250000 0.779358
O O17 0.929292 0.315920 0.519856
O O18 0.447545 0.750000 0.650426
#
# Coordination Sequence:
#
# PCOD9160170 Si02
#       8
#     4   4   4   4   4   4   4   4
#     4  11  21  35  53  75 103 144 183 220 263 324
#     4  10  19  35  52  75 103 136 181 216 267 317
#     4  11  22  34  50  77 112 143 172 224 270 334
#     4  11  20  34  53  80 108 137 179 219 278 327
#     4   8  15  27  48  77 102 128 173 225 267 307
#     4   9  18  32  53  73 103 139 175 217 263 319
#     4   9  16  30  53  78 102 133 179 229 268 313
#     4   9  17  31  52  79 104 135 179 226 264 319
#
# _framework density 18.621587000000002
#
# number of rings (size 3 to 8) (size 9 to 14) (size 15 to 20)
#    0.000    2.250    1.250    3.750    0.000    0.000 
#    0.000    0.625    0.000    0.000    0.000    1.750 
#    0.000    0.000    0.000    0.000    0.000    0.000 
#
# Total GULP energy -178153.795485 kJ/mol
# GULP energy per Si atom -5567.306109 kJ/mol
# Density = 1.857920 g / cm^3
# Si number density = 18.621587 Si / 1000 Ang^3
#
#
#
# Elastic Constant Matrix: (Units=GPa)
#
#
# Indices 1 2 3 4 5 6 
#
# 1 43.5436 22.1443 24.1554 0.0000 -3.8831 0.0000
# 2 22.1443 110.2561 12.0635 0.0000 8.0281 0.0000
# 3 24.1554 12.0635 30.1528 0.0000 -8.6529 0.0000
# 4 0.0000 0.0000 0.0000 26.6260 0.0000 -4.3772
# 5 -3.8831 8.0281 -8.6529 0.0000 22.7791 0.0000
# 6 0.0000 0.0000 0.0000 -4.3772 0.0000 9.0067
#
#
#
# Elastic Compliance Matrix: (Units=1/GPa)
#
#
# Indices 1 2 3 4 5 6 
#
# 1 0.044315 -0.004818 -0.034701 0.000000 -0.003929 0.000000
# 2 -0.004818 0.010632 -0.001914 0.000000 -0.005295 0.000000
# 3 -0.034701 -0.001914 0.067593 0.000000 0.020435 0.000000
# 4 0.000000 0.000000 0.000000 0.040818 0.000000 0.019837
# 5 -0.003929 -0.005295 0.020435 0.000000 0.052859 0.000000
# 6 0.000000 0.000000 0.000000 0.019837 0.000000 0.120670
#
#
# Mechanical properties :
#
#
# Convention : Reuss Voigt Hill
#
# Bulk Modulus (GPa) = 25.20443 33.40878 29.30660
# Shear Modulus (GPa) = 11.54792 20.05497 15.80144
#
# Velocity S-wave (km/s) = 2.49295 3.28529 2.91616
# Velocity P-wave (km/s) = 4.67449 5.68952 5.20680
#
# Compressibility (1/GPa) = 0.03967556
#
# Stress axis : x y z
#
# Youngs Moduli (GPa) = 22.56567 94.05225 14.79435
#
# Poissons Ratio (x) = 0.45310 0.51338
# Poissons Ratio (y) = 0.10871 0.02832
# Poissons Ratio (z) = 0.78305 0.18002
#
# Static dielectric constant tensor:
#      x y z
#    x 1.610620 0.000000 -0.026130 
#    y 0.000000 1.732490 0.000000 
#    z -0.026130 0.000000 1.680000 
# 
# From -- ./inp_files/48525.got.cif
#   From: 2010.05.17/outbox.cif.g08.bks.cpg/sg11_25_cif.got.tgz:48525.got - 2010.06.03 12:22:45.
