data_PCOD9160798
_publ_section_title
;
Structure prediction by ZEFSAII (Michael W. Deem and Ramdas Pophale) SiO2 
 PCOD9160798
Probable space group: P 21/M
;
_chemical_formula_sum "Si O2"
_cell_formula_units_Z 32
_cell_length_a 12.265870
_cell_length_b 14.155245
_cell_length_c 9.936794
_cell_angle_alpha 90.000000
_cell_angle_beta 128.801863
_cell_angle_gamma 90.000000
_cell_volume 1344.548627
_symmetry_space_group_name_H-M "P 21/M"
_symmetry_group_IT_number 11
_symmetry_cell_setting 'monoclinic'
loop_
_space_group_symop_operation_xyz
x,y,z
-x,1/2+y,-z
-x,-y,-z
x,1/2-y,z
loop_
_atom_site_type_symbol
_atom_site_label
_atom_site_fract_x
_atom_site_fract_y
_atom_site_fract_z
Si Si1 0.482431 0.363671 0.391199
Si Si2 0.064335 0.895222 0.932594
Si Si3 0.540028 0.634704 0.327120
Si Si4 0.729044 0.365620 0.388472
Si Si5 0.039708 0.136099 0.682232
Si Si6 0.323892 0.643377 0.952408
Si Si7 0.866047 0.635433 0.543121
Si Si8 0.168197 0.092302 0.058922
O O1 0.497447 0.250000 0.406646
O O2 0.508363 0.398055 0.563307
O O3 0.597542 0.398385 0.374495
O O4 0.322754 0.381498 0.223403
O O5 0.959300 0.914267 0.727528
O O6 0.137266 0.982810 0.063065
O O7 0.193476 0.849159 0.953643
O O8 0.956546 0.853463 0.958739
O O9 0.524819 0.750000 0.313949
O O10 0.447198 0.595980 0.133096
O O11 0.703443 0.616161 0.437789
O O12 0.730198 0.250000 0.387793
O O13 0.877382 0.392490 0.567427
O O14 0.718106 0.398083 0.224413
O O15 0.044923 0.250000 0.691385
O O16 0.089708 0.108733 0.572452
O O17 0.139888 0.102221 0.878555
O O18 0.371760 0.750000 0.956990
O O19 0.888674 0.750000 0.576593
#
# Coordination Sequence:
#
# PCOD9160798 Si02
#       8
#     4   4   4   4   4   4   4   4
#     4  10  20  37  58  83 116 149 186 239 289 339
#     4  11  23  41  58  80 117 156 199 238 280 336
#     4   9  19  33  57  88 111 142 190 235 285 336
#     4   9  19  35  57  87 118 142 181 238 291 338
#     4  10  21  37  61  90 113 146 190 237 291 344
#     4  10  20  37  61  85 111 148 191 240 286 338
#     4  10  19  37  63  87 112 146 192 242 287 339
#     4  11  25  39  56  84 118 156 196 236 284 340
#
# _framework density 23.799809
#
# number of rings (size 3 to 8) (size 9 to 14) (size 15 to 20)
#    0.000    2.000    2.500    0.750    3.500    2.000 
#    0.000    2.500    0.000    0.000    0.000    0.000 
#    0.000    0.000    0.000    0.000    0.000    0.000 
#
# Total GULP energy -178878.279935 kJ/mol
# GULP energy per Si atom -5589.946248 kJ/mol
# Density = 2.374564 g / cm^3
# Si number density = 23.799809 Si / 1000 Ang^3
#
#
#
# Elastic Constant Matrix: (Units=GPa)
#
#
# Indices 1 2 3 4 5 6 
#
# 1 92.8744 3.0755 4.1582 0.0000 -6.4401 0.0000
# 2 3.0755 47.7645 -3.7662 0.0000 2.5345 0.0000
# 3 4.1582 -3.7662 105.4218 0.0000 3.5550 0.0000
# 4 0.0000 0.0000 0.0000 -6.6544 0.0000 -22.7548
# 5 -6.4401 2.5345 3.5550 0.0000 33.6530 0.0000
# 6 0.0000 0.0000 0.0000 -22.7548 0.0000 -19.3435
#
#
#
# Elastic Compliance Matrix: (Units=1/GPa)
#
#
# Indices 1 2 3 4 5 6 
#
# 1 0.010974 -0.000867 -0.000539 0.000000 0.002222 0.000000
# 2 -0.000867 0.021157 0.000852 0.000000 -0.001849 0.000000
# 3 -0.000539 0.000852 0.009577 0.000000 -0.001179 0.000000
# 4 0.000000 0.000000 0.000000 0.049719 0.000000 -0.058487
# 5 0.002222 -0.001849 -0.001179 0.000000 0.030404 0.000000
# 6 0.000000 0.000000 0.000000 -0.058487 0.000000 0.017104
#
#
# Mechanical properties :
#
#
# Convention : Reuss Voigt Hill
#
# Bulk Modulus (GPa) = 24.62945 28.11062 26.37004
# Shear Modulus (GPa) = 32.55716 17.70389 25.13052
#
# Velocity S-wave (km/s) = 3.70261 2.73035 3.25301
# Velocity P-wave (km/s) = 5.35258 4.66655 5.02129
#
# Compressibility (1/GPa) = 0.04060180
#
# Stress axis : x y z
#
# Youngs Moduli (GPa) = 91.12316 47.26517 104.41504
#
# Poissons Ratio (x) = 0.04098 0.05626
# Poissons Ratio (y) = 0.07900 -0.08900
# Poissons Ratio (z) = 0.04909 -0.04029
#
# Static dielectric constant tensor:
#      x y z
#    x 1.881080 0.000000 -0.025490 
#    y 0.000000 2.004330 0.000000 
#    z -0.025490 0.000000 1.833900 
# 
# From -- ./inp_files/19405.got.cif
#   From: 2010.05.17/outbox.cif.g08.bks.cpg/sg11_10_cif.got.tgz:19405.got - 2010.06.03 12:22:45.
