data_PCOD9160902
_publ_section_title
;
Structure prediction by ZEFSAII (Michael W. Deem and Ramdas Pophale) SiO2 
 PCOD9160902
Probable space group: P 21/M
;
_chemical_formula_sum "Si O2"
_cell_formula_units_Z 22
_cell_length_a 9.030890
_cell_length_b 14.382838
_cell_length_c 9.359811
_cell_angle_alpha 90.000000
_cell_angle_beta 75.510961
_cell_angle_gamma 90.000000
_cell_volume 1177.078128
_symmetry_space_group_name_H-M "P 21/M"
_symmetry_group_IT_number 11
_symmetry_cell_setting 'monoclinic'
loop_
_space_group_symop_operation_xyz
x,y,z
-x,1/2+y,-z
-x,-y,-z
x,1/2-y,z
loop_
_atom_site_type_symbol
_atom_site_label
_atom_site_fract_x
_atom_site_fract_y
_atom_site_fract_z
Si Si1 0.815127 0.356716 0.422231
Si Si2 0.603235 0.250000 0.283612
Si Si3 0.457343 0.750000 0.040885
Si Si4 0.972963 0.750000 0.261713
Si Si5 0.132287 0.095621 0.246784
Si Si6 0.242376 0.894273 0.245822
Si Si7 0.261505 0.250000 0.424246
Si Si8 0.178284 0.250000 0.009556
O O1 0.874113 0.250000 0.436481
O O2 0.700370 0.338195 0.318658
O O3 0.737559 0.389379 0.587074
O O4 0.960367 0.418226 0.347068
O O5 0.575260 0.250000 0.121454
O O6 0.442179 0.250000 0.403361
O O7 0.637635 0.750000 0.027218
O O8 0.375613 0.838928 0.132915
O O9 0.841385 0.750000 0.411412
O O10 0.085760 0.837900 0.252617
O O11 0.892841 0.750000 0.128541
O O12 0.219906 0.159754 0.340137
O O13 0.122162 0.159238 0.109049
O O14 0.219075 0.999706 0.204514
#
# Coordination Sequence:
#
# PCOD9160902 Si02
#       8
#     4   2   2   2   4   4   2   2
#     4  10  19  39  64  87 115 159 197 247 293 347
#     4  10  21  39  65  83 122 163 197 237 307 346
#     4  11  23  42  58  85 128 160 193 243 304 356
#     4  11  23  39  61  93 115 157 205 246 296 347
#     4  11  21  42  64  86 121 158 202 244 295 352
#     4  11  23  39  64  91 119 156 198 252 296 349
#     4  11  20  41  63  86 119 162 198 244 296 356
#     4  11  25  41  59  87 126 162 193 246 297 359
#
# _framework density 18.690346999999999
#
# number of rings (size 3 to 8) (size 9 to 14) (size 15 to 20)
#    0.545    0.727    7.273    0.545    7.636    1.455 
#    0.000    0.909    0.000    0.000    0.000    0.000 
#    0.000    0.000    0.000    0.000    0.000    0.000 
#
# Total GULP energy -122773.822959 kJ/mol
# GULP energy per Si atom -5580.628316 kJ/mol
# Density = 1.864781 g / cm^3
# Si number density = 18.690347 Si / 1000 Ang^3
#
#
#
# Elastic Constant Matrix: (Units=GPa)
#
#
# Indices 1 2 3 4 5 6 
#
# 1 62.0512 -6.0250 17.9029 0.0000 -1.0422 0.0000
# 2 -6.0250 86.2036 19.4402 0.0000 2.3949 0.0000
# 3 17.9029 19.4402 98.3858 0.0000 3.1540 0.0000
# 4 0.0000 0.0000 0.0000 -1.8922 0.0000 2.3240
# 5 -1.0422 2.3949 3.1540 0.0000 28.2335 0.0000
# 6 0.0000 0.0000 0.0000 2.3240 0.0000 -1.0500
#
#
#
# Elastic Compliance Matrix: (Units=1/GPa)
#
#
# Indices 1 2 3 4 5 6 
#
# 1 0.017357 0.001996 -0.003581 0.000000 0.000871 0.000000
# 2 0.001996 0.012388 -0.002790 0.000000 -0.000665 0.000000
# 3 -0.003581 -0.002790 0.011404 0.000000 -0.001170 0.000000
# 4 0.000000 0.000000 0.000000 0.307538 0.000000 0.680684
# 5 0.000871 -0.000665 -0.001170 0.000000 0.035638 0.000000
# 6 0.000000 0.000000 0.000000 0.680684 0.000000 0.554213
#
#
# Mechanical properties :
#
#
# Convention : Reuss Voigt Hill
#
# Bulk Modulus (GPa) = 30.86303 34.36409 32.61356
# Shear Modulus (GPa) = 5.21873 19.41308 12.31591
#
# Velocity S-wave (km/s) = 1.67280 3.22634 2.56978
# Velocity P-wave (km/s) = 4.50330 5.68374 5.12760
#
# Compressibility (1/GPa) = 0.03240122
#
# Stress axis : x y z
#
# Youngs Moduli (GPa) = 57.61250 80.72609 87.68569
#
# Poissons Ratio (x) = -0.16117 0.31399
# Poissons Ratio (y) = -0.11502 0.24461
# Poissons Ratio (z) = 0.20630 0.22520
#
# Static dielectric constant tensor:
#      x y z
#    x 1.635090 0.000000 -0.002440 
#    y 0.000000 1.646160 0.000000 
#    z -0.002440 0.000000 1.648880 
# 
# From -- ./inp_files/12508.got.cif
#   From: 2010.05.17/outbox.cif.g08.bks.cpg/sg11_7_cif.got.tgz:12508.got - 2010.06.03 12:22:45.
