data_PCOD9160837
_publ_section_title
;
Structure prediction by ZEFSAII (Michael W. Deem and Ramdas Pophale) SiO2 
 PCOD9160837
Probable space group: P 21/M
;
_chemical_formula_sum "Si O2"
_cell_formula_units_Z 32
_cell_length_a 10.766527
_cell_length_b 12.020106
_cell_length_c 11.897792
_cell_angle_alpha 90.000000
_cell_angle_beta 86.312871
_cell_angle_gamma 90.000000
_cell_volume 1536.563177
_symmetry_space_group_name_H-M "P 21/M"
_symmetry_group_IT_number 11
_symmetry_cell_setting 'monoclinic'
loop_
_space_group_symop_operation_xyz
x,y,z
-x,1/2+y,-z
-x,-y,-z
x,1/2-y,z
loop_
_atom_site_type_symbol
_atom_site_label
_atom_site_fract_x
_atom_site_fract_y
_atom_site_fract_z
Si Si1 0.176728 0.921441 0.228897
Si Si2 0.422328 0.528031 0.326884
Si Si3 0.351502 0.120754 0.544247
Si Si4 0.953301 0.373942 0.543854
Si Si5 0.602049 0.123071 0.190911
Si Si6 0.206298 0.575304 0.631324
Si Si7 0.024222 0.121683 0.193776
Si Si8 0.172299 0.878441 0.968540
O O1 0.073259 0.878123 0.322045
O O2 0.310370 0.905624 0.276611
O O3 0.168998 0.880264 0.102148
O O4 0.144059 0.051764 0.218810
O O5 0.526364 0.599994 0.386005
O O6 0.373377 0.441564 0.424557
O O7 0.489000 0.457679 0.224461
O O8 0.327995 0.250000 0.531149
O O9 0.239089 0.054286 0.611386
O O10 0.011361 0.250000 0.513675
O O11 0.819785 0.373438 0.488096
O O12 0.000000 0.500000 0.500000
O O13 0.565283 0.250000 0.165878
O O14 0.680542 0.123419 0.303374
O O15 0.700166 0.075595 0.093335
O O16 0.081631 0.604067 0.706059
O O17 0.056000 0.250000 0.180915
O O18 0.951249 0.079139 0.087086
O O19 0.176869 0.750000 0.930058
#
# Coordination Sequence:
#
# PCOD9160837 Si02
#       8
#     4   4   4   4   4   4   4   4
#     4  12  23  38  58  91 125 158 198 251 310 371
#     4  10  22  37  54  89 117 159 202 245 312 358
#     4  10  21  38  58  85 124 161 204 254 303 364
#     4  12  25  40  59  90 129 168 204 251 311 375
#     4   9  18  36  63  83 108 153 204 250 294 358
#     4  10  19  38  59  86 115 157 204 246 298 358
#     4  10  21  39  63  87 118 160 204 251 302 364
#     4   9  20  39  61  84 110 153 206 254 305 363
#
# _framework density 20.825697999999999
#
# number of rings (size 3 to 8) (size 9 to 14) (size 15 to 20)
#    0.000    1.750    2.500    3.000    0.000    3.000 
#    0.000    0.000    0.000    6.750    0.000    0.000 
#    0.000    0.000    0.000    0.000    0.000    0.000 
#
# Total GULP energy -178320.120026 kJ/mol
# GULP energy per Si atom -5572.503751 kJ/mol
# Density = 2.077830 g / cm^3
# Si number density = 20.825698 Si / 1000 Ang^3
#
#
#
# Elastic Constant Matrix: (Units=GPa)
#
#
# Indices 1 2 3 4 5 6 
#
# 1 37.3562 4.7578 5.3357 0.0000 5.7061 0.0000
# 2 4.7578 105.3062 8.2221 0.0000 -10.9792 0.0000
# 3 5.3357 8.2221 105.1455 0.0000 1.8832 0.0000
# 4 0.0000 0.0000 0.0000 -7.7650 0.0000 -7.1163
# 5 5.7061 -10.9792 1.8832 0.0000 25.7824 0.0000
# 6 0.0000 0.0000 0.0000 -7.1163 0.0000 13.3533
#
#
#
# Elastic Compliance Matrix: (Units=1/GPa)
#
#
# Indices 1 2 3 4 5 6 
#
# 1 0.028245 -0.001914 -0.001159 0.000000 -0.006981 0.000000
# 2 -0.001914 0.010144 -0.000782 0.000000 0.004800 0.000000
# 3 -0.001159 -0.000782 0.009645 0.000000 -0.000781 0.000000
# 4 0.000000 0.000000 0.000000 -0.086524 0.000000 -0.046111
# 5 -0.006981 0.004800 -0.000781 0.000000 0.042433 0.000000
# 6 0.000000 0.000000 0.000000 -0.046111 0.000000 0.050314
#
#
# Mechanical properties :
#
#
# Convention : Reuss Voigt Hill
#
# Bulk Modulus (GPa) = 24.79847 31.60434 28.20141
# Shear Modulus (GPa) = 66.30749 21.57362 43.94056
#
# Velocity S-wave (km/s) = 5.64875 3.22205 4.59837
# Velocity P-wave (km/s) = 7.38092 5.38988 6.46254
#
# Compressibility (1/GPa) = 0.04032506
#
# Stress axis : x y z
#
# Youngs Moduli (GPa) = 35.40458 98.57914 103.68524
#
# Poissons Ratio (x) = 0.18863 0.12013
# Poissons Ratio (y) = 0.06775 0.08109
# Poissons Ratio (z) = 0.04102 0.07710
#
# Static dielectric constant tensor:
#      x y z
#    x 1.776710 0.000000 -0.005360 
#    y 0.000000 1.788480 0.000000 
#    z -0.005360 0.000000 1.772370 
# 
# From -- ./inp_files/34780.got.cif
#   From: 2010.05.17/outbox.cif.g08.bks.cpg/sg11_18_cif.got.tgz:34780.got - 2010.06.03 12:22:45.
