data_PCOD9160531
_publ_section_title
;
Structure prediction by ZEFSAII (Michael W. Deem and Ramdas Pophale) SiO2 
 PCOD9160531
Probable space group: P 21/M
;
_chemical_formula_sum "Si O2"
_cell_formula_units_Z 26
_cell_length_a 8.861968
_cell_length_b 28.463417
_cell_length_c 7.038968
_cell_angle_alpha 90.000000
_cell_angle_beta 131.151334
_cell_angle_gamma 90.000000
_cell_volume 1336.922558
_symmetry_space_group_name_H-M "P 21/M"
_symmetry_group_IT_number 11
_symmetry_cell_setting 'monoclinic'
loop_
_space_group_symop_operation_xyz
x,y,z
-x,1/2+y,-z
-x,-y,-z
x,1/2-y,z
loop_
_atom_site_type_symbol
_atom_site_label
_atom_site_fract_x
_atom_site_fract_y
_atom_site_fract_z
Si Si1 0.961155 0.250000 0.614882
Si Si2 0.451203 0.846153 0.349311
Si Si3 0.570771 0.250000 0.446680
Si Si4 0.580792 0.483403 0.867665
Si Si5 0.880947 0.750000 0.851876
Si Si6 0.904131 0.404330 0.125635
Si Si7 0.326227 0.432376 0.337305
Si Si8 0.142452 0.173500 0.498317
O O1 0.719546 0.250000 0.389371
O O2 0.069276 0.205251 0.611296
O O3 0.970767 0.250000 0.850119
O O4 0.404868 0.797293 0.410570
O O5 0.554136 0.883322 0.579385
O O6 0.621440 0.838153 0.327187
O O7 0.250993 0.869562 0.105266
O O8 0.332008 0.250000 0.215592
O O9 0.416285 0.454798 0.606917
O O10 0.635258 0.529194 0.790354
O O11 0.500000 0.500000 0.000000
O O12 0.770670 0.449609 0.060362
O O13 0.896050 0.705371 0.723528
O O14 0.092479 0.420839 0.157014
O O15 0.011776 0.373763 0.378359
#
# Coordination Sequence:
#
# PCOD9160531 Si02
#       8
#     2   4   2   4   2   4   4   4
#     4  11  21  33  54  80 106 143 187 231 278 330
#     4   9  19  37  58  79 112 150 183 228 276 322
#     4  10  20  34  56  86 110 144 192 226 272 334
#     4  10  21  37  59  85 113 143 180 231 282 328
#     4   9  19  37  54  74 110 145 181 233 278 322
#     4  10  19  36  58  79 110 149 183 226 279 329
#     4   9  20  39  59  83 111 145 188 225 273 334
#     4   9  20  36  53  77 108 143 186 228 274 335
#
# _framework density 19.447647
#
# number of rings (size 3 to 8) (size 9 to 14) (size 15 to 20)
#    0.000    2.462    0.000    1.846    0.000    3.692 
#    0.000   20.000    0.000    0.000    0.000    0.000 
#    0.000    0.000    0.000    0.000    0.000    0.000 
#
# Total GULP energy -144955.227015 kJ/mol
# GULP energy per Si atom -5575.201039 kJ/mol
# Density = 1.940338 g / cm^3
# Si number density = 19.447647 Si / 1000 Ang^3
#
#
#
# Elastic Constant Matrix: (Units=GPa)
#
#
# Indices 1 2 3 4 5 6 
#
# 1 114.5225 66.1109 49.8789 0.0000 28.1598 0.0000
# 2 66.1109 132.2572 32.0149 0.0000 5.0064 0.0000
# 3 49.8789 32.0149 52.4164 0.0000 1.6387 0.0000
# 4 0.0000 0.0000 0.0000 3.0749 0.0000 23.3716
# 5 28.1598 5.0064 1.6387 0.0000 27.7073 0.0000
# 6 0.0000 0.0000 0.0000 23.3716 0.0000 23.7075
#
#
#
# Elastic Compliance Matrix: (Units=1/GPa)
#
#
# Indices 1 2 3 4 5 6 
#
# 1 0.030809 -0.008736 -0.023095 0.000000 -0.028368 0.000000
# 2 -0.008736 0.011396 0.001142 0.000000 0.006752 0.000000
# 3 -0.023095 0.001142 0.039704 0.000000 0.020918 0.000000
# 4 0.000000 0.000000 0.000000 -0.050086 0.000000 0.049377
# 5 -0.028368 0.006752 0.020918 0.000000 0.062465 0.000000
# 6 0.000000 0.000000 0.000000 0.049377 0.000000 -0.006496
#
#
# Mechanical properties :
#
#
# Convention : Reuss Voigt Hill
#
# Bulk Modulus (GPa) = 48.70924 66.13394 57.42159
# Shear Modulus (GPa) = 32.04849 20.97737 26.51293
#
# Velocity S-wave (km/s) = 4.06388 3.28786 3.69629
# Velocity P-wave (km/s) = 6.86447 6.96371 6.91427
#
# Compressibility (1/GPa) = 0.02052999
#
# Stress axis : x y z
#
# Youngs Moduli (GPa) = 32.45796 87.75039 25.18663
#
# Poissons Ratio (x) = 0.76660 0.58168
# Poissons Ratio (y) = 0.28356 -0.02876
# Poissons Ratio (z) = 0.74961 -0.10018
#
# Static dielectric constant tensor:
#      x y z
#    x 1.672540 0.000000 0.032140 
#    y 0.000000 1.695620 0.000000 
#    z 0.032140 0.000000 1.683700 
# 
# From -- ./inp_files/3308.got.cif
#   From: 2010.05.17/outbox.cif.g08.bks.cpg/sg11_2_cif.got.tgz:3308.got - 2010.06.03 12:22:45.
