data_PCOD9160387
_publ_section_title
;
Structure prediction by ZEFSAII (Michael W. Deem and Ramdas Pophale) SiO2 
 PCOD9160387
Probable space group: P 21/M
;
_chemical_formula_sum "Si O2"
_cell_formula_units_Z 24
_cell_length_a 9.188278
_cell_length_b 10.847978
_cell_length_c 19.521173
_cell_angle_alpha 90.000000
_cell_angle_beta 34.824711
_cell_angle_gamma 90.000000
_cell_volume 1111.159501
_symmetry_space_group_name_H-M "P 21/M"
_symmetry_group_IT_number 11
_symmetry_cell_setting 'monoclinic'
loop_
_space_group_symop_operation_xyz
x,y,z
-x,1/2+y,-z
-x,-y,-z
x,1/2-y,z
loop_
_atom_site_type_symbol
_atom_site_label
_atom_site_fract_x
_atom_site_fract_y
_atom_site_fract_z
Si Si1 0.030585 0.889494 0.737299
Si Si2 0.280633 0.006693 0.860229
Si Si3 0.533312 0.390138 0.085857
Si Si4 0.351809 0.383623 0.372223
Si Si5 0.905561 0.617161 0.195713
Si Si6 0.854113 0.112074 0.468210
O O1 0.096948 0.750000 0.734424
O O2 0.722656 0.901406 0.858584
O O3 0.103504 0.900242 0.629205
O O4 0.143823 0.000818 0.737006
O O5 0.256782 0.111888 0.812211
O O6 0.455881 0.995222 0.859702
O O7 0.387425 0.897725 0.771041
O O8 0.000000 0.000000 0.000000
O O9 0.522353 0.250000 0.120618
O O10 0.797808 0.393867 0.942530
O O11 0.334191 0.250000 0.412972
O O12 0.303411 0.498319 0.440825
O O13 0.124236 0.391267 0.403904
O O14 0.871587 0.750000 0.242732
O O15 0.747028 0.250000 0.522474
#
# Coordination Sequence:
#
# PCOD9160387 Si02
#       6
#     4   4   4   4   4   4
#     4  10  19  35  59  84 112 152 196 236 285 348
#     4  10  20  35  57  84 115 153 193 234 285 344
#     4   9  17  34  58  82 112 151 195 241 287 341
#     4  10  19  35  60  87 114 148 192 242 293 345
#     4  10  22  36  52  82 122 155 187 237 293 343
#     4   9  19  35  58  87 116 147 190 243 291 342
#
# _framework density 21.599059
#
# number of rings (size 3 to 8) (size 9 to 14) (size 15 to 20)
#    0.000    2.333    1.667    1.000    0.000    3.333 
#    0.000    4.167    0.000    0.000    0.000    0.000 
#    0.000    0.000    0.000    0.000    0.000    0.000 
#
# Total GULP energy -133711.682328 kJ/mol
# GULP energy per Si atom -5571.320097 kJ/mol
# Density = 2.154990 g / cm^3
# Si number density = 21.599059 Si / 1000 Ang^3
#
#
#
# Elastic Constant Matrix: (Units=GPa)
#
#
# Indices 1 2 3 4 5 6 
#
# 1 84.7989 60.6071 12.0625 0.0000 0.5483 0.0000
# 2 60.6071 188.8392 45.7944 0.0000 17.2356 0.0000
# 3 12.0625 45.7944 70.4777 0.0000 -9.2150 0.0000
# 4 0.0000 0.0000 0.0000 21.5498 0.0000 9.8140
# 5 0.5483 17.2356 -9.2150 0.0000 23.5637 0.0000
# 6 0.0000 0.0000 0.0000 9.8140 0.0000 24.7414
#
#
#
# Elastic Compliance Matrix: (Units=1/GPa)
#
#
# Indices 1 2 3 4 5 6 
#
# 1 0.015726 -0.005891 0.001741 0.000000 0.004624 0.000000
# 2 -0.005891 0.009617 -0.006473 0.000000 -0.009428 0.000000
# 3 0.001741 -0.006473 0.019719 0.000000 0.012406 0.000000
# 4 0.000000 0.000000 0.000000 0.056635 0.000000 -0.022465
# 5 0.004624 -0.009428 0.012406 0.000000 0.054078 0.000000
# 6 0.000000 0.000000 0.000000 -0.022465 0.000000 0.049329
#
#
# Mechanical properties :
#
#
# Convention : Reuss Voigt Hill
#
# Bulk Modulus (GPa) = 41.99082 64.56043 53.27563
# Shear Modulus (GPa) = 21.34125 29.01444 25.17784
#
# Velocity S-wave (km/s) = 3.14676 3.66911 3.41793
# Velocity P-wave (km/s) = 5.71717 6.92135 6.34788
#
# Compressibility (1/GPa) = 0.02381473
#
# Stress axis : x y z
#
# Youngs Moduli (GPa) = 63.59009 103.98661 50.71272
#
# Poissons Ratio (x) = 0.61263 -0.08830
# Poissons Ratio (y) = 0.37464 0.32827
# Poissons Ratio (z) = -0.11072 0.67311
#
# Static dielectric constant tensor:
#      x y z
#    x 1.804020 0.000000 -0.023410 
#    y 0.000000 1.780180 0.000000 
#    z -0.023410 0.000000 1.793150 
# 
# From -- ./inp_files/68372.got.cif
#   From: 2010.05.17/outbox.cif.g08.bks.cpg/sg11_35_cif.got.tgz:68372.got - 2010.06.03 12:22:45.
