data_PCOD9160065
_publ_section_title
;
Structure prediction by ZEFSAII (Michael W. Deem and Ramdas Pophale) SiO2 
 PCOD9160065
Probable space group: P 21/M
;
_chemical_formula_sum "Si O2"
_cell_formula_units_Z 32
_cell_length_a 11.957100
_cell_length_b 9.488100
_cell_length_c 14.311050
_cell_angle_alpha 90.000000
_cell_angle_beta 75.991728
_cell_angle_gamma 90.000000
_cell_volume 1575.306607
_symmetry_space_group_name_H-M "P 21/M"
_symmetry_group_IT_number 11
_symmetry_cell_setting 'monoclinic'
loop_
_space_group_symop_operation_xyz
x,y,z
-x,1/2+y,-z
-x,-y,-z
x,1/2-y,z
loop_
_atom_site_type_symbol
_atom_site_label
_atom_site_fract_x
_atom_site_fract_y
_atom_site_fract_z
Si Si1 0.389039 0.578147 0.480586
Si Si2 0.307167 0.409041 0.828314
Si Si3 0.435488 0.906326 0.936495
Si Si4 0.294324 0.919149 0.304312
Si Si5 0.030742 0.582223 0.399937
Si Si6 0.763934 0.093328 0.878559
Si Si7 0.792594 0.581897 0.356291
Si Si8 0.100887 0.091092 0.022519
O O1 0.500000 0.500000 0.500000
O O2 0.396845 0.750000 0.485510
O O3 0.370010 0.532893 0.376172
O O4 0.279573 0.517309 0.559507
O O5 0.355834 0.250000 0.812217
O O6 0.252127 0.445405 0.739579
O O7 0.404501 0.513560 0.847429
O O8 0.204860 0.405243 0.925779
O O9 0.486321 0.750000 0.913790
O O10 0.313807 0.889453 0.014658
O O11 0.500000 0.000000 0.000000
O O12 0.303242 0.750000 0.307501
O O13 0.159936 0.958779 0.344922
O O14 0.314897 0.956106 0.192172
O O15 0.032727 0.750000 0.417863
O O16 0.000000 0.500000 0.500000
O O17 0.928555 0.557210 0.345973
O O18 0.812488 0.250000 0.845869
O O19 0.857483 0.980895 0.890247
O O20 0.771603 0.750000 0.379536
O O21 0.062676 0.250000 0.046324
O O22 0.000000 0.000000 0.000000
#
# Coordination Sequence:
#
# PCOD9160065 Si02
#       8
#     4   4   4   4   4   4   4   4
#     4  11  23  40  60  84 115 152 192 238 288 341
#     4   9  20  37  56  79 109 147 188 229 274 333
#     4  10  20  35  57  83 110 145 187 236 285 332
#     4   9  19  36  59  83 111 149 189 229 281 342
#     4  10  19  34  58  84 112 147 188 233 283 340
#     4   9  19  36  57  79 106 142 186 230 272 328
#     4  10  21  37  59  86 114 149 193 236 285 343
#     4  10  20  34  53  79 112 148 182 222 271 325
#
# _framework density 20.313504999999999
#
# number of rings (size 3 to 8) (size 9 to 14) (size 15 to 20)
#    0.000    2.250    1.250    1.125    1.750    2.500 
#    0.000    4.375    0.000    0.000    0.000    0.000 
#    0.000    0.000    0.000    0.000    0.000    0.000 
#
# Total GULP energy -178396.560998 kJ/mol
# GULP energy per Si atom -5574.892531 kJ/mol
# Density = 2.026727 g / cm^3
# Si number density = 20.313505 Si / 1000 Ang^3
#
#
#
# Elastic Constant Matrix: (Units=GPa)
#
#
# Indices 1 2 3 4 5 6 
#
# 1 70.1504 43.6231 17.9520 0.0000 37.3801 0.0000
# 2 43.6231 105.9846 32.8828 0.0000 35.6062 0.0000
# 3 17.9520 32.8828 105.1722 0.0000 42.0251 0.0000
# 4 0.0000 0.0000 0.0000 26.7451 0.0000 7.1659
# 5 37.3801 35.6062 42.0251 0.0000 45.8949 0.0000
# 6 0.0000 0.0000 0.0000 7.1659 0.0000 30.7365
#
#
#
# Elastic Compliance Matrix: (Units=1/GPa)
#
#
# Indices 1 2 3 4 5 6 
#
# 1 0.030323 -0.005685 0.007424 0.000000 -0.027085 0.000000
# 2 -0.005685 0.013828 -0.001445 0.000000 -0.004774 0.000000
# 3 0.007424 -0.001445 0.016813 0.000000 -0.020321 0.000000
# 4 0.000000 0.000000 0.000000 0.039881 0.000000 -0.009298
# 5 -0.027085 -0.004774 -0.020321 0.000000 0.066160 0.000000
# 6 0.000000 0.000000 0.000000 -0.009298 0.000000 0.034702
#
#
# Mechanical properties :
#
#
# Convention : Reuss Voigt Hill
#
# Bulk Modulus (GPa) = 16.24673 52.24699 34.24686
# Shear Modulus (GPa) = 22.55964 33.13192 27.84578
#
# Velocity S-wave (km/s) = 3.33614 4.04298 3.70645
# Velocity P-wave (km/s) = 4.78071 6.89713 5.93404
#
# Compressibility (1/GPa) = 0.06155086
#
# Stress axis : x y z
#
# Youngs Moduli (GPa) = 32.97869 72.31961 59.47923
#
# Poissons Ratio (x) = 0.41113 -0.44159
# Poissons Ratio (y) = 0.18748 0.08596
# Poissons Ratio (z) = -0.24484 0.10452
#
# Static dielectric constant tensor:
#      x y z
#    x 1.755490 0.000000 -0.028670 
#    y 0.000000 1.748010 0.000000 
#    z -0.028670 0.000000 1.747680 
# 
# From -- ./inp_files/38071.got.cif
#   From: 2010.05.17/outbox.cif.g08.bks.cpg/sg11_20_cif.got.tgz:38071.got - 2010.06.03 12:22:45.
