data_PCOD9160193
_publ_section_title
;
Structure prediction by ZEFSAII (Michael W. Deem and Ramdas Pophale) SiO2 
 PCOD9160193
Probable space group: P 21/M
;
_chemical_formula_sum "Si O2"
_cell_formula_units_Z 32
_cell_length_a 19.005575
_cell_length_b 14.496989
_cell_length_c 12.035043
_cell_angle_alpha 90.000000
_cell_angle_beta 31.795957
_cell_angle_gamma 90.000000
_cell_volume 1747.154151
_symmetry_space_group_name_H-M "P 21/M"
_symmetry_group_IT_number 11
_symmetry_cell_setting 'monoclinic'
loop_
_space_group_symop_operation_xyz
x,y,z
-x,1/2+y,-z
-x,-y,-z
x,1/2-y,z
loop_
_atom_site_type_symbol
_atom_site_label
_atom_site_fract_x
_atom_site_fract_y
_atom_site_fract_z
Si Si1 0.869723 0.487344 0.749718
Si Si2 0.189429 0.971551 0.679181
Si Si3 0.349312 0.139945 0.959755
Si Si4 0.349759 0.639242 0.065660
Si Si5 0.656013 0.641218 0.275422
Si Si6 0.900177 0.505765 0.964023
Si Si7 0.607256 0.139047 0.739690
Si Si8 0.384256 0.360023 0.428699
O O1 0.785217 0.582081 0.853101
O O2 0.771405 0.409798 0.833639
O O3 0.900743 0.467115 0.837987
O O4 0.000000 0.500000 0.500000
O O5 0.291252 0.902240 0.485228
O O6 0.049163 0.969786 0.802728
O O7 0.259006 0.072790 0.575294
O O8 0.160253 0.950886 0.848557
O O9 0.326845 0.250000 0.997526
O O10 0.407233 0.117629 0.758564
O O11 0.457223 0.112306 0.906405
O O12 0.333770 0.750000 0.083634
O O13 0.356601 0.609190 0.184690
O O14 0.490763 0.618254 0.817049
O O15 0.677974 0.750000 0.244869
O O16 0.577010 0.620632 0.494297
O O17 0.798918 0.591961 0.091942
O O18 0.612495 0.250000 0.728872
O O19 0.353594 0.250000 0.458884
#
# Coordination Sequence:
#
# PCOD9160193 Si02
#       8
#     4   4   4   4   4   4   4   4
#     4  11  22  36  55  77 105 142 177 208 258 315
#     4  10  19  35  55  76 108 139 172 219 259 299
#     4   9  19  35  55  80 105 130 170 218 256 304
#     4  10  22  38  54  76 105 135 174 218 257 309
#     4   8  15  31  54  77 103 136 172 210 254 304
#     4   9  20  34  50  78 108 138 177 215 253 306
#     4  10  21  36  55  78 102 135 176 215 262 311
#     4   9  18  33  55  79 103 136 171 208 260 311
#
# _framework density 18.315498999999999
#
# number of rings (size 3 to 8) (size 9 to 14) (size 15 to 20)
#    0.000    2.500    0.000    1.500    0.000    5.000 
#    0.000   10.625    0.000    0.000    0.000    0.000 
#    0.000    0.000    0.000    0.000    0.000    0.000 
#
# Total GULP energy -178327.589763 kJ/mol
# GULP energy per Si atom -5572.737180 kJ/mol
# Density = 1.827381 g / cm^3
# Si number density = 18.315499 Si / 1000 Ang^3
#
#
#
# Elastic Constant Matrix: (Units=GPa)
#
#
# Indices 1 2 3 4 5 6 
#
# 1 144.9837 27.3108 55.2069 0.0000 13.3049 0.0000
# 2 27.3108 27.9914 15.5208 0.0000 7.7723 0.0000
# 3 55.2069 15.5208 102.7685 0.0000 18.3621 0.0000
# 4 0.0000 0.0000 0.0000 -11.5229 0.0000 7.3908
# 5 13.3049 7.7723 18.3621 0.0000 22.3982 0.0000
# 6 0.0000 0.0000 0.0000 7.3908 0.0000 21.1353
#
#
#
# Elastic Compliance Matrix: (Units=1/GPa)
#
#
# Indices 1 2 3 4 5 6 
#
# 1 0.009873 -0.007331 -0.004222 0.000000 0.000140 0.000000
# 2 -0.007331 0.046528 -0.001151 0.000000 -0.010848 0.000000
# 3 -0.004222 -0.001151 0.013653 0.000000 -0.008285 0.000000
# 4 0.000000 0.000000 0.000000 -0.070885 0.000000 0.024788
# 5 0.000140 -0.010848 -0.008285 0.000000 0.055120 0.000000
# 6 0.000000 0.000000 0.000000 0.024788 0.000000 0.038646
#
#
# Mechanical properties :
#
#
# Convention : Reuss Voigt Hill
#
# Bulk Modulus (GPa) = 22.39781 52.42450 37.41115
# Shear Modulus (GPa) = 37.53095 18.24913 27.89004
#
# Velocity S-wave (km/s) = 4.53165 3.15997 3.90648
# Velocity P-wave (km/s) = 6.29576 6.48066 6.38888
#
# Compressibility (1/GPa) = 0.04464722
#
# Stress axis : x y z
#
# Youngs Moduli (GPa) = 101.28743 21.49243 73.24630
#
# Poissons Ratio (x) = 0.15756 0.30921
# Poissons Ratio (y) = 0.74253 0.08428
# Poissons Ratio (z) = 0.42759 0.02473
#
# Static dielectric constant tensor:
#      x y z
#    x 1.649370 0.000000 0.038430 
#    y 0.000000 1.632630 0.000000 
#    z 0.038430 0.000000 1.605840 
# 
# From -- ./inp_files/41616.got.cif
#   From: 2010.05.17/outbox.cif.g08.bks.cpg/sg11_21_cif.got.tgz:41616.got - 2010.06.03 12:22:45.
