data_PCOD9160935
_publ_section_title
;
Structure prediction by ZEFSAII (Michael W. Deem and Ramdas Pophale) SiO2 
 PCOD9160935
Probable space group: P 21/M
;
_chemical_formula_sum "Si O2"
_cell_formula_units_Z 24
_cell_length_a 9.391275
_cell_length_b 16.863004
_cell_length_c 15.477638
_cell_angle_alpha 90.000000
_cell_angle_beta 27.334449
_cell_angle_gamma 90.000000
_cell_volume 1125.513472
_symmetry_space_group_name_H-M "P 21/M"
_symmetry_group_IT_number 11
_symmetry_cell_setting 'monoclinic'
loop_
_space_group_symop_operation_xyz
x,y,z
-x,1/2+y,-z
-x,-y,-z
x,1/2-y,z
loop_
_atom_site_type_symbol
_atom_site_label
_atom_site_fract_x
_atom_site_fract_y
_atom_site_fract_z
Si Si1 0.333478 0.530402 0.351842
Si Si2 0.776206 0.609417 0.976931
Si Si3 0.911306 0.250000 0.916847
Si Si4 0.423652 0.750000 0.086994
Si Si5 0.213151 0.250000 0.490800
Si Si6 0.540416 0.250000 0.498318
Si Si7 0.256295 0.566231 0.594873
Si Si8 0.310347 0.628332 0.827517
O O1 0.495737 0.584915 0.191890
O O2 0.269659 0.559016 0.484046
O O3 0.594505 0.461929 0.217324
O O4 0.000000 0.500000 0.500000
O O5 0.635024 0.674992 0.990489
O O6 0.945022 0.548948 0.819169
O O7 0.052100 0.638481 0.892370
O O8 0.734435 0.250000 0.921205
O O9 0.280164 0.250000 0.712041
O O10 0.817140 0.171306 0.019373
O O11 0.150880 0.750000 0.305210
O O12 0.349672 0.250000 0.512830
O O13 0.368330 0.173753 0.364613
O O14 0.690034 0.161690 0.419704
O O15 0.500000 0.500000 0.500000
#
# Coordination Sequence:
#
# PCOD9160935 Si02
#       8
#     4   4   2   2   2   2   4   4
#     4  12  28  46  67 106 146 189 242 310 379 441
#     4  12  25  45  75  99 144 190 246 294 370 449
#     4  10  25  38  75  98 140 182 238 303 369 434
#     4  11  25  44  65 108 137 191 236 305 373 438
#     4  10  19  41  70  94 144 176 232 304 364 427
#     4  11  21  43  70 108 137 185 248 298 364 441
#     4  12  26  46  76 109 146 197 251 310 368 449
#     4  11  22  46  68 102 136 188 241 303 366 442
#
# _framework density 21.323599999999999
#
# number of rings (size 3 to 8) (size 9 to 14) (size 15 to 20)
#    0.000    0.667    3.333    4.000    4.667    2.667 
#    0.000    0.000    0.000    0.000    0.000    0.000 
#    0.000    0.000    0.000    0.000    0.000    0.000 
#
# Total GULP energy -133811.039214 kJ/mol
# GULP energy per Si atom -5575.459967 kJ/mol
# Density = 2.127507 g / cm^3
# Si number density = 21.323600 Si / 1000 Ang^3
#
#
#
# Elastic Constant Matrix: (Units=GPa)
#
#
# Indices 1 2 3 4 5 6 
#
# 1 96.4806 38.5406 50.9080 0.0000 15.9334 0.0000
# 2 38.5406 70.5294 19.7689 0.0000 5.2084 0.0000
# 3 50.9080 19.7689 157.2291 0.0000 10.8670 0.0000
# 4 0.0000 0.0000 0.0000 61.3221 0.0000 27.9367
# 5 15.9334 5.2084 10.8670 0.0000 41.2495 0.0000
# 6 0.0000 0.0000 0.0000 27.9367 0.0000 45.7755
#
#
#
# Elastic Compliance Matrix: (Units=1/GPa)
#
#
# Indices 1 2 3 4 5 6 
#
# 1 0.016122 -0.007375 -0.003999 0.000000 -0.004243 0.000000
# 2 -0.007375 0.018150 0.000069 0.000000 0.000539 0.000000
# 3 -0.003999 0.000069 0.007680 0.000000 -0.000487 0.000000
# 4 0.000000 0.000000 0.000000 0.022587 0.000000 -0.013785
# 5 -0.004243 0.000539 -0.000487 0.000000 0.025942 0.000000
# 6 0.000000 0.000000 0.000000 -0.013785 0.000000 0.030259
#
#
# Mechanical properties :
#
#
# Convention : Reuss Voigt Hill
#
# Bulk Modulus (GPa) = 51.70775 60.29714 56.00244
# Shear Modulus (GPa) = 33.37817 44.00419 38.69118
#
# Velocity S-wave (km/s) = 3.96070 4.54766 4.26429
# Velocity P-wave (km/s) = 6.72443 7.47753 7.11096
#
# Compressibility (1/GPa) = 0.01933946
#
# Stress axis : x y z
#
# Youngs Moduli (GPa) = 62.02716 55.09730 130.20632
#
# Poissons Ratio (x) = 0.40637 0.52075
# Poissons Ratio (y) = 0.45748 -0.00895
# Poissons Ratio (z) = 0.24807 -0.00379
#
# Static dielectric constant tensor:
#      x y z
#    x 1.730600 0.000000 0.030550 
#    y 0.000000 1.826980 0.000000 
#    z 0.030550 0.000000 1.842800 
# 
# From -- ./inp_files/47970.got.cif
#   From: 2010.05.17/outbox.cif.g08.bks.cpg/sg11_24_cif.got.tgz:47970.got - 2010.06.03 12:22:45.
