data_PCOD9160138
_publ_section_title
;
Structure prediction by ZEFSAII (Michael W. Deem and Ramdas Pophale) SiO2 
 PCOD9160138
Probable space group: P 21/M
;
_chemical_formula_sum "Si O2"
_cell_formula_units_Z 32
_cell_length_a 12.571890
_cell_length_b 14.155738
_cell_length_c 18.311048
_cell_angle_alpha 90.000000
_cell_angle_beta 149.190600
_cell_angle_gamma 90.000000
_cell_volume 1669.060619
_symmetry_space_group_name_H-M "P 21/M"
_symmetry_group_IT_number 11
_symmetry_cell_setting 'monoclinic'
loop_
_space_group_symop_operation_xyz
x,y,z
-x,1/2+y,-z
-x,-y,-z
x,1/2-y,z
loop_
_atom_site_type_symbol
_atom_site_label
_atom_site_fract_x
_atom_site_fract_y
_atom_site_fract_z
Si Si1 0.467595 0.027941 0.804147
Si Si2 0.937660 0.456475 0.128260
Si Si3 0.936468 0.139889 0.851007
Si Si4 0.506118 0.141050 0.676427
Si Si5 0.191698 0.360684 0.149189
Si Si6 0.058847 0.358812 0.347223
Si Si7 0.364821 0.862300 0.644962
Si Si8 0.045082 0.471160 0.610166
O O1 0.469588 0.080879 0.727297
O O2 0.280657 0.065645 0.744468
O O3 0.417826 0.919890 0.750600
O O4 0.691568 0.041882 0.971039
O O5 0.011003 0.564896 0.180267
O O6 0.055595 0.419569 0.125397
O O7 0.001152 0.390394 0.232183
O O8 0.938134 0.250000 0.830376
O O9 0.713954 0.116697 0.755560
O O10 0.101704 0.126496 0.014386
O O11 0.530368 0.250000 0.714111
O O12 0.305747 0.134324 0.506998
O O13 0.166191 0.250000 0.152136
O O14 0.437011 0.382279 0.290635
O O15 0.998377 0.250000 0.326220
O O16 0.962635 0.436031 0.344756
O O17 0.355635 0.750000 0.651441
O O18 0.146376 0.901428 0.485138
O O19 0.000000 0.500000 0.500000
#
# Coordination Sequence:
#
# PCOD9160138 Si02
#       8
#     4   4   4   4   4   4   4   4
#     4  11  21  38  63  94 119 158 212 258 302 361
#     4  12  23  36  64  92 133 166 200 253 318 368
#     4  10  20  35  58  90 126 169 212 248 297 368
#     4  10  20  37  61  89 124 162 208 255 301 364
#     4  10  19  34  59  93 126 160 207 252 301 370
#     4  11  25  43  61  91 127 163 205 258 319 372
#     4  10  20  36  60  91 122 154 205 259 305 356
#     4  10  22  41  64  86 115 158 213 256 303 367
#
# _framework density 19.172461999999999
#
# number of rings (size 3 to 8) (size 9 to 14) (size 15 to 20)
#    0.000    1.500    5.000    1.500    0.000    4.000 
#    0.000    0.625    0.000    0.000    0.000    0.000 
#    0.000    0.000    0.000    0.000    0.000    0.000 
#
# Total GULP energy -178578.962079 kJ/mol
# GULP energy per Si atom -5580.592565 kJ/mol
# Density = 1.912882 g / cm^3
# Si number density = 19.172462 Si / 1000 Ang^3
#
#
#
# Elastic Constant Matrix: (Units=GPa)
#
#
# Indices 1 2 3 4 5 6 
#
# 1 27.6104 20.7880 37.2379 0.0000 24.3978 0.0000
# 2 20.7880 81.7132 47.2029 0.0000 9.7514 0.0000
# 3 37.2379 47.2029 92.1197 0.0000 32.9717 0.0000
# 4 0.0000 0.0000 0.0000 25.6807 0.0000 -3.5295
# 5 24.3978 9.7514 32.9717 0.0000 37.1830 0.0000
# 6 0.0000 0.0000 0.0000 -3.5295 0.0000 21.0103
#
#
#
# Elastic Compliance Matrix: (Units=1/GPa)
#
#
# Indices 1 2 3 4 5 6 
#
# 1 0.136779 -0.011881 -0.026655 0.000000 -0.062996 0.000000
# 2 -0.011881 0.019045 -0.008729 0.000000 0.010542 0.000000
# 3 -0.026655 -0.008729 0.027869 0.000000 -0.004934 0.000000
# 4 0.000000 0.000000 0.000000 0.039860 0.000000 0.006696
# 5 -0.062996 0.010542 -0.004934 0.000000 0.069840 0.000000
# 6 0.000000 0.000000 0.000000 0.006696 0.000000 0.048721
#
#
# Mechanical properties :
#
#
# Convention : Reuss Voigt Hill
#
# Bulk Modulus (GPa) = 11.21551 45.76676 28.49114
# Shear Modulus (GPa) = 10.72124 23.18909 16.95516
#
# Velocity S-wave (km/s) = 2.36731 3.48156 2.97703
# Velocity P-wave (km/s) = 3.65167 6.33124 5.16814
#
# Compressibility (1/GPa) = 0.08916223
#
# Stress axis : x y z
#
# Youngs Moduli (GPa) = 7.31109 52.50696 35.88226
#
# Poissons Ratio (x) = 0.62386 0.95642
# Poissons Ratio (y) = 0.08687 0.31322
# Poissons Ratio (z) = 0.19487 0.45834
#
# Static dielectric constant tensor:
#      x y z
#    x 1.662570 0.000000 0.042230 
#    y 0.000000 1.714360 0.000000 
#    z 0.042230 0.000000 1.683690 
# 
# From -- ./inp_files/59485.got.cif
#   From: 2010.05.17/outbox.cif.g08.bks.cpg/sg11_30_cif.got.tgz:59485.got - 2010.06.03 12:22:45.
