data_PCOD9160671
_publ_section_title
;
Structure prediction by ZEFSAII (Michael W. Deem and Ramdas Pophale) SiO2 
 PCOD9160671
Probable space group: P 21/M
;
_chemical_formula_sum "Si O2"
_cell_formula_units_Z 28
_cell_length_a 7.783876
_cell_length_b 18.649734
_cell_length_c 7.919719
_cell_angle_alpha 90.000000
_cell_angle_beta 78.454383
_cell_angle_gamma 90.000000
_cell_volume 1126.420482
_symmetry_space_group_name_H-M "P 21/M"
_symmetry_group_IT_number 11
_symmetry_cell_setting 'monoclinic'
loop_
_space_group_symop_operation_xyz
x,y,z
-x,1/2+y,-z
-x,-y,-z
x,1/2-y,z
loop_
_atom_site_type_symbol
_atom_site_label
_atom_site_fract_x
_atom_site_fract_y
_atom_site_fract_z
Si Si1 0.504643 0.969451 0.689888
Si Si2 0.077211 0.672288 0.756578
Si Si3 0.880529 0.560462 0.606851
Si Si4 0.071012 0.336186 0.713980
Si Si5 0.293421 0.667055 0.060413
Si Si6 0.572627 0.169587 0.473733
Si Si7 0.614573 0.893008 0.157509
O O1 0.704013 0.976117 0.705588
O O2 0.472765 0.886431 0.663111
O O3 0.500000 0.000000 0.500000
O O4 0.378379 0.021127 0.818980
O O5 0.985263 0.750000 0.774956
O O6 0.216704 0.672085 0.574560
O O7 0.961659 0.603671 0.745651
O O8 0.194124 0.668168 0.900661
O O9 0.856055 0.619567 0.461336
O O10 0.000000 0.500000 0.500000
O O11 0.080755 0.250000 0.690754
O O12 0.195211 0.358315 0.849183
O O13 0.868589 0.356629 0.788163
O O14 0.336192 0.750000 0.094153
O O15 0.477496 0.625128 0.036199
O O16 0.508280 0.250000 0.453923
O O17 0.495703 0.140900 0.663060
#
# Coordination Sequence:
#
# PCOD9160671 Si02
#       7
#     4   4   4   4   4   4   4
#     4  10  20  36  56  90 123 151 197 263 313 363
#     4  10  23  41  62  91 128 167 204 252 314 376
#     4  12  22  37  66  89 125 162 207 263 317 364
#     4  11  22  38  66  95 120 160 215 264 311 374
#     4  10  22  42  62  89 131 168 206 255 312 378
#     4  10  19  36  62  88 119 159 208 258 313 370
#     4  11  21  39  65  94 124 162 210 261 321 369
#
# _framework density 24.857502
#
# number of rings (size 3 to 8) (size 9 to 14) (size 15 to 20)
#    0.000    1.429    2.857    5.143    0.000    2.857 
#    2.571    3.571    0.000    0.000    0.000    0.000 
#    0.000    0.000    0.000    0.000    0.000    0.000 
#
# Total GULP energy -156525.054956 kJ/mol
# GULP energy per Si atom -5590.180534 kJ/mol
# Density = 2.480093 g / cm^3
# Si number density = 24.857502 Si / 1000 Ang^3
#
#
#
# Elastic Constant Matrix: (Units=GPa)
#
#
# Indices 1 2 3 4 5 6 
#
# 1 73.5011 21.9786 -1.6217 0.0000 19.1545 0.0000
# 2 21.9786 145.3711 19.1407 0.0000 20.9258 0.0000
# 3 -1.6217 19.1407 75.5794 0.0000 15.7602 0.0000
# 4 0.0000 0.0000 0.0000 23.0590 0.0000 15.6120
# 5 19.1545 20.9258 15.7602 0.0000 36.8405 0.0000
# 6 0.0000 0.0000 0.0000 15.6120 0.0000 43.4449
#
#
#
# Elastic Compliance Matrix: (Units=1/GPa)
#
#
# Indices 1 2 3 4 5 6 
#
# 1 0.016407 -0.001560 0.002571 0.000000 -0.008744 0.000000
# 2 -0.001560 0.007725 -0.001366 0.000000 -0.002993 0.000000
# 3 0.002571 -0.001366 0.015096 0.000000 -0.007019 0.000000
# 4 0.000000 0.000000 0.000000 0.057310 0.000000 -0.020595
# 5 -0.008744 -0.002993 -0.007019 0.000000 0.036393 0.000000
# 6 0.000000 0.000000 0.000000 -0.020595 0.000000 0.030418
#
#
# Mechanical properties :
#
#
# Convention : Reuss Voigt Hill
#
# Bulk Modulus (GPa) = 25.96263 41.49408 33.72836
# Shear Modulus (GPa) = 28.26448 37.66582 32.96515
#
# Velocity S-wave (km/s) = 3.37569 3.89687 3.64561
# Velocity P-wave (km/s) = 5.06567 6.08083 5.59631
#
# Compressibility (1/GPa) = 0.03851689
#
# Stress axis : x y z
#
# Youngs Moduli (GPa) = 60.94866 129.44177 66.24382
#
# Poissons Ratio (x) = 0.20198 -0.17028
# Poissons Ratio (y) = 0.09510 0.09049
# Poissons Ratio (z) = -0.15667 0.17681
#
# Static dielectric constant tensor:
#      x y z
#    x 2.045630 0.000000 0.015010 
#    y 0.000000 1.978240 0.000000 
#    z 0.015010 0.000000 2.050120 
# 
# From -- ./inp_files/14029.got.cif
#   From: 2010.05.17/outbox.cif.g08.bks.cpg/sg11_8_cif.got.tgz:14029.got - 2010.06.03 12:22:45.
