data_PCOD9160951
_publ_section_title
;
Structure prediction by ZEFSAII (Michael W. Deem and Ramdas Pophale) SiO2 
 PCOD9160951
Probable space group: P 21/M
;
_chemical_formula_sum "Si O2"
_cell_formula_units_Z 22
_cell_length_a 14.315065
_cell_length_b 5.647161
_cell_length_c 17.189264
_cell_angle_alpha 90.000000
_cell_angle_beta 140.426338
_cell_angle_gamma 90.000000
_cell_volume 885.253689
_symmetry_space_group_name_H-M "P 21/M"
_symmetry_group_IT_number 11
_symmetry_cell_setting 'monoclinic'
loop_
_space_group_symop_operation_xyz
x,y,z
-x,1/2+y,-z
-x,-y,-z
x,1/2-y,z
loop_
_atom_site_type_symbol
_atom_site_label
_atom_site_fract_x
_atom_site_fract_y
_atom_site_fract_z
Si Si1 0.503480 0.250000 0.103289
Si Si2 0.959295 0.500017 0.076370
Si Si3 0.945486 0.250000 0.220239
Si Si4 0.329091 0.500378 0.369243
Si Si5 0.106854 0.250000 0.485053
Si Si6 0.804780 0.250000 0.391757
Si Si7 0.393068 0.750000 0.003252
Si Si8 0.363294 0.999941 0.205216
O O1 0.663658 0.250000 0.244737
O O2 0.425784 0.504071 0.069861
O O3 0.511113 0.250000 0.013673
O O4 0.026533 0.250000 0.091631
O O5 0.793450 0.499914 0.938776
O O6 0.028057 0.750000 0.099520
O O7 0.959855 0.468931 0.169367
O O8 0.050700 0.250000 0.360458
O O9 0.774393 0.250000 0.132490
O O10 0.500000 0.500000 0.500000
O O11 0.266613 0.250000 0.358099
O O12 0.328394 0.499302 0.275134
O O13 0.269225 0.750000 0.361139
O O14 0.189400 0.498574 0.557669
O O15 0.956621 0.250000 0.439788
O O16 0.440203 0.250000 0.237047
O O17 0.440512 0.750000 0.239513
#
# Coordination Sequence:
#
# PCOD9160951 Si02
#       8
#     2   4   2   4   2   2   2   4
#     4  10  20  36  46  65  83 108 131 153 195 235
#     4   8  16  24  36  50  74  98 116 156 188 234
#     4  10  20  30  44  68  84 100 136 160 206 232
#     4   8  12  16  24  36  52  74 108 148 178 210
#     4  10  21  30  51  64  84 107 126 164 189 236
#     4  10  20  36  46  65  83 108 131 153 195 235
#     4  10  21  30  51  64  84 107 126 164 189 236
#     4   8  12  20  28  40  58  86 114 138 190 218
#
# _framework density 24.851631000000001
#
# number of rings (size 3 to 8) (size 9 to 14) (size 15 to 20)
#    0.545    2.545    0.909    0.545    2.545    0.000 
#    0.000    0.000    0.000    0.000    0.000    0.000 
#    0.000    0.000    0.000    0.000    0.000    0.000 
#
# Total GULP energy -122752.577643 kJ/mol
# GULP energy per Si atom -5579.662620 kJ/mol
# Density = 2.479507 g / cm^3
# Si number density = 24.851631 Si / 1000 Ang^3
#
#
#
# Elastic Constant Matrix: (Units=GPa)
#
#
# Indices 1 2 3 4 5 6 
#
# 1 46.5654 30.9809 12.8771 0.0000 -6.4885 0.0000
# 2 30.9809 319.1252 45.1808 0.0000 -9.4092 0.0000
# 3 12.8771 45.1808 156.7058 0.0000 -7.6409 0.0000
# 4 0.0000 0.0000 0.0000 -65.2163 0.0000 -372.3381
# 5 -6.4885 -9.4092 -7.6409 0.0000 35.6482 0.0000
# 6 0.0000 0.0000 0.0000 -372.3381 0.0000-1455.7812
#
#
#
# Elastic Compliance Matrix: (Units=1/GPa)
#
#
# Indices 1 2 3 4 5 6 
#
# 1 0.023639 -0.002023 -0.001188 0.000000 0.003514 0.000000
# 2 -0.002023 0.003456 -0.000812 0.000000 0.000370 0.000000
# 3 -0.001188 -0.000812 0.006763 0.000000 0.001019 0.000000
# 4 0.000000 0.000000 0.000000 0.033317 0.000000 -0.008521
# 5 0.003514 0.000370 0.001019 0.000000 0.029008 0.000000
# 6 0.000000 0.000000 0.000000 -0.008521 0.000000 0.001493
#
#
# Mechanical properties :
#
#
# Convention : Reuss Voigt Hill
#
# Bulk Modulus (GPa) = 38.74195 77.83045 58.28620
# Shear Modulus (GPa) = 43.73488 -268.17937 -112.22224
#
# Velocity S-wave (km/s) = 4.19960 -10.39935 -6.72718
# Velocity P-wave (km/s) = 6.25609 10.62117 6.06921
#
# Compressibility (1/GPa) = 0.02581181
#
# Stress axis : x y z
#
# Youngs Moduli (GPa) = 42.30229 289.36411 147.86726
#
# Poissons Ratio (x) = 0.58542 0.17565
# Poissons Ratio (y) = 0.08558 0.12008
# Poissons Ratio (z) = 0.05025 0.23499
#
# Static dielectric constant tensor:
#      x y z
#    x 1.932460 0.000000 -0.019320 
#    y 0.000000 2.064570 0.000000 
#    z -0.019320 0.000000 1.925610 
# 
# From -- ./inp_files/27182.got.cif
#   From: 2010.05.17/outbox.cif.g08.bks.cpg/sg11_14_cif.got.tgz:27182.got - 2010.06.03 12:22:45.
