data_PCOD9160401
_publ_section_title
;
Structure prediction by ZEFSAII (Michael W. Deem and Ramdas Pophale) SiO2 
 PCOD9160401
Probable space group: P 21/M
;
_chemical_formula_sum "Si O2"
_cell_formula_units_Z 24
_cell_length_a 15.191519
_cell_length_b 8.924811
_cell_length_c 10.316312
_cell_angle_alpha 90.000000
_cell_angle_beta 80.339856
_cell_angle_gamma 90.000000
_cell_volume 1378.867431
_symmetry_space_group_name_H-M "P 21/M"
_symmetry_group_IT_number 11
_symmetry_cell_setting 'monoclinic'
loop_
_space_group_symop_operation_xyz
x,y,z
-x,1/2+y,-z
-x,-y,-z
x,1/2-y,z
loop_
_atom_site_type_symbol
_atom_site_label
_atom_site_fract_x
_atom_site_fract_y
_atom_site_fract_z
Si Si1 0.070321 0.929032 0.883805
Si Si2 0.451611 0.069906 0.889608
Si Si3 0.442503 0.570429 0.398586
Si Si4 0.738248 0.572058 0.163117
Si Si5 0.070644 0.570046 0.581311
Si Si6 0.736808 0.572576 0.471159
O O1 0.067477 0.750000 0.894525
O O2 0.051346 0.969388 0.737338
O O3 0.170172 0.987162 0.888851
O O4 0.000000 0.000000 0.000000
O O5 0.449918 0.250000 0.901660
O O6 0.508054 0.033308 0.747310
O O7 0.348992 0.020835 0.893555
O O8 0.500000 0.000000 0.000000
O O9 0.500000 0.500000 0.500000
O O10 0.439776 0.750000 0.413238
O O11 0.343672 0.502867 0.431803
O O12 0.751626 0.750000 0.138204
O O13 0.718428 0.553185 0.321493
O O14 0.070936 0.750000 0.571057
O O15 0.168488 0.504759 0.526406
O O16 0.000000 0.500000 0.500000
O O17 0.741402 0.750000 0.495806
#
# Coordination Sequence:
#
# PCOD9160401 Si02
#       6
#     4   4   4   4   4   4
#     4  10  21  37  59  86 111 143 188 231 276 334
#     4  10  22  39  56  81 115 150 186 229 280 331
#     4  11  21  36  58  85 114 146 189 234 275 332
#     4   9  18  36  58  80 111 147 185 230 276 328
#     4  10  21  38  59  86 116 148 185 230 282 335
#     4  10  19  35  59  86 113 147 187 231 281 331
#
# _framework density 17.405591000000001
#
# number of rings (size 3 to 8) (size 9 to 14) (size 15 to 20)
#    0.000    2.000    1.667    2.000    0.000    4.667 
#    3.000    0.000    0.000    0.000    0.000    0.000 
#    0.000    0.000    0.000    0.000    0.000    0.000 
#
# Total GULP energy -133991.705732 kJ/mol
# GULP energy per Si atom -5582.987739 kJ/mol
# Density = 1.736597 g / cm^3
# Si number density = 17.405591 Si / 1000 Ang^3
#
#
#
# Elastic Constant Matrix: (Units=GPa)
#
#
# Indices 1 2 3 4 5 6 
#
# 1 180.4737 68.5824 102.5905 0.0000 4.2615 0.0000
# 2 68.5824 65.0422 62.4854 0.0000 -3.6331 0.0000
# 3 102.5905 62.4854 115.5986 0.0000 -2.7569 0.0000
# 4 0.0000 0.0000 0.0000 29.8366 0.0000 -0.8359
# 5 4.2615 -3.6331 -2.7569 0.0000 36.0000 0.0000
# 6 0.0000 0.0000 0.0000 -0.8359 0.0000 38.1555
#
#
#
# Elastic Compliance Matrix: (Units=1/GPa)
#
#
# Indices 1 2 3 4 5 6 
#
# 1 0.012151 -0.005279 -0.007992 0.000000 -0.002583 0.000000
# 2 -0.005279 0.034408 -0.013841 0.000000 0.003037 0.000000
# 3 -0.007992 -0.013841 0.023257 0.000000 0.001330 0.000000
# 4 0.000000 0.000000 0.000000 0.033536 0.000000 0.000735
# 5 -0.002583 0.003037 0.001330 0.000000 0.028492 0.000000
# 6 0.000000 0.000000 0.000000 0.000735 0.000000 0.026225
#
#
# Mechanical properties :
#
#
# Convention : Reuss Voigt Hill
#
# Bulk Modulus (GPa) = 64.13868 92.04789 78.09328
# Shear Modulus (GPa) = 22.98958 29.29550 26.14254
#
# Velocity S-wave (km/s) = 3.63825 4.10702 3.87972
# Velocity P-wave (km/s) = 7.38773 8.68844 8.06435
#
# Compressibility (1/GPa) = 0.01559122
#
# Stress axis : x y z
#
# Youngs Moduli (GPa) = 82.29780 29.06305 42.99866
#
# Poissons Ratio (x) = 0.15343 0.34363
# Poissons Ratio (y) = 0.43446 0.59516
# Poissons Ratio (z) = 0.65770 0.40227
#
# Static dielectric constant tensor:
#      x y z
#    x 1.579070 0.000000 0.000600 
#    y 0.000000 1.579950 0.000000 
#    z 0.000600 0.000000 1.572020 
# 
# From -- ./inp_files/20380.got.cif
#   From: 2010.05.17/outbox.cif.g08.bks.cpg/sg11_11_cif.got.tgz:20380.got - 2010.06.03 12:22:45.
