data_PCOD9160857
_publ_section_title
;
Structure prediction by ZEFSAII (Michael W. Deem and Ramdas Pophale) SiO2 
 PCOD9160857
Probable space group: P 21/M
;
_chemical_formula_sum "Si O2"
_cell_formula_units_Z 32
_cell_length_a 13.523511
_cell_length_b 26.494504
_cell_length_c 8.495360
_cell_angle_alpha 90.000000
_cell_angle_beta 29.579590
_cell_angle_gamma 90.000000
_cell_volume 1502.555196
_symmetry_space_group_name_H-M "P 21/M"
_symmetry_group_IT_number 11
_symmetry_cell_setting 'monoclinic'
loop_
_space_group_symop_operation_xyz
x,y,z
-x,1/2+y,-z
-x,-y,-z
x,1/2-y,z
loop_
_atom_site_type_symbol
_atom_site_label
_atom_site_fract_x
_atom_site_fract_y
_atom_site_fract_z
Si Si1 0.292263 0.340151 0.695837
Si Si2 0.941314 0.885964 0.422613
Si Si3 0.412943 0.070366 0.719745
Si Si4 0.804640 0.803943 0.833946
Si Si5 0.280354 0.963388 0.967547
Si Si6 0.086088 0.807170 0.978719
Si Si7 0.578601 0.343280 0.719689
Si Si8 0.502859 0.615051 0.861855
O O1 0.277463 0.397320 0.785180
O O2 0.471268 0.347079 0.322862
O O3 0.289345 0.309149 0.861544
O O4 0.114585 0.317084 0.841947
O O5 0.917973 0.853729 0.616177
O O6 0.724638 0.892103 0.634956
O O7 0.062846 0.937673 0.271226
O O8 0.076124 0.849001 0.127520
O O9 0.603948 0.050903 0.355418
O O10 0.495242 0.108436 0.737634
O O11 0.294346 0.023542 0.956038
O O12 0.909945 0.750000 0.674570
O O13 0.608392 0.806073 0.995733
O O14 0.411294 0.936306 0.921382
O O15 0.094649 0.750000 0.026510
O O16 0.260290 0.817519 0.613116
O O17 0.638852 0.362358 0.807267
#
# Coordination Sequence:
#
# PCOD9160857 Si02
#       8
#     4   4   4   4   4   4   4   4
#     4   9  20  38  56  83 115 152 193 247 286 350
#     4  10  21  38  60  87 117 152 195 246 292 353
#     4   9  19  38  60  85 119 156 196 240 302 350
#     4  10  20  37  59  81 113 154 194 242 302 352
#     4  10  19  38  62  87 120 158 193 245 297 352
#     4  11  21  36  58  85 116 152 196 243 297 348
#     4  10  20  37  57  84 119 153 194 246 292 353
#     4   9  21  38  57  83 120 153 194 241 291 346
#
# _framework density 21.297053999999999
#
# number of rings (size 3 to 8) (size 9 to 14) (size 15 to 20)
#    0.000    2.250    1.250    1.125    1.750    0.500 
#    2.250   10.000    0.000    1.500    0.000    0.000 
#    0.000    0.000    0.000    0.000    0.000    0.000 
#
# Total GULP energy -178306.255280 kJ/mol
# GULP energy per Si atom -5572.070478 kJ/mol
# Density = 2.124858 g / cm^3
# Si number density = 21.297054 Si / 1000 Ang^3
#
#
#
# Elastic Constant Matrix: (Units=GPa)
#
#
# Indices 1 2 3 4 5 6 
#
# 1 52.3661 3.0787 5.0309 0.0000 12.3226 0.0000
# 2 3.0787 61.7355 -7.5842 0.0000 -0.3546 0.0000
# 3 5.0309 -7.5842 43.2209 0.0000 5.8402 0.0000
# 4 0.0000 0.0000 0.0000 19.8844 0.0000 -4.0109
# 5 12.3226 -0.3546 5.8402 0.0000 31.0470 0.0000
# 6 0.0000 0.0000 0.0000 -4.0109 0.0000 13.6724
#
#
#
# Elastic Compliance Matrix: (Units=1/GPa)
#
#
# Indices 1 2 3 4 5 6 
#
# 1 0.021243 -0.001303 -0.001601 0.000000 -0.008145 0.000000
# 2 -0.001303 0.016639 0.003053 0.000000 0.000133 0.000000
# 3 -0.001601 0.003053 0.024388 0.000000 -0.003917 0.000000
# 4 0.000000 0.000000 0.000000 0.053454 0.000000 0.015681
# 5 -0.008145 0.000133 -0.003917 0.000000 0.036181 0.000000
# 6 0.000000 0.000000 0.000000 0.015681 0.000000 0.077740
#
#
# Mechanical properties :
#
#
# Convention : Reuss Voigt Hill
#
# Bulk Modulus (GPa) = 15.98193 17.59702 16.78948
# Shear Modulus (GPa) = 19.98387 23.37392 21.67889
#
# Velocity S-wave (km/s) = 3.06656 3.31648 3.19396
# Velocity P-wave (km/s) = 4.47872 4.79019 4.63707
#
# Compressibility (1/GPa) = 0.06257066
#
# Stress axis : x y z
#
# Youngs Moduli (GPa) = 47.07334 60.09982 41.00309
#
# Poissons Ratio (x) = 0.07830 0.06563
# Poissons Ratio (y) = 0.06133 -0.12520
# Poissons Ratio (z) = 0.07535 -0.18351
#
# Static dielectric constant tensor:
#      x y z
#    x 1.789780 0.000000 0.009290 
#    y 0.000000 1.786800 0.000000 
#    z 0.009290 0.000000 1.826770 
# 
# From -- ./inp_files/23433.got.cif
#   From: 2010.05.17/outbox.cif.g08.bks.cpg/sg11_12_cif.got.tgz:23433.got - 2010.06.03 12:22:45.
