data_PCOD9160203
_publ_section_title
;
Structure prediction by ZEFSAII (Michael W. Deem and Ramdas Pophale) SiO2 
 PCOD9160203
Probable space group: P 21/M
;
_chemical_formula_sum "Si O2"
_cell_formula_units_Z 32
_cell_length_a 14.655597
_cell_length_b 8.210593
_cell_length_c 19.789204
_cell_angle_alpha 90.000000
_cell_angle_beta 139.060082
_cell_angle_gamma 90.000000
_cell_volume 1560.360086
_symmetry_space_group_name_H-M "P 21/M"
_symmetry_group_IT_number 11
_symmetry_cell_setting 'monoclinic'
loop_
_space_group_symop_operation_xyz
x,y,z
-x,1/2+y,-z
-x,-y,-z
x,1/2-y,z
loop_
_atom_site_type_symbol
_atom_site_label
_atom_site_fract_x
_atom_site_fract_y
_atom_site_fract_z
Si Si1 0.136708 0.566310 0.110555
Si Si2 0.418329 0.939355 0.775445
Si Si3 0.098968 0.444172 0.835593
Si Si4 0.614435 0.446712 0.394813
Si Si5 0.646211 0.053281 0.115328
Si Si6 0.651438 0.448123 0.666796
Si Si7 0.203377 0.948621 0.384511
Si Si8 0.715528 0.433643 0.946140
O O1 0.103342 0.750000 0.112346
O O2 0.211932 0.488853 0.216341
O O3 0.248333 0.565466 0.112472
O O4 0.000000 0.500000 0.000000
O O5 0.378810 0.750000 0.749719
O O6 0.392471 0.010905 0.686090
O O7 0.347776 0.007864 0.803574
O O8 0.583317 0.952864 0.882806
O O9 0.090960 0.250000 0.838382
O O10 0.223527 0.489033 0.854297
O O11 0.949370 0.503167 0.724817
O O12 0.150260 0.516227 0.935619
O O13 0.615801 0.250000 0.391467
O O14 0.480814 0.491970 0.365468
O O15 0.746734 0.501008 0.513464
O O16 0.648986 0.250000 0.116793
O O17 0.500000 0.000000 0.000000
O O18 0.648648 0.250000 0.667861
O O19 0.679558 0.497179 0.605337
O O20 0.200488 0.750000 0.382827
O O21 0.675829 0.250000 0.944015
#
# Coordination Sequence:
#
# PCOD9160203 Si02
#       8
#     4   4   4   4   4   4   4   4
#     4  10  21  33  48  75 111 149 186 227 277 330
#     4  10  21  36  57  82 111 143 181 227 281 334
#     4  11  22  38  59  83 113 151 187 230 284 340
#     4  10  20  37  59  84 110 147 194 235 272 330
#     4  11  22  37  58  86 114 146 184 232 285 340
#     4  10  19  35  55  80 112 148 187 233 280 328
#     4   9  20  37  58  81 112 151 191 230 278 333
#     4  11  21  34  54  80 112 146 184 231 278 332
#
# _framework density 20.508085999999999
#
# number of rings (size 3 to 8) (size 9 to 14) (size 15 to 20)
#    0.000    1.750    2.500    2.250    0.000    3.000 
#    0.000    3.125    0.000    0.000    0.000    0.000 
#    0.000    0.000    0.000    0.000    0.000    0.000 
#
# Total GULP energy -178564.841089 kJ/mol
# GULP energy per Si atom -5580.151284 kJ/mol
# Density = 2.046141 g / cm^3
# Si number density = 20.508086 Si / 1000 Ang^3
#
#
#
# Elastic Constant Matrix: (Units=GPa)
#
#
# Indices 1 2 3 4 5 6 
#
# 1 86.4432 4.1348 40.0198 0.0000 -20.9150 0.0000
# 2 4.1348 18.6811 0.5896 0.0000 -7.1758 0.0000
# 3 40.0198 0.5896 128.2508 0.0000 -28.3164 0.0000
# 4 0.0000 0.0000 0.0000 11.4663 0.0000 -0.0549
# 5 -20.9150 -7.1758 -28.3164 0.0000 33.8024 0.0000
# 6 0.0000 0.0000 0.0000 -0.0549 0.0000 22.7393
#
#
#
# Elastic Compliance Matrix: (Units=1/GPa)
#
#
# Indices 1 2 3 4 5 6 
#
# 1 0.014574 -0.000744 -0.003176 0.000000 0.006199 0.000000
# 2 -0.000744 0.059292 0.003235 0.000000 0.014837 0.000000
# 3 -0.003176 0.003235 0.010418 0.000000 0.007449 0.000000
# 4 0.000000 0.000000 0.000000 0.087213 0.000000 0.000210
# 5 0.006199 0.014837 0.007449 0.000000 0.042809 0.000000
# 6 0.000000 0.000000 0.000000 0.000210 0.000000 0.043977
#
#
# Mechanical properties :
#
#
# Convention : Reuss Voigt Hill
#
# Bulk Modulus (GPa) = 12.06056 35.87373 23.96714
# Shear Modulus (GPa) = 17.40401 26.17700 21.79050
#
# Velocity S-wave (km/s) = 2.91631 3.57658 3.26319
# Velocity P-wave (km/s) = 4.15132 5.88102 5.09018
#
# Compressibility (1/GPa) = 0.08291490
#
# Stress axis : x y z
#
# Youngs Moduli (GPa) = 68.61544 16.86578 95.98826
#
# Poissons Ratio (x) = 0.01255 0.30481
# Poissons Ratio (y) = 0.05106 -0.31056
# Poissons Ratio (z) = 0.21789 -0.05457
#
# Static dielectric constant tensor:
#      x y z
#    x 1.739690 0.000000 -0.024620 
#    y 0.000000 1.736710 0.000000 
#    z -0.024620 0.000000 1.762080 
# 
# From -- ./inp_files/42889.got.cif
#   From: 2010.05.17/outbox.cif.g08.bks.cpg/sg11_22_cif.got.tgz:42889.got - 2010.06.03 12:22:45.
