data_PCOD9160754
_publ_section_title
;
Structure prediction by ZEFSAII (Michael W. Deem and Ramdas Pophale) SiO2 
 PCOD9160754
Probable space group: P 21/M
;
_chemical_formula_sum "Si O2"
_cell_formula_units_Z 32
_cell_length_a 19.046230
_cell_length_b 7.763836
_cell_length_c 14.601160
_cell_angle_alpha 90.000000
_cell_angle_beta 135.583779
_cell_angle_gamma 90.000000
_cell_volume 1511.079719
_symmetry_space_group_name_H-M "P 21/M"
_symmetry_group_IT_number 11
_symmetry_cell_setting 'monoclinic'
loop_
_space_group_symop_operation_xyz
x,y,z
-x,1/2+y,-z
-x,-y,-z
x,1/2-y,z
loop_
_atom_site_type_symbol
_atom_site_label
_atom_site_fract_x
_atom_site_fract_y
_atom_site_fract_z
Si Si1 0.047125 0.042357 0.946847
Si Si2 0.810697 0.046003 0.203479
Si Si3 0.798065 0.461313 0.401176
Si Si4 0.600545 0.038801 0.326881
Si Si5 0.401286 0.952995 0.465996
Si Si6 0.379112 0.458146 0.097068
Si Si7 0.727984 0.957033 0.820899
Si Si8 0.018594 0.951994 0.305253
O O1 0.051180 0.250000 0.942277
O O2 0.987222 0.974675 0.802911
O O3 0.161420 0.977832 0.052734
O O4 0.000000 0.000000 0.000000
O O5 0.828837 0.250000 0.222464
O O6 0.802011 0.981932 0.299556
O O7 0.907397 0.966804 0.243735
O O8 0.707838 0.014102 0.052943
O O9 0.798146 0.250000 0.399459
O O10 0.696851 0.515907 0.358652
O O11 0.895858 0.522539 0.548213
O O12 0.601914 0.250000 0.328735
O O13 0.604619 0.976596 0.436377
O O14 0.492999 0.985505 0.185212
O O15 0.405278 0.750000 0.481218
O O16 0.500000 0.000000 0.500000
O O17 0.308517 0.996353 0.313996
O O18 0.378777 0.250000 0.096673
O O19 0.347639 0.516388 0.170116
O O20 0.729291 0.750000 0.826541
O O21 0.042980 0.750000 0.318936
#
# Coordination Sequence:
#
# PCOD9160754 Si02
#       8
#     4   4   4   4   4   4   4   4
#     4  10  22  37  56  83 116 149 186 230 278 334
#     4  11  22  36  58  88 114 139 185 246 289 323
#     4   9  20  37  58  84 113 144 186 239 284 329
#     4   9  19  36  57  82 112 150 190 226 274 340
#     4  11  21  34  57  84 111 148 189 228 271 331
#     4  10  19  37  61  81 111 153 191 225 276 347
#     4  10  20  37  55  80 114 149 189 232 276 328
#     4  10  20  39  63  82 110 154 192 224 275 346
#
# _framework density 21.176909999999999
#
# number of rings (size 3 to 8) (size 9 to 14) (size 15 to 20)
#    0.000    2.000    2.500    1.125    1.750    2.000 
#    0.000    0.625    0.000    4.500    0.000    0.000 
#    0.000    0.000    0.000    0.000    0.000    0.000 
#
# Total GULP energy -178717.332888 kJ/mol
# GULP energy per Si atom -5584.916653 kJ/mol
# Density = 2.112871 g / cm^3
# Si number density = 21.176910 Si / 1000 Ang^3
#
#
#
# Elastic Constant Matrix: (Units=GPa)
#
#
# Indices 1 2 3 4 5 6 
#
# 1 108.0784 -9.9981 64.3258 0.0000 -16.5975 0.0000
# 2 -9.9981 23.7906 -8.5683 0.0000 -0.5124 0.0000
# 3 64.3258 -8.5683 138.6588 0.0000 -3.6034 0.0000
# 4 0.0000 0.0000 0.0000 20.3934 0.0000 -3.3643
# 5 -16.5975 -0.5124 -3.6034 0.0000 31.9574 0.0000
# 6 0.0000 0.0000 0.0000 -3.3643 0.0000 12.5679
#
#
#
# Elastic Compliance Matrix: (Units=1/GPa)
#
#
# Indices 1 2 3 4 5 6 
#
# 1 0.014388 0.003942 -0.006254 0.000000 0.006831 0.000000
# 2 0.003942 0.044101 0.000971 0.000000 0.002864 0.000000
# 3 -0.006254 0.000971 0.010119 0.000000 -0.002092 0.000000
# 4 0.000000 0.000000 0.000000 0.051301 0.000000 0.013733
# 5 0.006831 0.002864 -0.002092 0.000000 0.034649 0.000000
# 6 0.000000 0.000000 0.000000 0.013733 0.000000 0.083244
#
#
# Mechanical properties :
#
#
# Convention : Reuss Voigt Hill
#
# Bulk Modulus (GPa) = 15.16852 40.22740 27.69796
# Shear Modulus (GPa) = 19.05047 27.96830 23.50938
#
# Velocity S-wave (km/s) = 3.00257 3.63808 3.33549
# Velocity P-wave (km/s) = 4.38165 6.05679 5.28600
#
# Compressibility (1/GPa) = 0.06592601
#
# Stress axis : x y z
#
# Youngs Moduli (GPa) = 69.50072 22.67504 98.82524
#
# Poissons Ratio (x) = -0.08937 0.61804
# Poissons Ratio (y) = -0.27394 -0.09597
# Poissons Ratio (z) = 0.43465 -0.02202
#
# Static dielectric constant tensor:
#      x y z
#    x 1.736670 0.000000 -0.004860 
#    y 0.000000 1.780360 0.000000 
#    z -0.004860 0.000000 1.763190 
# 
# From -- ./inp_files/54360.got.cif
#   From: 2010.05.17/outbox.cif.g08.bks.cpg/sg11_28_cif.got.tgz:54360.got - 2010.06.03 12:22:45.
