data_PCOD9160274
_publ_section_title
;
Structure prediction by ZEFSAII (Michael W. Deem and Ramdas Pophale) SiO2 
 PCOD9160274
Probable space group: P 21/M
;
_chemical_formula_sum "Si O2"
_cell_formula_units_Z 28
_cell_length_a 21.764753
_cell_length_b 9.328983
_cell_length_c 15.042572
_cell_angle_alpha 90.000000
_cell_angle_beta 28.381056
_cell_angle_gamma 90.000000
_cell_volume 1451.805444
_symmetry_space_group_name_H-M "P 21/M"
_symmetry_group_IT_number 11
_symmetry_cell_setting 'monoclinic'
loop_
_space_group_symop_operation_xyz
x,y,z
-x,1/2+y,-z
-x,-y,-z
x,1/2-y,z
loop_
_atom_site_type_symbol
_atom_site_label
_atom_site_fract_x
_atom_site_fract_y
_atom_site_fract_z
Si Si1 0.841714 0.584911 0.108095
Si Si2 0.394976 0.923986 0.068844
Si Si3 0.920920 0.413701 0.328831
Si Si4 0.382568 0.921120 0.698024
Si Si5 0.467383 0.923224 0.777430
Si Si6 0.760211 0.580332 0.403191
Si Si7 0.913780 0.078273 0.534996
O O1 0.790594 0.750000 0.168952
O O2 0.744838 0.473284 0.188195
O O3 0.848049 0.550688 0.204813
O O4 0.968322 0.581619 0.886647
O O5 0.408579 0.750000 0.060419
O O6 0.240791 0.956713 0.274621
O O7 0.428405 0.969540 0.925127
O O8 0.500000 0.000000 0.000000
O O9 0.875116 0.250000 0.395482
O O10 0.808154 0.508297 0.431748
O O11 0.966239 0.456939 0.369195
O O12 0.399107 0.750000 0.672206
O O13 0.381039 0.966565 0.803636
O O14 0.500000 0.000000 0.500000
O O15 0.464337 0.750000 0.783603
O O16 0.614272 0.966697 0.568828
O O17 0.760501 0.750000 0.416231
O O18 0.922689 0.250000 0.539097
O O19 0.000000 0.000000 0.500000
#
# Coordination Sequence:
#
# PCOD9160274 Si02
#       7
#     4   4   4   4   4   4   4
#     4  10  21  37  55  79 116 151 185 231 279 332
#     4  10  21  39  62  87 116 151 194 246 295 347
#     4  10  22  38  56  81 115 149 186 237 285 330
#     4  11  21  36  57  82 114 150 188 230 279 336
#     4   9  19  35  56  81 112 146 182 230 284 334
#     4  10  19  35  57  81 111 147 185 228 280 342
#     4  10  23  41  60  85 119 155 197 247 297 349
#
# _framework density 19.286331000000001
#
# number of rings (size 3 to 8) (size 9 to 14) (size 15 to 20)
#    0.000    2.000    1.429    1.714    2.000    2.286 
#    0.000    1.429    0.000    0.000    0.000    0.000 
#    0.000    0.000    0.000    0.000    0.000    0.000 
#
# Total GULP energy -156093.926820 kJ/mol
# GULP energy per Si atom -5574.783101 kJ/mol
# Density = 1.924243 g / cm^3
# Si number density = 19.286331 Si / 1000 Ang^3
#
#
#
# Elastic Constant Matrix: (Units=GPa)
#
#
# Indices 1 2 3 4 5 6 
#
# 1 157.1196 60.4258 25.9849 0.0000 12.9266 0.0000
# 2 60.4258 45.9656 23.9303 0.0000 -4.4910 0.0000
# 3 25.9849 23.9303 55.8892 0.0000 11.5446 0.0000
# 4 0.0000 0.0000 0.0000 17.4037 0.0000 -4.5010
# 5 12.9266 -4.4910 11.5446 0.0000 33.6793 0.0000
# 6 0.0000 0.0000 0.0000 -4.5010 0.0000 40.7337
#
#
#
# Elastic Compliance Matrix: (Units=1/GPa)
#
#
# Indices 1 2 3 4 5 6 
#
# 1 0.016054 -0.025187 0.005690 0.000000 -0.011471 0.000000
# 2 -0.025187 0.069935 -0.023845 0.000000 0.027166 0.000000
# 3 0.005690 -0.023845 0.028589 0.000000 -0.015163 0.000000
# 4 0.000000 0.000000 0.000000 0.059149 0.000000 0.006536
# 5 -0.011471 0.027166 -0.015163 0.000000 0.042915 0.000000
# 6 0.000000 0.000000 0.000000 0.006536 0.000000 0.025272
#
#
# Mechanical properties :
#
#
# Convention : Reuss Voigt Hill
#
# Bulk Modulus (GPa) = 35.85189 53.29513 44.57351
# Shear Modulus (GPa) = 14.79744 28.27222 21.53483
#
# Velocity S-wave (km/s) = 2.77293 3.83289 3.34516
# Velocity P-wave (km/s) = 5.37418 6.87617 6.17104
#
# Compressibility (1/GPa) = 0.02789253
#
# Stress axis : x y z
#
# Youngs Moduli (GPa) = 62.29020 14.29908 34.97824
#
# Poissons Ratio (x) = 0.36015 -0.19902
# Poissons Ratio (y) = 1.56891 0.83406
# Poissons Ratio (z) = -0.35442 0.34097
#
# Static dielectric constant tensor:
#      x y z
#    x 1.665940 0.000000 0.010270 
#    y 0.000000 1.654870 0.000000 
#    z 0.010270 0.000000 1.714800 
# 
# From -- ./inp_files/37444.got.cif
#   From: 2010.05.17/outbox.cif.g08.bks.cpg/sg11_19_cif.got.tgz:37444.got - 2010.06.03 12:22:45.
