data_PCOD9160872
_publ_section_title
;
Structure prediction by ZEFSAII (Michael W. Deem and Ramdas Pophale) SiO2 
 PCOD9160872
Probable space group: P 21/M
;
_chemical_formula_sum "Si O2"
_cell_formula_units_Z 32
_cell_length_a 18.280036
_cell_length_b 19.491204
_cell_length_c 11.204675
_cell_angle_alpha 90.000000
_cell_angle_beta 24.430767
_cell_angle_gamma 90.000000
_cell_volume 1651.157765
_symmetry_space_group_name_H-M "P 21/M"
_symmetry_group_IT_number 11
_symmetry_cell_setting 'monoclinic'
loop_
_space_group_symop_operation_xyz
x,y,z
-x,1/2+y,-z
-x,-y,-z
x,1/2-y,z
loop_
_atom_site_type_symbol
_atom_site_label
_atom_site_fract_x
_atom_site_fract_y
_atom_site_fract_z
Si Si1 0.321682 0.169400 0.698826
Si Si2 0.052266 0.327981 0.292565
Si Si3 0.618790 0.432237 0.299783
Si Si4 0.824877 0.329357 0.154657
Si Si5 0.141388 0.939835 0.278515
Si Si6 0.744219 0.175279 0.551788
Si Si7 0.463527 0.571440 0.989867
Si Si8 0.770525 0.669781 0.432306
O O1 0.359165 0.250000 0.659289
O O2 0.492488 0.123884 0.426842
O O3 0.216200 0.163383 0.731649
O O4 0.222624 0.145073 0.966607
O O5 0.086453 0.250000 0.280311
O O6 0.970460 0.372198 0.519900
O O7 0.906984 0.326147 0.402416
O O8 0.500000 0.500000 0.500000
O O9 0.702950 0.389771 0.284231
O O10 0.776818 0.445720 0.973744
O O11 0.776270 0.250000 0.191792
O O12 0.807382 0.332550 0.323380
O O13 0.030630 0.339864 0.814494
O O14 0.308763 0.940127 0.121069
O O15 0.000000 0.000000 0.500000
O O16 0.658428 0.250000 0.689952
O O17 0.612110 0.118624 0.792716
O O18 0.629892 0.613714 0.687917
O O19 0.500000 0.500000 0.000000
O O20 0.716405 0.750000 0.535404
#
# Coordination Sequence:
#
# PCOD9160872 Si02
#       8
#     4   4   4   4   4   4   4   4
#     4  10  19  38  64  92 121 155 206 257 309 376
#     4   9  18  37  66  92 115 155 205 256 313 369
#     4  12  26  41  61  88 129 171 209 255 315 372
#     4  10  22  41  66  93 123 158 203 260 315 369
#     4  11  25  43  58  86 128 170 208 253 307 372
#     4   9  18  37  63  91 119 154 201 255 308 364
#     4  11  24  39  63  90 125 163 207 254 311 370
#     4  10  20  40  67  94 121 154 207 264 310 365
#
# _framework density 19.380341000000001
#
# number of rings (size 3 to 8) (size 9 to 14) (size 15 to 20)
#    0.000    1.750    2.500    1.500    3.500    1.500 
#    0.000    1.250    0.000    0.000    0.000    0.000 
#    0.000    0.000    0.000    0.000    0.000    0.000 
#
# Total GULP energy -178360.588901 kJ/mol
# GULP energy per Si atom -5573.768403 kJ/mol
# Density = 1.933623 g / cm^3
# Si number density = 19.380341 Si / 1000 Ang^3
#
#
#
# Elastic Constant Matrix: (Units=GPa)
#
#
# Indices 1 2 3 4 5 6 
#
# 1 38.0187 33.5285 11.3723 0.0000 -2.4691 0.0000
# 2 33.5285 105.5328 56.6954 0.0000 1.9799 0.0000
# 3 11.3723 56.6954 99.9072 0.0000 13.8209 0.0000
# 4 0.0000 0.0000 0.0000 40.2604 0.0000 -6.5568
# 5 -2.4691 1.9799 13.8209 0.0000 25.9619 0.0000
# 6 0.0000 0.0000 0.0000 -6.5568 0.0000 23.1358
#
#
#
# Elastic Compliance Matrix: (Units=1/GPa)
#
#
# Indices 1 2 3 4 5 6 
#
# 1 0.037619 -0.013645 0.003046 0.000000 0.002997 0.000000
# 2 -0.013645 0.018852 -0.009463 0.000000 0.002302 0.000000
# 3 0.003046 -0.009463 0.016077 0.000000 -0.007547 0.000000
# 4 0.000000 0.000000 0.000000 0.026040 0.000000 0.007380
# 5 0.002997 0.002302 -0.007547 0.000000 0.042645 0.000000
# 6 0.000000 0.000000 0.000000 0.007380 0.000000 0.045315
#
#
# Mechanical properties :
#
#
# Convention : Reuss Voigt Hill
#
# Bulk Modulus (GPa) = 30.84082 49.62791 40.23436
# Shear Modulus (GPa) = 21.05449 27.32911 24.19180
#
# Velocity S-wave (km/s) = 3.29961 3.75927 3.53691
# Velocity P-wave (km/s) = 5.51947 6.67126 6.12251
#
# Compressibility (1/GPa) = 0.03242456
#
# Stress axis : x y z
#
# Youngs Moduli (GPa) = 26.58198 53.04615 62.20164
#
# Poissons Ratio (x) = 0.72381 -0.18949
# Poissons Ratio (y) = 0.36271 0.58863
# Poissons Ratio (z) = -0.08098 0.50199
#
# Static dielectric constant tensor:
#      x y z
#    x 1.686130 0.000000 -0.009480 
#    y 0.000000 1.611350 0.000000 
#    z -0.009480 0.000000 1.687920 
# 
# From -- ./inp_files/43558.got.cif
#   From: 2010.05.17/outbox.cif.g08.bks.cpg/sg11_22_cif.got.tgz:43558.got - 2010.06.03 12:22:45.
