data_PCOD9160753
_publ_section_title
;
Structure prediction by ZEFSAII (Michael W. Deem and Ramdas Pophale) SiO2 
 PCOD9160753
Probable space group: P 21/M
;
_chemical_formula_sum "Si O2"
_cell_formula_units_Z 32
_cell_length_a 12.708757
_cell_length_b 8.901455
_cell_length_c 14.989855
_cell_angle_alpha 90.000000
_cell_angle_beta 87.771941
_cell_angle_gamma 90.000000
_cell_volume 1694.466770
_symmetry_space_group_name_H-M "P 21/M"
_symmetry_group_IT_number 11
_symmetry_cell_setting 'monoclinic'
loop_
_space_group_symop_operation_xyz
x,y,z
-x,1/2+y,-z
-x,-y,-z
x,1/2-y,z
loop_
_atom_site_type_symbol
_atom_site_label
_atom_site_fract_x
_atom_site_fract_y
_atom_site_fract_z
Si Si1 0.031548 0.429598 0.903864
Si Si2 0.488700 0.071644 0.641695
Si Si3 0.332485 0.570111 0.508350
Si Si4 0.101705 0.931888 0.448739
Si Si5 0.682259 0.429094 0.885620
Si Si6 0.752132 0.070695 0.081223
Si Si7 0.474442 0.929095 0.835384
Si Si8 0.132710 0.932858 0.243381
O O1 0.024059 0.250000 0.911380
O O2 0.150281 0.481934 0.881977
O O3 0.955167 0.478557 0.825879
O O4 0.000000 0.500000 0.000000
O O5 0.482836 0.250000 0.655385
O O6 0.593829 0.040338 0.580334
O O7 0.389547 0.014593 0.587155
O O8 0.490885 0.989472 0.735466
O O9 0.336678 0.750000 0.524464
O O10 0.212028 0.527529 0.493084
O O11 0.094445 0.750000 0.450146
O O12 0.110040 0.981228 0.344857
O O13 0.000000 0.000000 0.500000
O O14 0.666047 0.250000 0.878868
O O15 0.569825 0.506769 0.890253
O O16 0.754493 0.480064 0.800488
O O17 0.744636 0.455911 0.975211
O O18 0.766805 0.250000 0.093868
O O19 0.640332 0.024992 0.125819
O O20 0.478082 0.750000 0.837247
O O21 0.134338 0.750000 0.244232
#
# Coordination Sequence:
#
# PCOD9160753 Si02
#       8
#     4   4   4   4   4   4   4   4
#     4  11  21  37  61  86 115 149 193 241 286 341
#     4  10  20  36  60  85 110 147 190 231 282 349
#     4   9  19  37  60  83 110 145 188 239 289 334
#     4  10  21  38  58  82 114 150 189 233 287 341
#     4  10  19  37  61  80 108 149 194 236 283 344
#     4  10  22  39  57  80 114 153 191 237 288 336
#     4  11  23  36  53  84 122 150 183 235 289 340
#     4   9  19  37  61  84 110 150 191 232 283 340
#
# _framework density 18.884996999999998
#
# number of rings (size 3 to 8) (size 9 to 14) (size 15 to 20)
#    0.000    2.000    1.250    2.250    0.000    5.500 
#    0.000    5.625    0.000    0.000    0.000    0.000 
#    0.000    0.000    0.000    0.000    0.000    0.000 
#
# Total GULP energy -178715.804411 kJ/mol
# GULP energy per Si atom -5584.868888 kJ/mol
# Density = 1.884201 g / cm^3
# Si number density = 18.884997 Si / 1000 Ang^3
#
#
#
# Elastic Constant Matrix: (Units=GPa)
#
#
# Indices 1 2 3 4 5 6 
#
# 1 137.3892 30.1830 16.1124 0.0000 4.6982 0.0000
# 2 30.1830 16.5678 7.6562 0.0000 1.1755 0.0000
# 3 16.1124 7.6562 20.2330 0.0000 -1.3110 0.0000
# 4 0.0000 0.0000 0.0000 25.5160 0.0000 -1.4475
# 5 4.6982 1.1755 -1.3110 0.0000 22.4775 0.0000
# 6 0.0000 0.0000 0.0000 -1.4475 0.0000 33.4442
#
#
#
# Elastic Compliance Matrix: (Units=1/GPa)
#
#
# Indices 1 2 3 4 5 6 
#
# 1 0.012230 -0.021358 -0.001757 0.000000 -0.001542 0.000000
# 2 -0.021358 0.111125 -0.025224 0.000000 -0.002818 0.000000
# 3 -0.001757 -0.025224 0.060707 0.000000 0.005227 0.000000
# 4 0.000000 0.000000 0.000000 0.039288 0.000000 0.001700
# 5 -0.001542 -0.002818 0.005227 0.000000 0.045263 0.000000
# 6 0.000000 0.000000 0.000000 0.001700 0.000000 0.029974
#
#
# Mechanical properties :
#
#
# Convention : Reuss Voigt Hill
#
# Bulk Modulus (GPa) = 11.44388 31.34369 21.39378
# Shear Modulus (GPa) = 11.78158 24.30343 18.04250
#
# Velocity S-wave (km/s) = 2.50043 3.59125 3.09429
# Velocity P-wave (km/s) = 3.79593 5.81630 4.91113
#
# Compressibility (1/GPa) = 0.08738298
#
# Stress axis : x y z
#
# Youngs Moduli (GPa) = 81.76893 8.99890 16.47269
#
# Poissons Ratio (x) = 0.19220 0.02894
# Poissons Ratio (y) = 1.74646 0.41550
# Poissons Ratio (z) = 0.14365 0.22699
#
# Static dielectric constant tensor:
#      x y z
#    x 1.652610 0.000000 -0.004190 
#    y 0.000000 1.630770 0.000000 
#    z -0.004190 0.000000 1.644510 
# 
# From -- ./inp_files/42779.got.cif
#   From: 2010.05.17/outbox.cif.g08.bks.cpg/sg11_22_cif.got.tgz:42779.got - 2010.06.03 12:22:45.
