data_PCOD9160978
_publ_section_title
;
Structure prediction by ZEFSAII (Michael W. Deem and Ramdas Pophale) SiO2 
 PCOD9160978
Probable space group: P 21/M
;
_chemical_formula_sum "Si O2"
_cell_formula_units_Z 32
_cell_length_a 29.416443
_cell_length_b 8.896623
_cell_length_c 15.720497
_cell_angle_alpha 90.000000
_cell_angle_beta 153.261855
_cell_angle_gamma 90.000000
_cell_volume 1851.018681
_symmetry_space_group_name_H-M "P 21/M"
_symmetry_group_IT_number 11
_symmetry_cell_setting 'monoclinic'
loop_
_space_group_symop_operation_xyz
x,y,z
-x,1/2+y,-z
-x,-y,-z
x,1/2-y,z
loop_
_atom_site_type_symbol
_atom_site_label
_atom_site_fract_x
_atom_site_fract_y
_atom_site_fract_z
Si Si1 0.388788 0.929998 0.824444
Si Si2 0.941800 0.070795 0.776108
Si Si3 0.087279 0.429397 0.449706
Si Si4 0.077774 0.929833 0.698049
Si Si5 0.855418 0.569636 0.804339
Si Si6 0.762184 0.570495 0.143352
Si Si7 0.356436 0.069477 0.597262
Si Si8 0.586513 0.430689 0.944616
O O1 0.391125 0.750000 0.820792
O O2 0.332394 0.999590 0.649748
O O3 0.362796 0.966843 0.878521
O O4 0.500000 0.000000 0.000000
O O5 0.931124 0.250000 0.759380
O O6 0.898015 0.008488 0.615383
O O7 0.891027 0.003444 0.775442
O O8 0.061014 0.029470 0.985709
O O9 0.094778 0.250000 0.450915
O O10 0.166918 0.471524 0.656719
O O11 0.975723 0.464453 0.301581
O O12 0.079727 0.750000 0.691769
O O13 0.185053 0.998475 0.851111
O O14 0.000000 0.000000 0.500000
O O15 0.860527 0.750000 0.802928
O O16 0.737836 0.530569 0.620603
O O17 0.763316 0.750000 0.138093
O O18 0.651779 0.509467 0.981428
O O19 0.361450 0.250000 0.615810
O O20 0.468365 0.022576 0.753542
O O21 0.589600 0.250000 0.939688
#
# Coordination Sequence:
#
# PCOD9160978 Si02
#       8
#     4   4   4   4   4   4   4   4
#     4   9  17  28  41  60  86 116 153 191 225 265
#     4  10  20  32  49  72  93 119 157 198 236 277
#     4   9  19  33  48  68  94 125 154 183 229 281
#     4   9  17  31  49  69  94 123 154 188 229 276
#     4   9  19  35  50  66  93 124 156 197 242 279
#     4  10  20  31  46  69  97 128 156 186 229 275
#     4   9  18  32  48  63  86 123 158 193 236 276
#     4   9  18  30  43  64  91 120 155 191 226 272
#
# _framework density 17.287779
#
# number of rings (size 3 to 8) (size 9 to 14) (size 15 to 20)
#    0.000    2.750    0.000    3.000    1.750    6.500 
#    0.000    0.000    0.000    0.000    0.000    0.875 
#    0.000    0.000    0.000    0.000    0.000    0.000 
#
# Total GULP energy -178213.589991 kJ/mol
# GULP energy per Si atom -5569.174687 kJ/mol
# Density = 1.724843 g / cm^3
# Si number density = 17.287779 Si / 1000 Ang^3
#
#
#
# Elastic Constant Matrix: (Units=GPa)
#
#
# Indices 1 2 3 4 5 6 
#
# 1 47.8733 13.0260 2.6704 0.0000 18.6652 0.0000
# 2 13.0260 10.6125 7.7670 0.0000 7.9564 0.0000
# 3 2.6704 7.7670 62.1912 0.0000 14.7951 0.0000
# 4 0.0000 0.0000 0.0000 15.4875 0.0000 3.3092
# 5 18.6652 7.9564 14.7951 0.0000 25.8162 0.0000
# 6 0.0000 0.0000 0.0000 3.3092 0.0000 22.5152
#
#
#
# Elastic Compliance Matrix: (Units=1/GPa)
#
#
# Indices 1 2 3 4 5 6 
#
# 1 0.039007 -0.037949 0.008095 0.000000 -0.021146 0.000000
# 2 -0.037949 0.162408 -0.015368 0.000000 -0.013808 0.000000
# 3 0.008095 -0.015368 0.020745 0.000000 -0.013005 0.000000
# 4 0.000000 0.000000 0.000000 0.066662 0.000000 -0.009798
# 5 -0.021146 -0.013808 -0.013005 0.000000 0.065732 0.000000
# 6 0.000000 0.000000 0.000000 -0.009798 0.000000 0.045854
#
#
# Mechanical properties :
#
#
# Convention : Reuss Voigt Hill
#
# Bulk Modulus (GPa) = 7.59215 18.62264 13.10740
# Shear Modulus (GPa) = 9.35002 19.24470 14.29736
#
# Velocity S-wave (km/s) = 2.32813 3.34008 2.87892
# Velocity P-wave (km/s) = 3.41000 5.06659 4.31848
#
# Compressibility (1/GPa) = 0.13171493
#
# Stress axis : x y z
#
# Youngs Moduli (GPa) = 25.63645 6.15734 48.20427
#
# Poissons Ratio (x) = 0.23366 -0.39021
# Poissons Ratio (y) = 0.97288 0.74082
# Poissons Ratio (z) = -0.20753 0.09463
#
# Static dielectric constant tensor:
#      x y z
#    x 1.593050 0.000000 0.035170 
#    y 0.000000 1.570650 0.000000 
#    z 0.035170 0.000000 1.631930 
# 
# From -- ./inp_files/56193.got.cif
#   From: 2010.05.17/outbox.cif.g08.bks.cpg/sg11_29_cif.got.tgz:56193.got - 2010.06.03 12:22:45.
