data_PCOD9160821
_publ_section_title
;
Structure prediction by ZEFSAII (Michael W. Deem and Ramdas Pophale) SiO2 
 PCOD9160821
Probable space group: P 21/M
;
_chemical_formula_sum "Si O2"
_cell_formula_units_Z 32
_cell_length_a 8.632289
_cell_length_b 12.625055
_cell_length_c 14.067475
_cell_angle_alpha 90.000000
_cell_angle_beta 92.643778
_cell_angle_gamma 90.000000
_cell_volume 1531.485541
_symmetry_space_group_name_H-M "P 21/M"
_symmetry_group_IT_number 11
_symmetry_cell_setting 'monoclinic'
loop_
_space_group_symop_operation_xyz
x,y,z
-x,1/2+y,-z
-x,-y,-z
x,1/2-y,z
loop_
_atom_site_type_symbol
_atom_site_label
_atom_site_fract_x
_atom_site_fract_y
_atom_site_fract_z
Si Si1 0.477433 0.565975 0.392808
Si Si2 0.896395 0.629616 0.014777
Si Si3 0.961084 0.446477 0.349235
Si Si4 0.898400 0.487975 0.844901
Si Si5 0.772096 0.560399 0.506206
Si Si6 0.614795 0.989039 0.091952
Si Si7 0.632671 0.128520 0.278180
Si Si8 0.393515 0.637550 0.194592
O O1 0.620703 0.615699 0.455738
O O2 0.325220 0.537200 0.449634
O O3 0.541774 0.456665 0.343131
O O4 0.424046 0.638169 0.306388
O O5 0.843473 0.750000 0.017327
O O6 0.776967 0.543399 0.052351
O O7 0.039183 0.608025 0.088531
O O8 0.925120 0.593435 0.907554
O O9 0.883258 0.527723 0.422200
O O10 0.813733 0.376038 0.314572
O O11 0.022364 0.501989 0.255165
O O12 0.110549 0.397750 0.409031
O O13 0.718539 0.461346 0.826870
O O14 0.554102 0.888248 0.148803
O O15 0.621233 0.083385 0.169458
O O16 0.500000 0.000000 0.000000
O O17 0.576880 0.250000 0.283578
O O18 0.330859 0.750000 0.160042
#
# Coordination Sequence:
#
# PCOD9160821 Si02
#       8
#     4   4   4   4   4   4   4   4
#     4   9  19  38  61  90 123 159 205 249 308 366
#     4  11  24  42  64  89 125 165 205 256 308 364
#     4  10  19  37  65  89 122 165 204 246 313 364
#     4  11  22  41  61  95 125 159 209 252 302 370
#     4   9  18  36  65  87 121 171 192 255 315 354
#     4  11  22  42  59  89 122 156 207 256 308 370
#     4  10  22  39  62  87 123 166 206 258 309 364
#     4  11  22  38  63  88 119 161 203 251 307 363
#
# _framework density 20.894746000000001
#
# number of rings (size 3 to 8) (size 9 to 14) (size 15 to 20)
#    0.000    1.750    3.750    0.750    0.000    1.500 
#    0.000    6.875    0.000    1.500    0.000    0.000 
#    0.000    0.000    0.000    0.000    0.000    0.000 
#
# Total GULP energy -178184.589354 kJ/mol
# GULP energy per Si atom -5568.268417 kJ/mol
# Density = 2.084719 g / cm^3
# Si number density = 20.894746 Si / 1000 Ang^3
#
#
#
# Elastic Constant Matrix: (Units=GPa)
#
#
# Indices 1 2 3 4 5 6 
#
# 1 77.5537 2.7287 24.2100 0.0000 2.8984 0.0000
# 2 2.7287 85.5645 18.7472 0.0000 -1.6965 0.0000
# 3 24.2100 18.7472 126.6739 0.0000 -0.6477 0.0000
# 4 0.0000 0.0000 0.0000 4.3688 0.0000 6.2353
# 5 2.8984 -1.6965 -0.6477 0.0000 48.0736 0.0000
# 6 0.0000 0.0000 0.0000 6.2353 0.0000 11.4215
#
#
#
# Elastic Compliance Matrix: (Units=1/GPa)
#
#
# Indices 1 2 3 4 5 6 
#
# 1 0.013750 0.000125 -0.002651 0.000000 -0.000860 0.000000
# 2 0.000125 0.012088 -0.001811 0.000000 0.000395 0.000000
# 3 -0.002651 -0.001811 0.008670 0.000000 0.000213 0.000000
# 4 0.000000 0.000000 0.000000 1.036509 0.000000 -0.565862
# 5 -0.000860 0.000395 0.000213 0.000000 0.020870 0.000000
# 6 0.000000 0.000000 0.000000 -0.565862 0.000000 0.396475
#
#
# Mechanical properties :
#
#
# Convention : Reuss Voigt Hill
#
# Bulk Modulus (GPa) = 38.70793 42.35152 40.52972
# Shear Modulus (GPa) = 3.32083 29.04653 16.18368
#
# Velocity S-wave (km/s) = 1.26205 3.73250 2.78606
# Velocity P-wave (km/s) = 4.54853 6.23605 5.45791
#
# Compressibility (1/GPa) = 0.02583450
#
# Stress axis : x y z
#
# Youngs Moduli (GPa) = 72.72975 82.72888 115.34044
#
# Poissons Ratio (x) = -0.01036 0.30574
# Poissons Ratio (y) = -0.00911 0.20886
# Poissons Ratio (z) = 0.19279 0.14981
#
# Static dielectric constant tensor:
#      x y z
#    x 1.795800 0.000000 0.030810 
#    y 0.000000 1.711070 0.000000 
#    z 0.030810 0.000000 1.818600 
# 
# From -- ./inp_files/47197.got.cif
#   From: 2010.05.17/outbox.cif.g08.bks.cpg/sg11_24_cif.got.tgz:47197.got - 2010.06.03 12:22:45.
