data_PCOD9160906
_publ_section_title
;
Structure prediction by ZEFSAII (Michael W. Deem and Ramdas Pophale) SiO2 
 PCOD9160906
Probable space group: P 21/M
;
_chemical_formula_sum "Si O2"
_cell_formula_units_Z 28
_cell_length_a 5.217976
_cell_length_b 26.158208
_cell_length_c 9.355255
_cell_angle_alpha 90.000000
_cell_angle_beta 78.810150
_cell_angle_gamma 90.000000
_cell_volume 1252.650962
_symmetry_space_group_name_H-M "P 21/M"
_symmetry_group_IT_number 11
_symmetry_cell_setting 'monoclinic'
loop_
_space_group_symop_operation_xyz
x,y,z
-x,1/2+y,-z
-x,-y,-z
x,1/2-y,z
loop_
_atom_site_type_symbol
_atom_site_label
_atom_site_fract_x
_atom_site_fract_y
_atom_site_fract_z
Si Si1 0.844589 0.590454 0.998918
Si Si2 0.379279 0.446573 0.694198
Si Si3 0.581205 0.446361 0.153243
Si Si4 0.949593 0.092572 0.551896
Si Si5 0.891536 0.693292 0.826770
Si Si6 0.226563 0.307728 0.501670
Si Si7 0.670284 0.362045 0.342955
O O1 0.647346 0.552053 0.938413
O O2 0.800804 0.646676 0.935727
O O3 0.141930 0.571724 0.944017
O O4 0.763857 0.588263 0.172065
O O5 0.382371 0.502893 0.759641
O O6 0.677096 0.429015 0.639872
O O7 0.194039 0.441767 0.574731
O O8 0.502791 0.400930 0.269813
O O9 0.889129 0.101238 0.390354
O O10 0.028169 0.150813 0.585799
O O11 0.845107 0.750000 0.889321
O O12 0.801996 0.693514 0.669504
O O13 0.198265 0.680172 0.771179
O O14 0.204317 0.250000 0.556102
O O15 0.511257 0.333323 0.483190
#
# Coordination Sequence:
#
# PCOD9160906 Si02
#       7
#     4   4   4   4   4   4   4
#     4  11  22  41  62  90 124 156 215 253 297 373
#     4  12  24  41  61  86 131 173 201 244 303 365
#     4  11  23  39  65  92 119 164 209 260 307 351
#     4  11  24  41  58  91 122 161 205 243 302 376
#     4   9  19  35  62  93 116 150 196 264 319 347
#     4  10  19  39  65  88 117 155 200 258 313 361
#     4  10  20  38  63  92 125 146 209 257 308 364
#
# _framework density 22.352594
#
# number of rings (size 3 to 8) (size 9 to 14) (size 15 to 20)
#    0.000    1.429    2.857    3.000    0.000    1.714 
#    0.000    1.429    0.000    0.000    0.000    0.000 
#    0.000    0.000    0.000    0.000    0.000    0.000 
#
# Total GULP energy -156269.816384 kJ/mol
# GULP energy per Si atom -5581.064871 kJ/mol
# Density = 2.230172 g / cm^3
# Si number density = 22.352594 Si / 1000 Ang^3
#
#
#
# Elastic Constant Matrix: (Units=GPa)
#
#
# Indices 1 2 3 4 5 6 
#
# 1 102.8277 16.8564 5.4099 0.0000 -12.8837 0.0000
# 2 16.8564 104.2373 6.9343 0.0000 -9.4420 0.0000
# 3 5.4099 6.9343 21.2939 0.0000 -4.4385 0.0000
# 4 0.0000 0.0000 0.0000 22.8243 0.0000 -4.6612
# 5 -12.8837 -9.4420 -4.4385 0.0000 26.1970 0.0000
# 6 0.0000 0.0000 0.0000 -4.6612 0.0000 22.0844
#
#
#
# Elastic Compliance Matrix: (Units=1/GPa)
#
#
# Indices 1 2 3 4 5 6 
#
# 1 0.010562 -0.001208 -0.001345 0.000000 0.004531 0.000000
# 2 -0.001208 0.010194 -0.002457 0.000000 0.002664 0.000000
# 3 -0.001345 -0.002457 0.049531 0.000000 0.006844 0.000000
# 4 0.000000 0.000000 0.000000 0.045787 0.000000 0.009664
# 5 0.004531 0.002664 0.006844 0.000000 0.042520 0.000000
# 6 0.000000 0.000000 0.000000 0.009664 0.000000 0.047320
#
#
# Mechanical properties :
#
#
# Convention : Reuss Voigt Hill
#
# Bulk Modulus (GPa) = 16.59370 31.86224 24.22797
# Shear Modulus (GPa) = 21.18443 27.49837 24.34140
#
# Velocity S-wave (km/s) = 3.08188 3.51124 3.30354
# Velocity P-wave (km/s) = 4.48371 5.54290 5.04120
#
# Compressibility (1/GPa) = 0.06026385
#
# Stress axis : x y z
#
# Youngs Moduli (GPa) = 94.68351 98.10079 20.18957
#
# Poissons Ratio (x) = 0.11851 0.02716
# Poissons Ratio (y) = 0.11438 0.04961
# Poissons Ratio (z) = 0.12739 0.24108
#
# Static dielectric constant tensor:
#      x y z
#    x 1.934810 0.000000 0.026030 
#    y 0.000000 1.823830 0.000000 
#    z 0.026030 0.000000 1.842680 
# 
# From -- ./inp_files/30090.got.cif
#   From: 2010.05.17/outbox.cif.g08.bks.cpg/sg11_16_cif.got.tgz:30090.got - 2010.06.03 12:22:45.
