data_PCOD9160032
_publ_section_title
;
Structure prediction by ZEFSAII (Michael W. Deem and Ramdas Pophale) SiO2 
 PCOD9160032
Probable space group: P 21/M
;
_chemical_formula_sum "Si O2"
_cell_formula_units_Z 32
_cell_length_a 26.709960
_cell_length_b 8.819438
_cell_length_c 20.718794
_cell_angle_alpha 90.000000
_cell_angle_beta 158.746260
_cell_angle_gamma 90.000000
_cell_volume 1769.234030
_symmetry_space_group_name_H-M "P 21/M"
_symmetry_group_IT_number 11
_symmetry_cell_setting 'monoclinic'
loop_
_space_group_symop_operation_xyz
x,y,z
-x,1/2+y,-z
-x,-y,-z
x,1/2-y,z
loop_
_atom_site_type_symbol
_atom_site_label
_atom_site_fract_x
_atom_site_fract_y
_atom_site_fract_z
Si Si1 0.786814 0.933019 0.482776
Si Si2 0.103752 0.933050 0.889155
Si Si3 0.716175 0.567017 0.008494
Si Si4 0.896961 0.068083 0.964691
Si Si5 0.347322 0.067239 0.814771
Si Si6 0.206370 0.069550 0.287796
Si Si7 0.395986 0.931630 0.621979
Si Si8 0.850413 0.566684 0.305273
O O1 0.781612 0.750000 0.482052
O O2 0.730096 0.976624 0.344310
O O3 0.946080 0.978825 0.683627
O O4 0.691359 0.002087 0.423569
O O5 0.109350 0.750000 0.892696
O O6 0.206999 0.001422 0.961252
O O7 0.135362 0.977560 0.000987
O O8 0.720255 0.750000 0.010769
O O9 0.794193 0.519079 0.167704
O O10 0.555820 0.520897 0.818334
O O11 0.881432 0.250000 0.940199
O O12 0.808031 0.988136 0.802610
O O13 0.058262 0.033776 0.143478
O O14 0.356947 0.250000 0.827362
O O15 0.257377 0.020110 0.768578
O O16 0.500000 0.000000 0.000000
O O17 0.224298 0.250000 0.311236
O O18 0.325207 0.990301 0.471546
O O19 0.389967 0.750000 0.616986
O O20 0.858517 0.750000 0.315936
O O21 0.000000 0.500000 0.500000
#
# Coordination Sequence:
#
# PCOD9160032 Si02
#       8
#     4   4   4   4   4   4   4   4
#     4  10  20  36  57  83 110 140 184 235 281 331
#     4  10  20  37  59  83 111 144 184 230 277 326
#     4  10  23  39  55  80 115 149 186 231 276 331
#     4   9  18  34  56  84 115 144 180 228 276 326
#     4  10  21  36  56  80 111 145 181 229 283 335
#     4  10  19  34  57  85 116 146 182 228 274 327
#     4  11  22  37  57  82 114 152 188 227 278 332
#     4  10  21  39  59  80 109 146 187 232 281 332
#
# _framework density 18.086922999999999
#
# number of rings (size 3 to 8) (size 9 to 14) (size 15 to 20)
#    0.000    2.000    1.250    2.250    0.000    6.000 
#    0.000    0.625    0.000    0.000    0.000    0.000 
#    0.000    0.000    0.000    0.000    0.000    0.000 
#
# Total GULP energy -178729.441303 kJ/mol
# GULP energy per Si atom -5585.295041 kJ/mol
# Density = 1.804576 g / cm^3
# Si number density = 18.086923 Si / 1000 Ang^3
#
#
#
# Elastic Constant Matrix: (Units=GPa)
#
#
# Indices 1 2 3 4 5 6 
#
# 1 140.5406 25.3935 60.6956 0.0000 -6.0253 0.0000
# 2 25.3935 10.5147 21.0635 0.0000 -2.3132 0.0000
# 3 60.6956 21.0635 79.9325 0.0000 -2.8778 0.0000
# 4 0.0000 0.0000 0.0000 30.4998 0.0000 0.2064
# 5 -6.0253 -2.3132 -2.8778 0.0000 35.3655 0.0000
# 6 0.0000 0.0000 0.0000 0.2064 0.0000 27.4587
#
#
#
# Elastic Compliance Matrix: (Units=1/GPa)
#
#
# Indices 1 2 3 4 5 6 
#
# 1 0.013049 -0.024603 -0.003413 0.000000 0.000336 0.000000
# 2 -0.024603 0.250653 -0.047068 0.000000 0.008373 0.000000
# 3 -0.003413 -0.047068 0.027454 0.000000 -0.001426 0.000000
# 4 0.000000 0.000000 0.000000 0.032789 0.000000 -0.000247
# 5 0.000336 0.008373 -0.001426 0.000000 0.028765 0.000000
# 6 0.000000 0.000000 0.000000 -0.000247 0.000000 0.036420
#
#
# Mechanical properties :
#
#
# Convention : Reuss Voigt Hill
#
# Bulk Modulus (GPa) = 7.09280 49.47700 28.28490
# Shear Modulus (GPa) = 8.52813 26.92048 17.72431
#
# Velocity S-wave (km/s) = 2.17378 3.86216 3.13381
# Velocity P-wave (km/s) = 3.19851 6.87771 5.36345
#
# Compressibility (1/GPa) = 0.14098813
#
# Stress axis : x y z
#
# Youngs Moduli (GPa) = 76.63247 3.98958 36.42402
#
# Poissons Ratio (x) = 0.09815 0.12433
# Poissons Ratio (y) = 1.88536 1.71441
# Poissons Ratio (z) = 0.26158 0.18778
#
# Static dielectric constant tensor:
#      x y z
#    x 1.602940 0.000000 -0.014030 
#    y 0.000000 1.611880 0.000000 
#    z -0.014030 0.000000 1.596740 
# 
# From -- ./inp_files/67219.got.cif
#   From: 2010.05.17/outbox.cif.g08.bks.cpg/sg11_34_cif.got.tgz:67219.got - 2010.06.03 12:22:45.
