data_PCOD9160240
_publ_section_title
;
Structure prediction by ZEFSAII (Michael W. Deem and Ramdas Pophale) SiO2 
 PCOD9160240
Probable space group: P 21/M
;
_chemical_formula_sum "Si O2"
_cell_formula_units_Z 28
_cell_length_a 13.729375
_cell_length_b 7.481907
_cell_length_c 20.245176
_cell_angle_alpha 90.000000
_cell_angle_beta 35.707271
_cell_angle_gamma 90.000000
_cell_volume 1213.760081
_symmetry_space_group_name_H-M "P 21/M"
_symmetry_group_IT_number 11
_symmetry_cell_setting 'monoclinic'
loop_
_space_group_symop_operation_xyz
x,y,z
-x,1/2+y,-z
-x,-y,-z
x,1/2-y,z
loop_
_atom_site_type_symbol
_atom_site_label
_atom_site_fract_x
_atom_site_fract_y
_atom_site_fract_z
Si Si1 0.298311 0.048376 0.030034
Si Si2 0.832341 0.962316 0.133592
Si Si3 0.062561 0.541284 0.779100
Si Si4 0.646679 0.464133 0.471517
Si Si5 0.183346 0.963136 0.373923
Si Si6 0.662513 0.031779 0.840549
Si Si7 0.462481 0.530998 0.322111
O O1 0.298254 0.250000 0.001897
O O2 0.122151 0.960938 0.109902
O O3 0.303083 0.048607 0.107181
O O4 0.480396 0.973747 0.913889
O O5 0.821332 0.750000 0.145034
O O6 0.654013 0.024655 0.203123
O O7 0.848597 0.032839 0.199177
O O8 0.000000 0.000000 0.000000
O O9 0.034476 0.750000 0.777879
O O10 0.182300 0.465891 0.656116
O O11 0.500000 0.500000 0.500000
O O12 0.663916 0.250000 0.466905
O O13 0.595444 0.527322 0.572553
O O14 0.206607 0.750000 0.358770
O O15 0.206266 0.024668 0.286361
O O16 0.327555 0.031502 0.343112
O O17 0.000000 0.000000 0.500000
O O18 0.658696 0.250000 0.850597
O O19 0.460790 0.750000 0.322717
#
# Coordination Sequence:
#
# PCOD9160240 Si02
#       7
#     4   4   4   4   4   4   4
#     4   9  19  35  58  83 109 145 184 228 279 333
#     4  11  23  39  60  85 116 153 191 232 281 340
#     4  10  21  35  58  87 113 145 188 232 277 334
#     4  10  19  35  56  82 111 142 183 227 270 327
#     4  10  22  39  59  82 110 148 191 234 279 336
#     4   9  19  36  56  80 110 143 184 231 282 332
#     4   9  20  38  60  81 110 153 189 223 282 344
#
# _framework density 23.068808000000001
#
# number of rings (size 3 to 8) (size 9 to 14) (size 15 to 20)
#    0.000    2.286    1.429    0.429    4.000    1.143 
#    0.000    2.143    0.000    0.000    0.000    0.000 
#    0.000    0.000    0.000    0.000    0.000    0.000 
#
# Total GULP energy -156355.492520 kJ/mol
# GULP energy per Si atom -5584.124733 kJ/mol
# Density = 2.301630 g / cm^3
# Si number density = 23.068808 Si / 1000 Ang^3
#
#
#
# Elastic Constant Matrix: (Units=GPa)
#
#
# Indices 1 2 3 4 5 6 
#
# 1 50.0560 -8.9350 8.6852 0.0000 -19.9548 0.0000
# 2 -8.9350 69.9080 -6.9177 0.0000 -1.8255 0.0000
# 3 8.6852 -6.9177 125.6550 0.0000 -3.1194 0.0000
# 4 0.0000 0.0000 0.0000 10.9282 0.0000 0.9228
# 5 -19.9548 -1.8255 -3.1194 0.0000 41.6623 0.0000
# 6 0.0000 0.0000 0.0000 0.9228 0.0000 15.8957
#
#
#
# Elastic Compliance Matrix: (Units=1/GPa)
#
#
# Indices 1 2 3 4 5 6 
#
# 1 0.025765 0.003490 -0.001281 0.000000 0.012398 0.000000
# 2 0.003490 0.014875 0.000637 0.000000 0.002371 0.000000
# 3 -0.001281 0.000637 0.008082 0.000000 0.000020 0.000000
# 4 0.000000 0.000000 0.000000 0.091957 0.000000 -0.005338
# 5 0.012398 0.002371 0.000020 0.000000 0.030046 0.000000
# 6 0.000000 0.000000 0.000000 -0.005338 0.000000 0.063220
#
#
# Mechanical properties :
#
#
# Convention : Reuss Voigt Hill
#
# Bulk Modulus (GPa) = 18.37753 25.69823 22.03788
# Shear Modulus (GPa) = 20.29281 30.54967 25.42124
#
# Velocity S-wave (km/s) = 2.96913 3.64302 3.32320
# Velocity P-wave (km/s) = 4.44275 5.37210 4.92938
#
# Compressibility (1/GPa) = 0.05441426
#
# Stress axis : x y z
#
# Youngs Moduli (GPa) = 38.81216 67.22470 123.72607
#
# Poissons Ratio (x) = -0.23462 0.15849
# Poissons Ratio (y) = -0.13546 -0.07876
# Poissons Ratio (z) = 0.04972 -0.04279
#
# Static dielectric constant tensor:
#      x y z
#    x 1.831010 0.000000 -0.002690 
#    y 0.000000 1.978490 0.000000 
#    z -0.002690 0.000000 1.956720 
# 
# From -- ./inp_files/37705.got.cif
#   From: 2010.05.17/outbox.cif.g08.bks.cpg/sg11_19_cif.got.tgz:37705.got - 2010.06.03 12:22:45.
