data_PCOD9160204
_publ_section_title
;
Structure prediction by ZEFSAII (Michael W. Deem and Ramdas Pophale) SiO2 
 PCOD9160204
Probable space group: P 21/M
;
_chemical_formula_sum "Si O2"
_cell_formula_units_Z 32
_cell_length_a 12.106869
_cell_length_b 15.425745
_cell_length_c 13.196696
_cell_angle_alpha 90.000000
_cell_angle_beta 135.765960
_cell_angle_gamma 90.000000
_cell_volume 1719.269712
_symmetry_space_group_name_H-M "P 21/M"
_symmetry_group_IT_number 11
_symmetry_cell_setting 'monoclinic'
loop_
_space_group_symop_operation_xyz
x,y,z
-x,1/2+y,-z
-x,-y,-z
x,1/2-y,z
loop_
_atom_site_type_symbol
_atom_site_label
_atom_site_fract_x
_atom_site_fract_y
_atom_site_fract_z
Si Si1 0.020524 0.351612 0.329040
Si Si2 0.082894 0.023349 0.660684
Si Si3 0.924387 0.092242 0.924567
Si Si4 0.816168 0.653809 0.767179
Si Si5 0.139947 0.645708 0.349302
Si Si6 0.513288 0.401759 0.473631
Si Si7 0.586458 0.150727 0.744913
Si Si8 0.287043 0.350329 0.680913
O O1 0.966254 0.250000 0.280332
O O2 0.108779 0.384882 0.285501
O O3 0.150288 0.349907 0.504260
O O4 0.897619 0.428918 0.273908
O O5 0.234559 0.081424 0.731474
O O6 0.965412 0.086771 0.645852
O O7 0.000000 0.000000 0.500000
O O8 0.906267 0.117792 0.795558
O O9 0.748345 0.097670 0.854189
O O10 0.048427 0.154408 0.060747
O O11 0.000000 0.000000 0.000000
O O12 0.773039 0.750000 0.707246
O O13 0.650704 0.613914 0.691747
O O14 0.119743 0.750000 0.349511
O O15 0.326855 0.621922 0.480349
O O16 0.500000 0.500000 0.500000
O O17 0.521909 0.352101 0.587114
O O18 0.629090 0.250000 0.795746
O O19 0.448568 0.123874 0.730481
O O20 0.299810 0.250000 0.724973
#
# Coordination Sequence:
#
# PCOD9160204 Si02
#       8
#     4   4   4   4   4   4   4   4
#     4   9  17  30  51  80 112 145 186 238 291 343
#     4  10  20  34  55  83 112 144 194 245 293 337
#     4  11  22  36  54  84 117 151 189 231 289 354
#     4  11  19  32  53  80 110 146 183 221 277 344
#     4  11  23  39  57  85 124 160 193 242 300 355
#     4  11  20  31  54  83 117 148 185 232 291 350
#     4  10  19  35  55  80 112 148 191 239 288 344
#     4   9  17  31  55  81 106 144 194 241 280 334
#
# _framework density 18.612553999999999
#
# number of rings (size 3 to 8) (size 9 to 14) (size 15 to 20)
#    0.000    1.750    1.250    6.375    1.750    0.500 
#    0.000    0.000    0.000    3.000    0.000    1.750 
#    0.000    0.000    0.000    0.000    0.000    0.000 
#
# Total GULP energy -178312.993133 kJ/mol
# GULP energy per Si atom -5572.281035 kJ/mol
# Density = 1.857019 g / cm^3
# Si number density = 18.612554 Si / 1000 Ang^3
#
#
#
# Elastic Constant Matrix: (Units=GPa)
#
#
# Indices 1 2 3 4 5 6 
#
# 1 124.8880 61.2819 28.6796 0.0000 24.6375 0.0000
# 2 61.2819 115.2729 21.7367 0.0000 16.3126 0.0000
# 3 28.6796 21.7367 63.1862 0.0000 16.6792 0.0000
# 4 0.0000 0.0000 0.0000 26.0206 0.0000 1.1754
# 5 24.6375 16.3126 16.6792 0.0000 22.6790 0.0000
# 6 0.0000 0.0000 0.0000 1.1754 0.0000 31.8342
#
#
#
# Elastic Compliance Matrix: (Units=1/GPa)
#
#
# Indices 1 2 3 4 5 6 
#
# 1 0.012664 -0.005174 -0.001637 0.000000 -0.008833 0.000000
# 2 -0.005174 0.011949 -0.001213 0.000000 -0.002082 0.000000
# 3 -0.001637 -0.001213 0.020210 0.000000 -0.012213 0.000000
# 4 0.000000 0.000000 0.000000 0.038495 0.000000 -0.001421
# 5 -0.008833 -0.002082 -0.012213 0.000000 0.064169 0.000000
# 6 0.000000 0.000000 0.000000 -0.001421 0.000000 0.031465
#
#
# Mechanical properties :
#
#
# Convention : Reuss Voigt Hill
#
# Bulk Modulus (GPa) = 34.75013 58.52707 46.63860
# Shear Modulus (GPa) = 24.43885 28.88336 26.66110
#
# Velocity S-wave (km/s) = 3.62751 3.94359 3.78885
# Velocity P-wave (km/s) = 6.02128 7.22835 6.65225
#
# Compressibility (1/GPa) = 0.02877687
#
# Stress axis : x y z
#
# Youngs Moduli (GPa) = 78.96108 83.68868 49.47996
#
# Poissons Ratio (x) = 0.43302 0.08099
# Poissons Ratio (y) = 0.40856 0.06000
# Poissons Ratio (z) = 0.12924 0.10147
#
# Static dielectric constant tensor:
#      x y z
#    x 1.682000 0.000000 0.015880 
#    y 0.000000 1.627230 0.000000 
#    z 0.015880 0.000000 1.633580 
# 
# From -- ./inp_files/50411.got.cif
#   From: 2010.05.17/outbox.cif.g08.bks.cpg/sg11_26_cif.got.tgz:50411.got - 2010.06.03 12:22:45.
