data_PCOD9160236
_publ_section_title
;
Structure prediction by ZEFSAII (Michael W. Deem and Ramdas Pophale) SiO2 
 PCOD9160236
Probable space group: P 21/M
;
_chemical_formula_sum "Si O2"
_cell_formula_units_Z 32
_cell_length_a 25.554770
_cell_length_b 8.842797
_cell_length_c 20.593413
_cell_angle_alpha 90.000000
_cell_angle_beta 156.665692
_cell_angle_gamma 90.000000
_cell_volume 1843.273351
_symmetry_space_group_name_H-M "P 21/M"
_symmetry_group_IT_number 11
_symmetry_cell_setting 'monoclinic'
loop_
_space_group_symop_operation_xyz
x,y,z
-x,1/2+y,-z
-x,-y,-z
x,1/2-y,z
loop_
_atom_site_type_symbol
_atom_site_label
_atom_site_fract_x
_atom_site_fract_y
_atom_site_fract_z
Si Si1 0.349481 0.067097 0.068746
Si Si2 0.115770 0.568595 0.547581
Si Si3 0.651066 0.431915 0.440446
Si Si4 0.850003 0.430139 0.054060
Si Si5 0.870282 0.432558 0.583508
Si Si6 0.109471 0.430052 0.034474
Si Si7 0.827040 0.930087 0.747274
Si Si8 0.184165 0.068446 0.757149
O O1 0.338229 0.250000 0.059795
O O2 0.501779 0.025854 0.252718
O O3 0.292123 0.021149 0.933076
O O4 0.257447 0.996132 0.019000
O O5 0.122657 0.750000 0.559973
O O6 0.157985 0.524120 0.523305
O O7 0.195454 0.499045 0.698250
O O8 0.961511 0.524684 0.381930
O O9 0.656333 0.250000 0.454488
O O10 0.752333 0.471916 0.497929
O O11 0.704947 0.509711 0.566775
O O12 0.849776 0.250000 0.055466
O O13 0.827307 0.489270 0.955181
O O14 0.993616 0.492223 0.238900
O O15 0.888261 0.250000 0.605723
O O16 0.106966 0.250000 0.021161
O O17 0.959278 0.488958 0.871499
O O18 0.179210 0.461964 0.182878
O O19 0.842276 0.750000 0.756515
O O20 0.186579 0.250000 0.755214
#
# Coordination Sequence:
#
# PCOD9160236 Si02
#       8
#     4   4   4   4   4   4   4   4
#     4  10  21  39  57  78 110 150 189 223 273 337
#     4   9  17  30  51  77 106 139 177 225 275 323
#     4  10  21  36  59  82 108 150 188 222 273 335
#     4  12  23  34  55  86 111 140 184 234 278 319
#     4  10  19  35  56  81 110 143 183 227 274 329
#     4  10  20  35  56  81 112 147 181 223 273 326
#     4  10  20  34  55  84 114 143 180 227 275 320
#     4   9  17  31  51  75 106 142 180 225 272 321
#
# _framework density 17.360420000000001
#
# number of rings (size 3 to 8) (size 9 to 14) (size 15 to 20)
#    0.000    2.000    2.500    1.875    0.000    3.000 
#    0.000    1.250    0.000    0.000    0.000    0.000 
#    0.000    0.000    0.000    0.000    0.000    0.000 
#
# Total GULP energy -178606.238776 kJ/mol
# GULP energy per Si atom -5581.444962 kJ/mol
# Density = 1.732091 g / cm^3
# Si number density = 17.360420 Si / 1000 Ang^3
#
#
#
# Elastic Constant Matrix: (Units=GPa)
#
#
# Indices 1 2 3 4 5 6 
#
# 1 123.4725 45.3260 82.6433 0.0000 -17.4948 0.0000
# 2 45.3260 33.7040 47.8478 0.0000 -4.7459 0.0000
# 3 82.6433 47.8478 144.6573 0.0000 -16.2412 0.0000
# 4 0.0000 0.0000 0.0000 18.4214 0.0000 -12.4038
# 5 -17.4948 -4.7459 -16.2412 0.0000 30.2075 0.0000
# 6 0.0000 0.0000 0.0000 -12.4038 0.0000 22.2776
#
#
#
# Elastic Compliance Matrix: (Units=1/GPa)
#
#
# Indices 1 2 3 4 5 6 
#
# 1 0.018052 -0.018363 -0.003607 0.000000 0.005631 0.000000
# 2 -0.018363 0.074660 -0.014986 0.000000 -0.006962 0.000000
# 3 -0.003607 -0.014986 0.014294 0.000000 0.003242 0.000000
# 4 0.000000 0.000000 0.000000 0.086842 0.000000 0.048352
# 5 0.005631 -0.006962 0.003242 0.000000 0.037014 0.000000
# 6 0.000000 0.000000 0.000000 0.048352 0.000000 0.071810
#
#
# Mechanical properties :
#
#
# Convention : Reuss Voigt Hill
#
# Bulk Modulus (GPa) = 30.21695 72.60756 51.41226
# Shear Modulus (GPa) = 12.89938 22.58242 17.74090
#
# Velocity S-wave (km/s) = 2.72882 3.61057 3.20021
# Velocity P-wave (km/s) = 5.23183 7.70039 6.58286
#
# Compressibility (1/GPa) = 0.03309400
#
# Stress axis : x y z
#
# Youngs Moduli (GPa) = 55.39489 13.39413 69.95772
#
# Poissons Ratio (x) = 0.24596 0.25235
# Poissons Ratio (y) = 1.01724 1.04835
# Poissons Ratio (z) = 0.19982 0.20072
#
# Static dielectric constant tensor:
#      x y z
#    x 1.585240 0.000000 -0.019860 
#    y 0.000000 1.582830 0.000000 
#    z -0.019860 0.000000 1.575420 
# 
# From -- ./inp_files/67215.got.cif
#   From: 2010.05.17/outbox.cif.g08.bks.cpg/sg11_34_cif.got.tgz:67215.got - 2010.06.03 12:22:45.
