data_PCOD9160784
_publ_section_title
;
Structure prediction by ZEFSAII (Michael W. Deem and Ramdas Pophale) SiO2 
 PCOD9160784
Probable space group: P 21/M
;
_chemical_formula_sum "Si O2"
_cell_formula_units_Z 32
_cell_length_a 19.239733
_cell_length_b 13.796228
_cell_length_c 12.091127
_cell_angle_alpha 90.000000
_cell_angle_beta 152.447965
_cell_angle_gamma 90.000000
_cell_volume 1484.528769
_symmetry_space_group_name_H-M "P 21/M"
_symmetry_group_IT_number 11
_symmetry_cell_setting 'monoclinic'
loop_
_space_group_symop_operation_xyz
x,y,z
-x,1/2+y,-z
-x,-y,-z
x,1/2-y,z
loop_
_atom_site_type_symbol
_atom_site_label
_atom_site_fract_x
_atom_site_fract_y
_atom_site_fract_z
Si Si1 0.916463 0.641180 0.007196
Si Si2 0.678274 0.938800 0.496927
Si Si3 0.783804 0.358841 0.710688
Si Si4 0.322085 0.021714 0.750427
Si Si5 0.868069 0.140415 0.419157
Si Si6 0.872364 0.446861 0.067397
Si Si7 0.895864 0.634122 0.423959
Si Si8 0.357136 0.640814 0.107803
O O1 0.879091 0.750000 0.991311
O O2 0.804501 0.609572 0.750927
O O3 0.902908 0.557831 0.079262
O O4 0.081580 0.639929 0.187841
O O5 0.712866 0.928973 0.416119
O O6 0.520825 0.889838 0.301454
O O7 0.675370 0.053067 0.523703
O O8 0.720240 0.250000 0.625685
O O9 0.858121 0.387781 0.932945
O O10 0.263450 0.085968 0.771012
O O11 0.219162 0.926235 0.617632
O O12 0.500000 0.000000 0.000000
O O13 0.888709 0.250000 0.489165
O O14 0.021729 0.106269 0.574988
O O15 0.751364 0.142618 0.151569
O O16 0.995901 0.401435 0.323521
O O17 0.714289 0.432465 0.905885
O O18 0.888115 0.750000 0.414016
O O19 0.356718 0.750000 0.154154
#
# Coordination Sequence:
#
# PCOD9160784 Si02
#       8
#     4   4   4   4   4   4   4   4
#     4  10  21  37  59  89 123 154 193 243 297 359
#     4  11  22  36  55  84 118 156 198 246 301 356
#     4  10  20  35  55  82 116 153 193 242 300 358
#     4  12  23  37  59  88 121 155 198 254 309 351
#     4   9  20  40  61  84 117 156 201 250 303 359
#     4  10  19  37  62  88 117 154 200 244 293 355
#     4  10  21  38  64  92 117 157 207 250 295 360
#     4  10  20  36  59  86 118 157 200 247 298 357
#
# _framework density 21.555661000000001
#
# number of rings (size 3 to 8) (size 9 to 14) (size 15 to 20)
#    0.000    1.750    1.250    5.625    0.000    5.000 
#    0.000    2.500    0.000    3.000    0.000    0.000 
#    0.000    0.000    0.000    0.000    0.000    0.000 
#
# Total GULP energy -178922.749663 kJ/mol
# GULP energy per Si atom -5591.335927 kJ/mol
# Density = 2.150660 g / cm^3
# Si number density = 21.555661 Si / 1000 Ang^3
#
#
#
# Elastic Constant Matrix: (Units=GPa)
#
#
# Indices 1 2 3 4 5 6 
#
# 1 115.2373 29.1039 42.0150 0.0000 15.6479 0.0000
# 2 29.1039 106.9876 13.5432 0.0000 7.3412 0.0000
# 3 42.0150 13.5432 69.7997 0.0000 8.0081 0.0000
# 4 0.0000 0.0000 0.0000 20.3779 0.0000 7.0673
# 5 15.6479 7.3412 8.0081 0.0000 32.1229 0.0000
# 6 0.0000 0.0000 0.0000 7.0673 0.0000 33.6775
#
#
#
# Elastic Compliance Matrix: (Units=1/GPa)
#
#
# Indices 1 2 3 4 5 6 
#
# 1 0.012090 -0.002217 -0.006413 0.000000 -0.003784 0.000000
# 2 -0.002217 0.010088 -0.000496 0.000000 -0.001102 0.000000
# 3 -0.006413 -0.000496 0.018439 0.000000 -0.001359 0.000000
# 4 0.000000 0.000000 0.000000 0.052924 0.000000 -0.011106
# 5 -0.003784 -0.001102 -0.001359 0.000000 0.033564 0.000000
# 6 0.000000 0.000000 0.000000 -0.011106 0.000000 0.032024
#
#
# Mechanical properties :
#
#
# Convention : Reuss Voigt Hill
#
# Bulk Modulus (GPa) = 44.71448 51.26098 47.98773
# Shear Modulus (GPa) = 27.05073 31.05983 29.05528
#
# Velocity S-wave (km/s) = 3.54633 3.80005 3.67538
# Velocity P-wave (km/s) = 6.12841 6.56401 6.34995
#
# Compressibility (1/GPa) = 0.02236412
#
# Stress axis : x y z
#
# Youngs Moduli (GPa) = 82.71552 99.12291 54.23250
#
# Poissons Ratio (x) = 0.21979 0.34779
# Poissons Ratio (y) = 0.18341 0.02692
# Poissons Ratio (z) = 0.53044 0.04920
#
# Static dielectric constant tensor:
#      x y z
#    x 1.777650 0.000000 -0.020180 
#    y 0.000000 1.812170 0.000000 
#    z -0.020180 0.000000 1.785730 
# 
# From -- ./inp_files/41671.got.cif
#   From: 2010.05.17/outbox.cif.g08.bks.cpg/sg11_21_cif.got.tgz:41671.got - 2010.06.03 12:22:45.
