data_PCOD9160190
_publ_section_title
;
Structure prediction by ZEFSAII (Michael W. Deem and Ramdas Pophale) SiO2 
 PCOD9160190
Probable space group: P 21/M
;
_chemical_formula_sum "Si O2"
_cell_formula_units_Z 32
_cell_length_a 10.775049
_cell_length_b 31.195212
_cell_length_c 8.167450
_cell_angle_alpha 90.000000
_cell_angle_beta 149.424700
_cell_angle_gamma 90.000000
_cell_volume 1396.465033
_symmetry_space_group_name_H-M "P 21/M"
_symmetry_group_IT_number 11
_symmetry_cell_setting 'monoclinic'
loop_
_space_group_symop_operation_xyz
x,y,z
-x,1/2+y,-z
-x,-y,-z
x,1/2-y,z
loop_
_atom_site_type_symbol
_atom_site_label
_atom_site_fract_x
_atom_site_fract_y
_atom_site_fract_z
Si Si1 0.108650 0.546145 0.575634
Si Si2 0.558355 0.153916 0.515963
Si Si3 0.341917 0.624083 0.994538
Si Si4 0.931313 0.931931 0.847197
Si Si5 0.855169 0.852582 0.520660
Si Si6 0.924300 0.699397 0.917000
Si Si7 0.710477 0.918749 0.929264
Si Si8 0.327845 0.981803 0.480260
O O1 0.286125 0.574195 0.890513
O O2 0.240984 0.537327 0.554596
O O3 0.000000 0.500000 0.500000
O O4 0.877675 0.576858 0.275767
O O5 0.311353 0.182240 0.249238
O O6 0.501887 0.115762 0.324559
O O7 0.593341 0.133451 0.739718
O O8 0.808341 0.177916 0.752837
O O9 0.092830 0.650505 0.676588
O O10 0.574192 0.640517 0.155426
O O11 0.919544 0.895992 0.697607
O O12 0.868536 0.909544 0.947410
O O13 0.735063 0.968599 0.586082
O O14 0.175621 0.958496 0.163136
O O15 0.864776 0.813876 0.661467
O O16 0.944304 0.750000 0.959785
O O17 0.602766 0.966360 0.778969
#
# Coordination Sequence:
#
# PCOD9160190 Si02
#       8
#     4   4   4   4   4   4   4   4
#     4  11  26  38  51  82 117 162 212 262 293 334
#     4  10  21  38  64  89 122 155 198 234 304 371
#     4  10  21  37  57  80 117 155 197 241 291 342
#     4  10  19  35  54  82 108 156 199 248 291 349
#     4  10  20  35  61  82 119 152 190 234 298 365
#     4  10  19  35  62 100 125 141 182 251 308 362
#     4  11  22  36  57  81 114 161 202 250 295 363
#     4  10  22  34  55  76 114 154 210 252 292 332
#
# _framework density 22.915002999999999
#
# number of rings (size 3 to 8) (size 9 to 14) (size 15 to 20)
#    0.000    1.750    2.500    3.000    5.250    2.500 
#    0.000    0.000    0.000    0.000    0.000   21.000 
#    0.000    0.000    0.000    0.000    0.000    0.000 
#
# Total GULP energy -178697.906610 kJ/mol
# GULP energy per Si atom -5584.309582 kJ/mol
# Density = 2.286285 g / cm^3
# Si number density = 22.915003 Si / 1000 Ang^3
#
#
#
# Elastic Constant Matrix: (Units=GPa)
#
#
# Indices 1 2 3 4 5 6 
#
# 1 77.2340 19.4346 33.8824 0.0000 26.5334 0.0000
# 2 19.4346 118.5699 50.6536 0.0000 9.0717 0.0000
# 3 33.8824 50.6536 125.6866 0.0000 30.6653 0.0000
# 4 0.0000 0.0000 0.0000 31.0470 0.0000 9.7595
# 5 26.5334 9.0717 30.6653 0.0000 39.9579 0.0000
# 6 0.0000 0.0000 0.0000 9.7595 0.0000 24.4063
#
#
#
# Elastic Compliance Matrix: (Units=1/GPa)
#
#
# Indices 1 2 3 4 5 6 
#
# 1 0.017473 -0.001363 -0.001730 0.000000 -0.009966 0.000000
# 2 -0.001363 0.010329 -0.004237 0.000000 0.001812 0.000000
# 3 -0.001730 -0.004237 0.011831 0.000000 -0.006969 0.000000
# 4 0.000000 0.000000 0.000000 0.036840 0.000000 -0.014731
# 5 -0.009966 0.001812 -0.006969 0.000000 0.036581 0.000000
# 6 0.000000 0.000000 0.000000 -0.014731 0.000000 0.046864
#
#
# Mechanical properties :
#
#
# Convention : Reuss Voigt Hill
#
# Bulk Modulus (GPa) = 40.04308 58.82574 49.43441
# Shear Modulus (GPa) = 27.33727 33.58358 30.46042
#
# Velocity S-wave (km/s) = 3.45771 3.83243 3.64988
# Velocity P-wave (km/s) = 5.78390 6.73130 6.27551
#
# Compressibility (1/GPa) = 0.02497310
#
# Stress axis : x y z
#
# Youngs Moduli (GPa) = 57.23081 96.81680 84.52693
#
# Poissons Ratio (x) = 0.13192 0.14621
# Poissons Ratio (y) = 0.07798 0.35817
# Poissons Ratio (z) = 0.09899 0.41025
#
# Static dielectric constant tensor:
#      x y z
#    x 1.988140 0.000000 0.065120 
#    y 0.000000 1.832570 0.000000 
#    z 0.065120 0.000000 1.943140 
# 
# From -- ./inp_files/19890.got.cif
#   From: 2010.05.17/outbox.cif.g08.bks.cpg/sg11_10_cif.got.tgz:19890.got - 2010.06.03 12:22:45.
