data_PCOD9160673
_publ_section_title
;
Structure prediction by ZEFSAII (Michael W. Deem and Ramdas Pophale) SiO2 
 PCOD9160673
Probable space group: P 21/M
;
_chemical_formula_sum "Si O2"
_cell_formula_units_Z 32
_cell_length_a 12.468189
_cell_length_b 15.295033
_cell_length_c 14.888374
_cell_angle_alpha 90.000000
_cell_angle_beta 32.780274
_cell_angle_gamma 90.000000
_cell_volume 1537.214191
_symmetry_space_group_name_H-M "P 21/M"
_symmetry_group_IT_number 11
_symmetry_cell_setting 'monoclinic'
loop_
_space_group_symop_operation_xyz
x,y,z
-x,1/2+y,-z
-x,-y,-z
x,1/2-y,z
loop_
_atom_site_type_symbol
_atom_site_label
_atom_site_fract_x
_atom_site_fract_y
_atom_site_fract_z
Si Si1 0.180862 0.853429 0.731512
Si Si2 0.932876 0.049088 0.636755
Si Si3 0.987483 0.355930 0.960692
Si Si4 0.355062 0.930441 0.913645
Si Si5 0.821701 0.586971 0.868853
Si Si6 0.692588 0.647279 0.556529
Si Si7 0.435284 0.650097 0.051763
Si Si8 0.384951 0.145136 0.599104
O O1 0.214620 0.750000 0.721921
O O2 0.004649 0.865260 0.785559
O O3 0.391936 0.890908 0.550690
O O4 0.106878 0.888428 0.879738
O O5 0.720268 0.095876 0.778824
O O6 0.096900 0.118851 0.552034
O O7 0.907906 0.979837 0.734618
O O8 0.000000 0.000000 0.500000
O O9 0.993881 0.250000 0.959361
O O10 0.209372 0.389355 0.785578
O O11 0.842549 0.382787 0.982272
O O12 0.525698 0.910570 0.722291
O O13 0.425903 0.891902 0.959353
O O14 0.293524 0.029774 0.975344
O O15 0.654757 0.643226 0.937074
O O16 0.651618 0.750000 0.603128
O O17 0.682053 0.634383 0.457061
O O18 0.371773 0.750000 0.090864
O O19 0.393992 0.250000 0.610129
#
# Coordination Sequence:
#
# PCOD9160673 Si02
#       8
#     4   4   4   4   4   4   4   4
#     4  10  21  41  62  86 124 168 210 252 300 372
#     4  11  23  41  60  89 127 158 197 258 321 368
#     4  10  19  36  62  90 120 160 207 259 307 359
#     4  11  21  37  62  92 121 156 202 259 320 361
#     4  11  24  41  60  85 126 165 200 251 318 373
#     4  11  20  36  62  92 121 156 202 257 307 366
#     4  11  22  40  64  88 114 160 213 253 301 375
#     4   9  18  34  58  89 120 154 205 257 302 352
#
# _framework density 20.816879
#
# number of rings (size 3 to 8) (size 9 to 14) (size 15 to 20)
#    0.000    1.500    1.250    6.375    0.000    1.500 
#    4.500    3.125    0.000    0.000    0.000    0.000 
#    0.000    0.000    0.000    0.000    0.000    0.000 
#
# Total GULP energy -178874.545384 kJ/mol
# GULP energy per Si atom -5589.829543 kJ/mol
# Density = 2.076950 g / cm^3
# Si number density = 20.816879 Si / 1000 Ang^3
#
#
#
# Elastic Constant Matrix: (Units=GPa)
#
#
# Indices 1 2 3 4 5 6 
#
# 1 68.6197 -13.7297 28.6485 0.0000 -37.5662 0.0000
# 2 -13.7297 18.6346 4.9419 0.0000 1.3141 0.0000
# 3 28.6485 4.9419 115.1711 0.0000 -25.5285 0.0000
# 4 0.0000 0.0000 0.0000 -12.4834 0.0000 14.0545
# 5 -37.5662 1.3141 -25.5285 0.0000 29.4157 0.0000
# 6 0.0000 0.0000 0.0000 14.0545 0.0000 11.9038
#
#
#
# Elastic Compliance Matrix: (Units=1/GPa)
#
#
# Indices 1 2 3 4 5 6 
#
# 1 0.077966 0.050580 0.000006 0.000000 0.097315 0.000000
# 2 0.050580 0.087824 -0.003593 0.000000 0.057553 0.000000
# 3 0.000006 -0.003593 0.010986 0.000000 0.009703 0.000000
# 4 0.000000 0.000000 0.000000 -0.034391 0.000000 0.040605
# 5 0.097315 0.057553 0.009703 0.000000 0.164124 0.000000
# 6 0.000000 0.000000 0.000000 0.040605 0.000000 0.036066
#
#
# Mechanical properties :
#
#
# Convention : Reuss Voigt Hill
#
# Bulk Modulus (GPa) = 3.69326 26.90521 15.29923
# Shear Modulus (GPa) = 14.75607 17.93819 16.34713
#
# Velocity S-wave (km/s) = 2.66531 2.93868 2.80533
# Velocity P-wave (km/s) = 3.35409 4.94644 4.22594
#
# Compressibility (1/GPa) = 0.27076343
#
# Stress axis : x y z
#
# Youngs Moduli (GPa) = 12.82606 11.38636 91.02467
#
# Poissons Ratio (x) = -0.57592 -0.00058
# Poissons Ratio (y) = -0.64874 0.32705
# Poissons Ratio (z) = -0.00008 0.04091
#
# Static dielectric constant tensor:
#      x y z
#    x 1.715090 0.000000 -0.008780 
#    y 0.000000 1.758500 0.000000 
#    z -0.008780 0.000000 1.758150 
# 
# From -- ./inp_files/50649.got.cif
#   From: 2010.05.17/outbox.cif.g08.bks.cpg/sg11_26_cif.got.tgz:50649.got - 2010.06.03 12:22:45.
