data_PCOD9160849
_publ_section_title
;
Structure prediction by ZEFSAII (Michael W. Deem and Ramdas Pophale) SiO2 
 PCOD9160849
Probable space group: P 21/M
;
_chemical_formula_sum "Si O2"
_cell_formula_units_Z 28
_cell_length_a 13.006022
_cell_length_b 8.526680
_cell_length_c 14.995599
_cell_angle_alpha 90.000000
_cell_angle_beta 121.377494
_cell_angle_gamma 90.000000
_cell_volume 1419.782189
_symmetry_space_group_name_H-M "P 21/M"
_symmetry_group_IT_number 11
_symmetry_cell_setting 'monoclinic'
loop_
_space_group_symop_operation_xyz
x,y,z
-x,1/2+y,-z
-x,-y,-z
x,1/2-y,z
loop_
_atom_site_type_symbol
_atom_site_label
_atom_site_fract_x
_atom_site_fract_y
_atom_site_fract_z
Si Si1 0.311480 0.059939 0.489359
Si Si2 0.986238 0.937587 0.894365
Si Si3 0.848600 0.060266 0.189381
Si Si4 0.043360 0.061343 0.425039
Si Si5 0.500729 0.441031 0.726910
Si Si6 0.727398 0.437702 0.721352
Si Si7 0.585105 0.562125 0.116609
O O1 0.314915 0.250000 0.484266
O O2 0.178524 0.011255 0.462360
O O3 0.408488 0.010570 0.607111
O O4 0.326978 0.990150 0.398074
O O5 0.986547 0.750000 0.895556
O O6 0.097054 0.988672 0.881447
O O7 0.859554 0.991964 0.795363
O O8 0.000000 0.000000 0.000000
O O9 0.839170 0.250000 0.185823
O O10 0.948657 0.012284 0.306979
O O11 0.720538 0.990974 0.157135
O O12 0.044337 0.250000 0.427239
O O13 0.000000 0.000000 0.500000
O O14 0.498547 0.250000 0.727342
O O15 0.634555 0.488065 0.756991
O O16 0.459030 0.494784 0.805670
O O17 0.736638 0.250000 0.727188
O O18 0.579907 0.750000 0.115231
O O19 0.500000 0.500000 0.000000
#
# Coordination Sequence:
#
# PCOD9160849 Si02
#       7
#     4   4   4   4   4   4   4
#     4  10  19  38  61  86 121 163 202 245 304 360
#     4  11  24  43  65  91 123 161 204 254 308 364
#     4  10  22  42  63  87 123 160 198 251 307 357
#     4  10  20  35  58  87 120 159 200 245 301 358
#     4   9  21  39  61  87 123 164 202 248 305 359
#     4  11  22  38  61  93 125 161 203 248 304 365
#     4  11  24  43  65  90 120 160 206 253 305 366
#
# _framework density 19.721336000000001
#
# number of rings (size 3 to 8) (size 9 to 14) (size 15 to 20)
#    0.000    1.714    1.429    2.571    2.000    3.429 
#    0.000    4.286    0.000    0.000    0.000    0.000 
#    0.000    0.000    0.000    0.000    0.000    0.000 
#
# Total GULP energy -156477.599810 kJ/mol
# GULP energy per Si atom -5588.485708 kJ/mol
# Density = 1.967645 g / cm^3
# Si number density = 19.721336 Si / 1000 Ang^3
#
#
#
# Elastic Constant Matrix: (Units=GPa)
#
#
# Indices 1 2 3 4 5 6 
#
# 1 158.3090 23.7453 40.4740 0.0000 -23.0329 0.0000
# 2 23.7453 23.8711 13.1350 0.0000 -6.0733 0.0000
# 3 40.4740 13.1350 80.8359 0.0000 -25.4446 0.0000
# 4 0.0000 0.0000 0.0000 34.0754 0.0000 -2.8219
# 5 -23.0329 -6.0733 -25.4446 0.0000 40.0362 0.0000
# 6 0.0000 0.0000 0.0000 -2.8219 0.0000 28.5783
#
#
#
# Elastic Compliance Matrix: (Units=1/GPa)
#
#
# Indices 1 2 3 4 5 6 
#
# 1 0.008192 -0.006269 -0.002374 0.000000 0.002253 0.000000
# 2 -0.006269 0.051053 -0.004818 0.000000 0.001076 0.000000
# 3 -0.002374 -0.004818 0.017104 0.000000 0.008774 0.000000
# 4 0.000000 0.000000 0.000000 0.029589 0.000000 0.002922
# 5 0.002253 0.001076 0.008774 0.000000 0.032013 0.000000
# 6 0.000000 0.000000 0.000000 0.002922 0.000000 0.035280
#
#
# Mechanical properties :
#
#
# Convention : Reuss Voigt Hill
#
# Bulk Modulus (GPa) = 20.23212 46.41385 33.32299
# Shear Modulus (GPa) = 23.08116 32.91545 27.99830
#
# Velocity S-wave (km/s) = 3.42477 4.08981 3.77197
# Velocity P-wave (km/s) = 5.09117 6.77406 5.99199
#
# Compressibility (1/GPa) = 0.04942635
#
# Stress axis : x y z
#
# Youngs Moduli (GPa) = 122.07346 19.58765 58.46666
#
# Poissons Ratio (x) = 0.12280 0.13878
# Poissons Ratio (y) = 0.76531 0.28169
# Poissons Ratio (z) = 0.28976 0.09437
#
# Static dielectric constant tensor:
#      x y z
#    x 1.688900 0.000000 -0.007030 
#    y 0.000000 1.675820 0.000000 
#    z -0.007030 0.000000 1.666030 
# 
# From -- ./inp_files/49460.got.cif
#   From: 2010.05.17/outbox.cif.g08.bks.cpg/sg11_25_cif.got.tgz:49460.got - 2010.06.03 12:22:45.
