data_PCOD9160186
_publ_section_title
;
Structure prediction by ZEFSAII (Michael W. Deem and Ramdas Pophale) SiO2 
 PCOD9160186
Probable space group: P 21/M
;
_chemical_formula_sum "Si O2"
_cell_formula_units_Z 24
_cell_length_a 18.005977
_cell_length_b 11.373591
_cell_length_c 12.713024
_cell_angle_alpha 90.000000
_cell_angle_beta 153.189506
_cell_angle_gamma 90.000000
_cell_volume 1174.300376
_symmetry_space_group_name_H-M "P 21/M"
_symmetry_group_IT_number 11
_symmetry_cell_setting 'monoclinic'
loop_
_space_group_symop_operation_xyz
x,y,z
-x,1/2+y,-z
-x,-y,-z
x,1/2-y,z
loop_
_atom_site_type_symbol
_atom_site_label
_atom_site_fract_x
_atom_site_fract_y
_atom_site_fract_z
Si Si1 0.169102 0.625291 0.716212
Si Si2 0.958541 0.548184 0.267206
Si Si3 0.524648 0.877837 0.090587
Si Si4 0.854427 0.617777 0.646563
Si Si5 0.392098 0.378798 0.243393
Si Si6 0.594265 0.886261 0.486630
O O1 0.100708 0.750000 0.665433
O O2 0.104845 0.534456 0.718809
O O3 0.365230 0.625778 0.963021
O O4 0.108739 0.609482 0.519184
O O5 0.022100 0.475632 0.247219
O O6 0.797564 0.619428 0.032152
O O7 0.524157 0.750000 0.031615
O O8 0.695000 0.882672 0.368322
O O9 0.500000 0.000000 0.000000
O O10 0.925407 0.750000 0.736019
O O11 0.771008 0.594609 0.654007
O O12 0.464107 0.250000 0.303100
O O13 0.394909 0.384796 0.373653
O O14 0.482841 0.498567 0.319394
O O15 0.543179 0.750000 0.391892
#
# Coordination Sequence:
#
# PCOD9160186 Si02
#       6
#     4   4   4   4   4   4
#     4  10  21  36  53  77 113 156 194 229 278 338
#     4  11  21  34  56  81 118 148 192 234 289 332
#     4  10  19  35  54  77 107 144 189 229 270 326
#     4  10  20  35  57  85 115 150 195 237 281 340
#     4  10  21  39  61  88 116 148 190 239 290 341
#     4   9  20  40  64  85 113 151 192 235 285 347
#
# _framework density 20.437701000000001
#
# number of rings (size 3 to 8) (size 9 to 14) (size 15 to 20)
#    0.000    2.000    1.667    2.000    0.000    3.333 
#    0.000    5.000    0.000    0.000    0.000    0.000 
#    0.000    0.000    0.000    0.000    0.000    0.000 
#
# Total GULP energy -133621.071185 kJ/mol
# GULP energy per Si atom -5567.544633 kJ/mol
# Density = 2.039118 g / cm^3
# Si number density = 20.437701 Si / 1000 Ang^3
#
#
#
# Elastic Constant Matrix: (Units=GPa)
#
#
# Indices 1 2 3 4 5 6 
#
# 1 52.6609 39.7524 -6.0228 0.0000 5.4397 0.0000
# 2 39.7524 141.3420 22.4004 0.0000 -0.9224 0.0000
# 3 -6.0228 22.4004 36.6293 0.0000 0.4094 0.0000
# 4 0.0000 0.0000 0.0000 68.5384 0.0000 31.0818
# 5 5.4397 -0.9224 0.4094 0.0000 18.8667 0.0000
# 6 0.0000 0.0000 0.0000 31.0818 0.0000 44.1199
#
#
#
# Elastic Compliance Matrix: (Units=1/GPa)
#
#
# Indices 1 2 3 4 5 6 
#
# 1 0.028539 -0.009794 0.010782 0.000000 -0.008941 0.000000
# 2 -0.009794 0.011200 -0.008499 0.000000 0.003556 0.000000
# 3 0.010782 -0.008499 0.034319 0.000000 -0.004269 0.000000
# 4 0.000000 0.000000 0.000000 0.021440 0.000000 -0.015104
# 5 -0.008941 0.003556 -0.004269 0.000000 0.055848 0.000000
# 6 0.000000 0.000000 0.000000 -0.015104 0.000000 0.033306
#
#
# Mechanical properties :
#
#
# Convention : Reuss Voigt Hill
#
# Bulk Modulus (GPa) = 16.93905 38.09914 27.51909
# Shear Modulus (GPa) = 22.79438 37.93847 30.36643
#
# Velocity S-wave (km/s) = 3.34325 4.31315 3.85880
# Velocity P-wave (km/s) = 4.81759 6.59443 5.77476
#
# Compressibility (1/GPa) = 0.05903520
#
# Stress axis : x y z
#
# Youngs Moduli (GPa) = 35.03960 89.28810 29.13871
#
# Poissons Ratio (x) = 0.87446 -0.31417
# Poissons Ratio (y) = 0.34317 0.24765
# Poissons Ratio (z) = -0.37779 0.75887
#
# Static dielectric constant tensor:
#      x y z
#    x 1.701140 0.000000 -0.015520 
#    y 0.000000 1.772770 0.000000 
#    z -0.015520 0.000000 1.746140 
# 
# From -- ./inp_files/41374.got.cif
#   From: 2010.05.17/outbox.cif.g08.bks.cpg/sg11_21_cif.got.tgz:41374.got - 2010.06.03 12:22:45.
