data_PCOD9160827
_publ_section_title
;
Structure prediction by ZEFSAII (Michael W. Deem and Ramdas Pophale) SiO2 
 PCOD9160827
Probable space group: P 21/M
;
_chemical_formula_sum "Si O2"
_cell_formula_units_Z 26
_cell_length_a 8.184394
_cell_length_b 14.773074
_cell_length_c 16.124575
_cell_angle_alpha 90.000000
_cell_angle_beta 34.822789
_cell_angle_gamma 90.000000
_cell_volume 1113.300251
_symmetry_space_group_name_H-M "P 21/M"
_symmetry_group_IT_number 11
_symmetry_cell_setting 'monoclinic'
loop_
_space_group_symop_operation_xyz
x,y,z
-x,1/2+y,-z
-x,-y,-z
x,1/2-y,z
loop_
_atom_site_type_symbol
_atom_site_label
_atom_site_fract_x
_atom_site_fract_y
_atom_site_fract_z
Si Si1 0.431237 0.114947 0.425578
Si Si2 0.726398 0.353377 0.134244
Si Si3 0.756063 0.638101 0.783026
Si Si4 0.749483 0.860406 0.976843
Si Si5 0.776238 0.144182 0.693670
Si Si6 0.440573 0.750000 0.492325
Si Si7 0.312841 0.916661 0.450097
O O1 0.498320 0.146651 0.304758
O O2 0.614180 0.171721 0.413399
O O3 0.104207 0.137277 0.584163
O O4 0.464078 0.008182 0.414108
O O5 0.804272 0.250000 0.080486
O O6 0.550948 0.388073 0.128466
O O7 0.005383 0.395224 0.062048
O O8 0.792878 0.750000 0.760340
O O9 0.774059 0.610589 0.871343
O O10 0.004192 0.595734 0.622845
O O11 0.774763 0.750000 0.963952
O O12 0.443317 0.882179 0.143564
O O13 0.724810 0.250000 0.694234
O O14 0.733594 0.085622 0.629043
O O15 0.489120 0.829648 0.403741
#
# Coordination Sequence:
#
# PCOD9160827 Si02
#       7
#     4   4   4   4   4   2   4
#     4  12  24  41  70 101 134 173 228 282 338 403
#     4  10  19  37  65  97 130 182 234 272 324 405
#     4  10  19  37  65  97 130 182 234 272 324 405
#     4   9  21  38  63  94 138 179 225 276 337 396
#     4  11  21  44  66  97 138 181 216 280 345 395
#     4  12  24  42  64 102 134 170 220 288 338 394
#     4  12  24  41  70 101 134 173 228 282 338 403
#
# _framework density 23.353988999999999
#
# number of rings (size 3 to 8) (size 9 to 14) (size 15 to 20)
#    0.000    1.231    4.615    1.846    2.154    0.000 
#    2.769    1.538    0.000    0.000    0.000    0.000 
#    0.000    0.000    0.000    0.000    0.000    0.000 
#
# Total GULP energy -144913.547874 kJ/mol
# GULP energy per Si atom -5573.597995 kJ/mol
# Density = 2.330083 g / cm^3
# Si number density = 23.353989 Si / 1000 Ang^3
#
#
#
# Elastic Constant Matrix: (Units=GPa)
#
#
# Indices 1 2 3 4 5 6 
#
# 1 87.3867 1.4662 20.1071 0.0000 7.1999 0.0000
# 2 1.4662 109.2484 -5.5098 0.0000 9.1545 0.0000
# 3 20.1071 -5.5098 98.0357 0.0000 -5.7023 0.0000
# 4 0.0000 0.0000 0.0000 8.0863 0.0000 -10.7730
# 5 7.1999 9.1545 -5.7023 0.0000 31.8394 0.0000
# 6 0.0000 0.0000 0.0000 -10.7730 0.0000 6.5762
#
#
#
# Elastic Compliance Matrix: (Units=1/GPa)
#
#
# Indices 1 2 3 4 5 6 
#
# 1 0.012340 -0.000029 -0.002723 0.000000 -0.003270 0.000000
# 2 -0.000029 0.009393 0.000381 0.000000 -0.002626 0.000000
# 3 -0.002723 0.000381 0.010923 0.000000 0.002462 0.000000
# 4 0.000000 0.000000 0.000000 -0.104586 0.000000 -0.171329
# 5 -0.003270 -0.002626 0.002462 0.000000 0.033343 0.000000
# 6 0.000000 0.000000 0.000000 -0.171329 0.000000 -0.128602
#
#
# Mechanical properties :
#
#
# Convention : Reuss Voigt Hill
#
# Bulk Modulus (GPa) = 35.82274 36.31088 36.06681
# Shear Modulus (GPa) = -32.64937 27.87421 -2.38758
#
# Velocity S-wave (km/s) = -3.74307 3.45853 -1.01221
# Velocity P-wave (km/s) = 1.81891 5.61519 3.75646
#
# Compressibility (1/GPa) = 0.02791523
#
# Stress axis : x y z
#
# Youngs Moduli (GPa) = 81.03894 106.46114 91.54622
#
# Poissons Ratio (x) = 0.00308 0.24925
# Poissons Ratio (y) = 0.00235 -0.03489
# Poissons Ratio (z) = 0.22064 -0.04057
#
# Static dielectric constant tensor:
#      x y z
#    x 1.988860 0.000000 -0.039810 
#    y 0.000000 1.895110 0.000000 
#    z -0.039810 0.000000 1.846800 
# 
# From -- ./inp_files/47743.got.cif
#   From: 2010.05.17/outbox.cif.g08.bks.cpg/sg11_24_cif.got.tgz:47743.got - 2010.06.03 12:22:45.
