data_PCOD9160292
_publ_section_title
;
Structure prediction by ZEFSAII (Michael W. Deem and Ramdas Pophale) SiO2 
 PCOD9160292
Probable space group: P 21/M
;
_chemical_formula_sum "Si O2"
_cell_formula_units_Z 32
_cell_length_a 17.331927
_cell_length_b 10.645507
_cell_length_c 21.559557
_cell_angle_alpha 90.000000
_cell_angle_beta 157.852266
_cell_angle_gamma 90.000000
_cell_volume 1499.649682
_symmetry_space_group_name_H-M "P 21/M"
_symmetry_group_IT_number 11
_symmetry_cell_setting 'monoclinic'
loop_
_space_group_symop_operation_xyz
x,y,z
-x,1/2+y,-z
-x,-y,-z
x,1/2-y,z
loop_
_atom_site_type_symbol
_atom_site_label
_atom_site_fract_x
_atom_site_fract_y
_atom_site_fract_z
Si Si1 0.521351 0.895540 0.934567
Si Si2 0.169621 0.526370 0.346810
Si Si3 0.763243 0.892191 0.243588
Si Si4 0.220880 0.616142 0.933676
Si Si5 0.602996 0.450435 0.807418
Si Si6 0.995824 0.390639 0.904016
Si Si7 0.792309 0.392194 0.484348
Si Si8 0.419085 0.607882 0.348666
O O1 0.501288 0.750000 0.897080
O O2 0.318930 0.984197 0.781835
O O3 0.610207 0.884489 0.070560
O O4 0.684880 0.987884 0.023498
O O5 0.068027 0.603905 0.215797
O O6 0.178796 0.594332 0.419812
O O7 0.393463 0.480664 0.493518
O O8 0.021521 0.406299 0.245471
O O9 0.760373 0.750000 0.270387
O O10 0.991519 0.915885 0.388016
O O11 0.268991 0.750000 0.937446
O O12 0.309076 0.621880 0.068500
O O13 0.391762 0.515976 0.669845
O O14 0.566795 0.383622 0.715313
O O15 0.785376 0.546652 0.927654
O O16 0.014129 0.250000 0.940983
O O17 0.801004 0.446750 0.795138
O O18 0.730783 0.250000 0.424249
O O19 0.437078 0.750000 0.388049
#
# Coordination Sequence:
#
# PCOD9160292 Si02
#       8
#     4   4   4   4   4   4   4   4
#     4  10  20  35  58  88 117 147 184 232 281 336
#     4  10  20  34  54  83 110 143 187 239 285 339
#     4   9  18  35  57  85 117 149 181 227 283 337
#     4  11  22  37  57  83 115 154 193 236 284 335
#     4  10  22  36  54  79 111 150 192 232 277 338
#     4  10  20  34  55  80 109 145 185 234 288 338
#     4  10  19  35  57  83 114 148 187 234 285 335
#     4  10  20  36  54  76 108 146 188 235 285 337
#
# _framework density 21.338318000000001
#
# number of rings (size 3 to 8) (size 9 to 14) (size 15 to 20)
#    0.000    2.000    1.250    2.625    0.000    3.000 
#    0.000    1.875    0.000   12.000    0.000    0.000 
#    0.000    0.000    0.000    0.000    0.000    0.000 
#
# Total GULP energy -178410.047704 kJ/mol
# GULP energy per Si atom -5575.313991 kJ/mol
# Density = 2.128975 g / cm^3
# Si number density = 21.338318 Si / 1000 Ang^3
#
#
#
# Elastic Constant Matrix: (Units=GPa)
#
#
# Indices 1 2 3 4 5 6 
#
# 1 23.1455 19.3778 3.4319 0.0000 12.7130 0.0000
# 2 19.3778 126.5777 41.1096 0.0000 26.8810 0.0000
# 3 3.4319 41.1096 94.4133 0.0000 31.0556 0.0000
# 4 0.0000 0.0000 0.0000 -28.4334 0.0000 15.5624
# 5 12.7130 26.8810 31.0556 0.0000 44.1811 0.0000
# 6 0.0000 0.0000 0.0000 15.5624 0.0000 7.0776
#
#
#
# Elastic Compliance Matrix: (Units=1/GPa)
#
#
# Indices 1 2 3 4 5 6 
#
# 1 0.057628 -0.007426 0.006643 0.000000 -0.016734 0.000000
# 2 -0.007426 0.010626 -0.003815 0.000000 -0.001646 0.000000
# 3 0.006643 -0.003815 0.015449 0.000000 -0.010449 0.000000
# 4 0.000000 0.000000 0.000000 -0.015961 0.000000 0.035096
# 5 -0.016734 -0.001646 -0.010449 0.000000 0.035796 0.000000
# 6 0.000000 0.000000 0.000000 0.035096 0.000000 0.064122
#
#
# Mechanical properties :
#
#
# Convention : Reuss Voigt Hill
#
# Bulk Modulus (GPa) = 13.42173 41.33058 27.37615
# Shear Modulus (GPa) = 24.79029 16.57952 20.68491
#
# Velocity S-wave (km/s) = 3.41218 2.79047 3.11686
# Velocity P-wave (km/s) = 4.67200 5.45834 5.08041
#
# Compressibility (1/GPa) = 0.07450607
#
# Stress axis : x y z
#
# Youngs Moduli (GPa) = 17.35255 94.10951 64.73070
#
# Poissons Ratio (x) = 0.69887 -0.43000
# Poissons Ratio (y) = 0.12886 0.24696
# Poissons Ratio (z) = -0.11527 0.35905
#
# Static dielectric constant tensor:
#      x y z
#    x 1.792840 0.000000 0.015930 
#    y 0.000000 1.795860 0.000000 
#    z 0.015930 0.000000 1.759440 
# 
# From -- ./inp_files/69643.got.cif
#   From: 2010.05.17/outbox.cif.g08.bks.cpg/sg11_35_cif.got.tgz:69643.got - 2010.06.03 12:22:45.
