data_PCOD9160634
_publ_section_title
;
Structure prediction by ZEFSAII (Michael W. Deem and Ramdas Pophale) SiO2 
 PCOD9160634
Probable space group: P 21/M
;
_chemical_formula_sum "Si O2"
_cell_formula_units_Z 24
_cell_length_a 8.940179
_cell_length_b 16.197364
_cell_length_c 14.454061
_cell_angle_alpha 90.000000
_cell_angle_beta 39.480989
_cell_angle_gamma 90.000000
_cell_volume 1330.810128
_symmetry_space_group_name_H-M "P 21/M"
_symmetry_group_IT_number 11
_symmetry_cell_setting 'monoclinic'
loop_
_space_group_symop_operation_xyz
x,y,z
-x,1/2+y,-z
-x,-y,-z
x,1/2-y,z
loop_
_atom_site_type_symbol
_atom_site_label
_atom_site_fract_x
_atom_site_fract_y
_atom_site_fract_z
Si Si1 0.787965 0.028501 0.730529
Si Si2 0.626069 0.845918 0.106657
Si Si3 0.423306 0.655216 0.583246
Si Si4 0.658229 0.910869 0.291981
Si Si5 0.692343 0.556358 0.594446
Si Si6 0.980373 0.957645 0.823649
O O1 0.611173 0.105387 0.808525
O O2 0.043669 0.055494 0.570374
O O3 0.698640 0.958243 0.701254
O O4 0.822528 0.991826 0.815550
O O5 0.626348 0.750000 0.079275
O O6 0.654422 0.853798 0.203940
O O7 0.833065 0.899011 0.961041
O O8 0.354179 0.750000 0.612705
O O9 0.602903 0.634282 0.414416
O O10 0.550293 0.632304 0.619161
O O11 0.197061 0.596573 0.681317
O O12 0.447535 0.976832 0.377760
O O13 0.895677 0.964572 0.185815
#
# Coordination Sequence:
#
# PCOD9160634 Si02
#       6
#     4   4   4   4   4   4
#     4  10  19  36  61  78 112 152 186 221 270 343
#     4  11  24  37  53  84 118 146 182 231 283 324
#     4  11  20  34  58  86 114 139 184 246 279 308
#     4  10  19  38  60  80 107 147 191 226 273 337
#     4   9  18  35  58  84 106 143 192 226 270 336
#     4  11  20  39  60  82 107 153 192 223 270 340
#
# _framework density 18.034127000000002
#
# number of rings (size 3 to 8) (size 9 to 14) (size 15 to 20)
#    0.000    1.667    3.333    3.000    0.000    0.667 
#    0.000    1.667    0.000    0.000    0.000    0.000 
#    0.000    0.000    0.000    0.000    0.000    0.000 
#
# Total GULP energy -133905.097421 kJ/mol
# GULP energy per Si atom -5579.379059 kJ/mol
# Density = 1.799308 g / cm^3
# Si number density = 18.034127 Si / 1000 Ang^3
#
#
#
# Elastic Constant Matrix: (Units=GPa)
#
#
# Indices 1 2 3 4 5 6 
#
# 1 103.8919 35.6532 19.6673 0.0000 -2.5375 0.0000
# 2 35.6532 72.9741 12.0462 0.0000 1.3764 0.0000
# 3 19.6673 12.0462 52.5228 0.0000 -5.9954 0.0000
# 4 0.0000 0.0000 0.0000 17.6727 0.0000 1.4436
# 5 -2.5375 1.3764 -5.9954 0.0000 11.3391 0.0000
# 6 0.0000 0.0000 0.0000 1.4436 0.0000 8.8528
#
#
#
# Elastic Compliance Matrix: (Units=1/GPa)
#
#
# Indices 1 2 3 4 5 6 
#
# 1 0.012122 -0.005445 -0.003092 0.000000 0.001739 0.000000
# 2 -0.005445 0.016834 -0.002335 0.000000 -0.004497 0.000000
# 3 -0.003092 -0.002335 0.022015 0.000000 0.011231 0.000000
# 4 0.000000 0.000000 0.000000 0.057348 0.000000 -0.009352
# 5 0.001739 -0.004497 0.011231 0.000000 0.095064 0.000000
# 6 0.000000 0.000000 0.000000 -0.009352 0.000000 0.114484
#
#
# Mechanical properties :
#
#
# Convention : Reuss Voigt Hill
#
# Bulk Modulus (GPa) = 34.21538 40.45801 37.33670
# Shear Modulus (GPa) = 14.31220 18.37439 16.34330
#
# Velocity S-wave (km/s) = 2.82018 3.19543 3.01365
# Velocity P-wave (km/s) = 5.44227 6.00810 5.73217
#
# Compressibility (1/GPa) = 0.02922662
#
# Stress axis : x y z
#
# Youngs Moduli (GPa) = 82.49702 59.40372 45.42416
#
# Poissons Ratio (x) = 0.32344 0.14044
# Poissons Ratio (y) = 0.44917 0.10608
# Poissons Ratio (z) = 0.25506 0.13873
#
# Static dielectric constant tensor:
#      x y z
#    x 1.627230 0.000000 0.004490 
#    y 0.000000 1.589270 0.000000 
#    z 0.004490 0.000000 1.627180 
# 
# From -- ./inp_files/18546.got.cif
#   From: 2010.05.17/outbox.cif.g08.bks.cpg/sg11_10_cif.got.tgz:18546.got - 2010.06.03 12:22:45.
