data_PCOD9160485
_publ_section_title
;
Structure prediction by ZEFSAII (Michael W. Deem and Ramdas Pophale) SiO2 
 PCOD9160485
Probable space group: P 21/M
;
_chemical_formula_sum "Si O2"
_cell_formula_units_Z 12
_cell_length_a 12.600101
_cell_length_b 5.491206
_cell_length_c 25.909419
_cell_angle_alpha 90.000000
_cell_angle_beta 164.365537
_cell_angle_gamma 90.000000
_cell_volume 483.121948
_symmetry_space_group_name_H-M "P 21/M"
_symmetry_group_IT_number 11
_symmetry_cell_setting 'monoclinic'
loop_
_space_group_symop_operation_xyz
x,y,z
-x,1/2+y,-z
-x,-y,-z
x,1/2-y,z
loop_
_atom_site_type_symbol
_atom_site_label
_atom_site_fract_x
_atom_site_fract_y
_atom_site_fract_z
Si Si1 0.009544 0.250000 0.431422
Si Si2 0.065501 0.750000 0.886335
Si Si3 0.843431 0.250000 0.951626
Si Si4 0.701322 0.750000 0.611606
Si Si5 0.456505 0.750000 0.894253
Si Si6 0.119116 0.750000 0.509436
O O1 0.732239 0.250000 0.251963
O O2 0.253141 0.498377 0.547185
O O3 0.815467 0.250000 0.398222
O O4 0.729956 0.750000 0.686452
O O5 0.004598 0.750000 0.918875
O O6 0.303217 0.499239 0.987779
O O7 0.362744 0.250000 0.724726
O O8 0.000000 0.500000 0.000000
O O9 0.500000 0.500000 0.500000
O O10 0.123397 0.750000 0.781630
#
# Coordination Sequence:
#
# PCOD9160485 Si02
#       6
#     2   2   2   2   2   2
#     4  10  19  35  63  86 121 166 211 268 310 382
#     4  12  25  46  72 101 138 184 238 284 337 421
#     4  12  24  39  63  96 137 178 217 270 337 403
#     4  12  28  48  71 105 140 176 229 295 364 411
#     4  12  22  44  75 101 133 185 235 283 340 417
#     4  10  20  36  54  91 127 161 214 260 316 380
#
# _framework density 24.838448
#
# number of rings (size 3 to 8) (size 9 to 14) (size 15 to 20)
#    0.000    0.667    3.333    5.000    0.000    2.667 
#    0.000    0.000    0.000    0.000    0.000    0.000 
#    0.000    0.000    0.000    0.000    0.000    0.000 
#
# Total GULP energy -67268.677814 kJ/mol
# GULP energy per Si atom -5605.723151 kJ/mol
# Density = 2.478191 g / cm^3
# Si number density = 24.838448 Si / 1000 Ang^3
#
#
#
# Elastic Constant Matrix: (Units=GPa)
#
#
# Indices 1 2 3 4 5 6 
#
# 1 155.2618 77.1687 55.9486 0.0000 -26.6936 0.0000
# 2 77.1687 281.8914 47.3126 -0.0001 -2.4277 0.0000
# 3 55.9486 47.3126 88.4959 0.0001 -30.6143 0.0000
# 4 0.0000 -0.0001 0.0001 78.7594 0.0001 -39.5025
# 5 -26.6936 -2.4277 -30.6143 0.0001 49.4788 0.0000
# 6 0.0000 0.0000 0.0000 -39.5025 0.0000 125.8089
#
#
#
# Elastic Compliance Matrix: (Units=1/GPa)
#
#
# Indices 1 2 3 4 5 6 
#
# 1 0.009207 -0.001826 -0.004017 0.000000 0.002392 0.000000
# 2 -0.001826 0.004337 -0.001821 0.000000 -0.001899 0.000000
# 3 -0.004017 -0.001821 0.017854 0.000000 0.008790 0.000000
# 4 0.000000 0.000000 0.000000 0.015070 0.000000 0.004732
# 5 0.002392 -0.001899 0.008790 0.000000 0.026847 0.000000
# 6 0.000000 0.000000 0.000000 0.004732 0.000000 0.009434
#
#
# Mechanical properties :
#
#
# Convention : Reuss Voigt Hill
#
# Bulk Modulus (GPa) = 62.22901 98.50096 80.36499
# Shear Modulus (GPa) = 48.33994 73.82405 61.08199
#
# Velocity S-wave (km/s) = 4.41633 5.45767 4.96438
# Velocity P-wave (km/s) = 7.14935 8.91390 8.07994
#
# Compressibility (1/GPa) = 0.01606968
#
# Stress axis : x y z
#
# Youngs Moduli (GPa) = 108.61353 230.59867 56.00848
#
# Poissons Ratio (x) = 0.42097 0.22501
# Poissons Ratio (y) = 0.19828 0.10200
# Poissons Ratio (z) = 0.43634 0.41997
#
# Static dielectric constant tensor:
#      x y z
#    x 1.929040 0.000000 0.062580 
#    y 0.000000 1.712980 0.000000 
#    z 0.062580 0.000000 2.008510 
# 
# From -- ./inp_files/68215.got.cif
#   From: 2010.05.17/outbox.cif.g08.bks.cpg/sg11_35_cif.got.tgz:68215.got - 2010.06.03 12:22:45.
