data_PCOD9160858
_publ_section_title
;
Structure prediction by ZEFSAII (Michael W. Deem and Ramdas Pophale) SiO2 
 PCOD9160858
Probable space group: P 21/M
;
_chemical_formula_sum "Si O2"
_cell_formula_units_Z 24
_cell_length_a 13.292531
_cell_length_b 16.672165
_cell_length_c 9.080919
_cell_angle_alpha 90.000000
_cell_angle_beta 147.044068
_cell_angle_gamma 90.000000
_cell_volume 1094.771427
_symmetry_space_group_name_H-M "P 21/M"
_symmetry_group_IT_number 11
_symmetry_cell_setting 'monoclinic'
loop_
_space_group_symop_operation_xyz
x,y,z
-x,1/2+y,-z
-x,-y,-z
x,1/2-y,z
loop_
_atom_site_type_symbol
_atom_site_label
_atom_site_fract_x
_atom_site_fract_y
_atom_site_fract_z
Si Si1 0.319647 0.482811 0.688137
Si Si2 0.800085 0.345848 0.971380
Si Si3 0.579701 0.847103 0.663502
Si Si4 0.128563 0.423964 0.189677
Si Si5 0.276894 0.340384 0.853989
Si Si6 0.087920 0.911874 0.577850
O O1 0.297267 0.459131 0.494141
O O2 0.264025 0.399385 0.700877
O O3 0.206536 0.564024 0.582413
O O4 0.500000 0.500000 0.000000
O O5 0.795355 0.250000 0.985553
O O6 0.809764 0.386232 0.145896
O O7 0.985979 0.368734 0.108581
O O8 0.613278 0.370057 0.653159
O O9 0.589984 0.750000 0.671585
O O10 0.762545 0.881898 0.808819
O O11 0.593854 0.869763 0.853737
O O12 0.000000 0.500000 0.000000
O O13 0.326102 0.250000 0.873543
O O14 0.065718 0.346959 0.650296
O O15 0.000000 0.000000 0.500000
#
# Coordination Sequence:
#
# PCOD9160858 Si02
#       6
#     4   4   4   4   4   4
#     4  11  24  40  61  94 128 162 208 261 325 382
#     4  11  23  42  67  93 127 173 217 264 325 386
#     4  10  24  42  63  94 129 168 217 266 319 382
#     4  12  25  40  65  97 129 169 212 266 321 381
#     4  10  21  41  65  86 123 169 210 264 319 374
#     4  10  19  38  62  88 120 160 207 257 311 383
#
# _framework density 21.922384999999998
#
# number of rings (size 3 to 8) (size 9 to 14) (size 15 to 20)
#    0.000    1.333    3.333    3.000    4.667    1.333 
#    0.000    1.667    0.000    0.000    0.000    0.000 
#    0.000    0.000    0.000    0.000    0.000    0.000 
#
# Total GULP energy -133729.673033 kJ/mol
# GULP energy per Si atom -5572.069710 kJ/mol
# Density = 2.187249 g / cm^3
# Si number density = 21.922385 Si / 1000 Ang^3
#
#
#
# Elastic Constant Matrix: (Units=GPa)
#
#
# Indices 1 2 3 4 5 6 
#
# 1 20.6774 4.0854 -9.1907 0.0000 -1.5406 0.0000
# 2 4.0854 66.1613 21.0057 0.0000 -8.0701 0.0000
# 3 -9.1907 21.0057 120.7031 0.0000 -10.9503 0.0000
# 4 0.0000 0.0000 0.0000 41.6499 0.0000 0.7231
# 5 -1.5406 -8.0701 -10.9503 0.0000 31.7457 0.0000
# 6 0.0000 0.0000 0.0000 0.7231 0.0000 16.0927
#
#
#
# Elastic Compliance Matrix: (Units=1/GPa)
#
#
# Indices 1 2 3 4 5 6 
#
# 1 0.051676 -0.004393 0.004981 0.000000 0.003109 0.000000
# 2 -0.004393 0.016695 -0.002967 0.000000 0.003007 0.000000
# 3 0.004981 -0.002967 0.009429 0.000000 0.002740 0.000000
# 4 0.000000 0.000000 0.000000 0.024028 0.000000 -0.001080
# 5 0.003109 0.003007 0.002740 0.000000 0.033361 0.000000
# 6 0.000000 0.000000 0.000000 -0.001080 0.000000 0.062189
#
#
# Mechanical properties :
#
#
# Convention : Reuss Voigt Hill
#
# Bulk Modulus (GPa) = 13.69081 26.59363 20.14222
# Shear Modulus (GPa) = 22.07678 30.67374 26.37526
#
# Velocity S-wave (km/s) = 3.17684 3.74464 3.47237
# Velocity P-wave (km/s) = 4.44017 5.55460 5.02835
#
# Compressibility (1/GPa) = 0.07304171
#
# Stress axis : x y z
#
# Youngs Moduli (GPa) = 19.35141 59.89933 106.05574
#
# Poissons Ratio (x) = 0.26315 -0.52830
# Poissons Ratio (y) = 0.08502 0.31467
# Poissons Ratio (z) = -0.09640 0.17772
#
# Static dielectric constant tensor:
#      x y z
#    x 1.932770 0.000000 0.048290 
#    y 0.000000 1.837280 0.000000 
#    z 0.048290 0.000000 1.764680 
# 
# From -- ./inp_files/22846.got.cif
#   From: 2010.05.17/outbox.cif.g08.bks.cpg/sg11_12_cif.got.tgz:22846.got - 2010.06.03 12:22:45.
