data_PCOD9160540
_publ_section_title
;
Structure prediction by ZEFSAII (Michael W. Deem and Ramdas Pophale) SiO2 
 PCOD9160540
Probable space group: P 21/M
;
_chemical_formula_sum "Si O2"
_cell_formula_units_Z 24
_cell_length_a 13.912350
_cell_length_b 18.045361
_cell_length_c 7.654795
_cell_angle_alpha 90.000000
_cell_angle_beta 147.445922
_cell_angle_gamma 90.000000
_cell_volume 1034.091359
_symmetry_space_group_name_H-M "P 21/M"
_symmetry_group_IT_number 11
_symmetry_cell_setting 'monoclinic'
loop_
_space_group_symop_operation_xyz
x,y,z
-x,1/2+y,-z
-x,-y,-z
x,1/2-y,z
loop_
_atom_site_type_symbol
_atom_site_label
_atom_site_fract_x
_atom_site_fract_y
_atom_site_fract_z
Si Si1 0.739168 0.537249 0.806070
Si Si2 0.106559 0.900815 0.372901
Si Si3 0.462105 0.668379 0.804237
Si Si4 0.407909 0.619530 0.360692
Si Si5 0.047881 0.667708 0.649336
Si Si6 0.242105 0.447394 0.739808
O O1 0.570249 0.587368 0.496092
O O2 0.683274 0.452828 0.686911
O O3 0.751486 0.539898 0.039028
O O4 0.923531 0.567283 0.010612
O O5 0.253625 0.851170 0.504685
O O6 0.040990 0.850928 0.434635
O O7 0.209270 0.973557 0.603012
O O8 0.500641 0.750000 0.937137
O O9 0.491738 0.668414 0.641237
O O10 0.588207 0.601045 0.059427
O O11 0.252722 0.659389 0.019453
O O12 0.981561 0.750000 0.585556
O O13 0.929090 0.604594 0.556366
#
# Coordination Sequence:
#
# PCOD9160540 Si02
#       6
#     4   4   4   4   4   4
#     4   9  18  35  61  85 105 140 190 230 264 325
#     4  11  20  38  58  85 108 147 188 229 271 324
#     4  11  24  37  52  81 119 148 176 224 290 333
#     4  10  19  36  58  82 112 142 183 226 273 329
#     4  11  20  35  60  84 110 143 188 233 271 320
#     4  10  19  38  59  81 107 148 191 225 269 329
#
# _framework density 23.208781999999999
#
# number of rings (size 3 to 8) (size 9 to 14) (size 15 to 20)
#    0.000    1.667    3.333    3.000    0.000    0.667 
#    0.000    2.500    0.000    0.000    0.000    0.000 
#    0.000    0.000    0.000    0.000    0.000    0.000 
#
# Total GULP energy -134093.584561 kJ/mol
# GULP energy per Si atom -5587.232690 kJ/mol
# Density = 2.315596 g / cm^3
# Si number density = 23.208782 Si / 1000 Ang^3
#
#
#
# Elastic Constant Matrix: (Units=GPa)
#
#
# Indices 1 2 3 4 5 6 
#
# 1 29.3116 0.9549 -2.9470 0.0000 12.2849 0.0000
# 2 0.9549 106.4602 1.6115 0.0000 2.0171 0.0000
# 3 -2.9470 1.6115 75.2648 0.0000 21.8780 0.0000
# 4 0.0000 0.0000 0.0000 6.6734 0.0000 1.8000
# 5 12.2849 2.0171 21.8780 0.0000 28.8793 0.0000
# 6 0.0000 0.0000 0.0000 1.8000 0.0000 16.8752
#
#
#
# Elastic Compliance Matrix: (Units=1/GPa)
#
#
# Indices 1 2 3 4 5 6 
#
# 1 0.046453 -0.000050 0.009699 0.000000 -0.027104 0.000000
# 2 -0.000050 0.009406 -0.000024 0.000000 -0.000618 0.000000
# 3 0.009699 -0.000024 0.019063 0.000000 -0.018566 0.000000
# 4 0.000000 0.000000 0.000000 0.154288 0.000000 -0.016457
# 5 -0.027104 -0.000618 -0.018566 0.000000 0.060265 0.000000
# 6 0.000000 0.000000 0.000000 -0.016457 0.000000 0.061014
#
#
# Mechanical properties :
#
#
# Convention : Reuss Voigt Hill
#
# Bulk Modulus (GPa) = 10.61891 23.36393 16.99142
# Shear Modulus (GPa) = 13.78820 24.58006 19.18413
#
# Velocity S-wave (km/s) = 2.44005 3.25789 2.87817
# Velocity P-wave (km/s) = 3.53889 4.92346 4.28744
#
# Compressibility (1/GPa) = 0.09417159
#
# Stress axis : x y z
#
# Youngs Moduli (GPa) = 21.52727 106.31857 52.45655
#
# Poissons Ratio (x) = 0.00531 -0.50876
# Poissons Ratio (y) = 0.00107 0.00125
# Poissons Ratio (z) = -0.20878 0.00253
#
# Static dielectric constant tensor:
#      x y z
#    x 1.898810 0.000000 0.005060 
#    y 0.000000 1.872150 0.000000 
#    z 0.005060 0.000000 1.892230 
# 
# From -- ./inp_files/13256.got.cif
#   From: 2010.05.17/outbox.cif.g08.bks.cpg/sg11_7_cif.got.tgz:13256.got - 2010.06.03 12:22:45.
