data_PCOD9160310
_publ_section_title
;
Structure prediction by ZEFSAII (Michael W. Deem and Ramdas Pophale) SiO2 
 PCOD9160310
Probable space group: P 21/M
;
_chemical_formula_sum "Si O2"
_cell_formula_units_Z 24
_cell_length_a 12.883509
_cell_length_b 17.719903
_cell_length_c 10.215725
_cell_angle_alpha 90.000000
_cell_angle_beta 35.800009
_cell_angle_gamma 90.000000
_cell_volume 1364.235156
_symmetry_space_group_name_H-M "P 21/M"
_symmetry_group_IT_number 11
_symmetry_cell_setting 'monoclinic'
loop_
_space_group_symop_operation_xyz
x,y,z
-x,1/2+y,-z
-x,-y,-z
x,1/2-y,z
loop_
_atom_site_type_symbol
_atom_site_label
_atom_site_fract_x
_atom_site_fract_y
_atom_site_fract_z
Si Si1 0.281338 0.045623 0.098847
Si Si2 0.677347 0.568943 0.429443
Si Si3 0.701804 0.459648 0.647832
Si Si4 0.725113 0.049058 0.147861
Si Si5 0.988261 0.836026 0.032778
Si Si6 0.999155 0.161534 0.294758
O O1 0.163553 0.119468 0.195897
O O2 0.254874 0.006881 0.266107
O O3 0.492161 0.060275 0.865843
O O4 0.228445 0.985911 0.039949
O O5 0.731109 0.514070 0.493423
O O6 0.469858 0.586076 0.658451
O O7 0.705564 0.520449 0.268628
O O8 0.801632 0.640824 0.287696
O O9 0.824589 0.386418 0.510026
O O10 0.868562 0.106130 0.056787
O O11 0.036034 0.750000 0.013217
O O12 0.977665 0.844130 0.886351
O O13 0.986685 0.250000 0.340936
#
# Coordination Sequence:
#
# PCOD9160310 Si02
#       6
#     4   4   4   4   4   4
#     4  10  21  38  59  82 108 143 186 227 266 317
#     4  10  19  35  58  79 104 142 185 223 263 318
#     4  10  21  38  59  82 108 143 186 227 266 317
#     4  10  19  35  58  79 104 142 185 223 263 318
#     4  11  22  34  53  83 116 143 175 228 280 321
#     4  11  22  35  55  84 114 143 177 222 276 329
#
# _framework density 17.592274
#
# number of rings (size 3 to 8) (size 9 to 14) (size 15 to 20)
#    0.000    1.667    3.333    2.000    0.000    1.333 
#    0.000    6.667    0.000    6.000    0.000    0.000 
#    0.000    0.000    0.000    0.000    0.000    0.000 
#
# Total GULP energy -134006.715556 kJ/mol
# GULP energy per Si atom -5583.613148 kJ/mol
# Density = 1.755223 g / cm^3
# Si number density = 17.592274 Si / 1000 Ang^3
#
#
#
# Elastic Constant Matrix: (Units=GPa)
#
#
# Indices 1 2 3 4 5 6 
#
# 1 88.7604 32.8459 17.4769 0.0000 1.7537 0.0000
# 2 32.8459 74.3051 30.0678 0.0000 -12.7083 0.0000
# 3 17.4769 30.0678 45.8261 0.0000 -2.4295 0.0000
# 4 0.0000 0.0000 0.0000 11.4166 0.0000 12.9756
# 5 1.7537 -12.7083 -2.4295 0.0000 20.1274 0.0000
# 6 0.0000 0.0000 0.0000 12.9756 0.0000 4.5322
#
#
#
# Elastic Compliance Matrix: (Units=1/GPa)
#
#
# Indices 1 2 3 4 5 6 
#
# 1 0.014098 -0.006661 -0.001303 0.000000 -0.005591 0.000000
# 2 -0.006661 0.023808 -0.012332 0.000000 0.014124 0.000000
# 3 -0.001303 -0.012332 0.030196 0.000000 -0.004028 0.000000
# 4 0.000000 0.000000 0.000000 -0.038862 0.000000 0.111260
# 5 -0.005591 0.014124 -0.004028 0.000000 0.058602 0.000000
# 6 0.000000 0.000000 0.000000 0.111260 0.000000 -0.097892
#
#
# Mechanical properties :
#
#
# Convention : Reuss Voigt Hill
#
# Bulk Modulus (GPa) = 36.34886 41.07472 38.71179
# Shear Modulus (GPa) = 125.90129 15.78198 70.84163
#
# Velocity S-wave (km/s) = 8.46886 2.99841 6.35264
# Velocity P-wave (km/s) = 10.78589 5.94862 8.70981
#
# Compressibility (1/GPa) = 0.02751118
#
# Stress axis : x y z
#
# Youngs Moduli (GPa) = 70.93094 42.00182 33.11661
#
# Poissons Ratio (x) = 0.27978 0.04313
# Poissons Ratio (y) = 0.47249 0.40840
# Poissons Ratio (z) = 0.09239 0.51797
#
# Static dielectric constant tensor:
#      x y z
#    x 1.602230 0.000000 -0.018430 
#    y 0.000000 1.557790 0.000000 
#    z -0.018430 0.000000 1.611130 
# 
# From -- ./inp_files/39549.got.cif
#   From: 2010.05.17/outbox.cif.g08.bks.cpg/sg11_20_cif.got.tgz:39549.got - 2010.06.03 12:22:45.
