data_PCOD9160001
_publ_section_title
;
Structure prediction by ZEFSAII (Michael W. Deem and Ramdas Pophale) SiO2 
 PCOD9160001
Probable space group: P 21/M
;
_chemical_formula_sum "Si O2"
_cell_formula_units_Z 28
_cell_length_a 10.122012
_cell_length_b 8.790028
_cell_length_c 28.664692
_cell_angle_alpha 90.000000
_cell_angle_beta 37.607591
_cell_angle_gamma 90.000000
_cell_volume 1556.367899
_symmetry_space_group_name_H-M "P 21/M"
_symmetry_group_IT_number 11
_symmetry_cell_setting 'monoclinic'
loop_
_space_group_symop_operation_xyz
x,y,z
-x,1/2+y,-z
-x,-y,-z
x,1/2-y,z
loop_
_atom_site_type_symbol
_atom_site_label
_atom_site_fract_x
_atom_site_fract_y
_atom_site_fract_z
Si Si1 0.066131 0.933329 0.628907
Si Si2 0.050875 0.568487 0.195637
Si Si3 0.850327 0.065970 0.500887
Si Si4 0.337751 0.068756 0.195161
Si Si5 0.645342 0.932847 0.371122
Si Si6 0.716957 0.431981 0.961215
Si Si7 0.775715 0.930513 0.046339
O O1 0.083575 0.750000 0.625988
O O2 0.838010 0.977251 0.716586
O O3 0.076846 0.979140 0.571903
O O4 0.256427 0.999453 0.608495
O O5 0.084006 0.750000 0.193504
O O6 0.227085 0.481397 0.177496
O O7 0.093325 0.538092 0.129562
O O8 0.817397 0.528680 0.282262
O O9 0.859232 0.250000 0.501323
O O10 0.597320 0.018585 0.573854
O O11 0.000000 0.000000 0.500000
O O12 0.362633 0.250000 0.189246
O O13 0.570457 0.991526 0.132808
O O14 0.642088 0.750000 0.377307
O O15 0.698261 0.250000 0.972706
O O16 0.500000 0.500000 0.000000
O O17 0.748520 0.512749 0.001210
O O18 0.779873 0.750000 0.047513
O O19 0.000000 0.000000 0.000000
#
# Coordination Sequence:
#
# PCOD9160001 Si02
#       7
#     4   4   4   4   4   4   4
#     4   9  19  35  57  84 111 142 181 229 277 327
#     4   9  18  33  55  83 113 142 182 231 275 323
#     4  10  21  37  55  79 115 149 181 223 273 331
#     4  10  19  34  57  82 112 144 184 231 280 332
#     4   9  18  34  57  83 110 142 184 228 268 321
#     4  11  21  35  58  85 115 150 188 230 277 328
#     4  12  25  41  58  80 112 150 192 235 283 336
#
# _framework density 17.990604000000001
#
# number of rings (size 3 to 8) (size 9 to 14) (size 15 to 20)
#    0.000    2.000    1.429    2.571    0.000    2.286 
#    2.571    0.000    0.000    0.000    0.000    0.000 
#    0.000    0.000    0.000    0.000    0.000    0.000 
#
# Total GULP energy -156266.148458 kJ/mol
# GULP energy per Si atom -5580.933873 kJ/mol
# Density = 1.794966 g / cm^3
# Si number density = 17.990604 Si / 1000 Ang^3
#
#
#
# Elastic Constant Matrix: (Units=GPa)
#
#
# Indices 1 2 3 4 5 6 
#
# 1 134.1135 37.6374 83.1319 0.0000 -18.1627 0.0000
# 2 37.6374 52.5784 46.7996 0.0000 -9.2246 0.0000
# 3 83.1319 46.7996 131.8849 0.0000 -14.5976 0.0000
# 4 0.0000 0.0000 0.0000 22.1319 0.0000 -1.9980
# 5 -18.1627 -9.2246 -14.5976 0.0000 28.2621 0.0000
# 6 0.0000 0.0000 0.0000 -1.9980 0.0000 34.2565
#
#
#
# Elastic Compliance Matrix: (Units=1/GPa)
#
#
# Indices 1 2 3 4 5 6 
#
# 1 0.012920 -0.002477 -0.006826 0.000000 0.003969 0.000000
# 2 -0.002477 0.028757 -0.008252 0.000000 0.003532 0.000000
# 3 -0.006826 -0.008252 0.014880 0.000000 0.000606 0.000000
# 4 0.000000 0.000000 0.000000 0.045423 0.000000 0.002649
# 5 0.003969 0.003532 0.000606 0.000000 0.039400 0.000000
# 6 0.000000 0.000000 0.000000 0.002649 0.000000 0.029346
#
#
# Mechanical properties :
#
#
# Convention : Reuss Voigt Hill
#
# Bulk Modulus (GPa) = 46.62492 72.63495 59.62993
# Shear Modulus (GPa) = 23.47582 26.99729 25.23656
#
# Velocity S-wave (km/s) = 3.61625 3.87800 3.74941
# Velocity P-wave (km/s) = 6.58854 7.77903 7.20841
#
# Compressibility (1/GPa) = 0.02144776
#
# Stress axis : x y z
#
# Youngs Moduli (GPa) = 77.39945 34.77390 67.20270
#
# Poissons Ratio (x) = 0.08612 0.45871
# Poissons Ratio (y) = 0.19169 0.55459
# Poissons Ratio (z) = 0.52831 0.28697
#
# Static dielectric constant tensor:
#      x y z
#    x 1.569140 0.000000 0.002590 
#    y 0.000000 1.600560 0.000000 
#    z 0.002590 0.000000 1.652550 
# 
# From -- ./inp_files/70785.got.cif
#   From: 2010.05.17/outbox.cif.g08.bks.cpg/sg11_36_cif.got.tgz:70785.got - 2010.06.03 12:22:45.
