data_PCOD9160715
_publ_section_title
;
Structure prediction by ZEFSAII (Michael W. Deem and Ramdas Pophale) SiO2 
 PCOD9160715
Probable space group: P 21/M
;
_chemical_formula_sum "Si O2"
_cell_formula_units_Z 28
_cell_length_a 27.578684
_cell_length_b 8.698898
_cell_length_c 9.861940
_cell_angle_alpha 90.000000
_cell_angle_beta 41.314438
_cell_angle_gamma 90.000000
_cell_volume 1561.959272
_symmetry_space_group_name_H-M "P 21/M"
_symmetry_group_IT_number 11
_symmetry_cell_setting 'monoclinic'
loop_
_space_group_symop_operation_xyz
x,y,z
-x,1/2+y,-z
-x,-y,-z
x,1/2-y,z
loop_
_atom_site_type_symbol
_atom_site_label
_atom_site_fract_x
_atom_site_fract_y
_atom_site_fract_z
Si Si1 0.069474 0.062736 0.437966
Si Si2 0.048924 0.076811 0.785053
Si Si3 0.319909 0.928107 0.126800
Si Si4 0.701186 0.932213 0.380003
Si Si5 0.240577 0.436743 0.029860
Si Si6 0.419419 0.434814 0.144579
Si Si7 0.787468 0.577132 0.452306
O O1 0.068719 0.250000 0.434906
O O2 0.055808 0.008161 0.621077
O O3 0.153704 0.017679 0.220684
O O4 0.000000 0.000000 0.500000
O O5 0.021444 0.250000 0.823482
O O6 0.129676 0.080846 0.677993
O O7 0.000000 0.000000 0.000000
O O8 0.336195 0.750000 0.068999
O O9 0.288591 0.004991 0.056067
O O10 0.386464 0.007073 0.070142
O O11 0.254063 0.952249 0.372218
O O12 0.687762 0.750000 0.389902
O O13 0.634696 0.987022 0.617377
O O14 0.772530 0.949455 0.326076
O O15 0.720705 0.993080 0.190556
O O16 0.240783 0.250000 0.032131
O O17 0.420730 0.250000 0.141698
O O18 0.500000 0.500000 0.000000
O O19 0.756002 0.750000 0.548648
#
# Coordination Sequence:
#
# PCOD9160715 Si02
#       7
#     4   4   4   4   4   4   4
#     4  10  22  37  54  77 109 147 189 234 286 338
#     4  10  21  35  52  76 105 140 185 234 283 335
#     4  11  21  34  56  85 112 145 184 224 273 327
#     4   8  17  32  58  85 104 136 184 227 271 325
#     4  10  19  37  59  79 108 148 188 230 278 332
#     4  10  20  38  62  89 118 147 182 224 270 329
#     4   9  17  35  56  75 102 140 186 232 275 330
#
# _framework density 17.926203999999998
#
# number of rings (size 3 to 8) (size 9 to 14) (size 15 to 20)
#    0.000    2.286    1.429    2.571    2.000    1.714 
#    0.000    4.286    0.000    0.000    0.000    0.000 
#    0.000    0.000    0.000    0.000    0.000    0.000 
#
# Total GULP energy -155885.148071 kJ/mol
# GULP energy per Si atom -5567.326717 kJ/mol
# Density = 1.788540 g / cm^3
# Si number density = 17.926204 Si / 1000 Ang^3
#
#
#
# Elastic Constant Matrix: (Units=GPa)
#
#
# Indices 1 2 3 4 5 6 
#
# 1 160.7648 34.2558 85.5918 0.0000 3.1782 0.0000
# 2 34.2558 35.4319 25.0433 0.0000 -1.0416 0.0000
# 3 85.5918 25.0433 104.4164 0.0000 14.8427 0.0000
# 4 0.0000 0.0000 0.0000 19.8401 0.0000 -4.4992
# 5 3.1782 -1.0416 14.8427 0.0000 28.7276 0.0000
# 6 0.0000 0.0000 0.0000 -4.4992 0.0000 25.1773
#
#
#
# Elastic Compliance Matrix: (Units=1/GPa)
#
#
# Indices 1 2 3 4 5 6 
#
# 1 0.012137 -0.005161 -0.009167 0.000000 0.003206 0.000000
# 2 -0.005161 0.037123 -0.005338 0.000000 0.004675 0.000000
# 3 -0.009167 -0.005338 0.019702 0.000000 -0.009359 0.000000
# 4 0.000000 0.000000 0.000000 0.052532 0.000000 0.009388
# 5 0.003206 0.004675 -0.009359 0.000000 0.039460 0.000000
# 6 0.000000 0.000000 0.000000 0.009388 0.000000 0.041396
#
#
# Mechanical properties :
#
#
# Convention : Reuss Voigt Hill
#
# Bulk Modulus (GPa) = 33.74864 65.59943 49.67403
# Shear Modulus (GPa) = 19.87618 25.13046 22.50332
#
# Velocity S-wave (km/s) = 3.33344 3.74824 3.54691
# Velocity P-wave (km/s) = 5.80371 7.44352 6.67417
#
# Compressibility (1/GPa) = 0.02963083
#
# Stress axis : x y z
#
# Youngs Moduli (GPa) = 82.39220 26.93770 50.75633
#
# Poissons Ratio (x) = 0.13902 0.46528
# Poissons Ratio (y) = 0.42520 0.27093
# Poissons Ratio (z) = 0.75529 0.14379
#
# Static dielectric constant tensor:
#      x y z
#    x 1.616720 0.000000 0.006660 
#    y 0.000000 1.516460 0.000000 
#    z 0.006660 0.000000 1.609100 
# 
# From -- ./inp_files/28466.got.cif
#   From: 2010.05.17/outbox.cif.g08.bks.cpg/sg11_15_cif.got.tgz:28466.got - 2010.06.03 12:22:45.
