data_PCOD9160639
_publ_section_title
;
Structure prediction by ZEFSAII (Michael W. Deem and Ramdas Pophale) SiO2 
 PCOD9160639
Probable space group: P 21/M
;
_chemical_formula_sum "Si O2"
_cell_formula_units_Z 32
_cell_length_a 24.866501
_cell_length_b 7.681406
_cell_length_c 23.177497
_cell_angle_alpha 90.000000
_cell_angle_beta 19.904400
_cell_angle_gamma 90.000000
_cell_volume 1507.223006
_symmetry_space_group_name_H-M "P 21/M"
_symmetry_group_IT_number 11
_symmetry_cell_setting 'monoclinic'
loop_
_space_group_symop_operation_xyz
x,y,z
-x,1/2+y,-z
-x,-y,-z
x,1/2-y,z
loop_
_atom_site_type_symbol
_atom_site_label
_atom_site_fract_x
_atom_site_fract_y
_atom_site_fract_z
Si Si1 0.933535 0.956250 0.632094
Si Si2 0.209874 0.449452 0.418902
Si Si3 0.447018 0.550728 0.489264
Si Si4 0.919354 0.542584 0.141837
Si Si5 0.746412 0.964064 0.497259
Si Si6 0.321382 0.041771 0.184589
Si Si7 0.426364 0.949486 0.757914
Si Si8 0.072722 0.962862 0.105112
O O1 0.944301 0.750000 0.631088
O O2 0.757879 0.017200 0.795289
O O3 0.000000 0.000000 0.500000
O O4 0.022954 0.047443 0.593775
O O5 0.265759 0.250000 0.363590
O O6 0.253799 0.524017 0.436057
O O7 0.267771 0.533492 0.300600
O O8 0.500000 0.500000 0.500000
O O9 0.490118 0.750000 0.436349
O O10 0.257900 0.530124 0.675119
O O11 0.534055 0.449466 0.350246
O O12 0.902006 0.750000 0.164463
O O13 0.030764 0.483989 0.081952
O O14 0.000000 0.500000 0.000000
O O15 0.747537 0.750000 0.494124
O O16 0.586097 0.023799 0.626686
O O17 0.915497 0.016141 0.299233
O O18 0.289836 0.250000 0.218980
O O19 0.500000 0.000000 0.000000
O O20 0.417663 0.750000 0.787326
O O21 0.248900 0.024347 0.945276
O O22 0.078744 0.750000 0.100757
#
# Coordination Sequence:
#
# PCOD9160639 Si02
#       8
#     4   4   4   4   4   4   4   4
#     4   9  17  31  51  74 101 134 173 215 263 316
#     4   9  18  33  53  79 108 141 183 225 268 325
#     4  12  24  38  57  83 114 150 192 240 298 354
#     4  11  21  36  57  85 119 151 191 239 289 351
#     4   9  17  34  57  83 115 146 184 235 279 331
#     4   9  18  31  48  75 109 141 176 219 267 320
#     4  10  19  36  61  84 112 147 185 234 287 342
#     4   9  18  33  57  85 108 142 186 226 281 341
#
# _framework density 21.231099
#
# number of rings (size 3 to 8) (size 9 to 14) (size 15 to 20)
#    0.000    2.250    1.250    3.375    0.000    3.500 
#    2.250    1.250    0.000    0.000    0.000    0.000 
#    0.000    0.000    0.000    0.000    0.000    0.000 
#
# Total GULP energy -178250.684723 kJ/mol
# GULP energy per Si atom -5570.333898 kJ/mol
# Density = 2.118278 g / cm^3
# Si number density = 21.231099 Si / 1000 Ang^3
#
#
#
# Elastic Constant Matrix: (Units=GPa)
#
#
# Indices 1 2 3 4 5 6 
#
# 1 142.6756 -1.2950 58.2817 0.0000 -20.3019 0.0000
# 2 -1.2950 45.3225 -2.1641 0.0000 1.2626 0.0000
# 3 58.2817 -2.1641 129.0445 0.0000 -31.4980 0.0000
# 4 0.0000 0.0000 0.0000 14.6944 0.0000 -2.7697
# 5 -20.3019 1.2626 -31.4980 0.0000 30.7204 0.0000
# 6 0.0000 0.0000 0.0000 -2.7697 0.0000 14.3024
#
#
#
# Elastic Compliance Matrix: (Units=1/GPa)
#
#
# Indices 1 2 3 4 5 6 
#
# 1 0.008715 0.000024 -0.003374 0.000000 0.002298 0.000000
# 2 0.000024 0.022093 0.000189 0.000000 -0.000698 0.000000
# 3 -0.003374 0.000189 0.011644 0.000000 0.009701 0.000000
# 4 0.000000 0.000000 0.000000 0.070631 0.000000 0.013678
# 5 0.002298 -0.000698 0.009701 0.000000 0.044046 0.000000
# 6 0.000000 0.000000 0.000000 0.013678 0.000000 0.072567
#
#
# Mechanical properties :
#
#
# Convention : Reuss Voigt Hill
#
# Bulk Modulus (GPa) = 27.67809 47.40977 37.54393
# Shear Modulus (GPa) = 20.15622 29.42478 24.79050
#
# Velocity S-wave (km/s) = 3.08453 3.72684 3.42080
# Velocity P-wave (km/s) = 5.07451 6.39515 5.77272
#
# Compressibility (1/GPa) = 0.03612966
#
# Stress axis : x y z
#
# Youngs Moduli (GPa) = 114.74992 45.26266 85.87771
#
# Poissons Ratio (x) = -0.00108 0.28979
# Poissons Ratio (y) = -0.00274 -0.01626
# Poissons Ratio (z) = 0.38722 -0.00857
#
# Static dielectric constant tensor:
#      x y z
#    x 1.782690 0.000000 -0.036410 
#    y 0.000000 1.833940 0.000000 
#    z -0.036410 0.000000 1.848840 
# 
# From -- ./inp_files/69944.got.cif
#   From: 2010.05.17/outbox.cif.g08.bks.cpg/sg11_35_cif.got.tgz:69944.got - 2010.06.03 12:22:45.
