data_PCOD9160700
_publ_section_title
;
Structure prediction by ZEFSAII (Michael W. Deem and Ramdas Pophale) SiO2 
 PCOD9160700
Probable space group: P 21/M
;
_chemical_formula_sum "Si O2"
_cell_formula_units_Z 24
_cell_length_a 9.923954
_cell_length_b 17.352588
_cell_length_c 10.378040
_cell_angle_alpha 90.000000
_cell_angle_beta 136.988563
_cell_angle_gamma 90.000000
_cell_volume 1219.103603
_symmetry_space_group_name_H-M "P 21/M"
_symmetry_group_IT_number 11
_symmetry_cell_setting 'monoclinic'
loop_
_space_group_symop_operation_xyz
x,y,z
-x,1/2+y,-z
-x,-y,-z
x,1/2-y,z
loop_
_atom_site_type_symbol
_atom_site_label
_atom_site_fract_x
_atom_site_fract_y
_atom_site_fract_z
Si Si1 0.033872 0.662126 0.850736
Si Si2 0.673497 0.390942 0.162661
Si Si3 0.198596 0.610564 0.464728
Si Si4 0.758923 0.925847 0.226882
Si Si5 0.704587 0.567317 0.486945
Si Si6 0.322527 0.836784 0.280387
O O1 0.960186 0.750000 0.796382
O O2 0.204562 0.652220 0.862287
O O3 0.860679 0.603876 0.693957
O O4 0.134795 0.646698 0.058485
O O5 0.725433 0.362803 0.342223
O O6 0.741006 0.481134 0.202104
O O7 0.440017 0.390511 0.971594
O O8 0.285926 0.524680 0.504082
O O9 0.264905 0.659061 0.389136
O O10 0.961861 0.602200 0.306950
O O11 0.764419 0.909048 0.383301
O O12 0.491227 0.601884 0.366740
O O13 0.390969 0.750000 0.295252
#
# Coordination Sequence:
#
# PCOD9160700 Si02
#       6
#     4   4   4   4   4   4
#     4  11  22  38  60  85 118 161 201 239 293 359
#     4  10  19  37  62  90 117 151 194 243 295 355
#     4  11  22  38  63  94 119 152 197 255 300 343
#     4  10  19  36  65  91 120 144 193 255 295 343
#     4  11  20  40  65  88 115 160 202 242 296 360
#     4  11  26  42  55  85 127 159 196 247 299 354
#
# _framework density 19.686595000000001
#
# number of rings (size 3 to 8) (size 9 to 14) (size 15 to 20)
#    0.000    1.333    5.000    2.000    0.000    2.667 
#    0.000    0.833    0.000    0.000    0.000    0.000 
#    0.000    0.000    0.000    0.000    0.000    0.000 
#
# Total GULP energy -134147.539945 kJ/mol
# GULP energy per Si atom -5589.480831 kJ/mol
# Density = 1.964179 g / cm^3
# Si number density = 19.686595 Si / 1000 Ang^3
#
#
#
# Elastic Constant Matrix: (Units=GPa)
#
#
# Indices 1 2 3 4 5 6 
#
# 1 22.4106 2.5738 -13.6347 0.0000 -6.3907 0.0000
# 2 2.5738 21.5442 13.8541 0.0000 -0.9123 0.0000
# 3 -13.6347 13.8541 81.6761 0.0000 -8.1829 0.0000
# 4 0.0000 0.0000 0.0000 12.8610 0.0000 -8.4035
# 5 -6.3907 -0.9123 -8.1829 0.0000 30.8766 0.0000
# 6 0.0000 0.0000 0.0000 -8.4035 0.0000 -2.1235
#
#
#
# Elastic Compliance Matrix: (Units=1/GPa)
#
#
# Indices 1 2 3 4 5 6 
#
# 1 0.059436 -0.015518 0.014116 0.000000 0.015584 0.000000
# 2 -0.015518 0.056171 -0.012609 0.000000 -0.004894 0.000000
# 3 0.014116 -0.012609 0.017458 0.000000 0.007176 0.000000
# 4 0.000000 0.000000 0.000000 0.021684 0.000000 -0.085812
# 5 0.015584 -0.004894 0.007176 0.000000 0.037370 0.000000
# 6 0.000000 0.000000 0.000000 -0.085812 0.000000 -0.131328
#
#
# Mechanical properties :
#
#
# Convention : Reuss Voigt Hill
#
# Bulk Modulus (GPa) = 9.51992 14.57968 12.04980
# Shear Modulus (GPa) = 40.37921 16.51198 28.44560
#
# Velocity S-wave (km/s) = 4.53382 2.89925 3.80534
# Velocity P-wave (km/s) = 5.67923 4.31619 5.04396
#
# Compressibility (1/GPa) = 0.10504287
#
# Stress axis : x y z
#
# Youngs Moduli (GPa) = 16.82481 17.80281 57.28191
#
# Poissons Ratio (x) = 0.27626 -0.80857
# Poissons Ratio (y) = 0.26108 0.72225
# Poissons Ratio (z) = -0.23749 0.22447
#
# Static dielectric constant tensor:
#      x y z
#    x 1.665550 0.000000 -0.001870 
#    y 0.000000 1.686990 0.000000 
#    z -0.001870 0.000000 1.681160 
# 
# From -- ./inp_files/14207.got.cif
#   From: 2010.05.17/outbox.cif.g08.bks.cpg/sg11_8_cif.got.tgz:14207.got - 2010.06.03 12:22:45.
