data_PCOD9160220
_publ_section_title
;
Structure prediction by ZEFSAII (Michael W. Deem and Ramdas Pophale) SiO2 
 PCOD9160220
Probable space group: P 21/M
;
_chemical_formula_sum "Si O2"
_cell_formula_units_Z 32
_cell_length_a 13.438969
_cell_length_b 9.593186
_cell_length_c 20.621790
_cell_angle_alpha 90.000000
_cell_angle_beta 40.165995
_cell_angle_gamma 90.000000
_cell_volume 1714.816925
_symmetry_space_group_name_H-M "P 21/M"
_symmetry_group_IT_number 11
_symmetry_cell_setting 'monoclinic'
loop_
_space_group_symop_operation_xyz
x,y,z
-x,1/2+y,-z
-x,-y,-z
x,1/2-y,z
loop_
_atom_site_type_symbol
_atom_site_label
_atom_site_fract_x
_atom_site_fract_y
_atom_site_fract_z
Si Si1 0.872333 0.086290 0.438007
Si Si2 0.318929 0.407877 0.708832
Si Si3 0.342748 0.912287 0.581466
Si Si4 0.401448 0.580428 0.338774
Si Si5 0.241256 0.918192 0.051587
Si Si6 0.844477 0.413711 0.758786
Si Si7 0.518949 0.414772 0.847347
Si Si8 0.002726 0.095697 0.937302
O O1 0.911006 0.250000 0.427930
O O2 0.756874 0.077241 0.433873
O O3 0.767831 0.037220 0.551214
O O4 0.022781 0.999416 0.343941
O O5 0.350841 0.250000 0.667713
O O6 0.262805 0.511386 0.681218
O O7 0.469870 0.459043 0.671999
O O8 0.178781 0.396936 0.827629
O O9 0.371254 0.750000 0.580179
O O10 0.500000 0.000000 0.500000
O O11 0.399305 0.750000 0.339567
O O12 0.454009 0.537520 0.240706
O O13 0.267563 0.750000 0.039816
O O14 0.188392 0.958971 0.150510
O O15 0.104577 0.948968 0.068914
O O16 0.391464 0.997510 0.949782
O O17 0.889055 0.250000 0.738310
O O18 0.683182 0.425737 0.801252
O O19 0.475107 0.250000 0.868134
O O20 0.948013 0.250000 0.982854
O O21 0.000000 0.000000 0.000000
#
# Coordination Sequence:
#
# PCOD9160220 Si02
#       8
#     4   4   4   4   4   4   4   4
#     4  10  21  37  56  81 114 151 186 223 275 334
#     4  10  19  35  56  78 111 153 187 222 277 330
#     4  11  21  34  54  81 110 144 184 224 266 321
#     4   9  18  35  56  80 113 149 185 227 275 330
#     4  10  21  38  57  82 117 147 180 233 290 334
#     4  10  22  39  59  85 112 142 186 237 284 332
#     4  10  21  38  62  85 106 143 192 234 279 339
#     4  10  21  35  55  81 113 153 187 225 278 333
#
# _framework density 18.660882999999998
#
# number of rings (size 3 to 8) (size 9 to 14) (size 15 to 20)
#    0.000    2.000    1.250    2.250    0.000    5.500 
#    0.000    1.250    0.000    0.000    0.000    0.000 
#    0.000    0.000    0.000    0.000    0.000    0.000 
#
# Total GULP energy -178478.002038 kJ/mol
# GULP energy per Si atom -5577.437564 kJ/mol
# Density = 1.861841 g / cm^3
# Si number density = 18.660883 Si / 1000 Ang^3
#
#
#
# Elastic Constant Matrix: (Units=GPa)
#
#
# Indices 1 2 3 4 5 6 
#
# 1 39.5472 12.0859 8.0700 0.0000 -3.8738 0.0000
# 2 12.0859 40.4245 29.3360 0.0000 -7.3990 0.0000
# 3 8.0700 29.3360 94.0903 0.0000 -19.1348 0.0000
# 4 0.0000 0.0000 0.0000 28.3301 0.0000 -5.1409
# 5 -3.8738 -7.3990 -19.1348 0.0000 29.0083 0.0000
# 6 0.0000 0.0000 0.0000 -5.1409 0.0000 22.8927
#
#
#
# Elastic Compliance Matrix: (Units=1/GPa)
#
#
# Indices 1 2 3 4 5 6 
#
# 1 0.027934 -0.008455 0.000647 0.000000 0.002001 0.000000
# 2 -0.008455 0.034614 -0.009818 0.000000 0.001223 0.000000
# 3 0.000647 -0.009818 0.015178 0.000000 0.007594 0.000000
# 4 0.000000 0.000000 0.000000 0.036798 0.000000 0.008263
# 5 0.002001 0.001223 0.007594 0.000000 0.040061 0.000000
# 6 0.000000 0.000000 0.000000 0.008263 0.000000 0.045538
#
#
# Mechanical properties :
#
#
# Convention : Reuss Voigt Hill
#
# Bulk Modulus (GPa) = 23.54365 30.33841 26.94103
# Shear Modulus (GPa) = 20.03737 24.35089 22.19413
#
# Velocity S-wave (km/s) = 3.28039 3.61628 3.45242
# Velocity P-wave (km/s) = 5.19537 5.80773 5.51006
#
# Compressibility (1/GPa) = 0.04247430
#
# Stress axis : x y z
#
# Youngs Moduli (GPa) = 35.79863 28.88979 65.88414
#
# Poissons Ratio (x) = 0.24426 -0.04264
# Poissons Ratio (y) = 0.30268 0.64687
# Poissons Ratio (z) = -0.02317 0.28365
#
# Static dielectric constant tensor:
#      x y z
#    x 1.639310 0.000000 0.020010 
#    y 0.000000 1.681370 0.000000 
#    z 0.020010 0.000000 1.697620 
# 
# From -- ./inp_files/65208.got.cif
#   From: 2010.05.17/outbox.cif.g08.bks.cpg/sg11_33_cif.got.tgz:65208.got - 2010.06.03 12:22:45.
