data_PCOD9160717
_publ_section_title
;
Structure prediction by ZEFSAII (Michael W. Deem and Ramdas Pophale) SiO2 
 PCOD9160717
Probable space group: P 21/M
;
_chemical_formula_sum "Si O2"
_cell_formula_units_Z 28
_cell_length_a 5.247319
_cell_length_b 12.908218
_cell_length_c 22.201958
_cell_angle_alpha 90.000000
_cell_angle_beta 81.928309
_cell_angle_gamma 90.000000
_cell_volume 1488.919071
_symmetry_space_group_name_H-M "P 21/M"
_symmetry_group_IT_number 11
_symmetry_cell_setting 'monoclinic'
loop_
_space_group_symop_operation_xyz
x,y,z
-x,1/2+y,-z
-x,-y,-z
x,1/2-y,z
loop_
_atom_site_type_symbol
_atom_site_label
_atom_site_fract_x
_atom_site_fract_y
_atom_site_fract_z
Si Si1 0.219706 0.873928 0.039654
Si Si2 0.710639 0.004790 0.216492
Si Si3 0.816540 0.443692 0.730436
Si Si4 0.691705 0.506049 0.080339
Si Si5 0.540568 0.484619 0.569187
Si Si6 0.980184 0.634339 0.395934
Si Si7 0.569181 0.628922 0.678542
O O1 0.228261 0.750000 0.043132
O O2 0.435643 0.928571 0.073907
O O3 0.281577 0.915697 0.970168
O O4 0.938994 0.919111 0.064973
O O5 0.689842 0.036603 0.148148
O O6 0.654479 0.096291 0.266586
O O7 0.980621 0.953367 0.223246
O O8 0.526576 0.426727 0.762054
O O9 0.909918 0.368254 0.675481
O O10 0.796754 0.556330 0.697539
O O11 0.500000 0.500000 0.500000
O O12 0.818895 0.434243 0.572691
O O13 0.518184 0.584814 0.613318
O O14 0.306670 0.410633 0.597136
O O15 0.975882 0.750000 0.420563
O O16 0.618435 0.750000 0.677080
#
# Coordination Sequence:
#
# PCOD9160717 Si02
#       7
#     4   4   4   4   4   4   4
#     4  10  21  39  59  87 120 157 200 239 292 347
#     4  10  19  37  59  81 122 148 194 235 299 336
#     4   9  19  37  55  84 118 149 183 247 282 345
#     4  10  21  37  63  84 120 159 191 251 290 342
#     4  11  23  41  60  88 120 153 194 248 288 348
#     4  11  21  40  62  83 114 157 195 237 289 344
#     4   9  21  37  60  85 118 153 190 241 298 348
#
# _framework density 18.805589999999999
#
# number of rings (size 3 to 8) (size 9 to 14) (size 15 to 20)
#    0.857    1.143    1.429    2.143    0.000    2.286 
#    0.000    4.286    0.000    0.000    0.000    0.000 
#    0.000    0.000    0.000    0.000    0.000    0.000 
#
# Total GULP energy -155981.271932 kJ/mol
# GULP energy per Si atom -5570.759712 kJ/mol
# Density = 1.876279 g / cm^3
# Si number density = 18.805590 Si / 1000 Ang^3
#
#
#
# Elastic Constant Matrix: (Units=GPa)
#
#
# Indices 1 2 3 4 5 6 
#
# 1 92.8310 5.5510 0.4778 0.0000 11.6275 0.0000
# 2 5.5510 74.8015 0.4446 0.0000 0.1574 0.0000
# 3 0.4778 0.4446 88.5619 0.0000 22.0987 0.0000
# 4 0.0000 0.0000 0.0000 1.9627 0.0000 1.5669
# 5 11.6275 0.1574 22.0987 0.0000 30.3856 0.0000
# 6 0.0000 0.0000 0.0000 1.5669 0.0000 13.1361
#
#
#
# Elastic Compliance Matrix: (Units=1/GPa)
#
#
# Indices 1 2 3 4 5 6 
#
# 1 0.011482 -0.000848 0.001268 0.000000 -0.005311 0.000000
# 2 -0.000848 0.013432 -0.000155 0.000000 0.000367 0.000000
# 3 0.001268 -0.000155 0.013935 0.000000 -0.010619 0.000000
# 4 0.000000 0.000000 0.000000 0.563111 0.000000 -0.067167
# 5 -0.005311 0.000367 -0.010619 0.000000 0.042664 0.000000
# 6 0.000000 0.000000 0.000000 -0.067167 0.000000 0.084138
#
#
# Mechanical properties :
#
#
# Convention : Reuss Voigt Hill
#
# Bulk Modulus (GPa) = 25.39484 29.90455 27.64969
# Shear Modulus (GPa) = 6.74438 25.74494 16.24466
#
# Velocity S-wave (km/s) = 1.89583 3.70402 2.94227
# Velocity P-wave (km/s) = 4.28082 5.85060 5.12615
#
# Compressibility (1/GPa) = 0.03937808
#
# Stress axis : x y z
#
# Youngs Moduli (GPa) = 87.09494 74.45009 71.76064
#
# Poissons Ratio (x) = 0.06316 -0.09096
# Poissons Ratio (y) = 0.07389 0.01109
# Poissons Ratio (z) = -0.11040 0.01151
#
# Static dielectric constant tensor:
#      x y z
#    x 1.663140 0.000000 -0.011660 
#    y 0.000000 1.628290 0.000000 
#    z -0.011660 0.000000 1.677770 
# 
# From -- ./inp_files/62669.got.cif
#   From: 2010.05.17/outbox.cif.g08.bks.cpg/sg11_32_cif.got.tgz:62669.got - 2010.06.03 12:22:45.
