data_PCOD9160534
_publ_section_title
;
Structure prediction by ZEFSAII (Michael W. Deem and Ramdas Pophale) SiO2 
 PCOD9160534
Probable space group: P 21/M
;
_chemical_formula_sum "Si O2"
_cell_formula_units_Z 28
_cell_length_a 9.684559
_cell_length_b 8.397316
_cell_length_c 16.846520
_cell_angle_alpha 90.000000
_cell_angle_beta 92.194726
_cell_angle_gamma 90.000000
_cell_volume 1369.026492
_symmetry_space_group_name_H-M "P 21/M"
_symmetry_group_IT_number 11
_symmetry_cell_setting 'monoclinic'
loop_
_space_group_symop_operation_xyz
x,y,z
-x,1/2+y,-z
-x,-y,-z
x,1/2-y,z
loop_
_atom_site_type_symbol
_atom_site_label
_atom_site_fract_x
_atom_site_fract_y
_atom_site_fract_z
Si Si1 0.853386 0.562352 0.163753
Si Si2 0.571813 0.060729 0.750541
Si Si3 0.575534 0.936257 0.923062
Si Si4 0.885168 0.056688 0.735164
Si Si5 0.155321 0.934962 0.001748
Si Si6 0.059142 0.441189 0.584311
Si Si7 0.700441 0.063191 0.313225
O O1 0.851724 0.750000 0.142968
O O2 0.800470 0.461684 0.088711
O O3 0.765033 0.533710 0.240658
O O4 0.009081 0.512411 0.192173
O O5 0.567750 0.250000 0.738160
O O6 0.728538 0.001558 0.740796
O O7 0.534266 0.023546 0.841173
O O8 0.460540 0.979219 0.690994
O O9 0.548847 0.750000 0.913900
O O10 0.500000 0.000000 0.000000
O O11 0.737552 0.970381 0.941822
O O12 0.882627 0.250000 0.736162
O O13 0.957030 0.008284 0.654139
O O14 0.159571 0.750000 0.024001
O O15 0.000000 0.000000 0.000000
O O16 0.067312 0.250000 0.585476
O O17 0.209173 0.511544 0.609301
O O18 0.000000 0.500000 0.500000
O O19 0.719473 0.250000 0.299448
#
# Coordination Sequence:
#
# PCOD9160534 Si02
#       7
#     4   4   4   4   4   4   4
#     4  10  19  36  58  81 108 145 191 241 290 344
#     4  11  21  38  60  84 114 151 191 239 291 344
#     4  12  25  41  58  81 113 154 199 248 299 352
#     4   8  18  35  59  85 113 146 185 230 284 340
#     4  12  24  38  55  80 111 148 193 245 298 349
#     4  10  20  39  64  92 119 149 186 230 281 340
#     4  11  22  37  57  85 116 151 189 229 275 337
#
# _framework density 20.452487999999999
#
# number of rings (size 3 to 8) (size 9 to 14) (size 15 to 20)
#    0.000    1.429    0.000    7.714    0.000    1.143 
#    0.000    8.571    0.000    0.000    0.000    0.000 
#    0.000    0.000    0.000    0.000    0.000    0.000 
#
# Total GULP energy -156600.995867 kJ/mol
# GULP energy per Si atom -5592.892710 kJ/mol
# Density = 2.040594 g / cm^3
# Si number density = 20.452488 Si / 1000 Ang^3
#
#
#
# Elastic Constant Matrix: (Units=GPa)
#
#
# Indices 1 2 3 4 5 6 
#
# 1 107.3438 9.6097 22.2602 0.0000 26.9556 0.0000
# 2 9.6097 57.2513 3.8047 0.0000 3.2450 0.0000
# 3 22.2602 3.8047 86.9712 0.0000 25.8291 0.0000
# 4 0.0000 0.0000 0.0000 30.7122 0.0000 6.5538
# 5 26.9556 3.2450 25.8291 0.0000 31.7781 0.0000
# 6 0.0000 0.0000 0.0000 6.5538 0.0000 24.9850
#
#
#
# Elastic Compliance Matrix: (Units=1/GPa)
#
#
# Indices 1 2 3 4 5 6 
#
# 1 0.011954 -0.001439 -0.000038 0.000000 -0.009962 0.000000
# 2 -0.001439 0.017748 -0.000306 0.000000 -0.000342 0.000000
# 3 -0.000038 -0.000306 0.015162 0.000000 -0.012260 0.000000
# 4 0.000000 0.000000 0.000000 0.034491 0.000000 -0.009047
# 5 -0.009962 -0.000342 -0.012260 0.000000 0.049919 0.000000
# 6 0.000000 0.000000 0.000000 -0.009047 0.000000 0.042397
#
#
# Mechanical properties :
#
#
# Convention : Reuss Voigt Hill
#
# Bulk Modulus (GPa) = 24.21465 35.87951 30.04708
# Shear Modulus (GPa) = 26.45433 31.88785 29.17109
#
# Velocity S-wave (km/s) = 3.60036 3.95285 3.78072
# Velocity P-wave (km/s) = 5.39895 6.19793 5.81218
#
# Compressibility (1/GPa) = 0.04129731
#
# Stress axis : x y z
#
# Youngs Moduli (GPa) = 83.65207 56.34370 65.95292
#
# Poissons Ratio (x) = 0.08110 0.00251
# Poissons Ratio (y) = 0.12040 0.02020
# Poissons Ratio (z) = 0.00319 0.01726
#
# Static dielectric constant tensor:
#      x y z
#    x 1.790310 0.000000 -0.013370 
#    y 0.000000 3.118770 0.000000 
#    z -0.013370 0.000000 1.710210 
# 
# From -- ./inp_files/57546.got.cif
#   From: 2010.05.17/outbox.cif.g08.bks.cpg/sg11_29_cif.got.tgz:57546.got - 2010.06.03 12:22:45.
