data_PCOD9160627
_publ_section_title
;
Structure prediction by ZEFSAII (Michael W. Deem and Ramdas Pophale) SiO2 
 PCOD9160627
Probable space group: P 21/M
;
_chemical_formula_sum "Si O2"
_cell_formula_units_Z 20
_cell_length_a 5.185793
_cell_length_b 8.494922
_cell_length_c 22.583571
_cell_angle_alpha 90.000000
_cell_angle_beta 96.703113
_cell_angle_gamma 90.000000
_cell_volume 988.071317
_symmetry_space_group_name_H-M "P 21/M"
_symmetry_group_IT_number 11
_symmetry_cell_setting 'monoclinic'
loop_
_space_group_symop_operation_xyz
x,y,z
-x,1/2+y,-z
-x,-y,-z
x,1/2-y,z
loop_
_atom_site_type_symbol
_atom_site_label
_atom_site_fract_x
_atom_site_fract_y
_atom_site_fract_z
Si Si1 0.602298 0.559275 0.832399
Si Si2 0.620970 0.062574 0.564280
Si Si3 0.732833 0.062677 0.965822
Si Si4 0.154417 0.939162 0.628620
Si Si5 0.065163 0.941542 0.761443
O O1 0.606207 0.750000 0.835136
O O2 0.691182 0.495708 0.897853
O O3 0.312651 0.509525 0.806960
O O4 0.801602 0.508450 0.786384
O O5 0.646519 0.250000 0.562521
O O6 0.500000 0.000000 0.500000
O O7 0.416211 0.012877 0.609460
O O8 0.902404 0.988098 0.584189
O O9 0.734024 0.250000 0.966982
O O10 0.500000 0.000000 0.000000
O O11 0.000000 0.000000 0.000000
O O12 0.182405 0.750000 0.628274
O O13 0.101054 0.991583 0.694685
O O14 0.062654 0.750000 0.760246
#
# Coordination Sequence:
#
# PCOD9160627 Si02
#       5
#     4   4   4   4   4
#     4  10  19  36  60  88 119 157 200 245 293 355
#     4  12  25  42  62  90 124 162 203 252 307 361
#     4  12  25  42  63  91 123 161 204 253 306 361
#     4  11  22  41  66  93 122 160 205 250 297 360
#     4   9  19  35  60  88 118 156 199 240 293 359
#
# _framework density 20.241454999999998
#
# number of rings (size 3 to 8) (size 9 to 14) (size 15 to 20)
#    0.000    1.200    0.000    7.200    0.000    4.800 
#    0.000    6.000    0.000    0.000    0.000    0.000 
#    0.000    0.000    0.000    0.000    0.000    0.000 
#
# Total GULP energy -111918.833288 kJ/mol
# GULP energy per Si atom -5595.941664 kJ/mol
# Density = 2.019538 g / cm^3
# Si number density = 20.241455 Si / 1000 Ang^3
#
#
#
# Elastic Constant Matrix: (Units=GPa)
#
#
# Indices 1 2 3 4 5 6 
#
# 1 67.3331 -2.1067 -28.7373 0.0000 -2.2434 0.0000
# 2 -2.1067 61.9780 3.0943 0.0000 -2.0159 0.0000
# 3 -28.7373 3.0943 57.6525 0.0000 -1.6804 0.0000
# 4 0.0000 0.0000 0.0000 25.9211 0.0000 0.4523
# 5 -2.2434 -2.0159 -1.6804 0.0000 44.4114 0.0000
# 6 0.0000 0.0000 0.0000 0.4523 0.0000 30.5407
#
#
#
# Elastic Compliance Matrix: (Units=1/GPa)
#
#
# Indices 1 2 3 4 5 6 
#
# 1 0.018944 0.000214 0.009470 0.000000 0.001325 0.000000
# 2 0.000214 0.016202 -0.000742 0.000000 0.000718 0.000000
# 3 0.009470 -0.000742 0.022143 0.000000 0.001283 0.000000
# 4 0.000000 0.000000 0.000000 0.038589 0.000000 -0.000571
# 5 0.001325 0.000718 0.001283 0.000000 0.022665 0.000000
# 6 0.000000 0.000000 0.000000 -0.000571 0.000000 0.032752
#
#
# Mechanical properties :
#
#
# Convention : Reuss Voigt Hill
#
# Bulk Modulus (GPa) = 13.30249 14.60714 13.95482
# Shear Modulus (GPa) = 31.55215 34.48888 33.02052
#
# Velocity S-wave (km/s) = 3.95243 4.13228 4.04336
# Velocity P-wave (km/s) = 5.23595 5.47720 5.35793
#
# Compressibility (1/GPa) = 0.07517391
#
# Stress axis : x y z
#
# Youngs Moduli (GPa) = 52.78695 61.71915 45.16130
#
# Poissons Ratio (x) = -0.01322 -0.42767
# Poissons Ratio (y) = -0.01131 0.03350
# Poissons Ratio (z) = -0.49989 0.04579
#
# Static dielectric constant tensor:
#      x y z
#    x 1.681010 0.000000 -0.009780 
#    y 0.000000 1.700270 0.000000 
#    z -0.009780 0.000000 1.694280 
# 
# From -- ./inp_files/8478.got.cif
#   From: 2010.05.17/outbox.cif.g08.bks.cpg/sg11_5_cif.got.tgz:8478.got - 2010.06.03 12:22:45.
