data_PCOD9160457
_publ_section_title
;
Structure prediction by ZEFSAII (Michael W. Deem and Ramdas Pophale) SiO2 
 PCOD9160457
Probable space group: P 21/M
;
_chemical_formula_sum "Si O2"
_cell_formula_units_Z 32
_cell_length_a 22.175279
_cell_length_b 8.649236
_cell_length_c 28.631043
_cell_angle_alpha 90.000000
_cell_angle_beta 18.804310
_cell_angle_gamma 90.000000
_cell_volume 1770.084668
_symmetry_space_group_name_H-M "P 21/M"
_symmetry_group_IT_number 11
_symmetry_cell_setting 'monoclinic'
loop_
_space_group_symop_operation_xyz
x,y,z
-x,1/2+y,-z
-x,-y,-z
x,1/2-y,z
loop_
_atom_site_type_symbol
_atom_site_label
_atom_site_fract_x
_atom_site_fract_y
_atom_site_fract_z
Si Si1 0.994889 0.435533 0.451609
Si Si2 0.299288 0.435385 0.403597
Si Si3 0.292175 0.936949 0.864605
Si Si4 0.708256 0.564036 0.844215
Si Si5 0.206524 0.064592 0.638196
Si Si6 0.622925 0.062068 0.303434
Si Si7 0.898255 0.064758 0.184613
Si Si8 0.972609 0.435426 0.318822
O O1 0.993920 0.250000 0.453354
O O2 0.811293 0.493917 0.558896
O O3 0.000000 0.500000 0.500000
O O4 0.172117 0.484906 0.289305
O O5 0.285033 0.250000 0.412845
O O6 0.516899 0.477115 0.248299
O O7 0.192250 0.495616 0.528093
O O8 0.273238 0.750000 0.879386
O O9 0.317756 0.986712 0.791865
O O10 0.108999 0.012522 0.020160
O O11 0.699080 0.750000 0.849944
O O12 0.835315 0.519482 0.795804
O O13 0.500000 0.500000 0.000000
O O14 0.200110 0.250000 0.641428
O O15 0.412763 0.012736 0.470096
O O16 0.171265 0.006783 0.716084
O O17 0.056607 0.997894 0.711592
O O18 0.621805 0.250000 0.303862
O O19 0.767327 0.012192 0.237503
O O20 0.887248 0.250000 0.195510
O O21 0.960131 0.250000 0.328525
#
# Coordination Sequence:
#
# PCOD9160457 Si02
#       8
#     4   4   4   4   4   4   4   4
#     4  10  21  38  59  87 119 150 189 236 280 334
#     4  10  19  35  61  86 112 150 192 234 280 336
#     4  10  20  38  59  82 113 149 190 233 280 342
#     4   9  20  37  58  85 116 146 182 227 273 329
#     4  11  21  38  60  82 111 151 192 234 284 339
#     4   9  19  37  60  83 110 144 191 237 280 339
#     4  11  23  37  54  83 118 149 184 237 291 337
#     4  10  20  36  58  86 116 146 188 237 279 332
#
# _framework density 18.078230000000001
#
# number of rings (size 3 to 8) (size 9 to 14) (size 15 to 20)
#    0.000    2.000    1.250    3.375    0.000    4.000 
#    2.250    2.500    0.000    0.000    0.000    0.000 
#    0.000    0.000    0.000    0.000    0.000    0.000 
#
# Total GULP energy -178673.439435 kJ/mol
# GULP energy per Si atom -5583.544982 kJ/mol
# Density = 1.803708 g / cm^3
# Si number density = 18.078230 Si / 1000 Ang^3
#
#
#
# Elastic Constant Matrix: (Units=GPa)
#
#
# Indices 1 2 3 4 5 6 
#
# 1 81.2742 18.9650 5.2851 0.0000 -13.3102 0.0000
# 2 18.9650 38.5926 15.3862 0.0000 -7.3417 0.0000
# 3 5.2851 15.3862 56.3374 0.0000 -20.7258 0.0000
# 4 0.0000 0.0000 0.0000 23.9744 0.0000 1.9230
# 5 -13.3102 -7.3417 -20.7258 0.0000 27.5426 0.0000
# 6 0.0000 0.0000 0.0000 1.9230 0.0000 30.6641
#
#
#
# Elastic Compliance Matrix: (Units=1/GPa)
#
#
# Indices 1 2 3 4 5 6 
#
# 1 0.015087 -0.007296 0.003518 0.000000 0.007993 0.000000
# 2 -0.007296 0.032726 -0.008769 0.000000 -0.001401 0.000000
# 3 0.003518 -0.008769 0.027076 0.000000 0.019737 0.000000
# 4 0.000000 0.000000 0.000000 0.041922 0.000000 -0.002629
# 5 0.007993 -0.001401 0.019737 0.000000 0.054649 0.000000
# 6 0.000000 0.000000 0.000000 -0.002629 0.000000 0.032776
#
#
# Mechanical properties :
#
#
# Convention : Reuss Voigt Hill
#
# Bulk Modulus (GPa) = 20.08198 28.38634 24.23416
# Shear Modulus (GPa) = 20.33111 25.54075 22.93593
#
# Velocity S-wave (km/s) = 3.35717 3.76279 3.56575
# Velocity P-wave (km/s) = 5.11468 5.88338 5.51244
#
# Compressibility (1/GPa) = 0.04979589
#
# Stress axis : x y z
#
# Youngs Moduli (GPa) = 66.28338 30.55637 36.93297
#
# Poissons Ratio (x) = 0.22293 -0.12992
# Poissons Ratio (y) = 0.48359 0.32385
# Poissons Ratio (z) = -0.23317 0.26794
#
# Static dielectric constant tensor:
#      x y z
#    x 1.614190 0.000000 -0.008050 
#    y 0.000000 1.609950 0.000000 
#    z -0.008050 0.000000 1.597280 
# 
# From -- ./inp_files/71982.got.cif
#   From: 2010.05.17/outbox.cif.g08.bks.cpg/sg11_36_cif.got.tgz:71982.got - 2010.06.03 12:22:45.
