data_PCOD9160461
_publ_section_title
;
Structure prediction by ZEFSAII (Michael W. Deem and Ramdas Pophale) SiO2 
 PCOD9160461
Probable space group: P 21/M
;
_chemical_formula_sum "Si O2"
_cell_formula_units_Z 32
_cell_length_a 15.875580
_cell_length_b 15.714083
_cell_length_c 22.301724
_cell_angle_alpha 90.000000
_cell_angle_beta 15.147022
_cell_angle_gamma 90.000000
_cell_volume 1453.754684
_symmetry_space_group_name_H-M "P 21/M"
_symmetry_group_IT_number 11
_symmetry_cell_setting 'monoclinic'
loop_
_space_group_symop_operation_xyz
x,y,z
-x,1/2+y,-z
-x,-y,-z
x,1/2-y,z
loop_
_atom_site_type_symbol
_atom_site_label
_atom_site_fract_x
_atom_site_fract_y
_atom_site_fract_z
Si Si1 0.652280 0.842427 0.612062
Si Si2 0.968253 0.649067 0.914899
Si Si3 0.745760 0.574074 0.811810
Si Si4 0.645821 0.985405 0.218246
Si Si5 0.263397 0.349809 0.059026
Si Si6 0.942948 0.442025 0.594477
Si Si7 0.600300 0.955469 0.492902
Si Si8 0.846286 0.153701 0.844599
O O1 0.499300 0.750000 0.713514
O O2 0.426739 0.922978 0.761075
O O3 0.936751 0.846288 0.366001
O O4 0.834507 0.860831 0.548794
O O5 0.929520 0.750000 0.952008
O O6 0.326850 0.618490 0.687934
O O7 0.701598 0.593389 0.134314
O O8 0.931412 0.633173 0.868303
O O9 0.008865 0.513085 0.601184
O O10 0.500000 0.500000 0.000000
O O11 0.866170 0.627538 0.785486
O O12 0.517813 0.628022 0.923505
O O13 0.434024 0.983526 0.425260
O O14 0.000000 0.000000 0.000000
O O15 0.341785 0.250000 0.004896
O O16 0.584992 0.405971 0.836375
O O17 0.000000 0.500000 0.500000
O O18 0.955917 0.913108 0.250499
O O19 0.500000 0.000000 0.500000
O O20 0.854272 0.250000 0.862830
#
# Coordination Sequence:
#
# PCOD9160461 Si02
#       8
#     4   4   4   4   4   4   4   4
#     4  10  19  35  61  88 115 155 204 249 299 362
#     4  10  21  39  62  88 122 167 210 252 315 381
#     4  10  20  34  59  85 114 155 201 245 307 362
#     4   9  20  38  59  88 119 161 205 252 312 365
#     4  10  20  36  59  84 117 156 201 248 300 367
#     4  11  22  35  56  85 122 157 196 242 306 369
#     4  10  22  36  63  89 122 160 209 264 314 369
#     4  10  19  36  60  87 118 155 205 257 303 360
#
# _framework density 22.011966999999999
#
# number of rings (size 3 to 8) (size 9 to 14) (size 15 to 20)
#    0.000    2.000    2.500    1.875    3.500    3.000 
#    0.000    3.750    0.000    5.250    0.000    0.000 
#    0.000    0.000    0.000    0.000    0.000    0.000 
#
# Total GULP energy -178318.792266 kJ/mol
# GULP energy per Si atom -5572.462258 kJ/mol
# Density = 2.196187 g / cm^3
# Si number density = 22.011967 Si / 1000 Ang^3
#
#
#
# Elastic Constant Matrix: (Units=GPa)
#
#
# Indices 1 2 3 4 5 6 
#
# 1 113.5763 53.8465 13.8388 0.0000 -1.4659 0.0000
# 2 53.8465 135.5009 41.1250 0.0000 -0.5799 0.0000
# 3 13.8388 41.1250 33.5164 0.0000 -19.3776 0.0000
# 4 0.0000 0.0000 0.0000 33.5511 0.0000 -4.3759
# 5 -1.4659 -0.5799 -19.3776 0.0000 32.3144 0.0000
# 6 0.0000 0.0000 0.0000 -4.3759 0.0000 39.1313
#
#
#
# Elastic Compliance Matrix: (Units=1/GPa)
#
#
# Indices 1 2 3 4 5 6 
#
# 1 0.010984 -0.005475 0.003695 0.000000 0.002616 0.000000
# 2 -0.005475 0.019521 -0.033114 0.000000 -0.019755 0.000000
# 3 0.003695 -0.033114 0.105149 0.000000 0.062627 0.000000
# 4 0.000000 0.000000 0.000000 0.030246 0.000000 0.003382
# 5 0.002616 -0.019755 0.062627 0.000000 0.068265 0.000000
# 6 0.000000 0.000000 0.000000 0.003382 0.000000 0.025933
#
#
# Mechanical properties :
#
#
# Convention : Reuss Voigt Hill
#
# Bulk Modulus (GPa) = 15.18203 55.57937 35.38070
# Shear Modulus (GPa) = 14.21097 32.58490 23.39793
#
# Velocity S-wave (km/s) = 2.54363 3.85167 3.26385
# Velocity P-wave (km/s) = 3.94194 6.71453 5.50563
#
# Compressibility (1/GPa) = 0.06586733
#
# Stress axis : x y z
#
# Youngs Moduli (GPa) = 91.04169 51.22591 9.51034
#
# Poissons Ratio (x) = 0.28048 -0.03514
# Poissons Ratio (y) = 0.49848 0.31492
# Poissons Ratio (z) = -0.33644 1.69627
#
# Static dielectric constant tensor:
#      x y z
#    x 2.087650 0.000000 0.010350 
#    y 0.000000 1.814430 0.000000 
#    z 0.010350 0.000000 1.884940 
# 
# From -- ./inp_files/65740.got.cif
#   From: 2010.05.17/outbox.cif.g08.bks.cpg/sg11_33_cif.got.tgz:65740.got - 2010.06.03 12:22:45.
