data_PCOD9160560
_publ_section_title
;
Structure prediction by ZEFSAII (Michael W. Deem and Ramdas Pophale) SiO2 
 PCOD9160560
Probable space group: P 21/M
;
_chemical_formula_sum "Si O2"
_cell_formula_units_Z 32
_cell_length_a 16.028514
_cell_length_b 13.347643
_cell_length_c 8.996379
_cell_angle_alpha 90.000000
_cell_angle_beta 62.340576
_cell_angle_gamma 90.000000
_cell_volume 1704.760255
_symmetry_space_group_name_H-M "P 21/M"
_symmetry_group_IT_number 11
_symmetry_cell_setting 'monoclinic'
loop_
_space_group_symop_operation_xyz
x,y,z
-x,1/2+y,-z
-x,-y,-z
x,1/2-y,z
loop_
_atom_site_type_symbol
_atom_site_label
_atom_site_fract_x
_atom_site_fract_y
_atom_site_fract_z
Si Si1 0.159821 0.862547 0.069673
Si Si2 0.290907 0.453833 0.629151
Si Si3 0.591661 0.632024 0.192604
Si Si4 0.902319 0.039954 0.150392
Si Si5 0.691600 0.012654 0.881754
Si Si6 0.974003 0.542481 0.364903
Si Si7 0.214410 0.139898 0.408874
Si Si8 0.632838 0.367559 0.635281
O O1 0.170611 0.750000 0.111546
O O2 0.251251 0.923609 0.044105
O O3 0.067982 0.912074 0.218356
O O4 0.136444 0.869172 0.913900
O O5 0.359763 0.413432 0.699228
O O6 0.185670 0.463416 0.784267
O O7 0.281423 0.380951 0.494872
O O8 0.318770 0.560574 0.529344
O O9 0.618638 0.750000 0.151264
O O10 0.479037 0.628522 0.300151
O O11 0.622111 0.561751 0.028316
O O12 0.928505 0.045376 0.301174
O O13 0.000000 0.000000 0.000000
O O14 0.650968 0.084130 0.784468
O O15 0.764130 0.941949 0.733017
O O16 0.892046 0.624336 0.447912
O O17 0.000000 0.500000 0.500000
O O18 0.229713 0.250000 0.336513
O O19 0.662458 0.250000 0.605759
#
# Coordination Sequence:
#
# PCOD9160560 Si02
#       8
#     4   4   4   4   4   4   4   4
#     4  11  21  36  57  81 116 159 195 232 291 348
#     4  10  20  38  62  86 117 153 191 246 293 349
#     4  11  22  39  62  88 116 154 200 247 299 354
#     4   9  20  37  58  81 118 152 188 236 288 341
#     4  11  21  38  58  83 119 153 194 246 293 347
#     4  10  19  36  59  80 115 151 190 242 287 341
#     4  10  20  35  57  84 113 152 194 238 290 347
#     4  10  23  40  60  87 120 156 197 243 299 355
#
# _framework density 18.770969000000001
#
# number of rings (size 3 to 8) (size 9 to 14) (size 15 to 20)
#    0.000    1.750    2.500    2.250    0.000    0.500 
#    0.000    1.875    0.000    5.250    0.000    0.000 
#    0.000    0.000    0.000    0.000    0.000    0.000 
#
# Total GULP energy -178254.654018 kJ/mol
# GULP energy per Si atom -5570.457938 kJ/mol
# Density = 1.872825 g / cm^3
# Si number density = 18.770969 Si / 1000 Ang^3
#
#
#
# Elastic Constant Matrix: (Units=GPa)
#
#
# Indices 1 2 3 4 5 6 
#
# 1 105.9386 47.6544 30.1323 0.0000 13.3347 0.0000
# 2 47.6544 111.5726 26.7171 0.0000 8.1856 0.0000
# 3 30.1323 26.7171 50.5105 0.0000 7.4419 0.0000
# 4 0.0000 0.0000 0.0000 18.7639 0.0000 0.5116
# 5 13.3347 8.1856 7.4419 0.0000 36.5892 0.0000
# 6 0.0000 0.0000 0.0000 0.5116 0.0000 14.3077
#
#
#
# Elastic Compliance Matrix: (Units=1/GPa)
#
#
# Indices 1 2 3 4 5 6 
#
# 1 0.013151 -0.004158 -0.005233 0.000000 -0.002798 0.000000
# 2 -0.004158 0.011631 -0.003620 0.000000 -0.000350 0.000000
# 3 -0.005233 -0.003620 0.025189 0.000000 -0.002406 0.000000
# 4 0.000000 0.000000 0.000000 0.053346 0.000000 -0.001907
# 5 -0.002798 -0.000350 -0.002406 0.000000 0.028918 0.000000
# 6 0.000000 0.000000 0.000000 -0.001907 0.000000 0.069961
#
#
# Mechanical properties :
#
#
# Convention : Reuss Voigt Hill
#
# Bulk Modulus (GPa) = 41.75755 53.00324 47.38040
# Shear Modulus (GPa) = 21.16833 24.83335 23.00084
#
# Velocity S-wave (km/s) = 3.36179 3.64121 3.50428
# Velocity P-wave (km/s) = 6.11253 6.78056 6.45519
#
# Compressibility (1/GPa) = 0.02394776
#
# Stress axis : x y z
#
# Youngs Moduli (GPa) = 76.04145 85.97376 39.69973
#
# Poissons Ratio (x) = 0.35752 0.20776
# Poissons Ratio (y) = 0.31621 0.14371
# Poissons Ratio (z) = 0.39795 0.31122
#
# Static dielectric constant tensor:
#      x y z
#    x 1.647520 0.000000 0.004570 
#    y 0.000000 1.672960 0.000000 
#    z 0.004570 0.000000 1.686700 
# 
# From -- ./inp_files/22182.got.cif
#   From: 2010.05.17/outbox.cif.g08.bks.cpg/sg11_12_cif.got.tgz:22182.got - 2010.06.03 12:22:45.
