data_PCOD9160892
_publ_section_title
;
Structure prediction by ZEFSAII (Michael W. Deem and Ramdas Pophale) SiO2 
 PCOD9160892
Probable space group: P 21/M
;
_chemical_formula_sum "Si O2"
_cell_formula_units_Z 32
_cell_length_a 21.483587
_cell_length_b 14.967591
_cell_length_c 16.063772
_cell_angle_alpha 90.000000
_cell_angle_beta 160.129832
_cell_angle_gamma 90.000000
_cell_volume 1755.676630
_symmetry_space_group_name_H-M "P 21/M"
_symmetry_group_IT_number 11
_symmetry_cell_setting 'monoclinic'
loop_
_space_group_symop_operation_xyz
x,y,z
-x,1/2+y,-z
-x,-y,-z
x,1/2-y,z
loop_
_atom_site_type_symbol
_atom_site_label
_atom_site_fract_x
_atom_site_fract_y
_atom_site_fract_z
Si Si1 0.342888 0.505165 0.372048
Si Si2 0.534306 0.648099 0.718603
Si Si3 0.979006 0.970034 0.810811
Si Si4 0.867909 0.517031 0.168146
Si Si5 0.359006 0.911940 0.663460
Si Si6 0.811616 0.349886 0.383823
Si Si7 0.391179 0.582684 0.031223
Si Si8 0.311980 0.351280 0.470311
O O1 0.500000 0.500000 0.500000
O O2 0.385136 0.595452 0.476182
O O3 0.352588 0.422289 0.448163
O O4 0.145493 0.506378 0.080737
O O5 0.563273 0.750000 0.729199
O O6 0.463789 0.643337 0.724931
O O7 0.716938 0.587670 0.944547
O O8 0.868706 0.886464 0.709215
O O9 0.058701 0.960503 0.817924
O O10 0.828143 0.048679 0.611939
O O11 0.032022 0.574967 0.413016
O O12 0.769808 0.456655 0.113405
O O13 0.308149 0.861125 0.683233
O O14 0.485368 0.998027 0.841623
O O15 0.890833 0.250000 0.481048
O O16 0.689907 0.367230 0.149640
O O17 0.523035 0.640295 0.256060
O O18 0.293159 0.250000 0.417020
#
# Coordination Sequence:
#
# PCOD9160892 Si02
#       8
#     4   4   4   4   4   4   4   4
#     4  12  22  41  62  85 120 156 194 242 296 349
#     4  11  21  37  60  86 117 155 198 242 291 346
#     4  10  20  39  62  81 117 154 193 242 289 349
#     4  10  20  39  59  82 117 158 193 240 300 341
#     4   9  20  37  58  82 116 154 192 240 299 341
#     4  11  21  33  56  89 116 148 199 246 288 355
#     4  10  19  39  60  83 115 161 192 239 296 356
#     4  11  23  40  62  89 119 156 198 243 293 351
#
# _framework density 18.226592
#
# number of rings (size 3 to 8) (size 9 to 14) (size 15 to 20)
#    0.000    1.500    5.000    2.250    0.000    1.000 
#    0.000    3.125    0.000    0.000    0.000    0.000 
#    0.000    0.000    0.000    0.000    0.000    0.000 
#
# Total GULP energy -178635.880435 kJ/mol
# GULP energy per Si atom -5582.371264 kJ/mol
# Density = 1.818511 g / cm^3
# Si number density = 18.226592 Si / 1000 Ang^3
#
#
#
# Elastic Constant Matrix: (Units=GPa)
#
#
# Indices 1 2 3 4 5 6 
#
# 1 95.0599 35.8756 39.6506 0.0000 6.6880 0.0000
# 2 35.8756 80.6817 4.4582 0.0000 -1.9512 0.0000
# 3 39.6506 4.4582 80.4102 0.0000 -6.8927 0.0000
# 4 0.0000 0.0000 0.0000 6.3409 0.0000 2.5517
# 5 6.6880 -1.9512 -6.8927 0.0000 30.5998 0.0000
# 6 0.0000 0.0000 0.0000 2.5517 0.0000 4.6714
#
#
#
# Elastic Compliance Matrix: (Units=1/GPa)
#
#
# Indices 1 2 3 4 5 6 
#
# 1 0.017374 -0.007396 -0.008691 0.000000 -0.006227 0.000000
# 2 -0.007396 0.015593 0.003065 0.000000 0.003301 0.000000
# 3 -0.008691 0.003065 0.017061 0.000000 0.005938 0.000000
# 4 0.000000 0.000000 0.000000 0.202142 0.000000 -0.110420
# 5 -0.006227 0.003301 0.005938 0.000000 0.035589 0.000000
# 6 0.000000 0.000000 0.000000 -0.110420 0.000000 0.274387
#
#
# Mechanical properties :
#
#
# Convention : Reuss Voigt Hill
#
# Bulk Modulus (GPa) = 41.69183 46.23562 43.96373
# Shear Modulus (GPa) = 8.38667 20.06691 14.22679
#
# Velocity S-wave (km/s) = 2.14740 3.32168 2.79687
# Velocity P-wave (km/s) = 5.39187 6.33511 5.88243
#
# Compressibility (1/GPa) = 0.02398551
#
# Stress axis : x y z
#
# Youngs Moduli (GPa) = 57.55729 64.12961 58.61392
#
# Poissons Ratio (x) = 0.47429 0.50941
# Poissons Ratio (y) = 0.42568 -0.17967
# Poissons Ratio (z) = 0.50022 -0.19658
#
# Static dielectric constant tensor:
#      x y z
#    x 1.627460 0.000000 0.006820 
#    y 0.000000 1.607350 0.000000 
#    z 0.006820 0.000000 1.621300 
# 
# From -- ./inp_files/54982.got.cif
#   From: 2010.05.17/outbox.cif.g08.bks.cpg/sg11_28_cif.got.tgz:54982.got - 2010.06.03 12:22:45.
