data_PCOD9160117
_publ_section_title
;
Structure prediction by ZEFSAII (Michael W. Deem and Ramdas Pophale) SiO2 
 PCOD9160117
Probable space group: P 21/M
;
_chemical_formula_sum "Si O2"
_cell_formula_units_Z 30
_cell_length_a 7.451783
_cell_length_b 14.660723
_cell_length_c 12.115597
_cell_angle_alpha 90.000000
_cell_angle_beta 121.127809
_cell_angle_gamma 90.000000
_cell_volume 1133.032666
_symmetry_space_group_name_H-M "P 21/M"
_symmetry_group_IT_number 11
_symmetry_cell_setting 'monoclinic'
loop_
_space_group_symop_operation_xyz
x,y,z
-x,1/2+y,-z
-x,-y,-z
x,1/2-y,z
loop_
_atom_site_type_symbol
_atom_site_label
_atom_site_fract_x
_atom_site_fract_y
_atom_site_fract_z
Si Si1 0.788855 0.750000 0.020228
Si Si2 0.348969 0.994564 0.779502
Si Si3 0.970999 0.859959 0.426657
Si Si4 0.616440 0.648872 0.757330
Si Si5 0.828587 0.858521 0.612453
Si Si6 0.641562 0.142465 0.607997
Si Si7 0.758259 0.072100 0.030726
Si Si8 0.057168 0.599818 0.118861
O O1 0.696239 0.671913 0.905832
O O2 0.909128 0.672506 0.129618
O O3 0.453727 0.931542 0.720115
O O4 0.191989 0.071310 0.684454
O O5 0.533165 0.047474 0.905974
O O6 0.262716 0.921208 0.844444
O O7 0.914854 0.750000 0.404224
O O8 0.972492 0.889632 0.556796
O O9 0.193839 0.870331 0.438224
O O10 0.536009 0.750000 0.691746
O O11 0.804990 0.620890 0.735122
O O12 0.861339 0.750000 0.623993
O O13 0.593169 0.883379 0.497569
O O14 0.634577 0.250000 0.634991
O O15 0.738170 0.089415 0.741808
O O16 0.861941 0.139901 0.973585
O O17 0.913490 0.987400 0.067512
#
# Coordination Sequence:
#
# PCOD9160117 Si02
#       8
#     2   4   4   4   4   4   4   4
#     4  10  20  38  60  86 112 160 200 230 292 370
#     4  11  20  39  57  87 121 158 199 244 298 359
#     4  10  21  36  59  90 117 152 204 252 300 352
#     4   9  20  39  62  80 117 164 196 237 294 361
#     4   9  19  38  60  85 117 156 202 249 298 352
#     4  10  19  34  59  86 118 153 196 254 302 345
#     4  10  22  34  56  85 121 156 192 243 303 356
#     4  11  19  37  58  85 118 153 194 248 298 354
#
# _framework density 26.477612000000001
#
# number of rings (size 3 to 8) (size 9 to 14) (size 15 to 20)
#    0.400    1.600    3.333    0.800    0.000    0.533 
#    2.400    2.000    2.933    0.000    0.000    0.000 
#    0.000    0.000    0.000    0.000    0.000    0.000 
#
# Total GULP energy -167098.868063 kJ/mol
# GULP energy per Si atom -5569.962269 kJ/mol
# Density = 2.641735 g / cm^3
# Si number density = 26.477612 Si / 1000 Ang^3
#
#
#
# Elastic Constant Matrix: (Units=GPa)
#
#
# Indices 1 2 3 4 5 6 
#
# 1 107.6919 33.6455 18.2195 0.0000 -35.4330 0.0000
# 2 33.6455 100.9966 25.3928 0.0000 0.3905 0.0000
# 3 18.2195 25.3928 92.4655 0.0000 -14.8947 0.0000
# 4 0.0000 0.0000 0.0000 140.2988 0.0000 -75.9974
# 5 -35.4330 0.3905 -14.8947 0.0000 57.5299 0.0000
# 6 0.0000 0.0000 0.0000 -75.9974 0.0000 71.4988
#
#
#
# Elastic Compliance Matrix: (Units=1/GPa)
#
#
# Indices 1 2 3 4 5 6 
#
# 1 0.013424 -0.004484 -0.000080 0.000000 0.008277 0.000000
# 2 -0.004484 0.012175 -0.003045 0.000000 -0.003633 0.000000
# 3 -0.000080 -0.003045 0.012170 0.000000 0.003122 0.000000
# 4 0.000000 0.000000 0.000000 0.016801 0.000000 0.017858
# 5 0.008277 -0.003633 0.003122 0.000000 0.023313 0.000000
# 6 0.000000 0.000000 0.000000 0.017858 0.000000 0.032968
#
#
# Mechanical properties :
#
#
# Convention : Reuss Voigt Hill
#
# Bulk Modulus (GPa) = 44.34622 50.62994 47.48808
# Shear Modulus (GPa) = 37.42929 68.79190 53.11059
#
# Velocity S-wave (km/s) = 3.76389 5.10270 4.48355
# Velocity P-wave (km/s) = 5.97278 7.34030 6.69157
#
# Compressibility (1/GPa) = 0.02254984
#
# Stress axis : x y z
#
# Youngs Moduli (GPa) = 74.49597 82.13806 82.17055
#
# Poissons Ratio (x) = 0.36828 0.00660
# Poissons Ratio (y) = 0.33401 0.25021
# Poissons Ratio (z) = 0.00599 0.25012
#
# Static dielectric constant tensor:
#      x y z
#    x 2.186000 0.000000 -0.073860 
#    y 0.000000 1.524780 0.000000 
#    z -0.073860 0.000000 2.250730 
# 
# From -- ./inp_files/18602.got.cif
#   From: 2010.05.17/outbox.cif.g08.bks.cpg/sg11_10_cif.got.tgz:18602.got - 2010.06.03 12:22:45.
