data_PCOD9160564
_publ_section_title
;
Structure prediction by ZEFSAII (Michael W. Deem and Ramdas Pophale) SiO2 
 PCOD9160564
Probable space group: P 21/M
;
_chemical_formula_sum "Si O2"
_cell_formula_units_Z 28
_cell_length_a 19.280589
_cell_length_b 13.460572
_cell_length_c 9.461087
_cell_angle_alpha 90.000000
_cell_angle_beta 41.711346
_cell_angle_gamma 90.000000
_cell_volume 1633.779389
_symmetry_space_group_name_H-M "P 21/M"
_symmetry_group_IT_number 11
_symmetry_cell_setting 'monoclinic'
loop_
_space_group_symop_operation_xyz
x,y,z
-x,1/2+y,-z
-x,-y,-z
x,1/2-y,z
loop_
_atom_site_type_symbol
_atom_site_label
_atom_site_fract_x
_atom_site_fract_y
_atom_site_fract_z
Si Si1 0.668866 0.634582 0.934669
Si Si2 0.391101 0.027265 0.239104
Si Si3 0.213896 0.864799 0.539470
Si Si4 0.467283 0.546858 0.401328
Si Si5 0.746968 0.361994 0.203404
Si Si6 0.962013 0.132232 0.421032
Si Si7 0.841131 0.502988 0.826966
O O1 0.688311 0.750000 0.932508
O O2 0.652832 0.615371 0.791207
O O3 0.761805 0.565934 0.851472
O O4 0.564629 0.598834 0.175780
O O5 0.307035 0.938372 0.355164
O O6 0.418909 0.033198 0.363141
O O7 0.500000 0.000000 0.000000
O O8 0.246330 0.750000 0.466697
O O9 0.194800 0.876404 0.735694
O O10 0.111139 0.882823 0.604216
O O11 0.500000 0.500000 0.500000
O O12 0.374383 0.623659 0.573449
O O13 0.765991 0.250000 0.122621
O O14 0.779826 0.444112 0.041244
O O15 0.974019 0.250000 0.426329
O O16 0.072494 0.077454 0.241807
O O17 0.901067 0.078745 0.641637
#
# Coordination Sequence:
#
# PCOD9160564 Si02
#       7
#     4   4   4   4   4   4   4
#     4  11  21  36  55  80 116 154 183 221 277 328
#     4   9  19  33  54  80 110 145 185 220 268 324
#     4   9  18  35  58  80 107 141 181 225 276 325
#     4  10  19  36  59  81 113 145 181 230 277 325
#     4  10  20  35  57  83 110 144 182 226 278 333
#     4  10  21  37  57  81 106 141 189 231 273 325
#     4  11  21  35  57  82 110 144 183 233 274 323
#
# _framework density 17.138175
#
# number of rings (size 3 to 8) (size 9 to 14) (size 15 to 20)
#    0.000    2.000    2.857    1.286    0.000    4.000 
#    0.000    1.429    0.000    0.000    0.000    0.000 
#    0.000    0.000    0.000    0.000    0.000    0.000 
#
# Total GULP energy -156043.060293 kJ/mol
# GULP energy per Si atom -5572.966439 kJ/mol
# Density = 1.709917 g / cm^3
# Si number density = 17.138175 Si / 1000 Ang^3
#
#
#
# Elastic Constant Matrix: (Units=GPa)
#
#
# Indices 1 2 3 4 5 6 
#
# 1 117.8648 50.3610 28.9871 0.0000 5.4171 0.0000
# 2 50.3610 92.9294 31.7593 0.0000 4.0062 0.0000
# 3 28.9871 31.7593 54.6304 0.0000 -3.7836 0.0000
# 4 0.0000 0.0000 0.0000 21.0317 0.0000 0.3886
# 5 5.4171 4.0062 -3.7836 0.0000 26.2266 0.0000
# 6 0.0000 0.0000 0.0000 0.3886 0.0000 16.8884
#
#
#
# Elastic Compliance Matrix: (Units=1/GPa)
#
#
# Indices 1 2 3 4 5 6 
#
# 1 0.011552 -0.005023 -0.003355 0.000000 -0.002103 0.000000
# 2 -0.005023 0.015886 -0.006733 0.000000 -0.002360 0.000000
# 3 -0.003355 -0.006733 0.024362 0.000000 0.005236 0.000000
# 4 0.000000 0.000000 0.000000 0.047568 0.000000 -0.001094
# 5 -0.002103 -0.002360 0.005236 0.000000 0.039680 0.000000
# 6 0.000000 0.000000 0.000000 -0.001094 0.000000 0.059237
#
#
# Mechanical properties :
#
#
# Convention : Reuss Voigt Hill
#
# Bulk Modulus (GPa) = 46.34571 54.18217 50.26394
# Shear Modulus (GPa) = 21.21329 23.11714 22.16522
#
# Velocity S-wave (km/s) = 3.52203 3.67668 3.60018
# Velocity P-wave (km/s) = 6.60611 7.05035 6.83184
#
# Compressibility (1/GPa) = 0.02157697
#
# Stress axis : x y z
#
# Youngs Moduli (GPa) = 86.56185 62.94814 41.04721
#
# Poissons Ratio (x) = 0.31621 0.13772
# Poissons Ratio (y) = 0.43483 0.27639
# Poissons Ratio (z) = 0.29043 0.42386
#
# Static dielectric constant tensor:
#      x y z
#    x 1.602530 0.000000 0.006770 
#    y 0.000000 1.567930 0.000000 
#    z 0.006770 0.000000 1.564090 
# 
# From -- ./inp_files/21192.got.cif
#   From: 2010.05.17/outbox.cif.g08.bks.cpg/sg11_11_cif.got.tgz:21192.got - 2010.06.03 12:22:45.
