data_PCOD9160864
_publ_section_title
;
Structure prediction by ZEFSAII (Michael W. Deem and Ramdas Pophale) SiO2 
 PCOD9160864
Probable space group: P 21/M
;
_chemical_formula_sum "Si O2"
_cell_formula_units_Z 20
_cell_length_a 8.410877
_cell_length_b 13.469243
_cell_length_c 7.300450
_cell_angle_alpha 90.000000
_cell_angle_beta 74.649677
_cell_angle_gamma 90.000000
_cell_volume 797.549516
_symmetry_space_group_name_H-M "P 21/M"
_symmetry_group_IT_number 11
_symmetry_cell_setting 'monoclinic'
loop_
_space_group_symop_operation_xyz
x,y,z
-x,1/2+y,-z
-x,-y,-z
x,1/2-y,z
loop_
_atom_site_type_symbol
_atom_site_label
_atom_site_fract_x
_atom_site_fract_y
_atom_site_fract_z
Si Si1 0.681257 0.585000 0.328273
Si Si2 0.161984 0.452458 0.354612
Si Si3 0.033805 0.114278 0.027755
Si Si4 0.623979 0.360212 0.818389
Si Si5 0.659127 0.357457 0.208050
O O1 0.723314 0.597870 0.527615
O O2 0.518890 0.627993 0.286438
O O3 0.662945 0.463825 0.308615
O O4 0.831167 0.634378 0.167902
O O5 0.110190 0.379922 0.206915
O O6 0.254688 0.548066 0.245318
O O7 0.000000 0.500000 0.500000
O O8 0.849925 0.154211 0.086227
O O9 0.000000 0.000000 0.000000
O O10 0.698275 0.250000 0.774851
O O11 0.559511 0.368271 0.047635
O O12 0.615806 0.250000 0.308632
#
# Coordination Sequence:
#
# PCOD9160864 Si02
#       5
#     4   4   4   4   4
#     4  11  22  40  66  90 127 168 205 257 315 369
#     4  12  21  40  67  89 118 169 208 256 317 369
#     4  10  19  38  63  90 119 157 211 256 306 367
#     4  11  24  41  63  94 127 167 207 256 318 373
#     4  10  20  37  63  91 122 165 210 251 307 367
#
# _framework density 25.076810999999999
#
# number of rings (size 3 to 8) (size 9 to 14) (size 15 to 20)
#    0.000    1.200    8.000    1.200    0.000    1.600 
#    0.000    2.000    0.000    1.200    0.000    0.000 
#    0.000    0.000    0.000    0.000    0.000    0.000 
#
# Total GULP energy -111810.666959 kJ/mol
# GULP energy per Si atom -5590.533348 kJ/mol
# Density = 2.501973 g / cm^3
# Si number density = 25.076811 Si / 1000 Ang^3
#
#
#
# Elastic Constant Matrix: (Units=GPa)
#
#
# Indices 1 2 3 4 5 6 
#
# 1 72.8855 8.2986 24.1002 0.0000 26.6304 0.0000
# 2 8.2986 112.6272 15.1609 0.0000 6.9104 0.0000
# 3 24.1002 15.1609 139.6395 0.0000 39.2156 0.0000
# 4 0.0000 0.0000 0.0000 11.5772 0.0000 -3.9763
# 5 26.6304 6.9104 39.2156 0.0000 56.1654 0.0000
# 6 0.0000 0.0000 0.0000 -3.9763 0.0000 -6.6401
#
#
#
# Elastic Compliance Matrix: (Units=1/GPa)
#
#
# Indices 1 2 3 4 5 6 
#
# 1 0.016721 -0.000681 -0.000757 0.000000 -0.007315 0.000000
# 2 -0.000681 0.009051 -0.000800 0.000000 -0.000232 0.000000
# 3 -0.000757 -0.000800 0.009019 0.000000 -0.005840 0.000000
# 4 0.000000 0.000000 0.000000 0.071642 0.000000 -0.042901
# 5 -0.007315 -0.000232 -0.005840 0.000000 0.025379 0.000000
# 6 0.000000 0.000000 0.000000 -0.042901 0.000000 -0.124909
#
#
# Mechanical properties :
#
#
# Convention : Reuss Voigt Hill
#
# Bulk Modulus (GPa) = 32.98849 46.69683 39.84266
# Shear Modulus (GPa) = 232.72635 30.72666 131.72650
#
# Velocity S-wave (km/s) = 9.64401 3.50423 7.25557
# Velocity P-wave (km/s) = 11.71293 5.91902 9.27975
#
# Compressibility (1/GPa) = 0.03031360
#
# Stress axis : x y z
#
# Youngs Moduli (GPa) = 59.80486 110.48545 110.87920
#
# Poissons Ratio (x) = 0.07527 0.08399
# Poissons Ratio (y) = 0.04074 0.08870
# Poissons Ratio (z) = 0.04530 0.08838
#
# Static dielectric constant tensor:
#      x y z
#    x 2.013040 0.000000 -0.024440 
#    y 0.000000 3.047350 0.000000 
#    z -0.024440 0.000000 2.052570 
# 
# From -- ./inp_files/12331.got.cif
#   From: 2010.05.17/outbox.cif.g08.bks.cpg/sg11_7_cif.got.tgz:12331.got - 2010.06.03 12:22:45.
