data_PCOD9160618
_publ_section_title
;
Structure prediction by ZEFSAII (Michael W. Deem and Ramdas Pophale) SiO2 
 PCOD9160618
Probable space group: P 21/M
;
_chemical_formula_sum "Si O2"
_cell_formula_units_Z 24
_cell_length_a 11.131970
_cell_length_b 13.818526
_cell_length_c 8.128162
_cell_angle_alpha 90.000000
_cell_angle_beta 104.005122
_cell_angle_gamma 90.000000
_cell_volume 1213.166851
_symmetry_space_group_name_H-M "P 21/M"
_symmetry_group_IT_number 11
_symmetry_cell_setting 'monoclinic'
loop_
_space_group_symop_operation_xyz
x,y,z
-x,1/2+y,-z
-x,-y,-z
x,1/2-y,z
loop_
_atom_site_type_symbol
_atom_site_label
_atom_site_fract_x
_atom_site_fract_y
_atom_site_fract_z
Si Si1 0.885738 0.036380 0.853302
Si Si2 0.079411 0.138236 0.713843
Si Si3 0.506602 0.446552 0.234464
Si Si4 0.823411 0.858396 0.603821
Si Si5 0.710179 0.997951 0.058432
Si Si6 0.534406 0.642812 0.432733
O O1 0.837185 0.943654 0.737401
O O2 0.779895 0.064666 0.947501
O O3 0.946953 0.111437 0.747993
O O4 0.000000 0.000000 0.000000
O O5 0.109356 0.250000 0.758470
O O6 0.084706 0.125754 0.518838
O O7 0.185550 0.069433 0.824667
O O8 0.631550 0.445897 0.169486
O O9 0.492295 0.555146 0.304157
O O10 0.506914 0.378339 0.393302
O O11 0.390657 0.433436 0.074179
O O12 0.843825 0.750000 0.679349
O O13 0.684031 0.860658 0.487284
O O14 0.495733 0.750000 0.367281
#
# Coordination Sequence:
#
# PCOD9160618 Si02
#       6
#     4   4   4   4   4   4
#     4  10  21  36  55  84 116 150 184 237 288 328
#     4  10  21  37  60  86 112 149 197 237 278 336
#     4  10  20  36  59  86 119 150 186 235 285 337
#     4  10  19  36  60  86 111 145 195 237 274 335
#     4  10  20  35  56  85 118 152 185 230 289 337
#     4  10  20  36  59  86 114 151 194 233 277 336
#
# _framework density 19.782934999999998
#
# number of rings (size 3 to 8) (size 9 to 14) (size 15 to 20)
#    0.000    2.000    3.333    0.500    0.000    3.333 
#    0.000    4.167    0.000    2.000    0.000    0.000 
#    0.000    0.000    0.000    0.000    0.000    0.000 
#
# Total GULP energy -133875.239544 kJ/mol
# GULP energy per Si atom -5578.134981 kJ/mol
# Density = 1.973791 g / cm^3
# Si number density = 19.782935 Si / 1000 Ang^3
#
#
#
# Elastic Constant Matrix: (Units=GPa)
#
#
# Indices 1 2 3 4 5 6 
#
# 1 103.0087 -2.7786 7.9805 0.0000 -45.4652 0.0000
# 2 -2.7786 42.2598 1.2179 0.0000 -5.0608 0.0000
# 3 7.9805 1.2179 33.4666 0.0000 -18.7748 0.0000
# 4 0.0000 0.0000 0.0000 7.1608 0.0000 2.7490
# 5 -45.4652 -5.0608 -18.7748 0.0000 45.4121 0.0000
# 6 0.0000 0.0000 0.0000 2.7490 0.0000 16.3419
#
#
#
# Elastic Compliance Matrix: (Units=1/GPa)
#
#
# Indices 1 2 3 4 5 6 
#
# 1 0.019486 0.003841 0.008330 0.000000 0.023380 0.000000
# 2 0.003841 0.024757 0.002458 0.000000 0.007621 0.000000
# 3 0.008330 0.002458 0.042493 0.000000 0.026182 0.000000
# 4 0.000000 0.000000 0.000000 0.149290 0.000000 -0.025114
# 5 0.023380 0.007621 0.026182 0.000000 0.057102 0.000000
# 6 0.000000 0.000000 0.000000 -0.025114 0.000000 0.065417
#
#
# Mechanical properties :
#
#
# Convention : Reuss Voigt Hill
#
# Bulk Modulus (GPa) = 8.62106 21.28607 14.95356
# Shear Modulus (GPa) = 13.58878 25.27065 19.42971
#
# Velocity S-wave (km/s) = 2.62371 3.57795 3.13732
# Velocity P-wave (km/s) = 3.68046 5.27751 4.54961
#
# Compressibility (1/GPa) = 0.11599505
#
# Stress axis : x y z
#
# Youngs Moduli (GPa) = 51.31987 40.39180 23.53350
#
# Poissons Ratio (x) = -0.15515 -0.19604
# Poissons Ratio (y) = -0.19712 -0.05786
# Poissons Ratio (z) = -0.42750 -0.09930
#
# Static dielectric constant tensor:
#      x y z
#    x 1.697510 0.000000 -0.084060 
#    y 0.000000 1.655850 0.000000 
#    z -0.084060 0.000000 1.636460 
# 
# From -- ./inp_files/17547.got.cif
#   From: 2010.05.17/outbox.cif.g08.bks.cpg/sg11_9_cif.got.tgz:17547.got - 2010.06.03 12:22:45.
