data_PCOD9160113
_publ_section_title
;
Structure prediction by ZEFSAII (Michael W. Deem and Ramdas Pophale) SiO2 
 PCOD9160113
Probable space group: P 21/M
;
_chemical_formula_sum "Si O2"
_cell_formula_units_Z 28
_cell_length_a 28.270278
_cell_length_b 9.160763
_cell_length_c 9.773319
_cell_angle_alpha 90.000000
_cell_angle_beta 141.653393
_cell_angle_gamma 90.000000
_cell_volume 1570.318077
_symmetry_space_group_name_H-M "P 21/M"
_symmetry_group_IT_number 11
_symmetry_cell_setting 'monoclinic'
loop_
_space_group_symop_operation_xyz
x,y,z
-x,1/2+y,-z
-x,-y,-z
x,1/2-y,z
loop_
_atom_site_type_symbol
_atom_site_label
_atom_site_fract_x
_atom_site_fract_y
_atom_site_fract_z
Si Si1 0.141977 0.076483 0.478565
Si Si2 0.128583 0.075319 0.129659
Si Si3 0.451122 0.080776 0.275710
Si Si4 0.699056 0.079394 0.163831
Si Si5 0.287707 0.578457 0.479748
Si Si6 0.001824 0.925311 0.653129
Si Si7 0.450582 0.918891 0.775823
O O1 0.158292 0.250000 0.516219
O O2 0.116766 0.040262 0.264917
O O3 0.075946 0.046868 0.438087
O O4 0.219162 0.989835 0.685369
O O5 0.122718 0.250000 0.099911
O O6 0.213262 0.018121 0.286715
O O7 0.068846 0.993641 0.897570
O O8 0.438694 0.250000 0.282431
O O9 0.502999 0.073352 0.258020
O O10 0.500000 0.000000 0.500000
O O11 0.370799 0.003785 0.063968
O O12 0.697061 0.250000 0.124090
O O13 0.692031 0.066360 0.312944
O O14 0.270949 0.750000 0.413384
O O15 0.363190 0.528739 0.570473
O O16 0.010955 0.750000 0.660962
O O17 0.000000 0.000000 0.500000
O O18 0.444045 0.750000 0.803494
O O19 0.500000 0.000000 0.000000
#
# Coordination Sequence:
#
# PCOD9160113 Si02
#       7
#     4   4   4   4   4   4   4
#     4   9  20  38  61  87 114 146 187 232 279 333
#     4  10  20  36  60  88 115 146 187 232 278 334
#     4  11  23  38  56  80 114 155 194 235 283 336
#     4  10  19  34  59  86 114 147 186 233 284 335
#     4   9  18  34  56  85 115 144 184 234 282 330
#     4  11  23  40  60  84 117 153 186 228 280 335
#     4  10  20  35  58  84 112 147 189 235 284 334
#
# _framework density 17.830783
#
# number of rings (size 3 to 8) (size 9 to 14) (size 15 to 20)
#    0.000    2.000    1.429    2.143    0.000    3.429 
#    2.571    0.000    0.000    0.000    0.000    0.000 
#    0.000    0.000    0.000    0.000    0.000    0.000 
#
# Total GULP energy -156292.118966 kJ/mol
# GULP energy per Si atom -5581.861392 kJ/mol
# Density = 1.779020 g / cm^3
# Si number density = 17.830783 Si / 1000 Ang^3
#
#
#
# Elastic Constant Matrix: (Units=GPa)
#
#
# Indices 1 2 3 4 5 6 
#
# 1 91.4352 69.9908 75.4099 0.0000 19.0726 0.0000
# 2 69.9908 111.8161 97.3624 0.0000 10.0552 0.0000
# 3 75.4099 97.3624 147.1137 0.0000 19.8846 0.0000
# 4 0.0000 0.0000 0.0000 39.3014 0.0000 3.7959
# 5 19.0726 10.0552 19.8846 0.0000 21.3984 0.0000
# 6 0.0000 0.0000 0.0000 3.7959 0.0000 24.6329
#
#
#
# Elastic Compliance Matrix: (Units=1/GPa)
#
#
# Indices 1 2 3 4 5 6 
#
# 1 0.025873 -0.011901 -0.003459 0.000000 -0.014254 0.000000
# 2 -0.011901 0.026812 -0.013009 0.000000 0.010097 0.000000
# 3 -0.003459 -0.013009 0.018227 0.000000 -0.007741 0.000000
# 4 0.000000 0.000000 0.000000 0.025829 0.000000 -0.003980
# 5 -0.014254 0.010097 -0.007741 0.000000 0.061885 0.000000
# 6 0.000000 0.000000 0.000000 -0.003980 0.000000 0.041209
#
#
# Mechanical properties :
#
#
# Convention : Reuss Voigt Hill
#
# Bulk Modulus (GPa) = 70.55848 92.87677 81.71763
# Shear Modulus (GPa) = 19.13517 24.24000 21.68758
#
# Velocity S-wave (km/s) = 3.27946 3.69107 3.49133
# Velocity P-wave (km/s) = 7.34825 8.38846 7.88553
#
# Compressibility (1/GPa) = 0.01417264
#
# Stress axis : x y z
#
# Youngs Moduli (GPa) = 38.65048 37.29649 54.86441
#
# Poissons Ratio (x) = 0.44386 0.18980
# Poissons Ratio (y) = 0.45998 0.71374
# Poissons Ratio (z) = 0.13371 0.48520
#
# Static dielectric constant tensor:
#      x y z
#    x 1.612600 0.000000 0.006060 
#    y 0.000000 1.605180 0.000000 
#    z 0.006060 0.000000 1.574660 
# 
# From -- ./inp_files/28602.got.cif
#   From: 2010.05.17/outbox.cif.g08.bks.cpg/sg11_15_cif.got.tgz:28602.got - 2010.06.03 12:22:45.
