data_PCOD9160078
_publ_section_title
;
Structure prediction by ZEFSAII (Michael W. Deem and Ramdas Pophale) SiO2 
 PCOD9160078
Probable space group: P 21/M
;
_chemical_formula_sum "Si O2"
_cell_formula_units_Z 32
_cell_length_a 16.582329
_cell_length_b 17.349143
_cell_length_c 12.861614
_cell_angle_alpha 90.000000
_cell_angle_beta 153.393445
_cell_angle_gamma 90.000000
_cell_volume 1657.153130
_symmetry_space_group_name_H-M "P 21/M"
_symmetry_group_IT_number 11
_symmetry_cell_setting 'monoclinic'
loop_
_space_group_symop_operation_xyz
x,y,z
-x,1/2+y,-z
-x,-y,-z
x,1/2-y,z
loop_
_atom_site_type_symbol
_atom_site_label
_atom_site_fract_x
_atom_site_fract_y
_atom_site_fract_z
Si Si1 0.264221 0.398425 0.052288
Si Si2 0.308810 0.157340 0.872661
Si Si3 0.807151 0.081754 0.000050
Si Si4 0.454377 0.089386 0.471421
Si Si5 0.950131 0.913477 0.911756
Si Si6 0.298425 0.843682 0.709268
Si Si7 0.074711 0.843105 0.651333
Si Si8 0.895151 0.338040 0.711513
O O1 0.309731 0.382103 0.986294
O O2 0.416577 0.376501 0.312925
O O3 0.216267 0.488815 0.015292
O O4 0.088214 0.349198 0.878329
O O5 0.302268 0.250000 0.882658
O O6 0.494974 0.138195 0.031556
O O7 0.134294 0.136568 0.605278
O O8 0.975709 0.098950 0.118233
O O9 0.840968 0.118137 0.150798
O O10 0.626286 0.114827 0.736408
O O11 0.262865 0.098067 0.311233
O O12 0.500000 0.000000 0.500000
O O13 0.070898 0.867687 0.134066
O O14 0.000000 0.000000 0.000000
O O15 0.280673 0.750000 0.684865
O O16 0.172509 0.869143 0.657983
O O17 0.240362 0.874847 0.528808
O O18 0.090162 0.750000 0.677253
O O19 0.843154 0.250000 0.661178
#
# Coordination Sequence:
#
# PCOD9160078 Si02
#       8
#     4   4   4   4   4   4   4   4
#     4  10  19  35  58  85 113 146 180 239 284 326
#     4  10  20  36  59  84 110 147 193 236 283 327
#     4  11  23  38  57  83 118 153 187 221 282 349
#     4   9  19  35  55  82 110 149 185 222 277 335
#     4  11  20  36  58  82 113 155 181 226 286 330
#     4   9  19  36  59  83 108 146 187 235 287 325
#     4  10  22  41  59  78 116 155 187 230 278 338
#     4  10  19  34  58  86 111 141 186 237 283 329
#
# _framework density 19.310224999999999
#
# number of rings (size 3 to 8) (size 9 to 14) (size 15 to 20)
#    0.000    2.000    5.000    0.375    1.750    2.000 
#    0.000    3.750    0.000    0.000    0.000    0.000 
#    0.000    0.000    0.000    0.000    0.000    0.000 
#
# Total GULP energy -178367.860803 kJ/mol
# GULP energy per Si atom -5573.995650 kJ/mol
# Density = 1.926627 g / cm^3
# Si number density = 19.310225 Si / 1000 Ang^3
#
#
#
# Elastic Constant Matrix: (Units=GPa)
#
#
# Indices 1 2 3 4 5 6 
#
# 1 45.0964 13.8971 31.5463 0.0000 -7.6835 0.0000
# 2 13.8971 12.1923 15.1599 0.0000 -6.4635 0.0000
# 3 31.5463 15.1599 133.3032 0.0000 -9.6976 0.0000
# 4 0.0000 0.0000 0.0000 21.4724 0.0000 -9.2966
# 5 -7.6835 -6.4635 -9.6976 0.0000 25.9806 0.0000
# 6 0.0000 0.0000 0.0000 -9.2966 0.0000 24.9716
#
#
#
# Elastic Compliance Matrix: (Units=1/GPa)
#
#
# Indices 1 2 3 4 5 6 
#
# 1 0.036394 -0.035752 -0.004534 0.000000 0.000176 0.000000
# 2 -0.035752 0.142286 -0.006080 0.000000 0.022556 0.000000
# 3 -0.004534 -0.006080 0.009311 0.000000 0.000622 0.000000
# 4 0.000000 0.000000 0.000000 0.055521 0.000000 0.020670
# 5 0.000176 0.022556 0.000622 0.000000 0.044386 0.000000
# 6 0.000000 0.000000 0.000000 0.020670 0.000000 0.047741
#
#
# Mechanical properties :
#
#
# Convention : Reuss Voigt Hill
#
# Bulk Modulus (GPa) = 10.49751 34.64428 22.57089
# Shear Modulus (GPa) = 10.86665 23.15081 17.00873
#
# Velocity S-wave (km/s) = 2.37479 3.46625 2.97107
# Velocity P-wave (km/s) = 3.60105 5.83093 4.84599
#
# Compressibility (1/GPa) = 0.09526066
#
# Stress axis : x y z
#
# Youngs Moduli (GPa) = 27.47719 7.02808 107.39563
#
# Poissons Ratio (x) = 0.25126 0.48693
# Poissons Ratio (y) = 0.98235 0.65296
# Poissons Ratio (z) = 0.12458 0.04273
#
# Static dielectric constant tensor:
#      x y z
#    x 1.813760 0.000000 -0.017830 
#    y 0.000000 1.712430 0.000000 
#    z -0.017830 0.000000 1.709920 
# 
# From -- ./inp_files/40012.got.cif
#   From: 2010.05.17/outbox.cif.g08.bks.cpg/sg11_21_cif.got.tgz:40012.got - 2010.06.03 12:22:45.
