data_PCOD9160054
_publ_section_title
;
Structure prediction by ZEFSAII (Michael W. Deem and Ramdas Pophale) SiO2 
 PCOD9160054
Probable space group: P 21/M
;
_chemical_formula_sum "Si O2"
_cell_formula_units_Z 32
_cell_length_a 16.650774
_cell_length_b 13.048586
_cell_length_c 14.527392
_cell_angle_alpha 90.000000
_cell_angle_beta 150.304754
_cell_angle_gamma 90.000000
_cell_volume 1563.614839
_symmetry_space_group_name_H-M "P 21/M"
_symmetry_group_IT_number 11
_symmetry_cell_setting 'monoclinic'
loop_
_space_group_symop_operation_xyz
x,y,z
-x,1/2+y,-z
-x,-y,-z
x,1/2-y,z
loop_
_atom_site_type_symbol
_atom_site_label
_atom_site_fract_x
_atom_site_fract_y
_atom_site_fract_z
Si Si1 0.010643 0.958859 0.614869
Si Si2 0.740619 0.366684 0.879518
Si Si3 0.654949 0.531619 0.275315
Si Si4 0.662821 0.132140 0.116525
Si Si5 0.543193 0.947180 0.763438
Si Si6 0.316864 0.866662 0.396878
Si Si7 0.871159 0.865607 0.133605
Si Si8 0.014276 0.990166 0.123327
O O1 0.831538 0.916025 0.458350
O O2 0.173156 0.890304 0.778821
O O3 0.000000 0.000000 0.500000
O O4 0.039658 0.054467 0.711604
O O5 0.725233 0.250000 0.894374
O O6 0.627821 0.446180 0.820128
O O7 0.690112 0.372909 0.720869
O O8 0.925849 0.408160 0.072877
O O9 0.665108 0.447481 0.203750
O O10 0.604231 0.470720 0.315877
O O11 0.504061 0.605898 0.102520
O O12 0.663966 0.250000 0.147197
O O13 0.486312 0.889563 0.614701
O O14 0.679047 0.882309 0.952305
O O15 0.265360 0.750000 0.369147
O O16 0.197317 0.953613 0.317714
O O17 0.918709 0.750000 0.199713
O O18 0.912277 0.899550 0.070145
O O19 0.000000 0.000000 0.000000
#
# Coordination Sequence:
#
# PCOD9160054 Si02
#       8
#     4   4   4   4   4   4   4   4
#     4  10  22  42  63  91 130 164 211 267 324 381
#     4   9  20  37  57  81 122 172 209 251 311 371
#     4  10  22  40  61  92 121 157 207 255 309 375
#     4  10  22  42  63  87 122 162 202 254 316 377
#     4  11  21  37  59  90 127 160 207 265 313 374
#     4  10  19  34  57  88 121 162 210 256 315 375
#     4  11  22  38  62  94 128 168 213 266 324 386
#     4   9  19  36  58  87 124 163 208 266 314 370
#
# _framework density 20.465398
#
# number of rings (size 3 to 8) (size 9 to 14) (size 15 to 20)
#    0.000    2.000    1.250    1.875    0.000    4.500 
#    0.000    0.625    0.000    2.250    0.000    0.000 
#    0.000    0.000    0.000    0.000    0.000    0.000 
#
# Total GULP energy -178404.636312 kJ/mol
# GULP energy per Si atom -5575.144885 kJ/mol
# Density = 2.041882 g / cm^3
# Si number density = 20.465398 Si / 1000 Ang^3
#
#
#
# Elastic Constant Matrix: (Units=GPa)
#
#
# Indices 1 2 3 4 5 6 
#
# 1 74.8924 12.3105 24.3640 0.0000 11.2957 0.0000
# 2 12.3105 76.8187 24.6582 0.0000 -0.3632 0.0000
# 3 24.3640 24.6582 106.9314 0.0000 14.8518 0.0000
# 4 0.0000 0.0000 0.0000 14.4273 0.0000 0.2903
# 5 11.2957 -0.3632 14.8518 0.0000 27.6009 0.0000
# 6 0.0000 0.0000 0.0000 0.2903 0.0000 13.6145
#
#
#
# Elastic Compliance Matrix: (Units=1/GPa)
#
#
# Indices 1 2 3 4 5 6 
#
# 1 0.015148 -0.001688 -0.002376 0.000000 -0.004943 0.000000
# 2 -0.001688 0.014358 -0.003295 0.000000 0.002653 0.000000
# 3 -0.002376 -0.003295 0.011374 0.000000 -0.005191 0.000000
# 4 0.000000 0.000000 0.000000 0.069343 0.000000 -0.001479
# 5 -0.004943 0.002653 -0.005191 0.000000 0.041082 0.000000
# 6 0.000000 0.000000 0.000000 -0.001479 0.000000 0.073483
#
#
# Mechanical properties :
#
#
# Convention : Reuss Voigt Hill
#
# Bulk Modulus (GPa) = 38.22170 42.36751 40.29461
# Shear Modulus (GPa) = 20.14286 24.28253 22.21269
#
# Velocity S-wave (km/s) = 3.14066 3.44832 3.29808
# Velocity P-wave (km/s) = 5.64522 6.04992 5.85107
#
# Compressibility (1/GPa) = 0.02616315
#
# Stress axis : x y z
#
# Youngs Moduli (GPa) = 66.01339 69.64574 87.92095
#
# Poissons Ratio (x) = 0.11759 0.20886
# Poissons Ratio (y) = 0.11146 0.28968
# Poissons Ratio (z) = 0.15682 0.22947
#
# Static dielectric constant tensor:
#      x y z
#    x 1.754590 0.000000 0.021220 
#    y 0.000000 0.930250 0.000000 
#    z 0.021220 0.000000 1.775670 
# 
# From -- ./inp_files/53667.got.cif
#   From: 2010.05.17/outbox.cif.g08.bks.cpg/sg11_27_cif.got.tgz:53667.got - 2010.06.03 12:22:45.
