data_PCOD9160746
_publ_section_title
;
Structure prediction by ZEFSAII (Michael W. Deem and Ramdas Pophale) SiO2 
 PCOD9160746
Probable space group: P 21/M
;
_chemical_formula_sum "Si O2"
_cell_formula_units_Z 32
_cell_length_a 23.617084
_cell_length_b 8.761772
_cell_length_c 15.344477
_cell_angle_alpha 90.000000
_cell_angle_beta 148.943793
_cell_angle_gamma 90.000000
_cell_volume 1638.015149
_symmetry_space_group_name_H-M "P 21/M"
_symmetry_group_IT_number 11
_symmetry_cell_setting 'monoclinic'
loop_
_space_group_symop_operation_xyz
x,y,z
-x,1/2+y,-z
-x,-y,-z
x,1/2-y,z
loop_
_atom_site_type_symbol
_atom_site_label
_atom_site_fract_x
_atom_site_fract_y
_atom_site_fract_z
Si Si1 0.329416 0.564787 0.020264
Si Si2 0.253216 0.435488 0.522680
Si Si3 0.085287 0.069327 0.682400
Si Si4 0.034371 0.067471 0.312730
Si Si5 0.495345 0.434436 0.897089
Si Si6 0.930040 0.429549 0.986288
Si Si7 0.728844 0.932789 0.646588
Si Si8 0.514405 0.433387 0.616152
O O1 0.324064 0.750000 0.014734
O O2 0.208048 0.500147 0.844076
O O3 0.410027 0.519641 0.046518
O O4 0.387102 0.517179 0.188591
O O5 0.249807 0.250000 0.516822
O O6 0.161434 0.481558 0.470851
O O7 0.376192 0.482070 0.705106
O O8 0.228851 0.485442 0.392138
O O9 0.092411 0.250000 0.678672
O O10 0.000000 0.000000 0.500000
O O11 0.031933 0.026160 0.704407
O O12 0.028672 0.250000 0.325049
O O13 0.984180 0.043328 0.150990
O O14 0.497942 0.250000 0.904219
O O15 0.500000 0.500000 0.000000
O O16 0.927214 0.250000 0.968610
O O17 0.807117 0.494172 0.821059
O O18 0.000000 0.500000 0.000000
O O19 0.739905 0.750000 0.665673
O O20 0.601047 0.968393 0.488538
O O21 0.500000 0.500000 0.500000
O O22 0.523391 0.250000 0.620017
#
# Coordination Sequence:
#
# PCOD9160746 Si02
#       8
#     4   4   4   4   4   4   4   4
#     4  10  22  44  68  93 130 170 211 257 314 382
#     4   9  17  36  63  88 118 159 200 245 308 373
#     4  12  28  48  69  92 123 165 216 271 323 379
#     4  10  22  41  64  90 125 167 211 256 313 378
#     4  10  21  38  64  94 122 155 198 249 308 371
#     4  11  22  36  58  89 125 165 203 251 307 367
#     4  10  19  37  60  85 121 165 207 251 309 371
#     4  10  22  39  63  90 124 168 212 258 311 374
#
# _framework density 19.535837999999998
#
# number of rings (size 3 to 8) (size 9 to 14) (size 15 to 20)
#    0.000    1.750    2.500    1.500    3.500    2.500 
#    0.000    0.625    0.000    0.000    0.000    0.000 
#    0.000    0.000    0.000    0.000    0.000    0.000 
#
# Total GULP energy -178602.156041 kJ/mol
# GULP energy per Si atom -5581.317376 kJ/mol
# Density = 1.949137 g / cm^3
# Si number density = 19.535838 Si / 1000 Ang^3
#
#
#
# Elastic Constant Matrix: (Units=GPa)
#
#
# Indices 1 2 3 4 5 6 
#
# 1 102.9847 39.4643 66.2606 0.0000 14.5427 0.0000
# 2 39.4643 34.5409 52.3557 0.0000 0.5464 0.0000
# 3 66.2606 52.3557 144.6975 0.0000 24.3761 0.0000
# 4 0.0000 0.0000 0.0000 29.0891 0.0000 -3.8048
# 5 14.5427 0.5464 24.3761 0.0000 27.3410 0.0000
# 6 0.0000 0.0000 0.0000 -3.8048 0.0000 29.5353
#
#
#
# Elastic Compliance Matrix: (Units=1/GPa)
#
#
# Indices 1 2 3 4 5 6 
#
# 1 0.019951 -0.026325 0.002457 0.000000 -0.012277 0.000000
# 2 -0.026325 0.113781 -0.036585 0.000000 0.044346 0.000000
# 3 0.002457 -0.036585 0.022500 0.000000 -0.020636 0.000000
# 4 0.000000 0.000000 0.000000 0.034966 0.000000 0.004504
# 5 -0.012277 0.044346 -0.020636 0.000000 0.060617 0.000000
# 6 0.000000 0.000000 0.000000 0.004504 0.000000 0.034438
#
#
# Mechanical properties :
#
#
# Convention : Reuss Voigt Hill
#
# Bulk Modulus (GPa) = 28.30781 66.48714 47.39747
# Shear Modulus (GPa) = 11.93511 25.46924 18.70218
#
# Velocity S-wave (km/s) = 2.47439 3.61462 3.09743
# Velocity P-wave (km/s) = 4.76289 7.17830 6.09151
#
# Compressibility (1/GPa) = 0.03532594
#
# Stress axis : x y z
#
# Youngs Moduli (GPa) = 50.12401 8.78883 44.44543
#
# Poissons Ratio (x) = 0.23136 -0.10922
# Poissons Ratio (y) = 1.31950 1.62604
# Poissons Ratio (z) = -0.12317 0.32154
#
# Static dielectric constant tensor:
#      x y z
#    x 1.690270 0.000000 0.002830 
#    y 0.000000 1.662900 0.000000 
#    z 0.002830 0.000000 1.713140 
# 
# From -- ./inp_files/55731.got.cif
#   From: 2010.05.17/outbox.cif.g08.bks.cpg/sg11_28_cif.got.tgz:55731.got - 2010.06.03 12:22:45.
