data_PCOD9160235
_publ_section_title
;
Structure prediction by ZEFSAII (Michael W. Deem and Ramdas Pophale) SiO2 
 PCOD9160235
Probable space group: P 21/M
;
_chemical_formula_sum "Si O2"
_cell_formula_units_Z 28
_cell_length_a 13.869850
_cell_length_b 23.128751
_cell_length_c 8.325183
_cell_angle_alpha 90.000000
_cell_angle_beta 146.803894
_cell_angle_gamma 90.000000
_cell_volume 1462.200394
_symmetry_space_group_name_H-M "P 21/M"
_symmetry_group_IT_number 11
_symmetry_cell_setting 'monoclinic'
loop_
_space_group_symop_operation_xyz
x,y,z
-x,1/2+y,-z
-x,-y,-z
x,1/2-y,z
loop_
_atom_site_type_symbol
_atom_site_label
_atom_site_fract_x
_atom_site_fract_y
_atom_site_fract_z
Si Si1 0.312637 0.184700 0.317482
Si Si2 0.755239 0.076256 0.837140
Si Si3 0.286552 0.685015 0.010366
Si Si4 0.705938 0.318154 0.356300
Si Si5 0.427092 0.381495 0.170440
Si Si6 0.143595 0.028150 0.816095
Si Si7 0.006330 0.396935 0.920625
O O1 0.242862 0.250000 0.229166
O O2 0.503552 0.183545 0.665393
O O3 0.343299 0.165565 0.175203
O O4 0.183055 0.137437 0.211303
O O5 0.790536 0.134793 0.986892
O O6 0.577192 0.086308 0.487059
O O7 0.915934 0.068328 0.938006
O O8 0.746561 0.022955 0.945831
O O9 0.224989 0.750000 0.966569
O O10 0.258605 0.674807 0.783244
O O11 0.693436 0.250000 0.374297
O O12 0.529078 0.350231 0.168781
O O13 0.864307 0.348398 0.671828
O O14 0.276995 0.427302 0.916778
O O15 0.049155 0.063589 0.827220
O O16 0.000000 0.000000 0.500000
#
# Coordination Sequence:
#
# PCOD9160235 Si02
#       7
#     4   4   4   4   4   4   4
#     4   9  17  32  52  77 105 134 168 214 262 312
#     4  10  20  37  55  74 104 142 179 217 258 316
#     4   9  19  34  54  78 106 137 174 216 263 313
#     4  10  19  35  56  81 109 137 171 215 262 314
#     4   9  20  35  55  77 101 139 180 211 258 317
#     4  11  22  37  54  77 108 138 176 225 268 309
#     4  10  21  34  54  80 105 139 179 216 263 315
#
# _framework density 19.149222000000002
#
# number of rings (size 3 to 8) (size 9 to 14) (size 15 to 20)
#    0.000    2.286    0.000    2.571    0.000    5.143 
#    0.000    7.857    0.000    7.714    0.000    0.000 
#    0.000    0.000    0.000    0.000    0.000    0.000 
#
# Total GULP energy -156257.874103 kJ/mol
# GULP energy per Si atom -5580.638361 kJ/mol
# Density = 1.910564 g / cm^3
# Si number density = 19.149222 Si / 1000 Ang^3
#
#
#
# Elastic Constant Matrix: (Units=GPa)
#
#
# Indices 1 2 3 4 5 6 
#
# 1 37.4896 19.8510 -0.3480 0.0000 6.8798 0.0000
# 2 19.8510 77.9669 18.8704 0.0000 -0.9643 0.0000
# 3 -0.3480 18.8704 22.3107 0.0000 -5.2557 0.0000
# 4 0.0000 0.0000 0.0000 32.1892 0.0000 3.0860
# 5 6.8798 -0.9643 -5.2557 0.0000 17.3558 0.0000
# 6 0.0000 0.0000 0.0000 3.0860 0.0000 28.4844
#
#
#
# Elastic Compliance Matrix: (Units=1/GPa)
#
#
# Indices 1 2 3 4 5 6 
#
# 1 0.034576 -0.010542 0.006557 0.000000 -0.012306 0.000000
# 2 -0.010542 0.019540 -0.016638 0.000000 0.000226 0.000000
# 3 0.006557 -0.016638 0.062634 0.000000 0.015443 0.000000
# 4 0.000000 0.000000 0.000000 0.031392 0.000000 -0.003401
# 5 -0.012306 0.000226 0.015443 0.000000 0.067185 0.000000
# 6 0.000000 0.000000 0.000000 -0.003401 0.000000 0.035475
#
#
# Mechanical properties :
#
#
# Convention : Reuss Voigt Hill
#
# Bulk Modulus (GPa) = 13.24447 23.83492 18.53970
# Shear Modulus (GPa) = 15.76210 22.23211 18.99710
#
# Velocity S-wave (km/s) = 2.87212 3.41103 3.15311
# Velocity P-wave (km/s) = 4.23441 5.29032 4.79154
#
# Compressibility (1/GPa) = 0.07550319
#
# Stress axis : x y z
#
# Youngs Moduli (GPa) = 28.92219 51.17741 15.96569
#
# Poissons Ratio (x) = 0.53954 -0.10469
# Poissons Ratio (y) = 0.30491 0.26564
# Poissons Ratio (z) = -0.18965 0.85149
#
# Static dielectric constant tensor:
#      x y z
#    x 1.657780 0.000000 0.010310 
#    y 0.000000 1.667990 0.000000 
#    z 0.010310 0.000000 1.652570 
# 
# From -- ./inp_files/23166.got.cif
#   From: 2010.05.17/outbox.cif.g08.bks.cpg/sg11_12_cif.got.tgz:23166.got - 2010.06.03 12:22:45.
