data_PCOD9160252
_publ_section_title
;
Structure prediction by ZEFSAII (Michael W. Deem and Ramdas Pophale) SiO2 
 PCOD9160252
Probable space group: P 21/M
;
_chemical_formula_sum "Si O2"
_cell_formula_units_Z 20
_cell_length_a 8.460862
_cell_length_b 9.791541
_cell_length_c 11.753186
_cell_angle_alpha 90.000000
_cell_angle_beta 77.731436
_cell_angle_gamma 90.000000
_cell_volume 951.454391
_symmetry_space_group_name_H-M "P 21/M"
_symmetry_group_IT_number 11
_symmetry_cell_setting 'monoclinic'
loop_
_space_group_symop_operation_xyz
x,y,z
-x,1/2+y,-z
-x,-y,-z
x,1/2-y,z
loop_
_atom_site_type_symbol
_atom_site_label
_atom_site_fract_x
_atom_site_fract_y
_atom_site_fract_z
Si Si1 0.793819 0.024464 0.860081
Si Si2 0.604691 0.250000 0.308883
Si Si3 0.122601 0.250000 0.521516
Si Si4 0.276159 0.750000 0.962455
Si Si5 0.890714 0.750000 0.974792
Si Si6 0.069699 0.250000 0.783831
Si Si7 0.248788 0.750000 0.490075
Si Si8 0.661868 0.972826 0.630812
O O1 0.952395 0.116851 0.806989
O O2 0.704363 0.995642 0.756302
O O3 0.694241 0.118245 0.963592
O O4 0.840422 0.884747 0.915021
O O5 0.637427 0.250000 0.170553
O O6 0.754989 0.250000 0.372198
O O7 0.498711 0.383176 0.352827
O O8 0.159772 0.250000 0.650236
O O9 0.198555 0.381517 0.448963
O O10 0.930146 0.250000 0.534785
O O11 0.084786 0.750000 0.961091
O O12 0.828446 0.750000 0.115127
O O13 0.340427 0.617114 0.430733
#
# Coordination Sequence:
#
# PCOD9160252 Si02
#       8
#     4   2   2   2   2   2   2   4
#     4  10  20  39  62  87 125 156 204 257 307 362
#     4  11  27  41  62  90 129 168 214 253 305 373
#     4  11  23  39  67  97 124 158 215 255 314 375
#     4  10  22  40  60  90 120 170 201 247 313 374
#     4  10  20  34  62  95 125 154 198 265 310 358
#     4  10  19  35  56  94 120 158 197 253 311 364
#     4  12  23  43  65  90 126 170 207 259 315 364
#     4  11  24  43  63  95 126 165 208 262 307 369
#
# _framework density 21.020451000000001
#
# number of rings (size 3 to 8) (size 9 to 14) (size 15 to 20)
#    0.000    1.600    2.000    5.400    2.800    2.400 
#    0.000    1.000    0.000    0.000    0.000    0.000 
#    0.000    0.000    0.000    0.000    0.000    0.000 
#
# Total GULP energy -111841.485790 kJ/mol
# GULP energy per Si atom -5592.074290 kJ/mol
# Density = 2.097261 g / cm^3
# Si number density = 21.020451 Si / 1000 Ang^3
#
#
#
# Elastic Constant Matrix: (Units=GPa)
#
#
# Indices 1 2 3 4 5 6 
#
# 1 17.2736 22.7927 36.4474 0.0000 9.5937 0.0000
# 2 22.7927 170.5655 62.6148 0.0000 9.2629 0.0000
# 3 36.4474 62.6148 171.3870 0.0000 21.4515 0.0000
# 4 0.0000 0.0000 0.0000 39.2556 0.0000 13.8429
# 5 9.5937 9.2629 21.4515 0.0000 38.0722 0.0000
# 6 0.0000 0.0000 0.0000 13.8429 0.0000 15.5778
#
#
#
# Elastic Compliance Matrix: (Units=1/GPa)
#
#
# Indices 1 2 3 4 5 6 
#
# 1 0.121587 -0.007638 -0.020941 0.000000 -0.016981 0.000000
# 2 -0.007638 0.007253 -0.001125 0.000000 0.000794 0.000000
# 3 -0.020941 -0.001125 0.010763 0.000000 -0.000514 0.000000
# 4 0.000000 0.000000 0.000000 0.037100 0.000000 -0.032968
# 5 -0.016981 0.000794 -0.000514 0.000000 0.030641 0.000000
# 6 0.000000 0.000000 0.000000 -0.032968 0.000000 0.093490
#
#
# Mechanical properties :
#
#
# Convention : Reuss Voigt Hill
#
# Bulk Modulus (GPa) = 12.46943 66.99287 39.73115
# Shear Modulus (GPa) = 12.92072 34.40587 23.66330
#
# Velocity S-wave (km/s) = 2.48195 4.05010 3.35883
# Velocity P-wave (km/s) = 3.76276 7.33557 5.82962
#
# Compressibility (1/GPa) = 0.08019610
#
# Stress axis : x y z
#
# Youngs Moduli (GPa) = 8.22453 137.86612 92.90718
#
# Poissons Ratio (x) = 1.05304 1.94557
# Poissons Ratio (y) = 0.06282 0.10452
# Poissons Ratio (z) = 0.17223 0.15510
#
# Static dielectric constant tensor:
#      x y z
#    x 1.730640 0.000000 -0.016010 
#    y 0.000000 1.731670 0.000000 
#    z -0.016010 0.000000 1.761700 
# 
# From -- ./inp_files/27374.got.cif
#   From: 2010.05.17/outbox.cif.g08.bks.cpg/sg11_14_cif.got.tgz:27374.got - 2010.06.03 12:22:45.
