data_PCOD9160908
_publ_section_title
;
Structure prediction by ZEFSAII (Michael W. Deem and Ramdas Pophale) SiO2 
 PCOD9160908
Probable space group: P 21/M
;
_chemical_formula_sum "Si O2"
_cell_formula_units_Z 32
_cell_length_a 15.859960
_cell_length_b 8.395133
_cell_length_c 20.145739
_cell_angle_alpha 90.000000
_cell_angle_beta 38.108225
_cell_angle_gamma 90.000000
_cell_volume 1655.399371
_symmetry_space_group_name_H-M "P 21/M"
_symmetry_group_IT_number 11
_symmetry_cell_setting 'monoclinic'
loop_
_space_group_symop_operation_xyz
x,y,z
-x,1/2+y,-z
-x,-y,-z
x,1/2-y,z
loop_
_atom_site_type_symbol
_atom_site_label
_atom_site_fract_x
_atom_site_fract_y
_atom_site_fract_z
Si Si1 0.590862 0.057560 0.005355
Si Si2 0.443999 0.058693 0.465173
Si Si3 0.410085 0.441978 0.242562
Si Si4 0.899390 0.057008 0.850351
Si Si5 0.604198 0.056425 0.239743
Si Si6 0.853476 0.058594 0.396282
Si Si7 0.126952 0.939090 0.462955
Si Si8 0.102145 0.942969 0.994222
O O1 0.594877 0.250000 0.001069
O O2 0.505089 0.007578 0.123100
O O3 0.749257 0.004816 0.915883
O O4 0.500000 0.000000 0.000000
O O5 0.438305 0.250000 0.467249
O O6 0.554672 0.003391 0.342038
O O7 0.500000 0.000000 0.500000
O O8 0.293086 0.996720 0.540936
O O9 0.400893 0.250000 0.246354
O O10 0.486446 0.490765 0.262083
O O11 0.260532 0.511512 0.339411
O O12 0.898842 0.250000 0.850822
O O13 0.919733 0.006084 0.915248
O O14 0.022004 0.000002 0.727172
O O15 0.610434 0.250000 0.236149
O O16 0.748646 0.001700 0.122476
O O17 0.855795 0.250000 0.395088
O O18 0.867933 0.999885 0.463869
O O19 0.120499 0.750000 0.471356
O O20 0.000000 0.000000 0.500000
O O21 0.099571 0.750000 0.996659
O O22 0.000000 0.000000 0.000000
#
# Coordination Sequence:
#
# PCOD9160908 Si02
#       8
#     4   4   4   4   4   4   4   4
#     4  10  22  39  62  90 121 157 199 247 299 359
#     4  11  23  40  64  92 123 161 201 247 302 360
#     4  10  19  39  66  88 116 156 201 250 303 360
#     4  10  22  41  62  86 121 163 201 242 299 365
#     4   9  18  37  64  86 113 154 197 242 297 354
#     4  11  25  43  61  87 123 161 204 254 303 357
#     4  11  25  42  62  90 122 158 202 254 305 361
#     4  10  21  39  61  89 120 155 198 242 293 354
#
# _framework density 19.330683000000001
#
# number of rings (size 3 to 8) (size 9 to 14) (size 15 to 20)
#    0.000    1.750    2.500    1.125    3.500    3.000 
#    0.000    1.250    0.000    0.000    0.000    0.000 
#    0.000    0.000    0.000    0.000    0.000    0.000 
#
# Total GULP energy -178614.031274 kJ/mol
# GULP energy per Si atom -5581.688477 kJ/mol
# Density = 1.928669 g / cm^3
# Si number density = 19.330683 Si / 1000 Ang^3
#
#
#
# Elastic Constant Matrix: (Units=GPa)
#
#
# Indices 1 2 3 4 5 6 
#
# 1 92.8372 14.1792 19.9476 0.0000 -2.0612 0.0000
# 2 14.1792 20.5479 19.0330 0.0000 0.6775 0.0000
# 3 19.9476 19.0330 107.9246 0.0000 -3.3442 0.0000
# 4 0.0000 0.0000 0.0000 24.9417 0.0000 -0.9567
# 5 -2.0612 0.6775 -3.3442 0.0000 41.2609 0.0000
# 6 0.0000 0.0000 0.0000 -0.9567 0.0000 34.2964
#
#
#
# Elastic Compliance Matrix: (Units=1/GPa)
#
#
# Indices 1 2 3 4 5 6 
#
# 1 0.012133 -0.007573 -0.000887 0.000000 0.000659 0.000000
# 2 -0.007573 0.063028 -0.009784 0.000000 -0.002206 0.000000
# 3 -0.000887 -0.009784 0.011187 0.000000 0.001023 0.000000
# 4 0.000000 0.000000 0.000000 0.040136 0.000000 0.001120
# 5 0.000659 -0.002206 0.001023 0.000000 0.024388 0.000000
# 6 0.000000 0.000000 0.000000 0.001120 0.000000 0.029189
#
#
# Mechanical properties :
#
#
# Convention : Reuss Voigt Hill
#
# Bulk Modulus (GPa) = 20.05586 36.40326 28.22956
# Shear Modulus (GPa) = 21.44368 31.30978 26.37673
#
# Velocity S-wave (km/s) = 3.33424 4.02891 3.69792
# Velocity P-wave (km/s) = 5.02201 6.36518 5.73307
#
# Compressibility (1/GPa) = 0.04986075
#
# Stress axis : x y z
#
# Youngs Moduli (GPa) = 82.41764 15.86597 89.39146
#
# Poissons Ratio (x) = 0.12015 0.07926
# Poissons Ratio (y) = 0.62416 0.87460
# Poissons Ratio (z) = 0.07307 0.15523
#
# Static dielectric constant tensor:
#      x y z
#    x 1.697200 0.000000 0.067260 
#    y 0.000000 1.679540 0.000000 
#    z 0.067260 0.000000 2.197870 
# 
# From -- ./inp_files/65204.got.cif
#   From: 2010.05.17/outbox.cif.g08.bks.cpg/sg11_33_cif.got.tgz:65204.got - 2010.06.03 12:22:45.
