data_PCOD9160981
_publ_section_title
;
Structure prediction by ZEFSAII (Michael W. Deem and Ramdas Pophale) SiO2 
 PCOD9160981
Probable space group: P 21/M
;
_chemical_formula_sum "Si O2"
_cell_formula_units_Z 32
_cell_length_a 9.173903
_cell_length_b 14.538811
_cell_length_c 14.172303
_cell_angle_alpha 90.000000
_cell_angle_beta 131.135409
_cell_angle_gamma 90.000000
_cell_volume 1423.668820
_symmetry_space_group_name_H-M "P 21/M"
_symmetry_group_IT_number 11
_symmetry_cell_setting 'monoclinic'
loop_
_space_group_symop_operation_xyz
x,y,z
-x,1/2+y,-z
-x,-y,-z
x,1/2-y,z
loop_
_atom_site_type_symbol
_atom_site_label
_atom_site_fract_x
_atom_site_fract_y
_atom_site_fract_z
Si Si1 0.629335 0.646186 0.656392
Si Si2 0.172090 0.893878 0.067909
Si Si3 0.897653 0.646506 0.449760
Si Si4 0.444838 0.347242 0.840375
Si Si5 0.766562 0.889822 0.921486
Si Si6 0.408417 0.952134 0.847775
Si Si7 0.944587 0.141527 0.199278
Si Si8 0.718404 0.463393 0.425382
O O1 0.579059 0.750000 0.602384
O O2 0.691085 0.654685 0.793388
O O3 0.450567 0.575582 0.579683
O O4 0.830517 0.614187 0.695023
O O5 0.383608 0.850745 0.165148
O O6 0.203193 0.002466 0.092679
O O7 0.113043 0.874364 0.934328
O O8 0.982855 0.860462 0.043280
O O9 0.912874 0.750000 0.496870
O O10 0.757530 0.652683 0.299673
O O11 0.803302 0.566211 0.474115
O O12 0.103136 0.607576 0.503059
O O13 0.469937 0.250000 0.903060
O O14 0.459556 0.443631 0.901200
O O15 0.598954 0.888275 0.927623
O O16 0.213893 0.912896 0.808885
O O17 0.364703 0.962781 0.716872
O O18 0.931233 0.250000 0.213230
#
# Coordination Sequence:
#
# PCOD9160981 Si02
#       8
#     4   4   4   4   4   4   4   4
#     4   9  17  30  48  71  98 126 157 195 240 289
#     4   9  16  30  47  65  94 127 158 192 233 280
#     4   9  17  29  49  76  99 121 157 201 240 280
#     4   9  17  29  46  67  92 127 166 196 229 277
#     4   8  16  28  46  69  91 120 158 196 235 274
#     4   9  18  31  48  72  99 123 154 199 241 281
#     4  10  20  31  46  71 100 129 158 191 239 294
#     4   9  17  31  52  75  97 123 156 198 243 280
#
# _framework density 22.477139000000001
#
# number of rings (size 3 to 8) (size 9 to 14) (size 15 to 20)
#    0.000    3.000    0.000    1.500    0.000    5.000 
#    0.000    0.000    0.000    8.250    0.000   12.250 
#    0.000    0.000    0.000    0.000    0.000    0.000 
#
# Total GULP energy -178401.456958 kJ/mol
# GULP energy per Si atom -5575.045530 kJ/mol
# Density = 2.242598 g / cm^3
# Si number density = 22.477139 Si / 1000 Ang^3
#
#
#
# Elastic Constant Matrix: (Units=GPa)
#
#
# Indices 1 2 3 4 5 6 
#
# 1 116.9467 48.7540 40.9327 0.0000 48.6556 0.0000
# 2 48.7540 155.4585 27.8162 0.0000 40.0236 0.0000
# 3 40.9327 27.8162 79.0201 0.0000 44.8484 0.0000
# 4 0.0000 0.0000 0.0000 5.0028 0.0000 -5.9109
# 5 48.6556 40.0236 44.8484 0.0000 53.8398 0.0000
# 6 0.0000 0.0000 0.0000 -5.9109 0.0000 7.0394
#
#
#
# Elastic Compliance Matrix: (Units=1/GPa)
#
#
# Indices 1 2 3 4 5 6 
#
# 1 0.013948 -0.001410 -0.000322 0.000000 -0.011288 0.000000
# 2 -0.001410 0.008144 0.001093 0.000000 -0.005690 0.000000
# 3 -0.000322 0.001093 0.024151 0.000000 -0.020640 0.000000
# 4 0.000000 0.000000 0.000000 25.255222 0.000000 21.206296
# 5 -0.011288 -0.005690 -0.020640 0.000000 0.050198 0.000000
# 6 0.000000 0.000000 0.000000 21.206296 0.000000 17.948552
#
#
# Mechanical properties :
#
#
# Convention : Reuss Voigt Hill
#
# Bulk Modulus (GPa) = 22.23925 65.15902 43.69913
# Shear Modulus (GPa) = 0.11543 28.77124 14.44334
#
# Velocity S-wave (km/s) = 0.22686 3.58162 2.53766
# Velocity P-wave (km/s) = 3.15979 6.79382 5.29812
#
# Compressibility (1/GPa) = 0.04496555
#
# Stress axis : x y z
#
# Youngs Moduli (GPa) = 71.69431 122.78469 41.40615
#
# Poissons Ratio (x) = 0.17318 0.01333
# Poissons Ratio (y) = 0.10112 -0.04527
# Poissons Ratio (z) = 0.02308 -0.13425
#
# Static dielectric constant tensor:
#      x y z
#    x 1.853400 0.000000 0.018960 
#    y 0.000000 1.971840 0.000000 
#    z 0.018960 0.000000 1.877850 
# 
# From -- ./inp_files/56586.got.cif
#   From: 2010.05.17/outbox.cif.g08.bks.cpg/sg11_29_cif.got.tgz:56586.got - 2010.06.03 12:22:45.
