data_PCOD9160309
_publ_section_title
;
Structure prediction by ZEFSAII (Michael W. Deem and Ramdas Pophale) SiO2 
 PCOD9160309
Probable space group: P 21/M
;
_chemical_formula_sum "Si O2"
_cell_formula_units_Z 32
_cell_length_a 8.943227
_cell_length_b 14.920316
_cell_length_c 20.880628
_cell_angle_alpha 90.000000
_cell_angle_beta 41.138858
_cell_angle_gamma 90.000000
_cell_volume 1833.017380
_symmetry_space_group_name_H-M "P 21/M"
_symmetry_group_IT_number 11
_symmetry_cell_setting 'monoclinic'
loop_
_space_group_symop_operation_xyz
x,y,z
-x,1/2+y,-z
-x,-y,-z
x,1/2-y,z
loop_
_atom_site_type_symbol
_atom_site_label
_atom_site_fract_x
_atom_site_fract_y
_atom_site_fract_z
Si Si1 0.940235 0.079236 0.568530
Si Si2 0.818551 0.489777 0.748420
Si Si3 0.433697 0.354131 0.723643
Si Si4 0.410966 0.149758 0.385647
Si Si5 0.196938 0.980738 0.732156
Si Si6 0.469345 0.353721 0.214681
Si Si7 0.041169 0.856931 0.898829
Si Si8 0.573860 0.855180 0.121762
O O1 0.701165 0.124569 0.627006
O O2 0.158411 0.142727 0.494116
O O3 0.909850 0.042590 0.649992
O O4 0.000000 0.000000 0.500000
O O5 0.676125 0.579904 0.780953
O O6 0.637333 0.415967 0.830460
O O7 0.021577 0.504191 0.731917
O O8 0.386836 0.250000 0.723800
O O9 0.285064 0.425697 0.733020
O O10 0.392439 0.369000 0.812882
O O11 0.502150 0.250000 0.365539
O O12 0.579631 0.075986 0.359750
O O13 0.405083 0.133193 0.310606
O O14 0.080855 0.919405 0.824667
O O15 0.429596 0.250000 0.211498
O O16 0.739462 0.372349 0.126434
O O17 0.047069 0.750000 0.880693
O O18 0.805167 0.876332 0.009867
O O19 0.522748 0.750000 0.129020
#
# Coordination Sequence:
#
# PCOD9160309 Si02
#       8
#     4   4   4   4   4   4   4   4
#     4  11  18  37  61  77 101 141 190 231 267 313
#     4  11  23  34  54  82 115 147 176 222 275 332
#     4  10  21  37  57  81 108 142 185 231 271 316
#     4  10  19  35  58  79 103 140 185 229 271 315
#     4  11  22  35  53  81 119 147 172 218 278 337
#     4   9  18  33  54  80 104 137 185 231 266 310
#     4   9  18  36  61  83 106 141 185 228 269 318
#     4   9  19  37  60  82 104 140 190 230 264 316
#
# _framework density 17.457553000000001
#
# number of rings (size 3 to 8) (size 9 to 14) (size 15 to 20)
#    0.000    2.000    2.500    3.750    0.000    5.000 
#    0.000    0.000    0.000    3.000    0.000    0.000 
#    0.000    0.000    0.000    0.000    0.000    0.000 
#
# Total GULP energy -178551.320317 kJ/mol
# GULP energy per Si atom -5579.728760 kJ/mol
# Density = 1.741782 g / cm^3
# Si number density = 17.457553 Si / 1000 Ang^3
#
#
#
# Elastic Constant Matrix: (Units=GPa)
#
#
# Indices 1 2 3 4 5 6 
#
# 1 116.2205 73.3238 33.5740 0.0000 -19.4495 0.0000
# 2 73.3238 100.1084 37.6949 0.0000 -11.8306 0.0000
# 3 33.5740 37.6949 105.2238 0.0000 -20.3493 0.0000
# 4 0.0000 0.0000 0.0000 29.2534 0.0000 -8.7324
# 5 -19.4495 -11.8306 -20.3493 0.0000 12.9246 0.0000
# 6 0.0000 0.0000 0.0000 -8.7324 0.0000 4.4353
#
#
#
# Elastic Compliance Matrix: (Units=1/GPa)
#
#
# Indices 1 2 3 4 5 6 
#
# 1 0.019502 -0.012664 0.002513 0.000000 0.021712 0.000000
# 2 -0.012664 0.020085 -0.004722 0.000000 -0.008108 0.000000
# 3 0.002513 -0.004722 0.014793 0.000000 0.022750 0.000000
# 4 0.000000 0.000000 0.000000 0.082914 0.000000 0.163244
# 5 0.021712 -0.008108 0.022750 0.000000 0.138442 0.000000
# 6 0.000000 0.000000 0.000000 0.163244 0.000000 0.546862
#
#
# Mechanical properties :
#
#
# Convention : Reuss Voigt Hill
#
# Bulk Modulus (GPa) = 40.59639 67.85977 54.22808
# Shear Modulus (GPa) = 5.81020 21.12001 13.46510
#
# Velocity S-wave (km/s) = 1.82631 3.48198 2.78025
# Velocity P-wave (km/s) = 5.26802 7.42437 6.43713
#
# Compressibility (1/GPa) = 0.02463273
#
# Stress axis : x y z
#
# Youngs Moduli (GPa) = 51.27739 49.78808 67.59902
#
# Poissons Ratio (x) = 0.63054 -0.16989
# Poissons Ratio (y) = 0.64940 0.31923
# Poissons Ratio (z) = -0.12887 0.23512
#
# Static dielectric constant tensor:
#      x y z
#    x 1.554020 0.000000 -0.010690 
#    y 0.000000 1.619920 0.000000 
#    z -0.010690 0.000000 1.599080 
# 
# From -- ./inp_files/47449.got.cif
#   From: 2010.05.17/outbox.cif.g08.bks.cpg/sg11_24_cif.got.tgz:47449.got - 2010.06.03 12:22:45.
