data_PCOD9160885
_publ_section_title
;
Structure prediction by ZEFSAII (Michael W. Deem and Ramdas Pophale) SiO2 
 PCOD9160885
Probable space group: P 21/M
;
_chemical_formula_sum "Si O2"
_cell_formula_units_Z 30
_cell_length_a 24.110496
_cell_length_b 7.605858
_cell_length_c 12.039900
_cell_angle_alpha 90.000000
_cell_angle_beta 147.095332
_cell_angle_gamma 90.000000
_cell_volume 1199.419926
_symmetry_space_group_name_H-M "P 21/M"
_symmetry_group_IT_number 11
_symmetry_cell_setting 'monoclinic'
loop_
_space_group_symop_operation_xyz
x,y,z
-x,1/2+y,-z
-x,-y,-z
x,1/2-y,z
loop_
_atom_site_type_symbol
_atom_site_label
_atom_site_fract_x
_atom_site_fract_y
_atom_site_fract_z
Si Si1 0.830373 0.446673 0.832113
Si Si2 0.506872 0.462875 0.283044
Si Si3 0.080196 0.950461 0.491547
Si Si4 0.285828 0.452890 0.944400
Si Si5 0.661849 0.035622 0.717714
Si Si6 0.034594 0.750000 0.768502
Si Si7 0.167757 0.551023 0.406736
Si Si8 0.391676 0.448627 0.767221
O O1 0.787673 0.250000 0.729264
O O2 0.745752 0.527681 0.769480
O O3 0.853717 0.529898 0.751471
O O4 0.922954 0.400925 0.069435
O O5 0.505838 0.250000 0.274158
O O6 0.391284 0.524497 0.068582
O O7 0.553382 0.510648 0.480626
O O8 0.584606 0.533309 0.322808
O O9 0.044779 0.750000 0.422443
O O10 0.123158 0.029253 0.444193
O O11 0.995255 0.094434 0.371883
O O12 0.181816 0.954054 0.737176
O O13 0.274142 0.250000 0.891330
O O14 0.310949 0.462646 0.117053
O O15 0.669915 0.250000 0.739339
O O16 0.127009 0.750000 0.336651
O O17 0.290204 0.552835 0.625671
O O18 0.368863 0.250000 0.761041
O O19 0.500000 0.500000 0.000000
#
# Coordination Sequence:
#
# PCOD9160885 Si02
#       8
#     4   4   4   4   4   2   4   4
#     4   8  18  39  68  90 122 166 199 262 333 378
#     4  10  21  38  62  89 127 173 213 265 317 385
#     4  11  24  42  67  97 130 174 219 270 334 393
#     4  11  23  39  62  93 131 173 219 269 326 379
#     4  10  19  38  66  90 126 168 215 259 322 387
#     4  10  22  44  72  94 134 164 216 278 336 400
#     4  10  20  40  64  91 127 165 208 256 322 389
#     4  12  24  35  56  89 129 174 218 261 311 383
#
# _framework density 25.012090000000001
#
# number of rings (size 3 to 8) (size 9 to 14) (size 15 to 20)
#    0.400    1.333    2.000    2.800    0.933    4.267 
#    0.000    2.000    0.000    0.000    0.000    0.000 
#    0.000    0.000    0.000    0.000    0.000    0.000 
#
# Total GULP energy -167101.227258 kJ/mol
# GULP energy per Si atom -5570.040909 kJ/mol
# Density = 2.495516 g / cm^3
# Si number density = 25.012090 Si / 1000 Ang^3
#
#
#
# Elastic Constant Matrix: (Units=GPa)
#
#
# Indices 1 2 3 4 5 6 
#
# 1 58.8179 -11.4337 0.7400 0.0000 4.5348 0.0000
# 2 -11.4337 102.3065 19.6775 0.0000 7.0191 0.0000
# 3 0.7400 19.6775 129.3314 0.0000 14.4730 0.0000
# 4 0.0000 0.0000 0.0000 30.5371 0.0000 -26.7441
# 5 4.5348 7.0191 14.4730 0.0000 19.8840 0.0000
# 6 0.0000 0.0000 0.0000 -26.7441 0.0000 -34.1453
#
#
#
# Elastic Compliance Matrix: (Units=1/GPa)
#
#
# Indices 1 2 3 4 5 6 
#
# 1 0.017832 0.002314 0.000101 0.000000 -0.004957 0.000000
# 2 0.002314 0.010500 -0.001238 0.000000 -0.003333 0.000000
# 3 0.000101 -0.001238 0.008572 0.000000 -0.005825 0.000000
# 4 0.000000 0.000000 0.000000 0.019423 0.000000 -0.015213
# 5 -0.004957 -0.003333 -0.005825 0.000000 0.056839 0.000000
# 6 0.000000 0.000000 0.000000 -0.015213 0.000000 -0.017371
#
#
# Mechanical properties :
#
#
# Convention : Reuss Voigt Hill
#
# Bulk Modulus (GPa) = 25.47320 34.26926 29.87123
# Shear Modulus (GPa) = 46.93617 22.01995 34.47806
#
# Velocity S-wave (km/s) = 4.33660 2.97033 3.71678
# Velocity P-wave (km/s) = 5.93981 5.04922 5.51253
#
# Compressibility (1/GPa) = 0.03925694
#
# Stress axis : x y z
#
# Youngs Moduli (GPa) = 56.07805 95.23922 116.66312
#
# Poissons Ratio (x) = -0.22035 -0.01174
# Poissons Ratio (y) = -0.12975 0.14440
# Poissons Ratio (z) = -0.00564 0.11788
#
# Static dielectric constant tensor:
#      x y z
#    x 1.455830 0.000000 -0.207650 
#    y 0.000000 2.092640 0.000000 
#    z -0.207650 0.000000 1.946270 
# 
# From -- ./inp_files/45059.got.cif
#   From: 2010.05.17/outbox.cif.g08.bks.cpg/sg11_23_cif.got.tgz:45059.got - 2010.06.03 12:22:45.
