data_PCOD9160051
_publ_section_title
;
Structure prediction by ZEFSAII (Michael W. Deem and Ramdas Pophale) SiO2 
 PCOD9160051
Probable space group: P 21/M
;
_chemical_formula_sum "Si O2"
_cell_formula_units_Z 28
_cell_length_a 9.921489
_cell_length_b 14.895804
_cell_length_c 12.033305
_cell_angle_alpha 90.000000
_cell_angle_beta 54.640599
_cell_angle_gamma 90.000000
_cell_volume 1450.340464
_symmetry_space_group_name_H-M "P 21/M"
_symmetry_group_IT_number 11
_symmetry_cell_setting 'monoclinic'
loop_
_space_group_symop_operation_xyz
x,y,z
-x,1/2+y,-z
-x,-y,-z
x,1/2-y,z
loop_
_atom_site_type_symbol
_atom_site_label
_atom_site_fract_x
_atom_site_fract_y
_atom_site_fract_z
Si Si1 0.646574 0.651908 0.709836
Si Si2 0.826904 0.039024 0.041546
Si Si3 0.348544 0.853770 0.432735
Si Si4 0.218198 0.644292 0.158524
Si Si5 0.015178 0.606314 0.475358
Si Si6 0.487875 0.537205 0.161022
Si Si7 0.638209 0.146480 0.321936
O O1 0.607910 0.750000 0.779448
O O2 0.838424 0.645789 0.589962
O O3 0.585519 0.564261 0.805012
O O4 0.543273 0.646989 0.644987
O O5 0.746916 0.089244 0.185341
O O6 0.686130 0.969222 0.065272
O O7 0.842068 0.106555 0.930447
O O8 0.000000 0.000000 0.000000
O O9 0.406008 0.750000 0.397266
O O10 0.439926 0.916956 0.301273
O O11 0.365177 0.886341 0.550610
O O12 0.157268 0.857246 0.488406
O O13 0.248884 0.750000 0.138197
O O14 0.385032 0.593700 0.119895
O O15 0.082379 0.626155 0.319653
O O16 0.000000 0.500000 0.500000
O O17 0.697843 0.250000 0.295735
#
# Coordination Sequence:
#
# PCOD9160051 Si02
#       7
#     4   4   4   4   4   4   4
#     4  10  19  34  57  87 119 152 192 246 306 363
#     4  11  25  39  60  87 125 166 209 252 306 366
#     4  10  20  37  62  90 121 155 197 255 309 360
#     4  11  23  42  64  87 125 169 207 251 305 370
#     4  11  20  35  59  92 122 149 198 254 308 356
#     4  10  21  40  61  90 117 158 210 254 305 363
#     4   9  21  39  58  83 119 158 199 246 304 364
#
# _framework density 19.305810999999999
#
# number of rings (size 3 to 8) (size 9 to 14) (size 15 to 20)
#    0.000    1.714    2.857    3.429    2.000    4.000 
#    0.000    4.286    0.000    0.857    0.000    0.000 
#    0.000    0.000    0.000    0.000    0.000    0.000 
#
# Total GULP energy -156317.720116 kJ/mol
# GULP energy per Si atom -5582.775718 kJ/mol
# Density = 1.926187 g / cm^3
# Si number density = 19.305811 Si / 1000 Ang^3
#
#
#
# Elastic Constant Matrix: (Units=GPa)
#
#
# Indices 1 2 3 4 5 6 
#
# 1 103.2058 50.7868 47.9581 0.0000 -8.6918 0.0000
# 2 50.7868 129.3241 33.6214 0.0000 11.0377 0.0000
# 3 47.9581 33.6214 58.1629 0.0000 9.7796 0.0000
# 4 0.0000 0.0000 0.0000 -1.2362 0.0000 11.2133
# 5 -8.6918 11.0377 9.7796 0.0000 41.0871 0.0000
# 6 0.0000 0.0000 0.0000 11.2133 0.0000 28.2863
#
#
#
# Elastic Compliance Matrix: (Units=1/GPa)
#
#
# Indices 1 2 3 4 5 6 
#
# 1 0.019741 -0.004585 -0.015142 0.000000 0.009012 0.000000
# 2 -0.004585 0.010226 -0.001569 0.000000 -0.003344 0.000000
# 3 -0.015142 -0.001569 0.032348 0.000000 -0.010481 0.000000
# 4 0.000000 0.000000 0.000000 -0.176013 0.000000 0.069775
# 5 0.009012 -0.003344 -0.010481 0.000000 0.029638 0.000000
# 6 0.000000 0.000000 0.000000 0.069775 0.000000 0.007692
#
#
# Mechanical properties :
#
#
# Convention : Reuss Voigt Hill
#
# Bulk Modulus (GPa) = 50.70162 61.71391 56.20777
# Shear Modulus (GPa) = -183.81626 24.18255 -79.81686
#
# Velocity S-wave (km/s) = -9.76830 3.54306 -6.43686
# Velocity P-wave (km/s) = 10.04524 6.98381 5.10555
#
# Compressibility (1/GPa) = 0.01972323
#
# Stress axis : x y z
#
# Youngs Moduli (GPa) = 50.65603 97.78750 30.91404
#
# Poissons Ratio (x) = 0.44835 0.46811
# Poissons Ratio (y) = 0.23226 0.04849
# Poissons Ratio (z) = 0.76705 0.15339
#
# Static dielectric constant tensor:
#      x y z
#    x 1.659490 0.000000 0.000560 
#    y 0.000000 1.706260 0.000000 
#    z 0.000560 0.000000 1.677620 
# 
# From -- ./inp_files/31789.got.cif
#   From: 2010.05.17/outbox.cif.g08.bks.cpg/sg11_16_cif.got.tgz:31789.got - 2010.06.03 12:22:45.
