data_PCOD9160155
_publ_section_title
;
Structure prediction by ZEFSAII (Michael W. Deem and Ramdas Pophale) SiO2 
 PCOD9160155
Probable space group: P 21/M
;
_chemical_formula_sum "Si O2"
_cell_formula_units_Z 32
_cell_length_a 13.152598
_cell_length_b 14.484105
_cell_length_c 8.104292
_cell_angle_alpha 90.000000
_cell_angle_beta 97.620254
_cell_angle_gamma 90.000000
_cell_volume 1530.262309
_symmetry_space_group_name_H-M "P 21/M"
_symmetry_group_IT_number 11
_symmetry_cell_setting 'monoclinic'
loop_
_space_group_symop_operation_xyz
x,y,z
-x,1/2+y,-z
-x,-y,-z
x,1/2-y,z
loop_
_atom_site_type_symbol
_atom_site_label
_atom_site_fract_x
_atom_site_fract_y
_atom_site_fract_z
Si Si1 0.409147 0.538695 0.866085
Si Si2 0.024667 0.645956 0.599795
Si Si3 0.659906 0.520559 0.498927
Si Si4 0.178128 0.145588 0.630617
Si Si5 0.075917 0.007559 0.169418
Si Si6 0.745264 0.924088 0.004171
Si Si7 0.799975 0.358727 0.609555
Si Si8 0.566751 0.649418 0.751605
O O1 0.392710 0.483256 0.691856
O O2 0.455446 0.634109 0.810079
O O3 0.500000 0.500000 0.000000
O O4 0.306140 0.521483 0.948159
O O5 0.016257 0.750000 0.670727
O O6 0.942272 0.642895 0.433223
O O7 0.987720 0.565132 0.710118
O O8 0.137520 0.634274 0.549916
O O9 0.763276 0.578561 0.482965
O O10 0.697310 0.419910 0.567707
O O11 0.592737 0.572399 0.620563
O O12 0.214139 0.250000 0.609031
O O13 0.203395 0.117763 0.822400
O O14 0.173270 0.064047 0.122037
O O15 0.125772 0.912706 0.246722
O O16 0.000000 0.000000 0.000000
O O17 0.652214 0.863822 0.912255
O O18 0.785471 0.250000 0.642857
O O19 0.575084 0.750000 0.678109
#
# Coordination Sequence:
#
# PCOD9160155 Si02
#       8
#     4   4   4   4   4   4   4   4
#     4   9  22  40  63  87 125 163 205 260 324 386
#     4  10  22  39  61  90 125 164 215 262 308 374
#     4  11  21  38  65  89 125 165 210 265 325 384
#     4  10  19  34  60  92 124 163 207 255 316 377
#     4  12  24  38  66  91 130 172 211 262 317 374
#     4  10  21  38  59  94 128 165 202 258 318 376
#     4  11  24  42  61  88 127 175 224 263 312 382
#     4  11  21  39  65  95 125 158 209 269 326 380
#
# _framework density 20.911446000000002
#
# number of rings (size 3 to 8) (size 9 to 14) (size 15 to 20)
#    0.000    1.500    2.500    2.250    3.500    3.000 
#    0.000    1.250    0.000    0.750    0.000    0.000 
#    0.000    0.000    0.000    0.000    0.000    0.000 
#
# Total GULP energy -178577.817195 kJ/mol
# GULP energy per Si atom -5580.556787 kJ/mol
# Density = 2.086385 g / cm^3
# Si number density = 20.911446 Si / 1000 Ang^3
#
#
#
# Elastic Constant Matrix: (Units=GPa)
#
#
# Indices 1 2 3 4 5 6 
#
# 1 36.8336 20.8004 -3.0360 0.0000 -1.5604 0.0000
# 2 20.8004 128.2310 30.2184 0.0000 -1.4087 0.0000
# 3 -3.0360 30.2184 97.6932 0.0000 17.8994 0.0000
# 4 0.0000 0.0000 0.0000 14.6505 0.0000 -4.2419
# 5 -1.5604 -1.4087 17.8994 0.0000 26.1206 0.0000
# 6 0.0000 0.0000 0.0000 -4.2419 0.0000 23.7148
#
#
#
# Elastic Compliance Matrix: (Units=1/GPa)
#
#
# Indices 1 2 3 4 5 6 
#
# 1 0.030524 -0.005603 0.002748 0.000000 -0.000362 0.000000
# 2 -0.005603 0.009592 -0.003630 0.000000 0.002670 0.000000
# 3 0.002748 -0.003630 0.013094 0.000000 -0.009005 0.000000
# 4 0.000000 0.000000 0.000000 0.071985 0.000000 0.012876
# 5 -0.000362 0.002670 -0.009005 0.000000 0.044577 0.000000
# 6 0.000000 0.000000 0.000000 0.012876 0.000000 0.044471
#
#
# Mechanical properties :
#
#
# Convention : Reuss Voigt Hill
#
# Bulk Modulus (GPa) = 24.85086 39.85814 32.35450
# Shear Modulus (GPa) = 20.77897 27.21552 23.99725
#
# Velocity S-wave (km/s) = 3.15566 3.61150 3.39125
# Velocity P-wave (km/s) = 5.01869 6.04089 5.55336
#
# Compressibility (1/GPa) = 0.04024005
#
# Stress axis : x y z
#
# Youngs Moduli (GPa) = 32.76080 104.25205 76.36898
#
# Poissons Ratio (x) = 0.58411 -0.20986
# Poissons Ratio (y) = 0.18356 0.27725
# Poissons Ratio (z) = -0.09003 0.37848
#
# Static dielectric constant tensor:
#      x y z
#    x 1.790810 0.000000 0.016300 
#    y 0.000000 1.772870 0.000000 
#    z 0.016300 0.000000 1.755870 
# 
# From -- ./inp_files/21894.got.cif
#   From: 2010.05.17/outbox.cif.g08.bks.cpg/sg11_11_cif.got.tgz:21894.got - 2010.06.03 12:22:45.
