data_PCOD9160017
_publ_section_title
;
Structure prediction by ZEFSAII (Michael W. Deem and Ramdas Pophale) SiO2 
 PCOD9160017
Probable space group: P 21/M
;
_chemical_formula_sum "Si O2"
_cell_formula_units_Z 32
_cell_length_a 9.163444
_cell_length_b 14.845240
_cell_length_c 21.641918
_cell_angle_alpha 90.000000
_cell_angle_beta 147.831927
_cell_angle_gamma 90.000000
_cell_volume 1567.413399
_symmetry_space_group_name_H-M "P 21/M"
_symmetry_group_IT_number 11
_symmetry_cell_setting 'monoclinic'
loop_
_space_group_symop_operation_xyz
x,y,z
-x,1/2+y,-z
-x,-y,-z
x,1/2-y,z
loop_
_atom_site_type_symbol
_atom_site_label
_atom_site_fract_x
_atom_site_fract_y
_atom_site_fract_z
Si Si1 0.511330 0.515780 0.920150
Si Si2 0.963748 0.146397 0.582606
Si Si3 0.461789 0.350629 0.306709
Si Si4 0.085196 0.403331 0.276211
Si Si5 0.249551 0.898094 0.355673
Si Si6 0.862883 0.653854 0.570027
Si Si7 0.713932 0.855265 0.087355
Si Si8 0.652103 0.485239 0.278636
O O1 0.486503 0.415421 0.940037
O O2 0.496671 0.512058 0.841117
O O3 0.225705 0.563942 0.837247
O O4 0.726540 0.582688 0.029889
O O5 0.049360 0.250000 0.616166
O O6 0.726039 0.138230 0.446240
O O7 0.834107 0.121606 0.603204
O O8 0.221263 0.082322 0.661016
O O9 0.469721 0.250000 0.281665
O O10 0.198488 0.357784 0.256171
O O11 0.467220 0.432967 0.261216
O O12 0.254447 0.494725 0.348798
O O13 0.121527 0.344898 0.350116
O O14 0.545535 0.862601 0.442816
O O15 0.006623 0.859093 0.226548
O O16 0.949321 0.750000 0.574699
O O17 0.072611 0.576503 0.626400
O O18 0.636908 0.750000 0.050179
#
# Coordination Sequence:
#
# PCOD9160017 Si02
#       8
#     4   4   4   4   4   4   4   4
#     4   9  21  36  57  86 109 140 191 236 280 333
#     4  11  20  34  55  82 112 150 192 227 275 337
#     4  11  23  35  53  83 119 158 189 219 276 346
#     4  10  19  35  55  79 115 143 184 228 279 331
#     4  11  19  33  55  84 110 141 187 235 281 324
#     4  11  19  30  53  82 114 144 180 228 276 334
#     4  10  19  34  57  84 111 141 184 238 285 327
#     4  11  22  38  54  83 119 151 184 232 282 329
#
# _framework density 20.415800999999998
#
# number of rings (size 3 to 8) (size 9 to 14) (size 15 to 20)
#    0.000    1.500    5.000    3.375    0.000    3.000 
#    0.000    0.000    0.000   10.500    0.000    3.500 
#    0.000    0.000    0.000    0.000    0.000    0.000 
#
# Total GULP energy -178669.486906 kJ/mol
# GULP energy per Si atom -5583.421466 kJ/mol
# Density = 2.036933 g / cm^3
# Si number density = 20.415801 Si / 1000 Ang^3
#
#
#
# Elastic Constant Matrix: (Units=GPa)
#
#
# Indices 1 2 3 4 5 6 
#
# 1 39.9164 -1.2310 -8.2464 0.0000 -1.0754 0.0000
# 2 -1.2310 132.2982 5.1500 0.0000 -7.9609 0.0000
# 3 -8.2464 5.1500 46.1649 0.0000 -15.4453 0.0000
# 4 0.0000 0.0000 0.0000 4.9574 0.0000 3.9680
# 5 -1.0754 -7.9609 -15.4453 0.0000 12.5832 0.0000
# 6 0.0000 0.0000 0.0000 3.9680 0.0000 3.5852
#
#
#
# Elastic Compliance Matrix: (Units=1/GPa)
#
#
# Indices 1 2 3 4 5 6 
#
# 1 0.027501 0.000769 0.009801 0.000000 0.014867 0.000000
# 2 0.000769 0.007928 0.001617 0.000000 0.007067 0.000000
# 3 0.009801 0.001617 0.040477 0.000000 0.051544 0.000000
# 4 0.000000 0.000000 0.000000 1.767430 0.000000 -1.956123
# 5 0.014867 0.007067 0.051544 0.000000 0.148480 0.000000
# 6 0.000000 0.000000 0.000000 -1.956123 0.000000 2.443885
#
#
# Mechanical properties :
#
#
# Convention : Reuss Voigt Hill
#
# Bulk Modulus (GPa) = 9.97205 23.30275 16.63740
# Shear Modulus (GPa) = 1.12492 19.07228 10.09860
#
# Velocity S-wave (km/s) = 0.74310 3.05977 2.22648
# Velocity P-wave (km/s) = 2.37305 4.89099 3.84403
#
# Compressibility (1/GPa) = 0.10028026
#
# Stress axis : x y z
#
# Youngs Moduli (GPa) = 36.36178 126.13348 24.70545
#
# Poissons Ratio (x) = -0.09699 -0.24213
# Poissons Ratio (y) = -0.02796 -0.03995
# Poissons Ratio (z) = -0.35637 -0.20398
#
# Static dielectric constant tensor:
#      x y z
#    x 1.743030 0.000000 -0.013170 
#    y 0.000000 1.758570 0.000000 
#    z -0.013170 0.000000 1.753140 
# 
# From -- ./inp_files/50400.got.cif
#   From: 2010.05.17/outbox.cif.g08.bks.cpg/sg11_26_cif.got.tgz:50400.got - 2010.06.03 12:22:45.
