data_PCOD9160428
_publ_section_title
;
Structure prediction by ZEFSAII (Michael W. Deem and Ramdas Pophale) SiO2 
 PCOD9160428
Probable space group: P 21/M
;
_chemical_formula_sum "Si O2"
_cell_formula_units_Z 28
_cell_length_a 19.905006
_cell_length_b 12.416759
_cell_length_c 5.551051
_cell_angle_alpha 90.000000
_cell_angle_beta 69.369879
_cell_angle_gamma 90.000000
_cell_volume 1283.995105
_symmetry_space_group_name_H-M "P 21/M"
_symmetry_group_IT_number 11
_symmetry_cell_setting 'monoclinic'
loop_
_space_group_symop_operation_xyz
x,y,z
-x,1/2+y,-z
-x,-y,-z
x,1/2-y,z
loop_
_atom_site_type_symbol
_atom_site_label
_atom_site_fract_x
_atom_site_fract_y
_atom_site_fract_z
Si Si1 0.587594 0.125750 0.942128
Si Si2 0.280260 0.496262 0.079257
Si Si3 0.037605 0.750000 0.053662
Si Si4 0.917288 0.484852 0.035052
Si Si5 0.703967 0.627878 0.428808
Si Si6 0.870968 0.039277 0.594113
Si Si7 0.028467 0.750000 0.564553
Si Si8 0.448086 0.050121 0.370314
O O1 0.604807 0.250000 0.889476
O O2 0.647247 0.066780 0.030873
O O3 0.589023 0.053916 0.702177
O O4 0.505132 0.111975 0.130366
O O5 0.287549 0.418803 0.307942
O O6 0.210392 0.566192 0.234219
O O7 0.266526 0.438587 0.839607
O O8 0.087904 0.854971 0.988953
O O9 0.990952 0.750000 0.354400
O O10 0.991160 0.750000 0.869531
O O11 0.900602 0.527038 0.788163
O O12 0.874174 0.517809 0.328469
O O13 0.000000 0.500000 0.000000
O O14 0.730594 0.750000 0.390349
O O15 0.618032 0.625122 0.481190
O O16 0.921558 0.143629 0.501156
O O17 0.500000 0.000000 0.500000
#
# Coordination Sequence:
#
# PCOD9160428 Si02
#       8
#     4   4   2   4   4   4   2   4
#     4  10  22  37  58  88 125 157 197 257 311 358
#     4  11  23  40  60  90 123 154 204 248 294 369
#     4   8  16  30  50  80 110 136 184 221 255 352
#     4  10  19  35  60  85 113 153 187 235 290 338
#     4  11  23  41  64  83 113 164 206 248 297 350
#     4  10  20  35  58  86 119 149 193 234 290 351
#     4   8  16  30  52  80 108 150 176 213 279 340
#     4  10  20  40  57  86 117 154 207 253 299 360
#
# _framework density 21.806934999999999
#
# number of rings (size 3 to 8) (size 9 to 14) (size 15 to 20)
#    0.000    2.000    1.429    2.143    1.000    1.143 
#    0.000    0.000    9.429    0.000    0.000    0.000 
#    0.000    0.000    0.000    0.000    0.000    0.000 
#
# Total GULP energy -155889.648901 kJ/mol
# GULP energy per Si atom -5567.487461 kJ/mol
# Density = 2.175730 g / cm^3
# Si number density = 21.806935 Si / 1000 Ang^3
#
#
#
# Elastic Constant Matrix: (Units=GPa)
#
#
# Indices 1 2 3 4 5 6 
#
# 1 47.1719 1.0681 15.9063 0.0000 9.8805 0.0000
# 2 1.0681 86.1972 15.5893 0.0000 7.3027 0.0000
# 3 15.9063 15.5893 150.1603 0.0000 28.6415 0.0000
# 4 0.0000 0.0000 0.0000 10.6681 0.0000 2.5248
# 5 9.8805 7.3027 28.6415 0.0000 47.4767 0.0000
# 6 0.0000 0.0000 0.0000 2.5248 0.0000 9.1806
#
#
#
# Elastic Compliance Matrix: (Units=1/GPa)
#
#
# Indices 1 2 3 4 5 6 
#
# 1 0.022547 0.000345 -0.001717 0.000000 -0.003710 0.000000
# 2 0.000345 0.011891 -0.001027 0.000000 -0.001282 0.000000
# 3 -0.001717 -0.001027 0.007740 0.000000 -0.004154 0.000000
# 4 0.000000 0.000000 0.000000 0.100264 0.000000 -0.027574
# 5 -0.003710 -0.001282 -0.004154 0.000000 0.024538 0.000000
# 6 0.000000 0.000000 0.000000 -0.027574 0.000000 0.116509
#
#
# Mechanical properties :
#
#
# Convention : Reuss Voigt Hill
#
# Bulk Modulus (GPa) = 26.75012 38.73964 32.74488
# Shear Modulus (GPa) = 16.62531 30.19612 23.41071
#
# Velocity S-wave (km/s) = 2.76413 3.72520 3.28005
# Velocity P-wave (km/s) = 4.74138 6.02546 5.42157
#
# Compressibility (1/GPa) = 0.03738302
#
# Stress axis : x y z
#
# Youngs Moduli (GPa) = 44.35152 84.09523 129.19248
#
# Poissons Ratio (x) = -0.02905 0.22177
# Poissons Ratio (y) = -0.01532 0.13264
# Poissons Ratio (z) = 0.07613 0.08634
#
# Static dielectric constant tensor:
#      x y z
#    x 1.853860 0.000000 0.035190 
#    y 0.000000 1.812380 0.000000 
#    z 0.035190 0.000000 1.916250 
# 
# From -- ./inp_files/8788.got.cif
#   From: 2010.05.17/outbox.cif.g08.bks.cpg/sg11_5_cif.got.tgz:8788.got - 2010.06.03 12:22:45.
