data_PCOD9160811
_publ_section_title
;
Structure prediction by ZEFSAII (Michael W. Deem and Ramdas Pophale) SiO2 
 PCOD9160811
Probable space group: P 21/M
;
_chemical_formula_sum "Si O2"
_cell_formula_units_Z 28
_cell_length_a 8.912636
_cell_length_b 12.905660
_cell_length_c 14.144762
_cell_angle_alpha 90.000000
_cell_angle_beta 118.479164
_cell_angle_gamma 90.000000
_cell_volume 1430.099494
_symmetry_space_group_name_H-M "P 21/M"
_symmetry_group_IT_number 11
_symmetry_cell_setting 'monoclinic'
loop_
_space_group_symop_operation_xyz
x,y,z
-x,1/2+y,-z
-x,-y,-z
x,1/2-y,z
loop_
_atom_site_type_symbol
_atom_site_label
_atom_site_fract_x
_atom_site_fract_y
_atom_site_fract_z
Si Si1 0.146767 0.631796 0.845910
Si Si2 0.479531 0.865794 0.231429
Si Si3 0.791445 0.485507 0.328298
Si Si4 0.119023 0.872714 0.456953
Si Si5 0.750059 0.864661 0.789826
Si Si6 0.202648 0.987723 0.042176
Si Si7 0.623343 0.454466 0.615317
O O1 0.215191 0.750000 0.872707
O O2 0.156777 0.587965 0.743187
O O3 0.950269 0.638141 0.822078
O O4 0.230050 0.548752 0.943186
O O5 0.526220 0.750000 0.215806
O O6 0.297817 0.898977 0.131966
O O7 0.461721 0.873139 0.339342
O O8 0.621081 0.951856 0.250440
O O9 0.782148 0.418642 0.421799
O O10 0.937289 0.570349 0.394118
O O11 0.101097 0.750000 0.460618
O O12 0.220314 0.903439 0.392871
O O13 0.678038 0.750000 0.756327
O O14 0.727014 0.906536 0.889958
O O15 0.674075 0.949483 0.697032
O O16 0.000000 0.000000 0.000000
O O17 0.500000 0.500000 0.500000
#
# Coordination Sequence:
#
# PCOD9160811 Si02
#       7
#     4   4   4   4   4   4   4
#     4  10  19  37  64  86 115 162 200 245 308 366
#     4  11  23  40  63  89 123 163 201 256 315 360
#     4  11  23  40  60  92 128 159 213 252 301 376
#     4  11  23  41  61  86 126 169 207 254 308 363
#     4   9  19  36  60  88 119 155 199 250 305 361
#     4   9  20  39  62  88 121 149 203 249 297 371
#     4  11  21  40  58  90 121 157 210 256 298 365
#
# _framework density 19.579058
#
# number of rings (size 3 to 8) (size 9 to 14) (size 15 to 20)
#    0.000    1.714    2.857    1.714    0.000    2.286 
#    0.000    2.143    0.000    0.000    0.000    0.000 
#    0.000    0.000    0.000    0.000    0.000    0.000 
#
# Total GULP energy -156108.260292 kJ/mol
# GULP energy per Si atom -5575.295010 kJ/mol
# Density = 1.953450 g / cm^3
# Si number density = 19.579058 Si / 1000 Ang^3
#
#
#
# Elastic Constant Matrix: (Units=GPa)
#
#
# Indices 1 2 3 4 5 6 
#
# 1 39.8066 29.1289 7.3533 0.0000 -0.3011 0.0000
# 2 29.1289 135.8564 29.5805 0.0000 -13.1907 0.0000
# 3 7.3533 29.5805 81.1530 0.0000 -8.6844 0.0000
# 4 0.0000 0.0000 0.0000 20.8635 0.0000 -2.3200
# 5 -0.3011 -13.1907 -8.6844 0.0000 27.3004 0.0000
# 6 0.0000 0.0000 0.0000 -2.3200 0.0000 15.3185
#
#
#
# Elastic Compliance Matrix: (Units=1/GPa)
#
#
# Indices 1 2 3 4 5 6 
#
# 1 0.030046 -0.006599 -0.000645 0.000000 -0.003062 0.000000
# 2 -0.006599 0.009696 -0.002529 0.000000 0.003808 0.000000
# 3 -0.000645 -0.002529 0.013635 0.000000 0.003108 0.000000
# 4 0.000000 0.000000 0.000000 0.048752 0.000000 0.007383
# 5 -0.003062 0.003808 0.003108 0.000000 0.039424 0.000000
# 6 0.000000 0.000000 0.000000 0.007383 0.000000 0.066399
#
#
# Mechanical properties :
#
#
# Convention : Reuss Voigt Hill
#
# Bulk Modulus (GPa) = 29.55775 43.21572 36.38673
# Shear Modulus (GPa) = 20.94021 25.41336 23.17678
#
# Velocity S-wave (km/s) = 3.27390 3.60667 3.44430
# Velocity P-wave (km/s) = 5.42408 6.28207 5.86877
#
# Compressibility (1/GPa) = 0.03383207
#
# Stress axis : x y z
#
# Youngs Moduli (GPa) = 33.28180 103.13601 73.33949
#
# Poissons Ratio (x) = 0.68061 0.04729
# Poissons Ratio (y) = 0.21963 0.18546
# Poissons Ratio (z) = 0.02146 0.26081
#
# Static dielectric constant tensor:
#      x y z
#    x 1.721270 0.000000 -0.038640 
#    y 0.000000 1.713530 0.000000 
#    z -0.038640 0.000000 1.844130 
# 
# From -- ./inp_files/21414.got.cif
#   From: 2010.05.17/outbox.cif.g08.bks.cpg/sg11_11_cif.got.tgz:21414.got - 2010.06.03 12:22:45.
