data_PCOD9160092
_publ_section_title
;
Structure prediction by ZEFSAII (Michael W. Deem and Ramdas Pophale) SiO2 
 PCOD9160092
Probable space group: P 21/M
;
_chemical_formula_sum "Si O2"
_cell_formula_units_Z 32
_cell_length_a 12.042219
_cell_length_b 8.328552
_cell_length_c 15.763859
_cell_angle_alpha 90.000000
_cell_angle_beta 94.690373
_cell_angle_gamma 90.000000
_cell_volume 1575.729742
_symmetry_space_group_name_H-M "P 21/M"
_symmetry_group_IT_number 11
_symmetry_cell_setting 'monoclinic'
loop_
_space_group_symop_operation_xyz
x,y,z
-x,1/2+y,-z
-x,-y,-z
x,1/2-y,z
loop_
_atom_site_type_symbol
_atom_site_label
_atom_site_fract_x
_atom_site_fract_y
_atom_site_fract_z
Si Si1 0.982603 0.556155 0.402821
Si Si2 0.257643 0.057881 0.679086
Si Si3 0.014256 0.558438 0.097186
Si Si4 0.781333 0.441372 0.141752
Si Si5 0.619993 0.442477 0.476381
Si Si6 0.221938 0.554225 0.361288
Si Si7 0.378794 0.944047 0.019783
Si Si8 0.256119 0.553750 0.178051
O O1 0.979739 0.750000 0.401356
O O2 0.864790 0.498374 0.359096
O O3 0.000000 0.500000 0.500000
O O4 0.092681 0.504715 0.358564
O O5 0.255508 0.250000 0.682407
O O6 0.275972 0.993472 0.774554
O O7 0.345589 0.005153 0.613783
O O8 0.018273 0.750000 0.096687
O O9 0.906834 0.506431 0.143759
O O10 0.132039 0.502324 0.142174
O O11 0.000000 0.500000 0.000000
O O12 0.786630 0.250000 0.138171
O O13 0.711738 0.498772 0.055604
O O14 0.500000 0.500000 0.500000
O O15 0.622265 0.250000 0.474931
O O16 0.711123 0.499634 0.551545
O O17 0.223233 0.750000 0.362429
O O18 0.275471 0.501591 0.275833
O O19 0.376995 0.750000 0.019917
O O20 0.341667 0.999551 0.110972
O O21 0.500000 0.000000 0.000000
O O22 0.257331 0.750000 0.178150
#
# Coordination Sequence:
#
# PCOD9160092 Si02
#       8
#     4   4   4   4   4   4   4   4
#     4  10  19  34  58  88 119 150 191 239 294 358
#     4  11  23  39  62  91 120 157 201 247 300 359
#     4  11  20  35  61  90 123 157 195 243 297 359
#     4  11  23  40  60  89 125 159 198 246 300 357
#     4  11  23  40  61  86 119 158 202 252 299 353
#     4   9  18  34  59  86 113 151 192 234 294 352
#     4  10  22  40  60  84 115 155 200 248 296 347
#     4   9  18  36  59  84 116 151 190 239 292 349
#
# _framework density 20.308050999999999
#
# number of rings (size 3 to 8) (size 9 to 14) (size 15 to 20)
#    0.000    1.750    2.500    2.250    0.000    4.500 
#    0.000    1.250    0.000    3.750    0.000    0.000 
#    0.000    0.000    0.000    0.000    0.000    0.000 
#
# Total GULP energy -178797.182405 kJ/mol
# GULP energy per Si atom -5587.411950 kJ/mol
# Density = 2.026183 g / cm^3
# Si number density = 20.308051 Si / 1000 Ang^3
#
#
#
# Elastic Constant Matrix: (Units=GPa)
#
#
# Indices 1 2 3 4 5 6 
#
# 1 75.2678 2.5362 7.7427 0.0000 -34.7581 0.0000
# 2 2.5362 19.1727 2.1993 0.0000 -2.1253 0.0000
# 3 7.7427 2.1993 107.8853 0.0000 -39.7578 0.0000
# 4 0.0000 0.0000 0.0000 25.2096 0.0000 -7.0253
# 5 -34.7581 -2.1253 -39.7578 0.0000 31.0222 0.0000
# 6 0.0000 0.0000 0.0000 -7.0253 0.0000 27.4046
#
#
#
# Elastic Compliance Matrix: (Units=1/GPa)
#
#
# Indices 1 2 3 4 5 6 
#
# 1 0.079800 0.000772 0.051592 0.000000 0.155583 0.000000
# 2 0.000772 0.052577 0.000983 0.000000 0.005727 0.000000
# 3 0.051592 0.000983 0.050925 0.000000 0.123138 0.000000
# 4 0.000000 0.000000 0.000000 0.042719 0.000000 0.010951
# 5 0.155583 0.005727 0.123138 0.000000 0.364759 0.000000
# 6 0.000000 0.000000 0.000000 0.010951 0.000000 0.039298
#
#
# Mechanical properties :
#
#
# Convention : Reuss Voigt Hill
#
# Bulk Modulus (GPa) = 3.44831 25.25358 14.35095
# Shear Modulus (GPa) = 8.06388 29.38380 18.72384
#
# Velocity S-wave (km/s) = 1.99484 3.80795 3.03972
# Velocity P-wave (km/s) = 2.64718 5.63881 4.40476
#
# Compressibility (1/GPa) = 0.28999679
#
# Stress axis : x y z
#
# Youngs Moduli (GPa) = 12.53138 19.01962 19.63669
#
# Poissons Ratio (x) = -0.01468 -1.01311
# Poissons Ratio (y) = -0.00967 -0.01931
# Poissons Ratio (z) = -0.64653 -0.01870
#
# Static dielectric constant tensor:
#      x y z
#    x 1.707820 0.000000 0.003400 
#    y 0.000000 1.703920 0.000000 
#    z 0.003400 0.000000 1.718510 
# 
# From -- ./inp_files/49309.got.cif
#   From: 2010.05.17/outbox.cif.g08.bks.cpg/sg11_25_cif.got.tgz:49309.got - 2010.06.03 12:22:45.
