data_PCOD9160181
_publ_section_title
;
Structure prediction by ZEFSAII (Michael W. Deem and Ramdas Pophale) SiO2 
 PCOD9160181
Probable space group: P 21/M
;
_chemical_formula_sum "Si O2"
_cell_formula_units_Z 32
_cell_length_a 30.075581
_cell_length_b 7.666338
_cell_length_c 12.386274
_cell_angle_alpha 90.000000
_cell_angle_beta 30.337211
_cell_angle_gamma 90.000000
_cell_volume 1442.480464
_symmetry_space_group_name_H-M "P 21/M"
_symmetry_group_IT_number 11
_symmetry_cell_setting 'monoclinic'
loop_
_space_group_symop_operation_xyz
x,y,z
-x,1/2+y,-z
-x,-y,-z
x,1/2-y,z
loop_
_atom_site_type_symbol
_atom_site_label
_atom_site_fract_x
_atom_site_fract_y
_atom_site_fract_z
Si Si1 0.583755 0.040831 0.398718
Si Si2 0.002318 0.460221 0.868203
Si Si3 0.473089 0.961530 0.244714
Si Si4 0.781067 0.459469 0.956268
Si Si5 0.169714 0.459547 0.381476
Si Si6 0.696143 0.952844 0.517994
Si Si7 0.673862 0.536587 0.801544
Si Si8 0.844464 0.049096 0.050845
O O1 0.588876 0.250000 0.391971
O O2 0.564200 0.980025 0.561261
O O3 0.500000 0.000000 0.500000
O O4 0.679669 0.975230 0.159956
O O5 0.001958 0.250000 0.863403
O O6 0.089720 0.523585 0.623270
O O7 0.000000 0.500000 0.000000
O O8 0.918333 0.526801 0.975825
O O9 0.471894 0.750000 0.243619
O O10 0.406794 0.028325 0.292940
O O11 0.573425 0.020790 0.023519
O O12 0.775750 0.250000 0.978887
O O13 0.833743 0.496733 0.737014
O O14 0.826088 0.529210 0.971416
O O15 0.169747 0.250000 0.389635
O O16 0.262097 0.522506 0.237817
O O17 0.720542 0.750000 0.461970
O O18 0.711869 0.018166 0.605946
O O19 0.753204 0.046457 0.307854
O O20 0.672182 0.750000 0.804604
O O21 0.870729 0.250000 0.976994
#
# Coordination Sequence:
#
# PCOD9160181 Si02
#       8
#     4   4   4   4   4   4   4   4
#     4  10  20  34  54  78 109 152 197 240 284 336
#     4  10  22  40  65  92 119 152 190 233 286 346
#     4  10  19  35  54  75 109 155 191 226 289 351
#     4  10  21  38  57  81 114 152 195 237 283 343
#     4  10  21  39  60  85 115 148 189 236 288 341
#     4  11  21  34  55  85 114 145 191 245 285 331
#     4   9  19  34  54  79 113 151 186 232 290 343
#     4  10  21  40  61  82 115 158 192 229 289 353
#
# _framework density 22.184007999999999
#
# number of rings (size 3 to 8) (size 9 to 14) (size 15 to 20)
#    0.000    2.000    1.250    2.250    0.000    5.000 
#    0.000    2.500    0.000    0.000    0.000    0.000 
#    0.000    0.000    0.000    0.000    0.000    0.000 
#
# Total GULP energy -178799.309094 kJ/mol
# GULP energy per Si atom -5587.478409 kJ/mol
# Density = 2.213352 g / cm^3
# Si number density = 22.184008 Si / 1000 Ang^3
#
#
#
# Elastic Constant Matrix: (Units=GPa)
#
#
# Indices 1 2 3 4 5 6 
#
# 1 160.6070 2.8406 72.6927 0.0000 5.2291 0.0000
# 2 2.8406 40.6186 -0.3933 0.0000 0.1940 0.0000
# 3 72.6927 -0.3933 115.7311 0.0000 13.3224 0.0000
# 4 0.0000 0.0000 0.0000 2.1360 0.0000 2.2891
# 5 5.2291 0.1940 13.3224 0.0000 41.3508 0.0000
# 6 0.0000 0.0000 0.0000 2.2891 0.0000 10.8169
#
#
#
# Elastic Compliance Matrix: (Units=1/GPa)
#
#
# Indices 1 2 3 4 5 6 
#
# 1 0.008736 -0.000668 -0.005570 0.000000 0.000693 0.000000
# 2 -0.000668 0.024672 0.000527 0.000000 -0.000201 0.000000
# 3 -0.005570 0.000527 0.012525 0.000000 -0.003333 0.000000
# 4 0.000000 0.000000 0.000000 0.605482 0.000000 -0.128135
# 5 0.000693 -0.000201 -0.003333 0.000000 0.025171 0.000000
# 6 0.000000 0.000000 0.000000 -0.128135 0.000000 0.119564
#
#
# Mechanical properties :
#
#
# Convention : Reuss Voigt Hill
#
# Bulk Modulus (GPa) = 28.97630 51.91519 40.44575
# Shear Modulus (GPa) = 6.10444 26.98185 16.54315
#
# Velocity S-wave (km/s) = 1.66063 3.49130 2.73376
# Velocity P-wave (km/s) = 4.09476 6.30120 5.31376
#
# Compressibility (1/GPa) = 0.03451096
#
# Stress axis : x y z
#
# Youngs Moduli (GPa) = 114.46234 40.53167 79.84310
#
# Poissons Ratio (x) = 0.02708 0.44469
# Poissons Ratio (y) = 0.07648 -0.04205
# Poissons Ratio (z) = 0.63751 -0.02135
#
# Static dielectric constant tensor:
#      x y z
#    x 1.813580 0.000000 -0.012940 
#    y 0.000000 1.837030 0.000000 
#    z -0.012940 0.000000 1.794010 
# 
# From -- ./inp_files/38299.got.cif
#   From: 2010.05.17/outbox.cif.g08.bks.cpg/sg11_20_cif.got.tgz:38299.got - 2010.06.03 12:22:45.
