data_PCOD9160783
_publ_section_title
;
Structure prediction by ZEFSAII (Michael W. Deem and Ramdas Pophale) SiO2 
 PCOD9160783
Probable space group: P 21/M
;
_chemical_formula_sum "Si O2"
_cell_formula_units_Z 26
_cell_length_a 8.096986
_cell_length_b 10.437858
_cell_length_c 14.419327
_cell_angle_alpha 90.000000
_cell_angle_beta 98.797164
_cell_angle_gamma 90.000000
_cell_volume 1204.315881
_symmetry_space_group_name_H-M "P 21/M"
_symmetry_group_IT_number 11
_symmetry_cell_setting 'monoclinic'
loop_
_space_group_symop_operation_xyz
x,y,z
-x,1/2+y,-z
-x,-y,-z
x,1/2-y,z
loop_
_atom_site_type_symbol
_atom_site_label
_atom_site_fract_x
_atom_site_fract_y
_atom_site_fract_z
Si Si1 0.259466 0.895918 0.526010
Si Si2 0.831041 0.999644 0.294773
Si Si3 0.133368 0.401528 0.206828
Si Si4 0.349314 0.607968 0.885298
Si Si5 0.617232 0.750000 0.320678
Si Si6 0.263304 0.103803 0.020742
Si Si7 0.595597 0.998149 0.637005
O O1 0.218456 0.750000 0.501114
O O2 0.271213 0.978967 0.434205
O O3 0.145695 0.947074 0.599515
O O4 0.447884 0.910340 0.583467
O O5 0.749662 0.861539 0.297979
O O6 0.696813 0.083905 0.225017
O O7 0.995690 0.015302 0.247638
O O8 0.098847 0.250000 0.217031
O O9 0.146910 0.426301 0.098320
O O10 0.309087 0.436065 0.269266
O O11 0.292324 0.750000 0.908206
O O12 0.546359 0.600431 0.923119
O O13 0.261778 0.498681 0.938953
O O14 0.487828 0.634762 0.344473
O O15 0.232359 0.250000 0.986364
#
# Coordination Sequence:
#
# PCOD9160783 Si02
#       7
#     4   4   4   4   2   4   4
#     4  10  19  37  62  88 116 163 213 263 304 365
#     4  11  24  39  62  89 131 168 204 255 323 383
#     4  11  23  42  62  95 127 170 206 257 319 389
#     4  10  20  39  62  94 120 167 218 264 309 375
#     4  10  22  42  58  94 120 162 214 262 306 372
#     4   9  20  38  63  90 125 160 215 266 315 366
#     4  10  21  37  64  90 120 159 214 266 307 360
#
# _framework density 21.589022
#
# number of rings (size 3 to 8) (size 9 to 14) (size 15 to 20)
#    0.000    1.846    0.769    3.692    1.077    3.077 
#    9.692    0.000    0.000    0.000    0.000    0.000 
#    0.000    0.000    0.000    0.000    0.000    0.000 
#
# Total GULP energy -144736.657814 kJ/mol
# GULP energy per Si atom -5566.794531 kJ/mol
# Density = 2.153988 g / cm^3
# Si number density = 21.589022 Si / 1000 Ang^3
#
#
#
# Elastic Constant Matrix: (Units=GPa)
#
#
# Indices 1 2 3 4 5 6 
#
# 1 68.6178 15.8497 21.8443 0.0000 -23.2096 0.0000
# 2 15.8497 65.1021 39.6156 0.0000 -24.6362 0.0000
# 3 21.8443 39.6156 92.0428 0.0000 -29.5463 0.0000
# 4 0.0000 0.0000 0.0000 22.1105 0.0000 -17.1526
# 5 -23.2096 -24.6362 -29.5463 0.0000 43.5883 0.0000
# 6 0.0000 0.0000 0.0000 -17.1526 0.0000 25.2621
#
#
#
# Elastic Compliance Matrix: (Units=1/GPa)
#
#
# Indices 1 2 3 4 5 6 
#
# 1 0.017945 -0.000322 -0.001421 0.000000 0.008410 0.000000
# 2 -0.000322 0.022792 -0.007225 0.000000 0.007813 0.000000
# 3 -0.001421 -0.007225 0.016306 0.000000 0.006213 0.000000
# 4 0.000000 0.000000 0.000000 0.095565 0.000000 0.064888
# 5 0.008410 0.007813 0.006213 0.000000 0.036048 0.000000
# 6 0.000000 0.000000 0.000000 0.064888 0.000000 0.083643
#
#
# Mechanical properties :
#
#
# Convention : Reuss Voigt Hill
#
# Bulk Modulus (GPa) = 25.57058 42.26464 33.91761
# Shear Modulus (GPa) = 16.48698 28.08905 22.28801
#
# Velocity S-wave (km/s) = 2.76646 3.61096 3.21655
# Velocity P-wave (km/s) = 4.69834 6.08316 5.43503
#
# Compressibility (1/GPa) = 0.03910745
#
# Stress axis : x y z
#
# Youngs Moduli (GPa) = 55.72648 43.87449 61.32786
#
# Poissons Ratio (x) = 0.01411 0.08712
# Poissons Ratio (y) = 0.01793 0.44312
# Poissons Ratio (z) = 0.07916 0.31701
#
# Static dielectric constant tensor:
#      x y z
#    x 1.836640 0.000000 -0.011710 
#    y 0.000000 1.728300 0.000000 
#    z -0.011710 0.000000 1.775650 
# 
# From -- ./inp_files/46781.got.cif
#   From: 2010.05.17/outbox.cif.g08.bks.cpg/sg11_24_cif.got.tgz:46781.got - 2010.06.03 12:22:45.
