data_PCOD9160340
_publ_section_title
;
Structure prediction by ZEFSAII (Michael W. Deem and Ramdas Pophale) SiO2 
 PCOD9160340
Probable space group: P 21/M
;
_chemical_formula_sum "Si O2"
_cell_formula_units_Z 28
_cell_length_a 16.642843
_cell_length_b 13.569293
_cell_length_c 9.608873
_cell_angle_alpha 90.000000
_cell_angle_beta 134.624241
_cell_angle_gamma 90.000000
_cell_volume 1544.442691
_symmetry_space_group_name_H-M "P 21/M"
_symmetry_group_IT_number 11
_symmetry_cell_setting 'monoclinic'
loop_
_space_group_symop_operation_xyz
x,y,z
-x,1/2+y,-z
-x,-y,-z
x,1/2-y,z
loop_
_atom_site_type_symbol
_atom_site_label
_atom_site_fract_x
_atom_site_fract_y
_atom_site_fract_z
Si Si1 0.755921 0.633824 0.970688
Si Si2 0.341910 0.458130 0.885299
Si Si3 0.457944 0.367241 0.495249
Si Si4 0.314382 0.866540 0.372931
Si Si5 0.872410 0.527258 0.876214
Si Si6 0.587993 0.134374 0.199083
Si Si7 0.293499 0.367802 0.529871
O O1 0.768512 0.750000 0.018309
O O2 0.641440 0.623348 0.739408
O O3 0.854489 0.593189 0.991969
O O4 0.739217 0.568740 0.087130
O O5 0.356591 0.571584 0.857953
O O6 0.302738 0.404406 0.697014
O O7 0.464266 0.412177 0.069778
O O8 0.475933 0.250000 0.532961
O O9 0.577124 0.405028 0.583172
O O10 0.403906 0.401610 0.574927
O O11 0.298622 0.750000 0.327095
O O12 0.344561 0.875820 0.573711
O O13 0.205602 0.930288 0.204186
O O14 0.813913 0.587858 0.679859
O O15 0.000000 0.500000 0.000000
O O16 0.577484 0.250000 0.154372
O O17 0.289440 0.250000 0.518521
#
# Coordination Sequence:
#
# PCOD9160340 Si02
#       7
#     4   4   4   4   4   4   4
#     4  10  20  37  61  86 117 150 185 238 297 357
#     4  11  20  34  58  89 118 158 190 230 292 365
#     4   8  16  31  52  82 115 144 179 228 285 346
#     4  10  19  35  58  83 116 154 191 238 296 353
#     4  11  24  40  56  82 109 153 206 249 284 335
#     4  10  20  33  53  87 129 158 184 231 295 363
#     4  10  20  35  58  87 118 148 190 243 289 342
#
# _framework density 18.129517
#
# number of rings (size 3 to 8) (size 9 to 14) (size 15 to 20)
#    0.000    2.000    2.857    2.571    0.000    5.714 
#    0.000    2.857    0.000    0.000    0.000    0.000 
#    0.000    0.000    0.000    0.000    0.000    0.000 
#
# Total GULP energy -156370.667735 kJ/mol
# GULP energy per Si atom -5584.666705 kJ/mol
# Density = 1.808825 g / cm^3
# Si number density = 18.129517 Si / 1000 Ang^3
#
#
#
# Elastic Constant Matrix: (Units=GPa)
#
#
# Indices 1 2 3 4 5 6 
#
# 1 102.5218 16.8128 37.7071 0.0000 11.5116 0.0000
# 2 16.8128 96.7732 10.0317 0.0000 9.6055 0.0000
# 3 37.7071 10.0317 38.9330 0.0000 -1.7467 0.0000
# 4 0.0000 0.0000 0.0000 23.3797 0.0000 -5.3393
# 5 11.5116 9.6055 -1.7467 0.0000 28.0616 0.0000
# 6 0.0000 0.0000 0.0000 -5.3393 0.0000 26.0902
#
#
#
# Elastic Compliance Matrix: (Units=1/GPa)
#
#
# Indices 1 2 3 4 5 6 
#
# 1 0.016747 -0.000435 -0.016455 0.000000 -0.007746 0.000000
# 2 -0.000435 0.011052 -0.002595 0.000000 -0.003766 0.000000
# 3 -0.016455 -0.002595 0.042753 0.000000 0.010300 0.000000
# 4 0.000000 0.000000 0.000000 0.044869 0.000000 0.009182
# 5 -0.007746 -0.003766 0.010300 0.000000 0.040744 0.000000
# 6 0.000000 0.000000 0.000000 0.009182 0.000000 0.040208
#
#
# Mechanical properties :
#
#
# Convention : Reuss Voigt Hill
#
# Bulk Modulus (GPa) = 31.66467 40.81458 36.23962
# Shear Modulus (GPa) = 20.33581 27.08471 23.71026
#
# Velocity S-wave (km/s) = 3.35281 3.86937 3.62031
# Velocity P-wave (km/s) = 5.70019 6.52107 6.12440
#
# Compressibility (1/GPa) = 0.03158094
#
# Stress axis : x y z
#
# Youngs Moduli (GPa) = 59.71103 90.48241 23.38997
#
# Poissons Ratio (x) = 0.03936 0.38489
# Poissons Ratio (y) = 0.02597 0.06071
# Poissons Ratio (z) = 0.98257 0.23484
#
# Static dielectric constant tensor:
#      x y z
#    x 1.623720 0.000000 -0.020060 
#    y 0.000000 1.675490 0.000000 
#    z -0.020060 0.000000 1.597770 
# 
# From -- ./inp_files/22103.got.cif
#   From: 2010.05.17/outbox.cif.g08.bks.cpg/sg11_12_cif.got.tgz:22103.got - 2010.06.03 12:22:45.
