data_PCOD9160636
_publ_section_title
;
Structure prediction by ZEFSAII (Michael W. Deem and Ramdas Pophale) SiO2 
 PCOD9160636
Probable space group: P 21/M
;
_chemical_formula_sum "Si O2"
_cell_formula_units_Z 28
_cell_length_a 16.053207
_cell_length_b 7.790727
_cell_length_c 19.873514
_cell_angle_alpha 90.000000
_cell_angle_beta 149.706850
_cell_angle_gamma 90.000000
_cell_volume 1253.748829
_symmetry_space_group_name_H-M "P 21/M"
_symmetry_group_IT_number 11
_symmetry_cell_setting 'monoclinic'
loop_
_space_group_symop_operation_xyz
x,y,z
-x,1/2+y,-z
-x,-y,-z
x,1/2-y,z
loop_
_atom_site_type_symbol
_atom_site_label
_atom_site_fract_x
_atom_site_fract_y
_atom_site_fract_z
Si Si1 0.373303 0.543696 0.352223
Si Si2 0.064979 0.949578 0.356686
Si Si3 0.876276 0.543019 0.353684
Si Si4 0.961430 0.038954 0.815032
Si Si5 0.509288 0.545272 0.084591
Si Si6 0.325635 0.051361 0.080858
Si Si7 0.571787 0.949052 0.362282
O O1 0.500000 0.500000 0.500000
O O2 0.361113 0.750000 0.338454
O O3 0.192403 0.480042 0.247337
O O4 0.453282 0.480518 0.338693
O O5 0.018580 0.750000 0.317595
O O6 0.060336 0.020127 0.277614
O O7 0.946817 0.025290 0.331760
O O8 0.252131 0.960156 0.514243
O O9 0.870020 0.750000 0.344734
O O10 0.689447 0.483903 0.235358
O O11 0.000000 0.500000 0.500000
O O12 0.959523 0.250000 0.813514
O O13 0.141706 0.984141 0.965699
O O14 0.497855 0.750000 0.084258
O O15 0.367044 0.464423 0.030886
O O16 0.500000 0.500000 0.000000
O O17 0.331016 0.250000 0.104118
O O18 0.469514 0.960330 0.222498
O O19 0.608335 0.750000 0.402386
#
# Coordination Sequence:
#
# PCOD9160636 Si02
#       7
#     4   4   4   4   4   4   4
#     4  10  20  37  61  87 117 151 192 241 294 348
#     4  10  19  36  61  83 107 148 197 237 285 350
#     4  10  22  37  56  83 113 149 193 240 287 342
#     4   9  19  37  61  85 112 149 196 244 288 345
#     4  11  23  41  63  88 120 156 196 243 294 349
#     4  11  23  40  61  86 117 158 201 239 289 349
#     4  11  23  37  56  88 124 153 188 242 297 348
#
# _framework density 22.333020999999999
#
# number of rings (size 3 to 8) (size 9 to 14) (size 15 to 20)
#    0.000    1.714    1.429    3.000    0.000    7.429 
#    0.000    4.286    0.000    0.000    0.000    0.000 
#    0.000    0.000    0.000    0.000    0.000    0.000 
#
# Total GULP energy -156535.808931 kJ/mol
# GULP energy per Si atom -5590.564605 kJ/mol
# Density = 2.228219 g / cm^3
# Si number density = 22.333021 Si / 1000 Ang^3
#
#
#
# Elastic Constant Matrix: (Units=GPa)
#
#
# Indices 1 2 3 4 5 6 
#
# 1 78.6372 -2.9909 -8.9048 0.0000 19.1052 0.0000
# 2 -2.9909 35.5933 -4.3762 0.0000 5.5414 0.0000
# 3 -8.9048 -4.3762 73.5483 0.0000 16.1927 0.0000
# 4 0.0000 0.0000 0.0000 14.3284 0.0000 -6.9525
# 5 19.1052 5.5414 16.1927 0.0000 43.5010 0.0000
# 6 0.0000 0.0000 0.0000 -6.9525 0.0000 15.8365
#
#
#
# Elastic Compliance Matrix: (Units=1/GPa)
#
#
# Indices 1 2 3 4 5 6 
#
# 1 0.015376 0.003119 0.003945 0.000000 -0.008619 0.000000
# 2 0.003119 0.029810 0.003583 0.000000 -0.006501 0.000000
# 3 0.003945 0.003583 0.016088 0.000000 -0.008177 0.000000
# 4 0.000000 0.000000 0.000000 0.088683 0.000000 0.038933
# 5 -0.008619 -0.006501 -0.008177 0.000000 0.030645 0.000000
# 6 0.000000 0.000000 0.000000 0.038933 0.000000 0.080238
#
#
# Mechanical properties :
#
#
# Convention : Reuss Voigt Hill
#
# Bulk Modulus (GPa) = 12.11161 17.24833 14.67997
# Shear Modulus (GPa) = 18.72179 28.33657 23.52918
#
# Velocity S-wave (km/s) = 2.89848 3.56591 3.24938
# Velocity P-wave (km/s) = 4.07879 4.96934 4.54593
#
# Compressibility (1/GPa) = 0.08256539
#
# Stress axis : x y z
#
# Youngs Moduli (GPa) = 65.03694 33.54608 62.15958
#
# Poissons Ratio (x) = -0.10462 -0.24520
# Poissons Ratio (y) = -0.20284 -0.22269
# Poissons Ratio (z) = -0.25655 -0.12018
#
# Static dielectric constant tensor:
#      x y z
#    x 1.856410 0.000000 0.005840 
#    y 0.000000 1.863390 0.000000 
#    z 0.005840 0.000000 1.801430 
# 
# From -- ./inp_files/65443.got.cif
#   From: 2010.05.17/outbox.cif.g08.bks.cpg/sg11_33_cif.got.tgz:65443.got - 2010.06.03 12:22:45.
