data_PCOD9160763
_publ_section_title
;
Structure prediction by ZEFSAII (Michael W. Deem and Ramdas Pophale) SiO2 
 PCOD9160763
Probable space group: P 21/M
;
_chemical_formula_sum "Si O2"
_cell_formula_units_Z 20
_cell_length_a 5.241688
_cell_length_b 27.255771
_cell_length_c 7.020994
_cell_angle_alpha 90.000000
_cell_angle_beta 103.945917
_cell_angle_gamma 90.000000
_cell_volume 973.496431
_symmetry_space_group_name_H-M "P 21/M"
_symmetry_group_IT_number 11
_symmetry_cell_setting 'monoclinic'
loop_
_space_group_symop_operation_xyz
x,y,z
-x,1/2+y,-z
-x,-y,-z
x,1/2-y,z
loop_
_atom_site_type_symbol
_atom_site_label
_atom_site_fract_x
_atom_site_fract_y
_atom_site_fract_z
Si Si1 0.305524 0.559792 0.638715
Si Si2 0.871442 0.692137 0.542267
Si Si3 0.312839 0.857580 0.360360
Si Si4 0.133363 0.035198 0.176445
Si Si5 0.874767 0.133644 0.092638
O O1 0.299570 0.586138 0.433979
O O2 0.313189 0.606065 0.788900
O O3 0.562530 0.527782 0.723318
O O4 0.039648 0.534457 0.662413
O O5 0.837061 0.750000 0.516674
O O6 0.596015 0.664326 0.464522
O O7 0.989466 0.677648 0.769613
O O8 0.265994 0.853934 0.127489
O O9 0.081315 0.828479 0.427320
O O10 0.088769 0.090784 0.093582
O O11 0.000000 0.000000 0.000000
#
# Coordination Sequence:
#
# PCOD9160763 Si02
#       5
#     4   4   4   4   4
#     4   9  19  37  56  85 118 154 187 243 282 342
#     4  11  24  40  59  87 119 149 197 247 290 349
#     4  11  21  40  62  85 116 157 193 237 301 343
#     4  10  19  37  61  85 119 157 191 240 291 342
#     4   9  23  37  65  81 122 155 192 239 297 346
#
# _framework density 20.544504
#
# number of rings (size 3 to 8) (size 9 to 14) (size 15 to 20)
#    1.200    0.800    2.000    1.200    2.800    1.600 
#    0.000    2.000    0.000    0.000    0.000    0.000 
#    0.000    0.000    0.000    0.000    0.000    0.000 
#
# Total GULP energy -111545.760857 kJ/mol
# GULP energy per Si atom -5577.288043 kJ/mol
# Density = 2.049774 g / cm^3
# Si number density = 20.544504 Si / 1000 Ang^3
#
#
#
# Elastic Constant Matrix: (Units=GPa)
#
#
# Indices 1 2 3 4 5 6 
#
# 1 479.4567 220.6539 126.4281 0.0000 218.7921 0.0000
# 2 220.6539 179.2903 80.5503 0.0000 127.0922 0.0000
# 3 126.4281 80.5503 161.6668 0.0000 75.9124 0.0000
# 4 0.0000 0.0000 0.0000 19.4153 0.0000 -17.4022
# 5 218.7921 127.0922 75.9124 0.0000 146.9185 0.0000
# 6 0.0000 0.0000 0.0000 -17.4022 0.0000 91.2290
#
#
#
# Elastic Compliance Matrix: (Units=1/GPa)
#
#
# Indices 1 2 3 4 5 6 
#
# 1 0.007191 -0.003169 -0.000401 0.000000 -0.007761 0.000000
# 2 -0.003169 0.016202 -0.001623 0.000000 -0.008458 0.000000
# 3 -0.000401 -0.001623 0.008408 0.000000 -0.002344 0.000000
# 4 0.000000 0.000000 0.000000 0.062128 0.000000 0.011851
# 5 -0.007761 -0.008458 -0.002344 0.000000 0.026893 0.000000
# 6 0.000000 0.000000 0.000000 0.011851 0.000000 0.013222
#
#
# Mechanical properties :
#
#
# Convention : Reuss Voigt Hill
#
# Bulk Modulus (GPa) = 46.69218 186.18650 116.43934
# Shear Modulus (GPa) = 32.98839 77.69800 55.34319
#
# Velocity S-wave (km/s) = 4.01147 6.15642 5.19583
# Velocity P-wave (km/s) = 6.65075 11.88941 9.63303
#
# Compressibility (1/GPa) = 0.02141686
#
# Stress axis : x y z
#
# Youngs Moduli (GPa) = 139.05392 61.71935 118.93292
#
# Poissons Ratio (x) = 0.19558 0.04765
# Poissons Ratio (y) = 0.44064 0.19303
# Poissons Ratio (z) = 0.05571 0.10017
#
# Static dielectric constant tensor:
#      x y z
#    x 1.723990 0.000000 -0.011820 
#    y 0.000000 1.753880 0.000000 
#    z -0.011820 0.000000 1.730050 
# 
# From -- ./inp_files/1010.got.cif
#   From: 2010.05.17/outbox.cif.g08.bks.cpg/sg11_1_cif.got.tgz:1010.got - 2010.06.03 12:22:45.
