data_PCOD9160450
_publ_section_title
;
Structure prediction by ZEFSAII (Michael W. Deem and Ramdas Pophale) SiO2 
 PCOD9160450
Probable space group: P 21/M
;
_chemical_formula_sum "Si O2"
_cell_formula_units_Z 20
_cell_length_a 12.786944
_cell_length_b 10.494542
_cell_length_c 8.599952
_cell_angle_alpha 90.000000
_cell_angle_beta 124.831555
_cell_angle_gamma 90.000000
_cell_volume 947.287977
_symmetry_space_group_name_H-M "P 21/M"
_symmetry_group_IT_number 11
_symmetry_cell_setting 'monoclinic'
loop_
_space_group_symop_operation_xyz
x,y,z
-x,1/2+y,-z
-x,-y,-z
x,1/2-y,z
loop_
_atom_site_type_symbol
_atom_site_label
_atom_site_fract_x
_atom_site_fract_y
_atom_site_fract_z
Si Si1 0.802764 0.015190 0.948064
Si Si2 0.368972 0.250000 0.686046
Si Si3 0.848669 0.250000 0.439211
Si Si4 0.665100 0.250000 0.005454
Si Si5 0.071381 0.527795 0.272076
Si Si6 0.902028 0.750000 0.562862
Si Si7 0.593139 0.884688 0.583365
O O1 0.875036 0.062843 0.853021
O O2 0.705043 0.911847 0.798212
O O3 0.723432 0.126474 0.965683
O O4 0.917774 0.958050 0.146777
O O5 0.230951 0.250000 0.647894
O O6 0.363381 0.366448 0.557915
O O7 0.510434 0.250000 0.877040
O O8 0.971747 0.250000 0.432024
O O9 0.724077 0.250000 0.226937
O O10 0.861284 0.122952 0.552226
O O11 0.092326 0.378659 0.329361
O O12 0.528366 0.750000 0.566626
O O13 0.500000 0.000000 0.500000
#
# Coordination Sequence:
#
# PCOD9160450 Si02
#       7
#     4   2   2   2   4   2   4
#     4  11  21  38  70 100 126 163 223 276 326 378
#     4  10  22  38  64  90 132 172 214 264 321 385
#     4  12  27  43  66  94 135 175 217 263 333 395
#     4  12  23  41  67  98 136 175 214 269 331 389
#     4  11  24  41  68  98 129 166 222 274 327 386
#     4  12  22  44  65  88 131 182 209 268 323 391
#     4  10  19  35  60  94 130 165 205 269 328 377
#
# _framework density 21.112904
#
# number of rings (size 3 to 8) (size 9 to 14) (size 15 to 20)
#    0.600    0.400    6.000    1.200    1.400    1.600 
#    0.000    1.000    4.400    0.000    0.000    0.000 
#    0.000    0.000    0.000    0.000    0.000    0.000 
#
# Total GULP energy -111529.657038 kJ/mol
# GULP energy per Si atom -5576.482852 kJ/mol
# Density = 2.106485 g / cm^3
# Si number density = 21.112904 Si / 1000 Ang^3
#
#
#
# Elastic Constant Matrix: (Units=GPa)
#
#
# Indices 1 2 3 4 5 6 
#
# 1 25.6860 -0.3784 22.5522 0.0000 27.2497 0.0000
# 2 -0.3784 110.0212 52.0935 0.0000 15.5907 0.0000
# 3 22.5522 52.0935 144.3400 0.0000 32.5726 0.0000
# 4 0.0000 0.0000 0.0000 -5.6388 0.0000 -15.7634
# 5 27.2497 15.5907 32.5726 0.0000 38.2256 0.0000
# 6 0.0000 0.0000 0.0000 -15.7634 0.0000 -2.1116
#
#
#
# Elastic Compliance Matrix: (Units=1/GPa)
#
#
# Indices 1 2 3 4 5 6 
#
# 1 0.205883 0.025570 -0.007333 0.000000 -0.150947 0.000000
# 2 0.025570 0.014196 -0.004579 0.000000 -0.020116 0.000000
# 3 -0.007333 -0.004579 0.010060 0.000000 -0.001477 0.000000
# 4 0.000000 0.000000 0.000000 0.008926 0.000000 -0.066631
# 5 -0.150947 -0.020116 -0.001477 0.000000 0.143229 0.000000
# 6 0.000000 0.000000 0.000000 -0.066631 0.000000 0.023835
#
#
# Mechanical properties :
#
#
# Convention : Reuss Voigt Hill
#
# Bulk Modulus (GPa) = 3.88416 47.62021 25.75219
# Shear Modulus (GPa) = 10.76125 19.81368 15.28747
#
# Velocity S-wave (km/s) = 2.26010 3.06676 2.69380
# Velocity P-wave (km/s) = 2.94185 5.92824 4.67966
#
# Compressibility (1/GPa) = 0.25745565
#
# Stress axis : x y z
#
# Youngs Moduli (GPa) = 4.85712 70.44325 99.40595
#
# Poissons Ratio (x) = -1.80126 0.72893
# Poissons Ratio (y) = -0.12420 0.45519
# Poissons Ratio (z) = 0.03562 0.32256
#
# Static dielectric constant tensor:
#      x y z
#    x 1.788290 0.000000 0.015610 
#    y 0.000000 1.968970 0.000000 
#    z 0.015610 0.000000 1.791350 
# 
# From -- ./inp_files/21074.got.cif
#   From: 2010.05.17/outbox.cif.g08.bks.cpg/sg11_11_cif.got.tgz:21074.got - 2010.06.03 12:22:45.
