data_PCOD9160187
_publ_section_title
;
Structure prediction by ZEFSAII (Michael W. Deem and Ramdas Pophale) SiO2 
 PCOD9160187
Probable space group: P 21/M
;
_chemical_formula_sum "Si O2"
_cell_formula_units_Z 32
_cell_length_a 21.463873
_cell_length_b 20.193063
_cell_length_c 15.533687
_cell_angle_alpha 90.000000
_cell_angle_beta 164.998775
_cell_angle_gamma 90.000000
_cell_volume 1742.672278
_symmetry_space_group_name_H-M "P 21/M"
_symmetry_group_IT_number 11
_symmetry_cell_setting 'monoclinic'
loop_
_space_group_symop_operation_xyz
x,y,z
-x,1/2+y,-z
-x,-y,-z
x,1/2-y,z
loop_
_atom_site_type_symbol
_atom_site_label
_atom_site_fract_x
_atom_site_fract_y
_atom_site_fract_z
Si Si1 0.759009 0.172219 0.356634
Si Si2 0.258813 0.586268 0.338276
Si Si3 0.092157 0.099501 0.677296
Si Si4 0.587690 0.173376 0.316212
Si Si5 0.898941 0.979399 0.730440
Si Si6 0.622157 0.935187 0.205420
Si Si7 0.331787 0.012185 0.194615
Si Si8 0.883505 0.054665 0.233875
O O1 0.730820 0.250000 0.301294
O O2 0.746723 0.162994 0.443105
O O3 0.993435 0.143708 0.622962
O O4 0.544310 0.127589 0.032377
O O5 0.268505 0.653008 0.405984
O O6 0.197285 0.530088 0.327181
O O7 0.529054 0.572136 0.665137
O O8 0.067578 0.573575 0.006364
O O9 0.899529 0.097971 0.341235
O O10 0.068321 0.016826 0.885770
O O11 0.350581 0.127138 0.992985
O O12 0.104695 0.022845 0.722737
O O13 0.513620 0.250000 0.219572
O O14 0.684339 0.948835 0.388051
O O15 0.874251 0.926307 0.493172
O O16 0.500000 0.000000 0.000000
O O17 0.500000 0.000000 0.500000
O O18 0.321431 0.950911 0.112813
#
# Coordination Sequence:
#
# PCOD9160187 Si02
#       8
#     4   4   4   4   4   4   4   4
#     4  11  24  38  53  78 113 151 183 227 286 334
#     4  10  19  35  54  77 109 142 174 229 275 323
#     4  11  21  35  54  82 111 139 180 232 278 333
#     4  11  23  37  55  77 108 151 191 227 271 336
#     4   9  21  32  53  85 109 135 177 227 281 323
#     4  11  19  34  57  83 114 143 181 230 276 336
#     4   9  18  33  51  79 113 134 167 220 282 327
#     4  10  20  31  55  88 106 137 179 228 282 324
#
# _framework density 18.362604000000001
#
# number of rings (size 3 to 8) (size 9 to 14) (size 15 to 20)
#    0.000    1.750    3.750    1.125    3.500    0.000 
#    0.000    0.625    0.000    0.000    0.000    0.000 
#    0.000    0.000    0.000    0.000    0.000    0.000 
#
# Total GULP energy -178328.357921 kJ/mol
# GULP energy per Si atom -5572.761185 kJ/mol
# Density = 1.832081 g / cm^3
# Si number density = 18.362604 Si / 1000 Ang^3
#
#
#
# Elastic Constant Matrix: (Units=GPa)
#
#
# Indices 1 2 3 4 5 6 
#
# 1 86.1496 24.1866 15.6364 0.0000 -11.4665 0.0000
# 2 24.1866 65.5202 17.0524 0.0000 -5.2936 0.0000
# 3 15.6364 17.0524 76.4675 0.0000 -23.9345 0.0000
# 4 0.0000 0.0000 0.0000 15.2382 0.0000 -2.5610
# 5 -11.4665 -5.2936 -23.9345 0.0000 33.2801 0.0000
# 6 0.0000 0.0000 0.0000 -2.5610 0.0000 25.5022
#
#
#
# Elastic Compliance Matrix: (Units=1/GPa)
#
#
# Indices 1 2 3 4 5 6 
#
# 1 0.013454 -0.004515 -0.000669 0.000000 0.003436 0.000000
# 2 -0.004515 0.017718 -0.003397 0.000000 -0.001181 0.000000
# 3 -0.000669 -0.003397 0.017719 0.000000 0.011973 0.000000
# 4 0.000000 0.000000 0.000000 0.066751 0.000000 0.006703
# 5 0.003436 -0.001181 0.011973 0.000000 0.039655 0.000000
# 6 0.000000 0.000000 0.000000 0.006703 0.000000 0.039885
#
#
# Mechanical properties :
#
#
# Convention : Reuss Voigt Hill
#
# Bulk Modulus (GPa) = 31.51669 37.98757 34.75213
# Shear Modulus (GPa) = 22.42946 26.22156 24.32551
#
# Velocity S-wave (km/s) = 3.49875 3.78297 3.64363
# Velocity P-wave (km/s) = 5.78986 6.30980 6.05541
#
# Compressibility (1/GPa) = 0.03172922
#
# Stress axis : x y z
#
# Youngs Moduli (GPa) = 74.32722 56.43995 56.43571
#
# Poissons Ratio (x) = 0.25482 0.03774
# Poissons Ratio (y) = 0.33558 0.19174
# Poissons Ratio (z) = 0.04970 0.19175
#
# Static dielectric constant tensor:
#      x y z
#    x 1.738510 0.000000 0.000740 
#    y 0.000000 1.597590 0.000000 
#    z 0.000740 0.000000 1.713810 
# 
# From -- ./inp_files/41967.got.cif
#   From: 2010.05.17/outbox.cif.g08.bks.cpg/sg11_21_cif.got.tgz:41967.got - 2010.06.03 12:22:45.
