data_PCOD9160456
_publ_section_title
;
Structure prediction by ZEFSAII (Michael W. Deem and Ramdas Pophale) SiO2 
 PCOD9160456
Probable space group: P 21/M
;
_chemical_formula_sum "Si O2"
_cell_formula_units_Z 32
_cell_length_a 7.708528
_cell_length_b 28.946351
_cell_length_c 9.619615
_cell_angle_alpha 90.000000
_cell_angle_beta 37.960117
_cell_angle_gamma 90.000000
_cell_volume 1320.315536
_symmetry_space_group_name_H-M "P 21/M"
_symmetry_group_IT_number 11
_symmetry_cell_setting 'monoclinic'
loop_
_space_group_symop_operation_xyz
x,y,z
-x,1/2+y,-z
-x,-y,-z
x,1/2-y,z
loop_
_atom_site_type_symbol
_atom_site_label
_atom_site_fract_x
_atom_site_fract_y
_atom_site_fract_z
Si Si1 0.329350 0.121592 0.528699
Si Si2 0.149149 0.520847 0.571330
Si Si3 0.800057 0.607754 0.793803
Si Si4 0.752934 0.199078 0.217568
Si Si5 0.326199 0.966638 0.774955
Si Si6 0.688527 0.649066 0.155015
Si Si7 0.182016 0.566501 0.151515
Si Si8 0.117725 0.802657 0.532066
O O1 0.493391 0.164735 0.362469
O O2 0.468790 0.076010 0.381966
O O3 0.386376 0.122450 0.657670
O O4 0.003214 0.112236 0.706364
O O5 0.459736 0.507781 0.319951
O O6 0.187581 0.524381 0.714560
O O7 0.031650 0.570325 0.602794
O O8 0.927123 0.478253 0.692793
O O9 0.880665 0.657093 0.673773
O O10 0.800571 0.618093 0.958629
O O11 0.503289 0.582363 0.958213
O O12 0.686238 0.250000 0.209616
O O13 0.814136 0.200430 0.345103
O O14 0.047200 0.181274 0.969332
O O15 0.136061 0.949490 0.020644
O O16 0.413596 0.678256 0.282712
O O17 0.051062 0.750000 0.528164
#
# Coordination Sequence:
#
# PCOD9160456 Si02
#       8
#     4   4   4   4   4   4   4   4
#     4  10  20  36  56  81 111 148 190 233 282 340
#     4  10  21  37  57  85 112 148 195 236 284 335
#     4  11  23  37  57  87 118 151 188 232 283 339
#     4   9  17  31  55  86 112 137 183 243 293 338
#     4  10  21  38  59  81 111 152 196 239 283 335
#     4  10  19  35  61  84 111 144 186 237 289 338
#     4  11  23  37  56  81 119 157 189 230 281 339
#     4   9  19  35  57  85 114 146 186 232 283 339
#
# _framework density 24.236630999999999
#
# number of rings (size 3 to 8) (size 9 to 14) (size 15 to 20)
#    0.000    2.000    0.000    4.875    0.000    6.500 
#    0.000    0.625    0.000    3.750    0.000    0.000 
#    0.000    0.000    0.000    0.000    0.000    0.000 
#
# Total GULP energy -178913.095179 kJ/mol
# GULP energy per Si atom -5591.034224 kJ/mol
# Density = 2.418147 g / cm^3
# Si number density = 24.236631 Si / 1000 Ang^3
#
#
#
# Elastic Constant Matrix: (Units=GPa)
#
#
# Indices 1 2 3 4 5 6 
#
# 1 46.2067 18.4732 -2.9792 0.0000 -3.9653 0.0000
# 2 18.4732 124.3677 41.0588 0.0000 -23.2806 0.0000
# 3 -2.9792 41.0588 75.1532 0.0000 -9.1431 0.0000
# 4 0.0000 0.0000 0.0000 27.0763 0.0000 -4.9473
# 5 -3.9653 -23.2806 -9.1431 0.0000 33.5899 0.0000
# 6 0.0000 0.0000 0.0000 -4.9473 0.0000 14.9288
#
#
#
# Elastic Compliance Matrix: (Units=1/GPa)
#
#
# Indices 1 2 3 4 5 6 
#
# 1 0.023749 -0.004578 0.003514 0.000000 0.000587 0.000000
# 2 -0.004578 0.011795 -0.005892 0.000000 0.006031 0.000000
# 3 0.003514 -0.005892 0.016773 0.000000 0.000897 0.000000
# 4 0.000000 0.000000 0.000000 0.039313 0.000000 0.013028
# 5 0.000587 0.006031 0.000897 0.000000 0.034264 0.000000
# 6 0.000000 0.000000 0.000000 0.013028 0.000000 0.071302
#
#
# Mechanical properties :
#
#
# Convention : Reuss Voigt Hill
#
# Bulk Modulus (GPa) = 26.03758 39.87037 32.95397
# Shear Modulus (GPa) = 22.33048 27.73063 25.03056
#
# Velocity S-wave (km/s) = 3.03867 3.38622 3.21714
# Velocity P-wave (km/s) = 4.80393 5.63691 5.23701
#
# Compressibility (1/GPa) = 0.03840603
#
# Stress axis : x y z
#
# Youngs Moduli (GPa) = 42.10703 84.78495 59.61841
#
# Poissons Ratio (x) = 0.38812 -0.20949
# Poissons Ratio (y) = 0.19276 0.35125
# Poissons Ratio (z) = -0.14796 0.49952
#
# Static dielectric constant tensor:
#      x y z
#    x 1.965910 0.000000 -0.020960 
#    y 0.000000 1.928360 0.000000 
#    z -0.020960 0.000000 1.994670 
# 
# From -- ./inp_files/33189.got.cif
#   From: 2010.05.17/outbox.cif.g08.bks.cpg/sg11_17_cif.got.tgz:33189.got - 2010.06.03 12:22:45.
