data_PCOD9160895
_publ_section_title
;
Structure prediction by ZEFSAII (Michael W. Deem and Ramdas Pophale) SiO2 
 PCOD9160895
Probable space group: P 21/M
;
_chemical_formula_sum "Si O2"
_cell_formula_units_Z 26
_cell_length_a 8.158007
_cell_length_b 22.843600
_cell_length_c 5.046226
_cell_angle_alpha 90.000000
_cell_angle_beta 86.018792
_cell_angle_gamma 90.000000
_cell_volume 938.136524
_symmetry_space_group_name_H-M "P 21/M"
_symmetry_group_IT_number 11
_symmetry_cell_setting 'monoclinic'
loop_
_space_group_symop_operation_xyz
x,y,z
-x,1/2+y,-z
-x,-y,-z
x,1/2-y,z
loop_
_atom_site_type_symbol
_atom_site_label
_atom_site_fract_x
_atom_site_fract_y
_atom_site_fract_z
Si Si1 0.672696 0.682131 0.438686
Si Si2 0.112449 0.843683 0.813181
Si Si3 0.860862 0.750000 0.668978
Si Si4 0.801971 0.445892 0.576031
Si Si5 0.113741 0.085761 0.814333
Si Si6 0.619015 0.542226 0.818125
Si Si7 0.417068 0.855906 0.051082
O O1 0.762736 0.750000 0.363395
O O2 0.759419 0.620544 0.383588
O O3 0.517568 0.678181 0.267673
O O4 0.710931 0.698386 0.736847
O O5 0.005005 0.801238 0.647639
O O6 0.154453 0.906622 0.680386
O O7 0.285062 0.819447 0.898723
O O8 0.991106 0.859537 0.064299
O O9 0.689270 0.503636 0.565252
O O10 0.692736 0.402299 0.769012
O O11 0.977561 0.454940 0.697955
O O12 0.218981 0.055039 0.027236
O O13 0.518146 0.602949 0.831790
O O14 0.500000 0.500000 0.000000
#
# Coordination Sequence:
#
# PCOD9160895 Si02
#       7
#     4   4   2   4   4   4   4
#     4   9  19  40  58  81 115 155 200 247 300 349
#     4  11  23  38  59  90 121 155 206 245 299 360
#     4  10  22  38  62  86 112 166 202 242 308 352
#     4  10  19  39  60  88 121 161 193 249 290 368
#     4  10  20  38  61  88 122 156 202 249 294 359
#     4   9  19  38  64  88 122 164 194 241 310 353
#     4   9  21  39  59  89 121 152 198 250 300 353
#
# _framework density 27.714518999999999
#
# number of rings (size 3 to 8) (size 9 to 14) (size 15 to 20)
#    0.462    1.846    1.538    0.462    2.154    1.231 
#    6.923    0.000    0.000    0.000    0.000    0.000 
#    0.000    0.000    0.000    0.000    0.000    0.000 
#
# Total GULP energy -144791.653546 kJ/mol
# GULP energy per Si atom -5568.909752 kJ/mol
# Density = 2.765144 g / cm^3
# Si number density = 27.714519 Si / 1000 Ang^3
#
#
#
# Elastic Constant Matrix: (Units=GPa)
#
#
# Indices 1 2 3 4 5 6 
#
# 1 192.0506 52.5363 35.9764 0.0000 59.0939 0.0000
# 2 52.5363 147.2759 11.9038 0.0000 17.2212 0.0000
# 3 35.9764 11.9038 62.4022 0.0000 11.1368 0.0000
# 4 0.0000 0.0000 0.0000 8.2338 0.0000 1.0402
# 5 59.0939 17.2212 11.1368 0.0000 60.4842 0.0000
# 6 0.0000 0.0000 0.0000 1.0402 0.0000 0.5716
#
#
#
# Elastic Compliance Matrix: (Units=1/GPa)
#
#
# Indices 1 2 3 4 5 6 
#
# 1 0.008577 -0.001950 -0.003284 0.000000 -0.007220 0.000000
# 2 -0.001950 0.007530 -0.000279 0.000000 -0.000188 0.000000
# 3 -0.003284 -0.000279 0.017976 0.000000 -0.000021 0.000000
# 4 0.000000 0.000000 0.000000 0.157712 0.000000 -0.287018
# 5 -0.007220 -0.000188 -0.000021 0.000000 0.023645 0.000000
# 6 0.000000 0.000000 0.000000 -0.287018 0.000000 2.271848
#
#
# Mechanical properties :
#
#
# Convention : Reuss Voigt Hill
#
# Bulk Modulus (GPa) = 43.37157 66.95131 55.16144
# Shear Modulus (GPa) = 1.99521 33.94540 17.97031
#
# Velocity S-wave (km/s) = 0.84940 3.50354 2.54915
# Velocity P-wave (km/s) = 4.07987 6.36996 5.34891
#
# Compressibility (1/GPa) = 0.02305658
#
# Stress axis : x y z
#
# Youngs Moduli (GPa) = 116.58681 132.80170 55.63079
#
# Poissons Ratio (x) = 0.25896 0.18272
# Poissons Ratio (y) = 0.22734 0.01551
# Poissons Ratio (z) = 0.38293 0.03702
#
# Static dielectric constant tensor:
#      x y z
#    x 2.233680 0.000000 -0.101360 
#    y 0.000000 2.538520 0.000000 
#    z -0.101360 0.000000 2.214460 
# 
# From -- ./inp_files/3020.got.cif
#   From: 2010.05.17/outbox.cif.g08.bks.cpg/sg11_2_cif.got.tgz:3020.got - 2010.06.03 12:22:45.
