data_PCOD9160915
_publ_section_title
;
Structure prediction by ZEFSAII (Michael W. Deem and Ramdas Pophale) SiO2 
 PCOD9160915
Probable space group: P 21/M
;
_chemical_formula_sum "Si O2"
_cell_formula_units_Z 24
_cell_length_a 8.358516
_cell_length_b 18.111326
_cell_length_c 7.445721
_cell_angle_alpha 90.000000
_cell_angle_beta 91.045070
_cell_angle_gamma 90.000000
_cell_volume 1126.974104
_symmetry_space_group_name_H-M "P 21/M"
_symmetry_group_IT_number 11
_symmetry_cell_setting 'monoclinic'
loop_
_space_group_symop_operation_xyz
x,y,z
-x,1/2+y,-z
-x,-y,-z
x,1/2-y,z
loop_
_atom_site_type_symbol
_atom_site_label
_atom_site_fract_x
_atom_site_fract_y
_atom_site_fract_z
Si Si1 0.653199 0.552598 0.872199
Si Si2 0.799123 0.831552 0.598636
Si Si3 0.370809 0.536140 0.631679
Si Si4 0.804562 0.900953 0.244147
Si Si5 0.110044 0.570204 0.062765
Si Si6 0.168469 0.835926 0.704287
O O1 0.721924 0.606574 0.720806
O O2 0.468252 0.543593 0.820769
O O3 0.738896 0.472946 0.855146
O O4 0.701850 0.591464 0.060179
O O5 0.755362 0.750000 0.662443
O O6 0.750911 0.842831 0.390997
O O7 0.990918 0.839465 0.617572
O O8 0.500000 0.500000 0.500000
O O9 0.224892 0.479703 0.658607
O O10 0.295290 0.615857 0.593549
O O11 0.988971 0.889336 0.194590
O O12 0.152034 0.622937 0.897390
O O13 0.000000 0.500000 0.000000
O O14 0.213166 0.750000 0.723461
#
# Coordination Sequence:
#
# PCOD9160915 Si02
#       6
#     4   4   4   4   4   4
#     4  11  22  41  67  95 131 174 222 271 329 398
#     4  11  24  41  64  97 133 173 224 284 336 384
#     4  12  24  40  67  98 135 179 219 268 332 408
#     4  11  22  40  67  97 126 172 225 271 322 398
#     4  10  19  39  70  95 121 169 226 271 329 386
#     4  11  24  44  66  97 134 172 222 285 342 391
#
# _framework density 21.295964999999999
#
# number of rings (size 3 to 8) (size 9 to 14) (size 15 to 20)
#    0.000    1.000    8.333    0.500    2.333    3.333 
#    0.000    0.000    0.000    0.000    0.000    0.000 
#    0.000    0.000    0.000    0.000    0.000    0.000 
#
# Total GULP energy -133969.753174 kJ/mol
# GULP energy per Si atom -5582.073049 kJ/mol
# Density = 2.124749 g / cm^3
# Si number density = 21.295965 Si / 1000 Ang^3
#
#
#
# Elastic Constant Matrix: (Units=GPa)
#
#
# Indices 1 2 3 4 5 6 
#
# 1 68.3260 31.3061 12.5606 0.0000 -9.7872 0.0000
# 2 31.3061 108.2856 35.9334 0.0000 -11.8282 0.0000
# 3 12.5606 35.9334 99.4327 0.0000 -17.5451 0.0000
# 4 0.0000 0.0000 0.0000 27.9049 0.0000 -3.4928
# 5 -9.7872 -11.8282 -17.5451 0.0000 37.0412 0.0000
# 6 0.0000 0.0000 0.0000 -3.4928 0.0000 26.8721
#
#
#
# Elastic Compliance Matrix: (Units=1/GPa)
#
#
# Indices 1 2 3 4 5 6 
#
# 1 0.017200 -0.004653 0.000053 0.000000 0.003084 0.000000
# 2 -0.004653 0.011851 -0.003540 0.000000 0.000878 0.000000
# 3 0.000053 -0.003540 0.012148 0.000000 0.004638 0.000000
# 4 0.000000 0.000000 0.000000 0.036429 0.000000 0.004735
# 5 0.003084 0.000878 0.004638 0.000000 0.030289 0.000000
# 6 0.000000 0.000000 0.000000 0.004735 0.000000 0.037829
#
#
# Mechanical properties :
#
#
# Convention : Reuss Voigt Hill
#
# Bulk Modulus (GPa) = 40.13153 48.40496 44.26824
# Shear Modulus (GPa) = 29.35458 31.44659 30.40059
#
# Velocity S-wave (km/s) = 3.71672 3.84688 3.78236
# Velocity P-wave (km/s) = 6.10772 6.51999 6.31722
#
# Compressibility (1/GPa) = 0.02491807
#
# Stress axis : x y z
#
# Youngs Moduli (GPa) = 58.14025 84.38298 82.31841
#
# Poissons Ratio (x) = 0.39266 -0.00437
# Poissons Ratio (y) = 0.27055 0.29140
# Poissons Ratio (z) = -0.00308 0.29871
#
# Static dielectric constant tensor:
#      x y z
#    x 1.820720 0.000000 -0.008120 
#    y 0.000000 1.773880 0.000000 
#    z -0.008120 0.000000 1.842750 
# 
# From -- ./inp_files/13194.got.cif
#   From: 2010.05.17/outbox.cif.g08.bks.cpg/sg11_7_cif.got.tgz:13194.got - 2010.06.03 12:22:45.
