data_PCOD9160649
_publ_section_title
;
Structure prediction by ZEFSAII (Michael W. Deem and Ramdas Pophale) SiO2 
 PCOD9160649
Probable space group: P 21/M
;
_chemical_formula_sum "Si O2"
_cell_formula_units_Z 20
_cell_length_a 5.537870
_cell_length_b 16.144476
_cell_length_c 11.326985
_cell_angle_alpha 90.000000
_cell_angle_beta 99.251449
_cell_angle_gamma 90.000000
_cell_volume 999.527623
_symmetry_space_group_name_H-M "P 21/M"
_symmetry_group_IT_number 11
_symmetry_cell_setting 'monoclinic'
loop_
_space_group_symop_operation_xyz
x,y,z
-x,1/2+y,-z
-x,-y,-z
x,1/2-y,z
loop_
_atom_site_type_symbol
_atom_site_label
_atom_site_fract_x
_atom_site_fract_y
_atom_site_fract_z
Si Si1 0.804461 0.424176 0.493812
Si Si2 0.276953 0.481504 0.895058
Si Si3 0.452143 0.977197 0.301196
Si Si4 0.654248 0.750000 0.762974
Si Si5 0.101338 0.750000 0.612563
Si Si6 0.122213 0.410580 0.111368
O O1 0.686707 0.421386 0.614992
O O2 0.587743 0.452568 0.388718
O O3 0.904190 0.335591 0.461672
O O4 0.000000 0.500000 0.500000
O O5 0.351243 0.441950 0.776767
O O6 0.151723 0.571370 0.864637
O O7 0.500000 0.500000 0.000000
O O8 0.115006 0.425614 0.970075
O O9 0.260358 0.019756 0.199140
O O10 0.369973 0.750000 0.699758
O O11 0.733521 0.828930 0.845846
O O12 0.856417 0.750000 0.673237
#
# Coordination Sequence:
#
# PCOD9160649 Si02
#       6
#     4   4   4   2   2   4
#     4  11  23  38  62  92 129 175 218 266 327 389
#     4   9  19  35  60  86 120 159 209 255 315 388
#     4  10  19  36  61  86 120 164 216 256 321 391
#     4  12  24  40  65  95 133 162 217 277 328 377
#     4  12  26  42  63  97 137 170 219 281 326 381
#     4  10  20  37  60  92 122 162 207 266 320 386
#
# _framework density 20.009453000000001
#
# number of rings (size 3 to 8) (size 9 to 14) (size 15 to 20)
#    0.000    1.600    2.000    3.600    5.600    0.000 
#    0.000    1.000    0.000   16.800    0.000    0.000 
#    0.000    0.000    0.000    0.000    0.000    0.000 
#
# Total GULP energy -111358.835547 kJ/mol
# GULP energy per Si atom -5567.941777 kJ/mol
# Density = 1.996391 g / cm^3
# Si number density = 20.009453 Si / 1000 Ang^3
#
#
#
# Elastic Constant Matrix: (Units=GPa)
#
#
# Indices 1 2 3 4 5 6 
#
# 1 71.0275 9.4108 28.4869 0.0000 -7.1386 0.0000
# 2 9.4108 76.3207 24.0637 0.0000 -1.8308 0.0000
# 3 28.4869 24.0637 120.6780 0.0000 -28.8014 0.0000
# 4 0.0000 0.0000 0.0000 25.8658 0.0000 2.8799
# 5 -7.1386 -1.8308 -28.8014 0.0000 48.8981 0.0000
# 6 0.0000 0.0000 0.0000 2.8799 0.0000 16.8753
#
#
#
# Elastic Compliance Matrix: (Units=1/GPa)
#
#
# Indices 1 2 3 4 5 6 
#
# 1 0.015600 -0.000825 -0.003470 0.000000 0.000203 0.000000
# 2 -0.000825 0.014097 -0.002931 0.000000 -0.001319 0.000000
# 3 -0.003470 -0.002931 0.011104 0.000000 0.005924 0.000000
# 4 0.000000 0.000000 0.000000 0.039410 0.000000 -0.006726
# 5 0.000203 -0.001319 0.005924 0.000000 0.023920 0.000000
# 6 0.000000 0.000000 0.000000 -0.006726 0.000000 0.060406
#
#
# Mechanical properties :
#
#
# Convention : Reuss Voigt Hill
#
# Bulk Modulus (GPa) = 37.95073 43.54989 40.75031
# Shear Modulus (GPa) = 26.62812 32.06549 29.34681
#
# Velocity S-wave (km/s) = 3.65194 4.00749 3.83384
# Velocity P-wave (km/s) = 6.06546 6.57459 6.32515
#
# Compressibility (1/GPa) = 0.02634995
#
# Stress axis : x y z
#
# Youngs Moduli (GPa) = 64.10135 70.93795 90.05864
#
# Poissons Ratio (x) = 0.05851 0.31247
# Poissons Ratio (y) = 0.05287 0.26397
# Poissons Ratio (z) = 0.22241 0.20793
#
# Static dielectric constant tensor:
#      x y z
#    x 1.995480 0.000000 -0.081220 
#    y 0.000000 1.732020 0.000000 
#    z -0.081220 0.000000 1.735230 
# 
# From -- ./inp_files/4149.got.cif
#   From: 2010.05.17/outbox.cif.g08.bks.cpg/sg11_3_cif.got.tgz:4149.got - 2010.06.03 12:22:45.
