data_PCOD9160291
_publ_section_title
;
Structure prediction by ZEFSAII (Michael W. Deem and Ramdas Pophale) SiO2 
 PCOD9160291
Probable space group: P 21/M
;
_chemical_formula_sum "Si O2"
_cell_formula_units_Z 26
_cell_length_a 12.724208
_cell_length_b 9.301143
_cell_length_c 9.198976
_cell_angle_alpha 90.000000
_cell_angle_beta 75.079478
_cell_angle_gamma 90.000000
_cell_volume 1051.989291
_symmetry_space_group_name_H-M "P 21/M"
_symmetry_group_IT_number 11
_symmetry_cell_setting 'monoclinic'
loop_
_space_group_symop_operation_xyz
x,y,z
-x,1/2+y,-z
-x,-y,-z
x,1/2-y,z
loop_
_atom_site_type_symbol
_atom_site_label
_atom_site_fract_x
_atom_site_fract_y
_atom_site_fract_z
Si Si1 0.253812 0.750000 0.574670
Si Si2 0.967807 0.090855 0.373036
Si Si3 0.760337 0.423686 0.960480
Si Si4 0.328803 0.048323 0.595972
Si Si5 0.550100 0.584803 0.172016
Si Si6 0.671484 0.913487 0.745142
Si Si7 0.890240 0.911603 0.149102
O O1 0.160011 0.629733 0.568372
O O2 0.333309 0.623264 0.598029
O O3 0.022012 0.250000 0.342359
O O4 0.971826 0.992872 0.228612
O O5 0.000000 0.000000 0.500000
O O6 0.756343 0.250000 0.962610
O O7 0.652242 0.498377 0.068163
O O8 0.855079 0.482804 0.031565
O O9 0.760911 0.489202 0.797282
O O10 0.427737 0.095250 0.663304
O O11 0.323274 0.092098 0.430650
O O12 0.221466 0.101903 0.719031
O O13 0.540202 0.750000 0.122303
O O14 0.441876 0.494473 0.183146
O O15 0.677574 0.750000 0.797506
O O16 0.923997 0.750000 0.093589
#
# Coordination Sequence:
#
# PCOD9160291 Si02
#       7
#     2   4   4   4   4   4   4
#     4   8  20  32  54  82 118 150 174 224 282 330
#     4   9  17  31  53  89 120 146 178 222 279 332
#     4  11  23  38  55  76 111 149 194 244 290 338
#     4  10  21  35  56  78 115 144 193 228 288 339
#     4  11  23  38  56  78 107 150 196 250 296 331
#     4  12  24  37  54  79 109 149 201 246 288 335
#     4  10  19  35  57  83 114 148 183 228 286 337
#
# _framework density 24.715081999999999
#
# number of rings (size 3 to 8) (size 9 to 14) (size 15 to 20)
#    0.462    1.231    0.000    6.462    9.692    0.000 
#    0.000    0.000    0.000    0.000    0.000    4.308 
#    4.615    0.000    0.000    0.000    0.000    0.000 
#
# Total GULP energy -144833.414791 kJ/mol
# GULP energy per Si atom -5570.515954 kJ/mol
# Density = 2.465883 g / cm^3
# Si number density = 24.715082 Si / 1000 Ang^3
#
#
#
# Elastic Constant Matrix: (Units=GPa)
#
#
# Indices 1 2 3 4 5 6 
#
# 1 51.0442 35.6050 44.1177 0.0000 9.3797 0.0000
# 2 35.6050 291.8607 52.6874 0.0000 22.6353 0.0000
# 3 44.1177 52.6874 154.2959 0.0000 25.9278 0.0000
# 4 0.0000 0.0000 0.0000 4.2273 0.0000 -2.2620
# 5 9.3797 22.6353 25.9278 0.0000 42.3561 0.0000
# 6 0.0000 0.0000 0.0000 -2.2620 0.0000 30.1308
#
#
#
# Elastic Compliance Matrix: (Units=1/GPa)
#
#
# Indices 1 2 3 4 5 6 
#
# 1 0.027125 -0.002000 -0.006959 0.000000 -0.000678 0.000000
# 2 -0.002000 0.003867 -0.000530 0.000000 -0.001299 0.000000
# 3 -0.006959 -0.000530 0.009302 0.000000 -0.003870 0.000000
# 4 0.000000 0.000000 0.000000 0.246457 0.000000 0.018503
# 5 -0.000678 -0.001299 -0.003870 0.000000 0.026823 0.000000
# 6 0.000000 0.000000 0.000000 0.018503 0.000000 0.034578
#
#
# Mechanical properties :
#
#
# Convention : Reuss Voigt Hill
#
# Bulk Modulus (GPa) = 46.91430 84.66899 65.79164
# Shear Modulus (GPa) = 13.36058 39.66222 26.51140
#
# Velocity S-wave (km/s) = 2.32757 4.01031 3.27873
# Velocity P-wave (km/s) = 5.12315 7.46833 6.40401
#
# Compressibility (1/GPa) = 0.02131546
#
# Stress axis : x y z
#
# Youngs Moduli (GPa) = 36.86581 258.61459 107.50197
#
# Poissons Ratio (x) = 0.51730 0.74810
# Poissons Ratio (y) = 0.07374 0.05700
# Poissons Ratio (z) = 0.25655 0.13711
#
# Static dielectric constant tensor:
#      x y z
#    x 1.998130 0.000000 -0.043410 
#    y 0.000000 1.816680 0.000000 
#    z -0.043410 0.000000 2.036760 
# 
# From -- ./inp_files/24128.got.cif
#   From: 2010.05.17/outbox.cif.g08.bks.cpg/sg11_13_cif.got.tgz:24128.got - 2010.06.03 12:22:45.
