data_PCOD9160631
_publ_section_title
;
Structure prediction by ZEFSAII (Michael W. Deem and Ramdas Pophale) SiO2 
 PCOD9160631
Probable space group: P 21/M
;
_chemical_formula_sum "Si O2"
_cell_formula_units_Z 32
_cell_length_a 14.839868
_cell_length_b 8.397917
_cell_length_c 12.769082
_cell_angle_alpha 90.000000
_cell_angle_beta 90.710023
_cell_angle_gamma 90.000000
_cell_volume 1591.211630
_symmetry_space_group_name_H-M "P 21/M"
_symmetry_group_IT_number 11
_symmetry_cell_setting 'monoclinic'
loop_
_space_group_symop_operation_xyz
x,y,z
-x,1/2+y,-z
-x,-y,-z
x,1/2-y,z
loop_
_atom_site_type_symbol
_atom_site_label
_atom_site_fract_x
_atom_site_fract_y
_atom_site_fract_z
Si Si1 0.535233 0.061014 0.110372
Si Si2 0.715910 0.560687 0.039418
Si Si3 0.853086 0.942900 0.212639
Si Si4 0.232817 0.941550 0.177946
Si Si5 0.968876 0.443215 0.884335
Si Si6 0.317609 0.560180 0.399406
Si Si7 0.294077 0.060430 0.620366
Si Si8 0.496371 0.559497 0.664529
O O1 0.530442 0.250000 0.110547
O O2 0.487409 0.004537 0.214880
O O3 0.637866 0.004823 0.112167
O O4 0.500000 0.000000 0.000000
O O5 0.708396 0.750000 0.033858
O O6 0.807060 0.516534 0.100594
O O7 0.710851 0.493477 0.922913
O O8 0.853822 0.750000 0.220781
O O9 0.786148 0.998338 0.303970
O O10 0.956095 0.994944 0.200272
O O11 0.232194 0.750000 0.181194
O O12 0.130752 0.997422 0.151592
O O13 0.273982 0.996423 0.288963
O O14 0.967867 0.250000 0.887305
O O15 0.000000 0.500000 0.000000
O O16 0.306720 0.750000 0.407434
O O17 0.273476 0.478172 0.499319
O O18 0.424452 0.520622 0.400303
O O19 0.303655 0.250000 0.636185
O O20 0.392594 0.984146 0.641355
O O21 0.506148 0.750000 0.655854
#
# Coordination Sequence:
#
# PCOD9160631 Si02
#       8
#     4   4   4   4   4   4   4   4
#     4  11  23  36  53  81 118 156 194 236 287 347
#     4  11  20  34  57  84 117 153 190 234 288 346
#     4   9  19  35  58  87 116 147 184 232 289 341
#     4  10  22  38  59  86 120 157 193 238 294 348
#     4  10  19  36  60  89 119 151 190 234 288 349
#     4  11  24  41  58  82 116 155 196 241 289 341
#     4  11  22  40  63  85 113 153 197 241 288 342
#     4  11  23  39  59  85 113 150 196 242 287 341
#
# _framework density 20.110461000000001
#
# number of rings (size 3 to 8) (size 9 to 14) (size 15 to 20)
#    0.000    1.500    2.500    3.000    0.000    4.500 
#    0.000    1.875    0.000    0.000    0.000    0.000 
#    0.000    0.000    0.000    0.000    0.000    0.000 
#
# Total GULP energy -178667.061876 kJ/mol
# GULP energy per Si atom -5583.345684 kJ/mol
# Density = 2.006469 g / cm^3
# Si number density = 20.110461 Si / 1000 Ang^3
#
#
#
# Elastic Constant Matrix: (Units=GPa)
#
#
# Indices 1 2 3 4 5 6 
#
# 1 89.2696 -1.5993 30.6419 0.0000 -12.5632 0.0000
# 2 -1.5993 13.9636 4.1422 0.0000 -0.8920 0.0000
# 3 30.6419 4.1422 122.2006 0.0000 -19.7203 0.0000
# 4 0.0000 0.0000 0.0000 26.8822 0.0000 1.6558
# 5 -12.5632 -0.8920 -19.7203 0.0000 32.9747 0.0000
# 6 0.0000 0.0000 0.0000 1.6558 0.0000 16.3289
#
#
#
# Elastic Compliance Matrix: (Units=1/GPa)
#
#
# Indices 1 2 3 4 5 6 
#
# 1 0.012640 0.002465 -0.002729 0.000000 0.003251 0.000000
# 2 0.002465 0.072831 -0.002897 0.000000 0.001177 0.000000
# 3 -0.002729 -0.002897 0.009724 0.000000 0.004697 0.000000
# 4 0.000000 0.000000 0.000000 0.037433 0.000000 -0.003796
# 5 0.003251 0.001177 0.004697 0.000000 0.034406 0.000000
# 6 0.000000 0.000000 0.000000 -0.003796 0.000000 0.061626
#
#
# Mechanical properties :
#
#
# Convention : Reuss Voigt Hill
#
# Bulk Modulus (GPa) = 11.25188 32.42262 21.83725
# Shear Modulus (GPa) = 18.89599 28.05375 23.47487
#
# Velocity S-wave (km/s) = 3.06863 3.73900 3.42028
# Velocity P-wave (km/s) = 4.26175 5.89893 5.14587
#
# Compressibility (1/GPa) = 0.08887405
#
# Stress axis : x y z
#
# Youngs Moduli (GPa) = 79.11247 13.73033 102.84195
#
# Poissons Ratio (x) = -0.03384 0.28060
# Poissons Ratio (y) = -0.19500 0.29793
# Poissons Ratio (z) = 0.21586 0.03978
#
# Static dielectric constant tensor:
#      x y z
#    x 1.747450 0.000000 0.016800 
#    y 0.000000 1.679710 0.000000 
#    z 0.016800 0.000000 1.729900 
# 
# From -- ./inp_files/38141.got.cif
#   From: 2010.05.17/outbox.cif.g08.bks.cpg/sg11_20_cif.got.tgz:38141.got - 2010.06.03 12:22:45.
