data_PCOD9160267
_publ_section_title
;
Structure prediction by ZEFSAII (Michael W. Deem and Ramdas Pophale) SiO2 
 PCOD9160267
Probable space group: P 21/M
;
_chemical_formula_sum "Si O2"
_cell_formula_units_Z 24
_cell_length_a 8.586645
_cell_length_b 25.725755
_cell_length_c 12.276081
_cell_angle_alpha 90.000000
_cell_angle_beta 156.250739
_cell_angle_gamma 90.000000
_cell_volume 1092.120682
_symmetry_space_group_name_H-M "P 21/M"
_symmetry_group_IT_number 11
_symmetry_cell_setting 'monoclinic'
loop_
_space_group_symop_operation_xyz
x,y,z
-x,1/2+y,-z
-x,-y,-z
x,1/2-y,z
loop_
_atom_site_type_symbol
_atom_site_label
_atom_site_fract_x
_atom_site_fract_y
_atom_site_fract_z
Si Si1 0.483383 0.388210 0.432660
Si Si2 0.066760 0.688317 0.805950
Si Si3 0.117579 0.043711 0.658780
Si Si4 0.996726 0.414360 0.931218
Si Si5 0.311522 0.364780 0.643328
Si Si6 0.013407 0.513826 0.803792
O O1 0.901720 0.385825 0.756471
O O2 0.270189 0.336235 0.335150
O O3 0.275721 0.438989 0.356965
O O4 0.370026 0.395788 0.235356
O O5 0.055584 0.750000 0.790760
O O6 0.959605 0.663595 0.619068
O O7 0.449653 0.670506 0.117715
O O8 0.066988 0.096714 0.561672
O O9 0.919674 0.024191 0.642868
O O10 0.000000 0.000000 0.500000
O O11 0.582438 0.039987 0.970564
O O12 0.638742 0.398370 0.783617
O O13 0.043887 0.474377 0.924909
#
# Coordination Sequence:
#
# PCOD9160267 Si02
#       6
#     4   4   4   4   4   4
#     4  10  20  34  53  81 111 132 182 223 259 321
#     4  10  19  35  57  81 105 136 178 236 285 306
#     4  11  23  34  50  77 120 153 177 219 268 326
#     4  10  20  33  54  76 109 142 174 212 259 323
#     4  10  21  37  54  83 111 134 184 229 262 332
#     4  11  22  33  51  79 111 155 172 212 268 329
#
# _framework density 21.975594999999998
#
# number of rings (size 3 to 8) (size 9 to 14) (size 15 to 20)
#    0.000    1.667    3.333    3.500    4.667    0.000 
#    0.000    0.000    0.000    0.000    0.000   28.000 
#    0.000    0.000    0.000    0.000    0.000    0.000 
#
# Total GULP energy -133856.224615 kJ/mol
# GULP energy per Si atom -5577.342692 kJ/mol
# Density = 2.192558 g / cm^3
# Si number density = 21.975595 Si / 1000 Ang^3
#
#
#
# Elastic Constant Matrix: (Units=GPa)
#
#
# Indices 1 2 3 4 5 6 
#
# 1 99.4623 55.8375 48.9065 0.0000 -15.2162 0.0000
# 2 55.8375 144.5626 39.0210 0.0000 -24.8106 0.0000
# 3 48.9065 39.0210 132.9234 0.0000 -46.7183 0.0000
# 4 0.0000 0.0000 0.0000 34.6324 0.0000 -8.6536
# 5 -15.2162 -24.8106 -46.7183 0.0000 49.7547 0.0000
# 6 0.0000 0.0000 0.0000 -8.6536 0.0000 19.4517
#
#
#
# Elastic Compliance Matrix: (Units=1/GPa)
#
#
# Indices 1 2 3 4 5 6 
#
# 1 0.014786 -0.004814 -0.004898 0.000000 -0.002478 0.000000
# 2 -0.004814 0.009295 0.000230 0.000000 0.003379 0.000000
# 3 -0.004898 0.000230 0.013092 0.000000 0.010910 0.000000
# 4 0.000000 0.000000 0.000000 0.032486 0.000000 0.014452
# 5 -0.002478 0.003379 0.010910 0.000000 0.031270 0.000000
# 6 0.000000 0.000000 0.000000 0.014452 0.000000 0.057839
#
#
# Mechanical properties :
#
#
# Convention : Reuss Voigt Hill
#
# Bulk Modulus (GPa) = 54.91685 73.83094 64.37389
# Shear Modulus (GPa) = 27.20336 36.31331 31.75834
#
# Velocity S-wave (km/s) = 3.52218 4.06943 3.80566
# Velocity P-wave (km/s) = 6.44866 7.46660 6.97622
#
# Compressibility (1/GPa) = 0.01820935
#
# Stress axis : x y z
#
# Youngs Moduli (GPa) = 67.63154 107.58851 76.38194
#
# Poissons Ratio (x) = 0.51797 0.37410
# Poissons Ratio (y) = 0.32560 -0.01759
# Poissons Ratio (z) = 0.33124 -0.02478
#
# Static dielectric constant tensor:
#      x y z
#    x 1.874870 0.000000 0.018850 
#    y 0.000000 1.778760 0.000000 
#    z 0.018850 0.000000 1.953250 
# 
# From -- ./inp_files/2776.got.cif
#   From: 2010.05.17/outbox.cif.g08.bks.cpg/sg11_2_cif.got.tgz:2776.got - 2010.06.03 12:22:45.
