data_PCOD9160112
_publ_section_title
;
Structure prediction by ZEFSAII (Michael W. Deem and Ramdas Pophale) SiO2 
 PCOD9160112
Probable space group: P 21/M
;
_chemical_formula_sum "Si O2"
_cell_formula_units_Z 32
_cell_length_a 19.768734
_cell_length_b 8.816925
_cell_length_c 27.307157
_cell_angle_alpha 90.000000
_cell_angle_beta 21.324927
_cell_angle_gamma 90.000000
_cell_volume 1730.867762
_symmetry_space_group_name_H-M "P 21/M"
_symmetry_group_IT_number 11
_symmetry_cell_setting 'monoclinic'
loop_
_space_group_symop_operation_xyz
x,y,z
-x,1/2+y,-z
-x,-y,-z
x,1/2-y,z
loop_
_atom_site_type_symbol
_atom_site_label
_atom_site_fract_x
_atom_site_fract_y
_atom_site_fract_z
Si Si1 0.322368 0.925117 0.166907
Si Si2 0.047322 0.074287 0.519591
Si Si3 0.091299 0.932658 0.864524
Si Si4 0.282185 0.432756 0.830334
Si Si5 0.726089 0.573764 0.903507
Si Si6 0.293088 0.932039 0.436344
Si Si7 0.110371 0.070326 0.656994
Si Si8 0.297085 0.567434 0.626676
O O1 0.338034 0.750000 0.137779
O O2 0.143684 0.932430 0.320987
O O3 0.294034 0.037070 0.140667
O O4 0.516809 0.957403 0.063175
O O5 0.100292 0.250000 0.477900
O O6 0.201490 0.989546 0.447984
O O7 0.000000 0.000000 0.500000
O O8 0.100641 0.750000 0.860928
O O9 0.161916 0.976672 0.763116
O O10 0.224602 0.999714 0.816660
O O11 0.881224 0.978214 0.021425
O O12 0.278557 0.250000 0.829113
O O13 0.490095 0.477114 0.705284
O O14 0.771742 0.750000 0.880863
O O15 0.893872 0.472710 0.809352
O O16 0.280146 0.750000 0.447799
O O17 0.181659 0.002448 0.557395
O O18 0.135175 0.250000 0.639476
O O19 0.222377 0.996672 0.626020
O O20 0.500000 0.500000 0.500000
O O21 0.305884 0.750000 0.618616
#
# Coordination Sequence:
#
# PCOD9160112 Si02
#       8
#     4   4   4   4   4   4   4   4
#     4   9  19  36  58  84 113 146 185 234 287 341
#     4  11  23  40  60  84 117 153 191 237 290 346
#     4   9  19  37  59  84 115 151 189 231 280 336
#     4   9  19  36  60  87 114 148 189 234 281 333
#     4  10  19  34  59  86 111 145 189 235 286 340
#     4  11  22  38  61  87 114 147 193 242 290 344
#     4  12  24  38  57  84 119 154 193 239 290 346
#     4  11  23  39  59  85 119 155 193 235 289 344
#
# _framework density 18.487836999999999
#
# number of rings (size 3 to 8) (size 9 to 14) (size 15 to 20)
#    0.000    1.750    1.250    3.375    0.000    5.000 
#    2.250    0.000    0.000    0.000    0.000    0.000 
#    0.000    0.000    0.000    0.000    0.000    0.000 
#
# Total GULP energy -178668.688498 kJ/mol
# GULP energy per Si atom -5583.396516 kJ/mol
# Density = 1.844576 g / cm^3
# Si number density = 18.487837 Si / 1000 Ang^3
#
#
#
# Elastic Constant Matrix: (Units=GPa)
#
#
# Indices 1 2 3 4 5 6 
#
# 1 105.1645 34.3861 37.1651 0.0000 -17.7869 0.0000
# 2 34.3861 67.5420 31.6084 0.0000 -7.9416 0.0000
# 3 37.1651 31.6084 75.5378 0.0000 -26.8272 0.0000
# 4 0.0000 0.0000 0.0000 24.8987 0.0000 -4.8131
# 5 -17.7869 -7.9416 -26.8272 0.0000 30.0352 0.0000
# 6 0.0000 0.0000 0.0000 -4.8131 0.0000 33.4967
#
#
#
# Elastic Compliance Matrix: (Units=1/GPa)
#
#
# Indices 1 2 3 4 5 6 
#
# 1 0.012701 -0.004621 -0.003044 0.000000 0.003581 0.000000
# 2 -0.004621 0.020272 -0.007729 0.000000 -0.004280 0.000000
# 3 -0.003044 -0.007729 0.024318 0.000000 0.017875 0.000000
# 4 0.000000 0.000000 0.000000 0.041310 0.000000 0.005936
# 5 0.003581 -0.004280 0.017875 0.000000 0.050249 0.000000
# 6 0.000000 0.000000 0.000000 0.005936 0.000000 0.030707
#
#
# Mechanical properties :
#
#
# Convention : Reuss Voigt Hill
#
# Bulk Modulus (GPa) = 37.72991 50.50705 44.11848
# Shear Modulus (GPa) = 22.81233 27.35843 25.08538
#
# Velocity S-wave (km/s) = 3.51652 3.85100 3.68755
# Velocity P-wave (km/s) = 6.07784 6.86673 6.48429
#
# Compressibility (1/GPa) = 0.02650417
#
# Stress axis : x y z
#
# Youngs Moduli (GPa) = 78.73322 49.32909 41.12106
#
# Poissons Ratio (x) = 0.22794 0.12515
# Poissons Ratio (y) = 0.36381 0.31784
# Poissons Ratio (z) = 0.23963 0.38128
#
# Static dielectric constant tensor:
#      x y z
#    x 1.608160 0.000000 -0.010800 
#    y 0.000000 1.629830 0.000000 
#    z -0.010800 0.000000 1.669820 
# 
# From -- ./inp_files/73612.got.cif
#   From: 2010.05.17/outbox.cif.g08.bks.cpg/sg11_37_cif.got.tgz:73612.got - 2010.06.03 12:22:45.
