data_PCOD9160842
_publ_section_title
;
Structure prediction by ZEFSAII (Michael W. Deem and Ramdas Pophale) SiO2 
 PCOD9160842
Probable space group: P 21/M
;
_chemical_formula_sum "Si O2"
_cell_formula_units_Z 32
_cell_length_a 13.329897
_cell_length_b 15.313328
_cell_length_c 20.164596
_cell_angle_alpha 90.000000
_cell_angle_beta 22.517135
_cell_angle_gamma 90.000000
_cell_volume 1576.300424
_symmetry_space_group_name_H-M "P 21/M"
_symmetry_group_IT_number 11
_symmetry_cell_setting 'monoclinic'
loop_
_space_group_symop_operation_xyz
x,y,z
-x,1/2+y,-z
-x,-y,-z
x,1/2-y,z
loop_
_atom_site_type_symbol
_atom_site_label
_atom_site_fract_x
_atom_site_fract_y
_atom_site_fract_z
Si Si1 0.222696 0.571064 0.880041
Si Si2 0.020126 0.651341 0.316883
Si Si3 0.376381 0.956692 0.010150
Si Si4 0.158511 0.149251 0.789974
Si Si5 0.380226 0.563149 0.417748
Si Si6 0.916710 0.517185 0.625467
Si Si7 0.416007 0.655247 0.637212
Si Si8 0.838390 0.013668 0.304032
O O1 0.481741 0.512142 0.711454
O O2 0.252876 0.642946 0.804619
O O3 0.000000 0.500000 0.000000
O O4 0.118032 0.618434 0.009405
O O5 0.074580 0.750000 0.307343
O O6 0.059678 0.574448 0.347132
O O7 0.719730 0.650842 0.474573
O O8 0.214452 0.625828 0.137499
O O9 0.621395 0.947074 0.812191
O O10 0.152186 0.019369 0.117317
O O11 0.500000 0.000000 0.000000
O O12 0.155339 0.250000 0.772586
O O13 0.392595 0.131162 0.700501
O O14 0.210649 0.080653 0.699515
O O15 0.273026 0.528713 0.554336
O O16 0.119304 0.584580 0.536501
O O17 0.000000 0.500000 0.500000
O O18 0.374858 0.750000 0.631449
O O19 0.292565 0.582580 0.665053
#
# Coordination Sequence:
#
# PCOD9160842 Si02
#       8
#     4   4   4   4   4   4   4   4
#     4  10  19  38  60  86 131 168 201 258 316 375
#     4  10  21  41  66  95 129 160 212 276 321 377
#     4  10  22  40  63  88 121 170 213 253 314 368
#     4  11  25  39  63  99 132 167 205 258 329 389
#     4  11  22  42  64  90 129 169 207 266 320 372
#     4  11  23  43  69  92 118 176 223 259 319 385
#     4  11  22  37  67 102 131 170 211 262 333 391
#     4  12  22  40  65  96 136 164 213 266 315 386
#
# _framework density 20.300699000000002
#
# number of rings (size 3 to 8) (size 9 to 14) (size 15 to 20)
#    0.000    1.250    6.250    0.750    3.500    1.000 
#    0.000    5.000    0.000    0.000    0.000    0.000 
#    0.000    0.000    0.000    0.000    0.000    0.000 
#
# Total GULP energy -178393.364883 kJ/mol
# GULP energy per Si atom -5574.792653 kJ/mol
# Density = 2.025449 g / cm^3
# Si number density = 20.300699 Si / 1000 Ang^3
#
#
#
# Elastic Constant Matrix: (Units=GPa)
#
#
# Indices 1 2 3 4 5 6 
#
# 1 83.6464 21.4622 44.3773 0.0000 -7.2289 0.0000
# 2 21.4622 113.4619 19.8401 0.0000 -2.7399 0.0000
# 3 44.3773 19.8401 161.5846 0.0000 -1.1162 0.0000
# 4 0.0000 0.0000 0.0000 13.8342 0.0000 -7.2913
# 5 -7.2289 -2.7399 -1.1162 0.0000 45.9358 0.0000
# 6 0.0000 0.0000 0.0000 -7.2913 0.0000 12.4577
#
#
#
# Elastic Compliance Matrix: (Units=1/GPa)
#
#
# Indices 1 2 3 4 5 6 
#
# 1 0.014660 -0.002065 -0.003758 0.000000 0.002092 0.000000
# 2 -0.002065 0.009310 -0.000574 0.000000 0.000216 0.000000
# 3 -0.003758 -0.000574 0.007288 0.000000 -0.000449 0.000000
# 4 0.000000 0.000000 0.000000 0.104529 0.000000 0.061179
# 5 0.002092 0.000216 -0.000449 0.000000 0.022101 0.000000
# 6 0.000000 0.000000 0.000000 0.061179 0.000000 0.116078
#
#
# Mechanical properties :
#
#
# Convention : Reuss Voigt Hill
#
# Bulk Modulus (GPa) = 54.16473 58.89469 56.52971
# Shear Modulus (GPa) = 17.06978 32.64643 24.85811
#
# Velocity S-wave (km/s) = 2.90288 4.01452 3.50307
# Velocity P-wave (km/s) = 6.16237 7.11074 6.65347
#
# Compressibility (1/GPa) = 0.01846220
#
# Stress axis : x y z
#
# Youngs Moduli (GPa) = 68.21459 107.41294 137.20725
#
# Poissons Ratio (x) = 0.22184 0.51563
# Poissons Ratio (y) = 0.14088 0.07881
# Poissons Ratio (z) = 0.25635 0.06170
#
# Static dielectric constant tensor:
#      x y z
#    x 1.743920 0.000000 -0.005720 
#    y 0.000000 1.750020 0.000000 
#    z -0.005720 0.000000 1.797610 
# 
# From -- ./inp_files/65840.got.cif
#   From: 2010.05.17/outbox.cif.g08.bks.cpg/sg11_33_cif.got.tgz:65840.got - 2010.06.03 12:22:45.
