data_PCOD9160968
_publ_section_title
;
Structure prediction by ZEFSAII (Michael W. Deem and Ramdas Pophale) SiO2 
 PCOD9160968
Probable space group: P 21/M
;
_chemical_formula_sum "Si O2"
_cell_formula_units_Z 32
_cell_length_a 13.537676
_cell_length_b 9.257071
_cell_length_c 18.923358
_cell_angle_alpha 90.000000
_cell_angle_beta 111.385028
_cell_angle_gamma 90.000000
_cell_volume 2208.188231
_symmetry_space_group_name_H-M "P 21/M"
_symmetry_group_IT_number 11
_symmetry_cell_setting 'monoclinic'
loop_
_space_group_symop_operation_xyz
x,y,z
-x,1/2+y,-z
-x,-y,-z
x,1/2-y,z
loop_
_atom_site_type_symbol
_atom_site_label
_atom_site_fract_x
_atom_site_fract_y
_atom_site_fract_z
Si Si1 0.245807 0.576479 0.260930
Si Si2 0.104723 0.419778 0.114216
Si Si3 0.575242 0.917143 0.421317
Si Si4 0.855699 0.420019 0.020495
Si Si5 0.668204 0.920404 0.046805
Si Si6 0.476647 0.576320 0.252047
Si Si7 0.660206 0.417209 0.570019
Si Si8 0.519889 0.420386 0.116261
O O1 0.228240 0.750000 0.255361
O O2 0.155053 0.491918 0.196245
O O3 0.356918 0.550434 0.248708
O O4 0.263627 0.530288 0.347047
O O5 0.131480 0.250000 0.116674
O O6 0.977276 0.433289 0.078025
O O7 0.148958 0.503785 0.057235
O O8 0.606336 0.750000 0.426533
O O9 0.555751 0.969198 0.336329
O O10 0.457713 0.922903 0.425991
O O11 0.652551 0.000141 0.494332
O O12 0.829950 0.250000 0.007471
O O13 0.774900 0.499920 0.051127
O O14 0.684521 0.750000 0.063539
O O15 0.613231 0.997127 0.099104
O O16 0.584463 0.935470 0.960280
O O17 0.486962 0.750000 0.245218
O O18 0.498599 0.492813 0.186000
O O19 0.684328 0.250000 0.563029
O O20 0.542700 0.250000 0.128684
#
# Coordination Sequence:
#
# PCOD9160968 Si02
#       8
#     4   4   4   4   4   4   4   4
#     4   9  17  28  42  60  85 116 145 176 212 247
#     4  10  20  31  44  64  86 110 143 177 209 249
#     4   8  14  24  37  54  78 109 141 171 205 244
#     4  10  20  33  47  62  84 112 140 175 215 250
#     4  10  20  33  48  64  83 109 141 175 211 252
#     4   9  17  28  41  59  85 115 145 176 210 247
#     4   8  14  24  37  55  79 108 141 172 205 245
#     4  10  20  31  44  64  86 109 140 175 211 250
#
# _framework density 14.491519
#
# number of rings (size 3 to 8) (size 9 to 14) (size 15 to 20)
#    0.000    2.750    0.000    3.750    0.000    6.500 
#    0.000    2.500    0.000    0.000    0.000    0.000 
#    0.000    1.000    0.000    3.250    0.000    4.750 
#
# Total GULP energy -178287.112445 kJ/mol
# GULP energy per Si atom -5571.472264 kJ/mol
# Density = 1.445854 g / cm^3
# Si number density = 14.491519 Si / 1000 Ang^3
#
#
#
# Elastic Constant Matrix: (Units=GPa)
#
#
# Indices 1 2 3 4 5 6 
#
# 1 32.0578 29.4487 8.1881 0.0000 -5.9730 0.0000
# 2 29.4487 75.5862 48.8570 0.0000 -1.8537 0.0000
# 3 8.1881 48.8570 94.5882 0.0000 2.4531 0.0000
# 4 0.0000 0.0000 0.0000 29.2553 0.0000 -0.4609
# 5 -5.9730 -1.8537 2.4531 0.0000 18.3005 0.0000
# 6 0.0000 0.0000 0.0000 -0.4609 0.0000 21.4866
#
#
#
# Elastic Compliance Matrix: (Units=1/GPa)
#
#
# Indices 1 2 3 4 5 6 
#
# 1 0.057035 -0.027662 0.008972 0.000000 0.014611 0.000000
# 2 -0.027662 0.033490 -0.014809 0.000000 -0.003651 0.000000
# 3 0.008972 -0.014809 0.017468 0.000000 -0.000913 0.000000
# 4 0.000000 0.000000 0.000000 0.034193 0.000000 0.000733
# 5 0.014611 -0.003651 -0.000913 0.000000 0.059165 0.000000
# 6 0.000000 0.000000 0.000000 0.000733 0.000000 0.046556
#
#
# Mechanical properties :
#
#
# Convention : Reuss Voigt Hill
#
# Bulk Modulus (GPa) = 24.39329 41.69109 33.04219
# Shear Modulus (GPa) = 15.21745 21.52437 18.37091
#
# Velocity S-wave (km/s) = 3.24403 3.85815 3.56434
# Velocity P-wave (km/s) = 5.55887 6.97702 6.30793
#
# Compressibility (1/GPa) = 0.04099488
#
# Stress axis : x y z
#
# Youngs Moduli (GPa) = 17.53314 29.85995 57.24648
#
# Poissons Ratio (x) = 0.82598 -0.51360
# Poissons Ratio (y) = 0.48500 0.84776
# Poissons Ratio (z) = -0.15730 0.44219
#
# Static dielectric constant tensor:
#      x y z
#    x 1.454570 0.000000 0.009240 
#    y 0.000000 1.482180 0.000000 
#    z 0.009240 0.000000 1.485330 
# 
# From -- ./inp_files/59878.got.cif
#   From: 2010.05.17/outbox.cif.g08.bks.cpg/sg11_30_cif.got.tgz:59878.got - 2010.06.03 12:22:45.
