data_PCOD9160884
_publ_section_title
;
Structure prediction by ZEFSAII (Michael W. Deem and Ramdas Pophale) SiO2 
 PCOD9160884
Probable space group: P 21/M
;
_chemical_formula_sum "Si O2"
_cell_formula_units_Z 18
_cell_length_a 5.517216
_cell_length_b 10.598009
_cell_length_c 13.228757
_cell_angle_alpha 90.000000
_cell_angle_beta 111.335720
_cell_angle_gamma 90.000000
_cell_volume 720.492819
_symmetry_space_group_name_H-M "P 21/M"
_symmetry_group_IT_number 11
_symmetry_cell_setting 'monoclinic'
loop_
_space_group_symop_operation_xyz
x,y,z
-x,1/2+y,-z
-x,-y,-z
x,1/2-y,z
loop_
_atom_site_type_symbol
_atom_site_label
_atom_site_fract_x
_atom_site_fract_y
_atom_site_fract_z
Si Si1 0.313701 0.504695 0.068878
Si Si2 0.759585 0.750000 0.877434
Si Si3 0.207904 0.979506 0.620263
Si Si4 0.078448 0.250000 0.676992
Si Si5 0.031079 0.250000 0.312680
Si Si6 0.560216 0.250000 0.460506
Si Si7 0.142658 0.750000 0.130282
O O1 0.390175 0.380271 0.140916
O O2 0.322105 0.629643 0.136028
O O3 0.500000 0.500000 0.000000
O O4 0.000000 0.500000 0.000000
O O5 0.908702 0.750000 0.796043
O O6 0.929658 0.750000 0.006479
O O7 0.097264 0.884848 0.687280
O O8 0.413476 0.882323 0.598540
O O9 0.000000 0.000000 0.500000
O O10 0.227716 0.121594 0.666787
O O11 0.792424 0.250000 0.576731
O O12 0.003311 0.250000 0.784876
O O13 0.255091 0.250000 0.434846
#
# Coordination Sequence:
#
# PCOD9160884 Si02
#       7
#     4   2   4   2   2   2   2
#     4  10  21  41  65  89 130 171 217 268 320 385
#     4  10  22  40  60  93 121 174 204 264 318 394
#     4   9  20  39  63  90 123 161 211 262 320 378
#     4  10  19  38  66  89 128 161 209 269 324 382
#     4  11  21  41  63  89 130 160 217 254 324 393
#     4   9  21  40  64  91 119 169 207 267 316 387
#     4  10  21  39  65  90 128 164 211 264 326 384
#
# _framework density 24.982903
#
# number of rings (size 3 to 8) (size 9 to 14) (size 15 to 20)
#    0.000    2.222    0.000    2.667    0.000    3.556 
#   24.000    1.111   34.222    0.000    0.000    0.000 
#    0.000    0.000    0.000    0.000    0.000    0.000 
#
# Total GULP energy -100360.781549 kJ/mol
# GULP energy per Si atom -5575.598975 kJ/mol
# Density = 2.492604 g / cm^3
# Si number density = 24.982903 Si / 1000 Ang^3
#
#
#
# Elastic Constant Matrix: (Units=GPa)
#
#
# Indices 1 2 3 4 5 6 
#
# 1 88.6260 37.6722 52.3540 0.0000 12.8260 0.0000
# 2 37.6722 300.0944 42.3545 0.0000 -24.0180 0.0000
# 3 52.3540 42.3545 153.6393 0.0000 2.0740 0.0000
# 4 0.0000 0.0000 0.0000 -550.0566 0.0000 164.0514
# 5 12.8260 -24.0180 2.0740 0.0000 60.2273 0.0000
# 6 0.0000 0.0000 0.0000 164.0514 0.0000 -84.2667
#
#
#
# Elastic Compliance Matrix: (Units=1/GPa)
#
#
# Indices 1 2 3 4 5 6 
#
# 1 0.015269 -0.001546 -0.004727 0.000000 -0.003706 0.000000
# 2 -0.001546 0.003749 -0.000531 0.000000 0.001843 0.000000
# 3 -0.004727 -0.000531 0.008259 0.000000 0.000510 0.000000
# 4 0.000000 0.000000 0.000000 -0.004335 0.000000 -0.008439
# 5 -0.003706 0.001843 0.000510 0.000000 0.018110 0.000000
# 6 0.000000 0.000000 0.000000 -0.008439 0.000000 -0.028297
#
#
# Mechanical properties :
#
#
# Convention : Reuss Voigt Hill
#
# Bulk Modulus (GPa) = 73.16312 89.68010 81.42161
# Shear Modulus (GPa) = 161.70661 -87.48727 37.10967
#
# Velocity S-wave (km/s) = 8.05403 -5.92409 3.85827
# Velocity P-wave (km/s) = 10.76284 3.28917 7.24638
#
# Compressibility (1/GPa) = 0.01366809
#
# Stress axis : x y z
#
# Youngs Moduli (GPa) = 65.49139 266.74700 121.07894
#
# Poissons Ratio (x) = 0.41246 0.57232
# Poissons Ratio (y) = 0.10127 0.06435
# Poissons Ratio (z) = 0.30957 0.14176
#
# Static dielectric constant tensor:
#      x y z
#    x 1.848350 0.000000 -0.098260 
#    y 0.000000 1.969020 0.000000 
#    z -0.098260 0.000000 1.907700 
# 
# From -- ./inp_files/8571.got.cif
#   From: 2010.05.17/outbox.cif.g08.bks.cpg/sg11_5_cif.got.tgz:8571.got - 2010.06.03 12:22:45.
