data_PCOD9160021
_publ_section_title
;
Structure prediction by ZEFSAII (Michael W. Deem and Ramdas Pophale) SiO2 
 PCOD9160021
Probable space group: P 21/M
;
_chemical_formula_sum "Si O2"
_cell_formula_units_Z 32
_cell_length_a 20.203837
_cell_length_b 8.911508
_cell_length_c 25.114780
_cell_angle_alpha 90.000000
_cell_angle_beta 21.802192
_cell_angle_gamma 90.000000
_cell_volume 1679.423633
_symmetry_space_group_name_H-M "P 21/M"
_symmetry_group_IT_number 11
_symmetry_cell_setting 'monoclinic'
loop_
_space_group_symop_operation_xyz
x,y,z
-x,1/2+y,-z
-x,-y,-z
x,1/2-y,z
loop_
_atom_site_type_symbol
_atom_site_label
_atom_site_fract_x
_atom_site_fract_y
_atom_site_fract_z
Si Si1 0.137480 0.068800 0.854487
Si Si2 0.081743 0.080029 0.521202
Si Si3 0.121307 0.070097 0.743957
Si Si4 0.436305 0.072968 0.992444
Si Si5 0.474481 0.430500 0.414891
Si Si6 0.725332 0.423844 0.531747
Si Si7 0.911890 0.923841 0.807348
Si Si8 0.237697 0.418661 0.286448
O O1 0.135487 0.250000 0.860156
O O2 0.092836 0.026401 0.826525
O O3 0.337133 0.007232 0.714329
O O4 0.000000 0.000000 0.000000
O O5 0.042533 0.250000 0.568865
O O6 0.147267 0.088009 0.411554
O O7 0.232640 0.005172 0.444463
O O8 0.904901 0.978493 0.650030
O O9 0.118201 0.250000 0.743485
O O10 0.316577 0.024297 0.574559
O O11 0.971490 0.006970 0.816331
O O12 0.417052 0.250000 0.014221
O O13 0.255556 0.013834 0.100469
O O14 0.500000 0.000000 0.000000
O O15 0.599493 0.032287 0.832158
O O16 0.490870 0.250000 0.403883
O O17 0.407718 0.486678 0.407105
O O18 0.672207 0.250000 0.577738
O O19 0.915365 0.427389 0.359438
O O20 0.873439 0.750000 0.849077
O O21 0.295744 0.250000 0.229114
#
# Coordination Sequence:
#
# PCOD9160021 Si02
#       8
#     4   4   4   4   4   4   4   4
#     4  11  23  40  60  88 121 156 193 235 290 349
#     4  10  20  35  55  78 106 144 188 235 284 336
#     4   9  20  38  62  88 115 150 193 240 290 344
#     4  11  22  36  55  81 112 148 189 235 284 340
#     4  10  20  37  61  89 117 149 193 240 285 343
#     4  10  19  34  57  84 113 145 183 232 280 332
#     4   9  20  36  55  82 113 145 186 231 280 334
#     4  10  21  36  53  76 106 143 187 234 285 341
#
# _framework density 19.054155999999999
#
# number of rings (size 3 to 8) (size 9 to 14) (size 15 to 20)
#    0.000    2.000    0.000    3.375    0.000    5.500 
#    2.250    0.000    0.000    0.000    0.000    0.000 
#    0.000    0.000    0.000    0.000    0.000    0.000 
#
# Total GULP energy -178574.873281 kJ/mol
# GULP energy per Si atom -5580.464790 kJ/mol
# Density = 1.901079 g / cm^3
# Si number density = 19.054156 Si / 1000 Ang^3
#
#
#
# Elastic Constant Matrix: (Units=GPa)
#
#
# Indices 1 2 3 4 5 6 
#
# 1 140.7186 54.8564 54.5991 0.0000 -15.2378 0.0000
# 2 54.8564 65.8554 23.2808 0.0000 -0.4149 0.0000
# 3 54.5991 23.2808 67.5278 0.0000 -15.7817 0.0000
# 4 0.0000 0.0000 0.0000 29.5792 0.0000 -2.9057
# 5 -15.2378 -0.4149 -15.7817 0.0000 26.4529 0.0000
# 6 0.0000 0.0000 0.0000 -2.9057 0.0000 33.6784
#
#
#
# Elastic Compliance Matrix: (Units=1/GPa)
#
#
# Indices 1 2 3 4 5 6 
#
# 1 0.013753 -0.008870 -0.007254 0.000000 0.003455 0.000000
# 2 -0.008870 0.023351 -0.002309 0.000000 -0.006121 0.000000
# 3 -0.007254 -0.002309 0.023804 0.000000 0.009987 0.000000
# 4 0.000000 0.000000 0.000000 0.034096 0.000000 0.002942
# 5 0.003455 -0.006121 0.009987 0.000000 0.045655 0.000000
# 6 0.000000 0.000000 0.000000 0.002942 0.000000 0.029946
#
#
# Mechanical properties :
#
#
# Convention : Reuss Voigt Hill
#
# Bulk Modulus (GPa) = 41.59533 59.95271 50.77402
# Shear Modulus (GPa) = 23.20327 27.36647 25.28487
#
# Velocity S-wave (km/s) = 3.49342 3.79390 3.64675
# Velocity P-wave (km/s) = 6.17652 7.12209 6.66609
#
# Compressibility (1/GPa) = 0.02404116
#
# Stress axis : x y z
#
# Youngs Moduli (GPa) = 72.71200 42.82492 42.00911
#
# Poissons Ratio (x) = 0.37984 0.30475
# Poissons Ratio (y) = 0.64493 0.09702
# Poissons Ratio (z) = 0.52749 0.09890
#
# Static dielectric constant tensor:
#      x y z
#    x 1.664790 0.000000 0.022150 
#    y 0.000000 1.666750 0.000000 
#    z 0.022150 0.000000 1.679670 
# 
# From -- ./inp_files/72004.got.cif
#   From: 2010.05.17/outbox.cif.g08.bks.cpg/sg11_37_cif.got.tgz:72004.got - 2010.06.03 12:22:45.
