data_PCOD9160987
_publ_section_title
;
Structure prediction by ZEFSAII (Michael W. Deem and Ramdas Pophale) SiO2 
 PCOD9160987
Probable space group: P 21/M
;
_chemical_formula_sum "Si O2"
_cell_formula_units_Z 32
_cell_length_a 14.911259
_cell_length_b 14.138719
_cell_length_c 9.497258
_cell_angle_alpha 90.000000
_cell_angle_beta 40.450854
_cell_angle_gamma 90.000000
_cell_volume 1299.063812
_symmetry_space_group_name_H-M "P 21/M"
_symmetry_group_IT_number 11
_symmetry_cell_setting 'monoclinic'
loop_
_space_group_symop_operation_xyz
x,y,z
-x,1/2+y,-z
-x,-y,-z
x,1/2-y,z
loop_
_atom_site_type_symbol
_atom_site_label
_atom_site_fract_x
_atom_site_fract_y
_atom_site_fract_z
Si Si1 0.771439 0.360313 0.168457
Si Si2 0.370832 0.366043 0.472233
Si Si3 0.978265 0.646594 0.784611
Si Si4 0.856274 0.486064 0.584762
Si Si5 0.931295 0.857942 0.170507
Si Si6 0.357028 0.641551 0.990041
Si Si7 0.497450 0.365605 0.624515
Si Si8 0.714309 0.641873 0.894106
O O1 0.796353 0.250000 0.180085
O O2 0.656140 0.396836 0.414499
O O3 0.701097 0.359354 0.100232
O O4 0.922092 0.405514 0.968838
O O5 0.368832 0.250000 0.477045
O O6 0.217670 0.399996 0.622291
O O7 0.417824 0.393168 0.575413
O O8 0.486476 0.393016 0.220129
O O9 0.038156 0.750000 0.675562
O O10 0.838506 0.637733 0.860663
O O11 0.089097 0.567000 0.617205
O O12 0.937390 0.647786 0.994773
O O13 0.748680 0.417596 0.792086
O O14 0.775375 0.584363 0.691288
O O15 0.000000 0.500000 0.500000
O O16 0.932588 0.750000 0.229260
O O17 0.360278 0.750000 0.035753
O O18 0.496534 0.250000 0.627560
O O19 0.417300 0.395974 0.860813
O O20 0.688308 0.750000 0.885777
#
# Coordination Sequence:
#
# PCOD9160987 Si02
#       8
#     4   4   4   4   4   4   4   4
#     4   8  15  25  44  75 107 132 160 200 249 302
#     4   8  13  23  44  71 100 130 162 203 246 292
#     4   9  16  27  47  74 102 131 165 205 245 288
#     4  10  20  31  47  73 101 129 170 213 248 291
#     4   9  14  24  46  78 104 132 169 201 241 295
#     4   9  17  31  49  76 107 134 161 200 253 299
#     4   8  12  23  42  67  96 123 155 204 253 294
#     4   9  16  28  47  69  92 123 166 215 253 287
#
# _framework density 24.633123000000001
#
# number of rings (size 3 to 8) (size 9 to 14) (size 15 to 20)
#    0.000    3.250    1.250    1.875    0.000    0.500 
#    0.000    2.500    0.000    3.750    6.500    0.000 
#    0.000    1.000    0.000    0.000    0.000    0.000 
#
# Total GULP energy -178785.713013 kJ/mol
# GULP energy per Si atom -5587.053532 kJ/mol
# Density = 2.457706 g / cm^3
# Si number density = 24.633123 Si / 1000 Ang^3
#
#
#
# Elastic Constant Matrix: (Units=GPa)
#
#
# Indices 1 2 3 4 5 6 
#
# 1 45.5619 10.3126 38.3570 0.0000 -20.0451 0.0000
# 2 10.3126 90.1769 61.3094 0.0000 -5.8466 0.0000
# 3 38.3570 61.3094 209.7859 0.0000 -36.5407 0.0000
# 4 0.0000 0.0000 0.0000 -232.6606 0.0000 56.1551
# 5 -20.0451 -5.8466 -36.5407 0.0000 41.6329 0.0000
# 6 0.0000 0.0000 0.0000 56.1551 0.0000 -3.7716
#
#
#
# Elastic Compliance Matrix: (Units=1/GPa)
#
#
# Indices 1 2 3 4 5 6 
#
# 1 0.029875 -0.000390 -0.003367 0.000000 0.011374 0.000000
# 2 -0.000390 0.013972 -0.004371 0.000000 -0.002062 0.000000
# 3 -0.003367 -0.004371 0.007402 0.000000 0.004262 0.000000
# 4 0.000000 0.000000 0.000000 0.001657 0.000000 0.024674
# 5 0.011374 -0.002062 0.004262 0.000000 0.032947 0.000000
# 6 0.000000 0.000000 0.000000 0.024674 0.000000 0.102228
#
#
# Mechanical properties :
#
#
# Convention : Reuss Voigt Hill
#
# Bulk Modulus (GPa) = 28.57715 62.83142 45.70429
# Shear Modulus (GPa) = 23.14786 -23.25684 -0.05449
#
# Velocity S-wave (km/s) = 3.06879 -3.07600 -0.14889
# Velocity P-wave (km/s) = 4.91761 3.59813 4.30868
#
# Compressibility (1/GPa) = 0.03499299
#
# Stress axis : x y z
#
# Youngs Moduli (GPa) = 33.47256 71.57116 135.09428
#
# Poissons Ratio (x) = 0.02789 0.45491
# Poissons Ratio (y) = 0.01304 0.59053
# Poissons Ratio (z) = 0.11271 0.31285
#
# Static dielectric constant tensor:
#      x y z
#    x 1.927080 0.000000 -0.022920 
#    y 0.000000 2.034750 0.000000 
#    z -0.022920 0.000000 1.964560 
# 
# From -- ./inp_files/41622.got.cif
#   From: 2010.05.17/outbox.cif.g08.bks.cpg/sg11_21_cif.got.tgz:41622.got - 2010.06.03 12:22:45.
