data_PCOD9160983
_publ_section_title
;
Structure prediction by ZEFSAII (Michael W. Deem and Ramdas Pophale) SiO2 
 PCOD9160983
Probable space group: P 21/M
;
_chemical_formula_sum "Si O2"
_cell_formula_units_Z 22
_cell_length_a 18.769121
_cell_length_b 7.736694
_cell_length_c 12.213903
_cell_angle_alpha 90.000000
_cell_angle_beta 28.159021
_cell_angle_gamma 90.000000
_cell_volume 836.994295
_symmetry_space_group_name_H-M "P 21/M"
_symmetry_group_IT_number 11
_symmetry_cell_setting 'monoclinic'
loop_
_space_group_symop_operation_xyz
x,y,z
-x,1/2+y,-z
-x,-y,-z
x,1/2-y,z
loop_
_atom_site_type_symbol
_atom_site_label
_atom_site_fract_x
_atom_site_fract_y
_atom_site_fract_z
Si Si1 0.405173 0.446512 0.734027
Si Si2 0.504861 0.958674 0.153898
Si Si3 0.958105 0.750000 0.651394
Si Si4 0.187201 0.444348 0.349698
Si Si5 0.865110 0.449660 0.030030
Si Si6 0.192930 0.453842 0.653507
O O1 0.500000 0.500000 0.500000
O O2 0.443451 0.250000 0.701495
O O3 0.445345 0.534191 0.793629
O O4 0.231968 0.454134 0.929264
O O5 0.507879 0.750000 0.145410
O O6 0.330909 0.012961 0.386147
O O7 0.639553 0.009015 0.890198
O O8 0.073611 0.594837 0.536815
O O9 0.857924 0.896466 0.715570
O O10 0.171300 0.250000 0.424938
O O11 0.869559 0.250000 0.991146
O O12 0.783424 0.462733 0.259122
O O13 0.032167 0.517243 0.827122
O O14 0.177542 0.250000 0.694630
#
# Coordination Sequence:
#
# PCOD9160983 Si02
#       6
#     4   4   2   4   4   4
#     4  11  21  32  46  65  93 129 162 194 232 275
#     4  10  20  31  46  71  99 120 155 201 236 273
#     4   8  14  28  48  66  94 126 146 178 248 300
#     4   8  15  28  45  68  97 123 148 188 236 293
#     4  10  20  34  46  60  89 128 166 201 236 272
#     4  10  20  31  47  66  86 122 168 203 234 275
#
# _framework density 26.284527000000001
#
# number of rings (size 3 to 8) (size 9 to 14) (size 15 to 20)
#    0.545    1.818    1.818    1.636    1.273    2.909 
#    0.000    0.000    0.000    0.000    0.000    0.000 
#    0.000    8.727    0.000    0.545    0.000    0.000 
#
# Total GULP energy -122536.745413 kJ/mol
# GULP energy per Si atom -5569.852064 kJ/mol
# Density = 2.622470 g / cm^3
# Si number density = 26.284527 Si / 1000 Ang^3
#
#
#
# Elastic Constant Matrix: (Units=GPa)
#
#
# Indices 1 2 3 4 5 6 
#
# 1 94.8857 -0.6632 30.7918 0.0000 17.5183 0.0000
# 2 -0.6632 69.3351 3.8515 0.0000 3.8984 0.0000
# 3 30.7918 3.8515 155.5545 0.0000 -10.6145 0.0000
# 4 0.0000 0.0000 0.0000 50.9593 0.0000 -16.3179
# 5 17.5183 3.8984 -10.6145 0.0000 35.0329 0.0000
# 6 0.0000 0.0000 0.0000 -16.3179 0.0000 5.6554
#
#
#
# Elastic Compliance Matrix: (Units=1/GPa)
#
#
# Indices 1 2 3 4 5 6 
#
# 1 0.012927 0.000716 -0.003087 0.000000 -0.007479 0.000000
# 2 0.000716 0.014588 -0.000652 0.000000 -0.002179 0.000000
# 3 -0.003087 -0.000652 0.007317 0.000000 0.003833 0.000000
# 4 0.000000 0.000000 0.000000 0.257966 0.000000 0.744325
# 5 -0.007479 -0.002179 0.003833 0.000000 0.033688 0.000000
# 6 0.000000 0.000000 0.000000 0.744325 0.000000 2.324464
#
#
# Mechanical properties :
#
#
# Convention : Reuss Voigt Hill
#
# Bulk Modulus (GPa) = 34.73837 43.08173 38.91005
# Shear Modulus (GPa) = 1.87505 37.38252 19.62879
#
# Velocity S-wave (km/s) = 0.84553 3.77533 2.73569
# Velocity P-wave (km/s) = 3.76805 5.95233 4.98139
#
# Compressibility (1/GPa) = 0.02878662
#
# Stress axis : x y z
#
# Youngs Moduli (GPa) = 77.36034 68.54840 136.66165
#
# Poissons Ratio (x) = -0.04905 0.42185
# Poissons Ratio (y) = -0.05536 0.08904
# Poissons Ratio (z) = 0.23880 0.04466
#
# Static dielectric constant tensor:
#      x y z
#    x 2.350530 0.000000 -0.004550 
#    y 0.000000 1.945370 0.000000 
#    z -0.004550 0.000000 2.124550 
# 
# From -- ./inp_files/56495.got.cif
#   From: 2010.05.17/outbox.cif.g08.bks.cpg/sg11_29_cif.got.tgz:56495.got - 2010.06.03 12:22:45.
