data_PCOD9160642
_publ_section_title
;
Structure prediction by ZEFSAII (Michael W. Deem and Ramdas Pophale) SiO2 
 PCOD9160642
Probable space group: P 21/M
;
_chemical_formula_sum "Si O2"
_cell_formula_units_Z 24
_cell_length_a 20.147738
_cell_length_b 7.970450
_cell_length_c 7.609642
_cell_angle_alpha 90.000000
_cell_angle_beta 111.923106
_cell_angle_gamma 90.000000
_cell_volume 1133.637629
_symmetry_space_group_name_H-M "P 21/M"
_symmetry_group_IT_number 11
_symmetry_cell_setting 'monoclinic'
loop_
_space_group_symop_operation_xyz
x,y,z
-x,1/2+y,-z
-x,-y,-z
x,1/2-y,z
loop_
_atom_site_type_symbol
_atom_site_label
_atom_site_fract_x
_atom_site_fract_y
_atom_site_fract_z
Si Si1 0.921051 0.547489 0.980876
Si Si2 0.685406 0.053133 0.979797
Si Si3 0.574600 0.049744 0.160148
Si Si4 0.161821 0.446228 0.776244
Si Si5 0.349623 0.448658 0.429255
Si Si6 0.804571 0.544554 0.578894
O O1 0.916689 0.750000 0.982130
O O2 0.862624 0.491170 0.779976
O O3 0.897261 0.482291 0.149432
O O4 0.000000 0.500000 0.000000
O O5 0.699395 0.250000 0.020389
O O6 0.644444 0.029567 0.756031
O O7 0.637860 0.987011 0.093926
O O8 0.761635 0.961956 0.051350
O O9 0.578734 0.250000 0.168493
O O10 0.588548 0.984777 0.369654
O O11 0.500000 0.000000 0.000000
O O12 0.145082 0.250000 0.735160
O O13 0.173258 0.517525 0.592705
O O14 0.344296 0.250000 0.397112
O O15 0.274831 0.509573 0.442606
O O16 0.803005 0.750000 0.572881
#
# Coordination Sequence:
#
# PCOD9160642 Si02
#       6
#     4   4   4   4   4   4
#     4  10  21  37  55  83 119 155 194 242 297 353
#     4  11  23  38  60  92 125 154 194 249 302 356
#     4  11  25  43  62  90 126 161 198 248 302 356
#     4  10  19  36  61  85 112 153 202 244 290 355
#     4  11  21  38  66  92 117 158 203 248 298 354
#     4   9  18  34  59  86 112 147 197 244 287 347
#
# _framework density 21.170784999999999
#
# number of rings (size 3 to 8) (size 9 to 14) (size 15 to 20)
#    0.000    1.667    3.333    1.500    0.000    4.000 
#    0.000    0.833    0.000    0.000    0.000    0.000 
#    0.000    0.000    0.000    0.000    0.000    0.000 
#
# Total GULP energy -134108.610631 kJ/mol
# GULP energy per Si atom -5587.858776 kJ/mol
# Density = 2.112260 g / cm^3
# Si number density = 21.170785 Si / 1000 Ang^3
#
#
#
# Elastic Constant Matrix: (Units=GPa)
#
#
# Indices 1 2 3 4 5 6 
#
# 1 21.0167 -1.9629 -21.5406 0.0000 -1.0605 0.0000
# 2 -1.9629 22.4202 -4.9940 0.0000 -4.6325 0.0000
# 3 -21.5406 -4.9940 75.4714 0.0000 -12.0612 0.0000
# 4 0.0000 0.0000 0.0000 21.8419 0.0000 2.8486
# 5 -1.0605 -4.6325 -12.0612 0.0000 36.8957 0.0000
# 6 0.0000 0.0000 0.0000 2.8486 0.0000 20.6049
#
#
#
# Elastic Compliance Matrix: (Units=1/GPa)
#
#
# Indices 1 2 3 4 5 6 
#
# 1 0.074061 0.014249 0.023958 0.000000 0.011750 0.000000
# 2 0.014249 0.049808 0.008892 0.000000 0.009570 0.000000
# 3 0.023958 0.008892 0.022121 0.000000 0.009036 0.000000
# 4 0.000000 0.000000 0.000000 0.046624 0.000000 -0.006446
# 5 0.011750 0.009570 0.009036 0.000000 0.031597 0.000000
# 6 0.000000 0.000000 0.000000 -0.006446 0.000000 0.049423
#
#
# Mechanical properties :
#
#
# Convention : Reuss Voigt Hill
#
# Bulk Modulus (GPa) = 4.16341 6.87925 5.52133
# Shear Modulus (GPa) = 19.26794 25.69553 22.48173
#
# Velocity S-wave (km/s) = 3.02009 3.48764 3.26225
# Velocity P-wave (km/s) = 3.75927 4.41300 4.09919
#
# Compressibility (1/GPa) = 0.24018749
#
# Stress axis : x y z
#
# Youngs Moduli (GPa) = 13.50246 20.07699 45.20665
#
# Poissons Ratio (x) = -0.28607 -1.08308
# Poissons Ratio (y) = -0.19239 -0.40198
# Poissons Ratio (z) = -0.32350 -0.17852
#
# Static dielectric constant tensor:
#      x y z
#    x 1.757410 0.000000 -0.027310 
#    y 0.000000 1.770250 0.000000 
#    z -0.027310 0.000000 1.764260 
# 
# From -- ./inp_files/25607.got.cif
#   From: 2010.05.17/outbox.cif.g08.bks.cpg/sg11_13_cif.got.tgz:25607.got - 2010.06.03 12:22:45.
