data_PCOD9160140
_publ_section_title
;
Structure prediction by ZEFSAII (Michael W. Deem and Ramdas Pophale) SiO2 
 PCOD9160140
Probable space group: P 21/M
;
_chemical_formula_sum "Si O2"
_cell_formula_units_Z 24
_cell_length_a 5.137765
_cell_length_b 19.611646
_cell_length_c 11.714741
_cell_angle_alpha 90.000000
_cell_angle_beta 110.305124
_cell_angle_gamma 90.000000
_cell_volume 1107.026496
_symmetry_space_group_name_H-M "P 21/M"
_symmetry_group_IT_number 11
_symmetry_cell_setting 'monoclinic'
loop_
_space_group_symop_operation_xyz
x,y,z
-x,1/2+y,-z
-x,-y,-z
x,1/2-y,z
loop_
_atom_site_type_symbol
_atom_site_label
_atom_site_fract_x
_atom_site_fract_y
_atom_site_fract_z
Si Si1 0.582146 0.447053 0.680029
Si Si2 0.780713 0.060609 0.458247
Si Si3 0.654389 0.675555 0.232710
Si Si4 0.702345 0.830322 0.854391
Si Si5 0.068471 0.628498 0.107486
Si Si6 0.077802 0.671022 0.697998
O O1 0.467070 0.522757 0.648381
O O2 0.681003 0.423341 0.570348
O O3 0.358570 0.390504 0.687770
O O4 0.823002 0.439461 0.811540
O O5 0.908869 0.122089 0.407824
O O6 0.000000 0.000000 0.500000
O O7 0.667890 0.750000 0.290736
O O8 0.897939 0.667868 0.179161
O O9 0.354741 0.668050 0.124440
O O10 0.757886 0.750000 0.890655
O O11 0.372883 0.840064 0.806592
O O12 0.826963 0.841328 0.747053
O O13 0.871153 0.875669 0.969522
O O14 0.069592 0.750000 0.661584
#
# Coordination Sequence:
#
# PCOD9160140 Si02
#       6
#     4   4   4   4   4   4
#     4   9  24  38  64  95 123 170 214 258 324 375
#     4  11  23  46  68  87 129 173 215 265 321 376
#     4  10  19  34  59  95 129 161 204 256 311 372
#     4  10  20  39  64  95 131 167 204 261 318 375
#     4  10  20  37  62  98 128 165 208 256 322 375
#     4  10  24  42  67  96 123 165 217 259 313 379
#
# _framework density 21.679697999999998
#
# number of rings (size 3 to 8) (size 9 to 14) (size 15 to 20)
#    1.000    1.000    0.000    3.500    4.667    2.000 
#    0.000    2.500    0.000    0.000    0.000    0.000 
#    0.000    0.000    0.000    0.000    0.000    0.000 
#
# Total GULP energy -133937.206775 kJ/mol
# GULP energy per Si atom -5580.716949 kJ/mol
# Density = 2.163035 g / cm^3
# Si number density = 21.679698 Si / 1000 Ang^3
#
#
#
# Elastic Constant Matrix: (Units=GPa)
#
#
# Indices 1 2 3 4 5 6 
#
# 1 62.0243 3.5902 -13.8785 0.0000 4.7051 0.0000
# 2 3.5902 66.2172 36.6030 0.0000 0.3529 0.0000
# 3 -13.8785 36.6030 46.8745 0.0000 -1.8070 0.0000
# 4 0.0000 0.0000 0.0000 33.2437 0.0000 -0.8615
# 5 4.7051 0.3529 -1.8070 0.0000 28.6125 0.0000
# 6 0.0000 0.0000 0.0000 -0.8615 0.0000 9.2670
#
#
#
# Elastic Compliance Matrix: (Units=1/GPa)
#
#
# Indices 1 2 3 4 5 6 
#
# 1 0.019247 -0.007268 0.011283 0.000000 -0.002363 0.000000
# 2 -0.007268 0.029393 -0.025133 0.000000 -0.000755 0.000000
# 3 0.011283 -0.025133 0.044348 0.000000 0.001255 0.000000
# 4 0.000000 0.000000 0.000000 0.030154 0.000000 0.002803
# 5 -0.002363 -0.000755 0.001255 0.000000 0.035427 0.000000
# 6 0.000000 0.000000 0.000000 0.002803 0.000000 0.108170
#
#
# Mechanical properties :
#
#
# Convention : Reuss Voigt Hill
#
# Bulk Modulus (GPa) = 19.70349 25.30504 22.50427
# Shear Modulus (GPa) = 15.34252 24.14472 19.74362
#
# Velocity S-wave (km/s) = 2.66313 3.34084 3.02105
# Velocity P-wave (km/s) = 4.30866 5.15550 4.75098
#
# Compressibility (1/GPa) = 0.05075244
#
# Stress axis : x y z
#
# Youngs Moduli (GPa) = 51.95538 34.02215 22.54887
#
# Poissons Ratio (x) = 0.24727 -0.25442
# Poissons Ratio (y) = 0.37760 0.56672
# Poissons Ratio (z) = -0.58620 0.85507
#
# Static dielectric constant tensor:
#      x y z
#    x 1.830220 0.000000 0.072310 
#    y 0.000000 1.845190 0.000000 
#    z 0.072310 0.000000 1.800540 
# 
# From -- ./inp_files/29841.got.cif
#   From: 2010.05.17/outbox.cif.g08.bks.cpg/sg11_15_cif.got.tgz:29841.got - 2010.06.03 12:22:45.
