data_PCOD9160926
_publ_section_title
;
Structure prediction by ZEFSAII (Michael W. Deem and Ramdas Pophale) SiO2 
 PCOD9160926
Probable space group: P 21/M
;
_chemical_formula_sum "Si O2"
_cell_formula_units_Z 26
_cell_length_a 18.084240
_cell_length_b 12.936471
_cell_length_c 7.364291
_cell_angle_alpha 90.000000
_cell_angle_beta 35.332020
_cell_angle_gamma 90.000000
_cell_volume 996.346628
_symmetry_space_group_name_H-M "P 21/M"
_symmetry_group_IT_number 11
_symmetry_cell_setting 'monoclinic'
loop_
_space_group_symop_operation_xyz
x,y,z
-x,1/2+y,-z
-x,-y,-z
x,1/2-y,z
loop_
_atom_site_type_symbol
_atom_site_label
_atom_site_fract_x
_atom_site_fract_y
_atom_site_fract_z
Si Si1 0.232160 0.370251 0.160821
Si Si2 0.045234 0.911117 0.166253
Si Si3 0.758914 0.250000 0.077626
Si Si4 0.932931 0.861925 0.002704
Si Si5 0.337700 0.080020 0.298014
Si Si6 0.379062 0.750000 0.994584
Si Si7 0.431092 0.063377 0.480111
Si Si8 0.454700 0.750000 0.215133
O O1 0.261763 0.250000 0.149841
O O2 0.080889 0.379914 0.471045
O O3 0.284196 0.452786 0.208194
O O4 0.304871 0.392225 0.829876
O O5 0.021639 0.875340 0.004562
O O6 0.165277 0.851082 0.007614
O O7 0.052224 0.034684 0.143020
O O8 0.739244 0.250000 0.902427
O O9 0.617373 0.250000 0.450556
O O10 0.955631 0.750000 0.871220
O O11 0.788304 0.864545 0.370374
O O12 0.387156 0.016071 0.373431
O O13 0.451310 0.155087 0.011229
O O14 0.470182 0.652960 0.770015
O O15 0.348801 0.750000 0.268041
O O16 0.500000 0.000000 0.500000
#
# Coordination Sequence:
#
# PCOD9160926 Si02
#       8
#     4   4   2   4   4   2   4   2
#     4  11  20  42  73  96 130 180 225 272 338 402
#     4  10  22  39  66 101 131 176 227 277 330 404
#     4  12  22  42  68  96 146 174 217 281 338 391
#     4  10  19  40  67  93 132 172 225 281 329 395
#     4  10  20  41  68  95 131 175 228 271 332 405
#     4  10  24  43  61  95 141 172 217 279 335 395
#     4  11  25  43  66 101 136 173 225 281 331 402
#     4  10  20  39  63  97 133 178 220 270 331 398
#
# _framework density 26.095337000000001
#
# number of rings (size 3 to 8) (size 9 to 14) (size 15 to 20)
#    0.000    1.538    3.846    1.846    2.154    0.615 
#   16.615    3.846    0.000    0.000    0.000    0.000 
#    0.000    0.000    0.000    0.000    0.000    0.000 
#
# Total GULP energy -145557.446885 kJ/mol
# GULP energy per Si atom -5598.363342 kJ/mol
# Density = 2.603594 g / cm^3
# Si number density = 26.095337 Si / 1000 Ang^3
#
#
#
# Elastic Constant Matrix: (Units=GPa)
#
#
# Indices 1 2 3 4 5 6 
#
# 1 116.1460 2.8050 16.1356 0.0000 -2.9827 0.0000
# 2 2.8050 109.3462 20.6126 0.0000 -1.9439 0.0000
# 3 16.1356 20.6126 87.5852 0.0000 -0.8141 0.0000
# 4 0.0000 0.0000 0.0000 8.4867 0.0000 1.1120
# 5 -2.9827 -1.9439 -0.8141 0.0000 34.5903 0.0000
# 6 0.0000 0.0000 0.0000 1.1120 0.0000 10.6408
#
#
#
# Elastic Compliance Matrix: (Units=1/GPa)
#
#
# Indices 1 2 3 4 5 6 
#
# 1 0.008855 0.000096 -0.001647 0.000000 0.000730 0.000000
# 2 0.000096 0.009579 -0.002268 0.000000 0.000493 0.000000
# 3 -0.001647 -0.002268 0.012255 0.000000 0.000019 0.000000
# 4 0.000000 0.000000 0.000000 0.119467 0.000000 -0.012485
# 5 0.000730 0.000493 0.000019 0.000000 0.029001 0.000000
# 6 0.000000 0.000000 0.000000 -0.012485 0.000000 0.095283
#
#
# Mechanical properties :
#
#
# Convention : Reuss Voigt Hill
#
# Bulk Modulus (GPa) = 43.38012 43.57597 43.47804
# Shear Modulus (GPa) = 17.25565 28.97851 23.11708
#
# Velocity S-wave (km/s) = 2.57428 3.33601 2.97959
# Velocity P-wave (km/s) = 5.04932 5.61904 5.34178
#
# Compressibility (1/GPa) = 0.02305204
#
# Stress axis : x y z
#
# Youngs Moduli (GPa) = 112.92897 104.39492 81.60111
#
# Poissons Ratio (x) = -0.01006 0.13442
# Poissons Ratio (y) = -0.01088 0.18503
# Poissons Ratio (z) = 0.18602 0.23672
#
# Static dielectric constant tensor:
#      x y z
#    x 2.136130 0.000000 -0.018180 
#    y 0.000000 2.092130 0.000000 
#    z -0.018180 0.000000 1.949150 
# 
# From -- ./inp_files/26788.got.cif
#   From: 2010.05.17/outbox.cif.g08.bks.cpg/sg11_14_cif.got.tgz:26788.got - 2010.06.03 12:22:45.
