data_PCOD9160337
_publ_section_title
;
Structure prediction by ZEFSAII (Michael W. Deem and Ramdas Pophale) SiO2 
 PCOD9160337
Probable space group: P 21/M
;
_chemical_formula_sum "Si O2"
_cell_formula_units_Z 32
_cell_length_a 28.596701
_cell_length_b 8.578961
_cell_length_c 22.334826
_cell_angle_alpha 90.000000
_cell_angle_beta 16.801949
_cell_angle_gamma 90.000000
_cell_volume 1583.899977
_symmetry_space_group_name_H-M "P 21/M"
_symmetry_group_IT_number 11
_symmetry_cell_setting 'monoclinic'
loop_
_space_group_symop_operation_xyz
x,y,z
-x,1/2+y,-z
-x,-y,-z
x,1/2-y,z
loop_
_atom_site_type_symbol
_atom_site_label
_atom_site_fract_x
_atom_site_fract_y
_atom_site_fract_z
Si Si1 0.908136 0.568809 0.930598
Si Si2 0.751033 0.072916 0.790871
Si Si3 0.598060 0.564128 0.604914
Si Si4 0.055707 0.062697 0.867982
Si Si5 0.774401 0.930244 0.509497
Si Si6 0.557018 0.429594 0.867917
Si Si7 0.990434 0.431860 0.610956
Si Si8 0.751823 0.438382 0.008226
O O1 0.872451 0.750000 0.981231
O O2 0.937348 0.492721 0.959686
O O3 0.079535 0.540520 0.687604
O O4 0.783763 0.490624 0.036923
O O5 0.688364 0.250000 0.862035
O O6 0.858790 0.065828 0.718398
O O7 0.862720 0.030513 0.596774
O O8 0.603281 0.954599 0.975550
O O9 0.592471 0.750000 0.600346
O O10 0.760969 0.506142 0.372143
O O11 0.637163 0.546930 0.627153
O O12 0.423287 0.502793 0.799743
O O13 0.057794 0.250000 0.865222
O O14 0.000000 0.000000 0.000000
O O15 0.828961 0.750000 0.439355
O O16 0.700628 0.971644 0.663287
O O17 0.601045 0.250000 0.817834
O O18 0.500000 0.500000 0.000000
O O19 0.040091 0.250000 0.557954
O O20 0.896747 0.487497 0.785312
O O21 0.752937 0.250000 0.003783
#
# Coordination Sequence:
#
# PCOD9160337 Si02
#       8
#     4   4   4   4   4   4   4   4
#     4  11  23  38  57  88 124 157 195 237 283 344
#     4  10  20  36  54  75 104 140 188 241 293 353
#     4   8  17  35  62  90 115 148 191 234 283 343
#     4  10  20  39  66  94 122 157 196 236 285 342
#     4  10  20  39  62  83 110 149 194 245 298 353
#     4  12  25  38  53  75 105 143 189 243 298 353
#     4   9  19  34  55  78 105 144 187 234 290 350
#     4  10  19  35  58  83 114 151 192 238 289 342
#
# _framework density 20.203296999999999
#
# number of rings (size 3 to 8) (size 9 to 14) (size 15 to 20)
#    0.000    2.000    0.000    4.875    1.750    3.000 
#    0.000    5.625    0.000    0.000    0.000    0.000 
#    0.000    0.000    0.000    0.000    0.000    0.000 
#
# Total GULP energy -178726.678306 kJ/mol
# GULP energy per Si atom -5585.208697 kJ/mol
# Density = 2.015731 g / cm^3
# Si number density = 20.203297 Si / 1000 Ang^3
#
#
#
# Elastic Constant Matrix: (Units=GPa)
#
#
# Indices 1 2 3 4 5 6 
#
# 1 91.3783 10.0389 24.2911 0.0000 16.6028 0.0000
# 2 10.0389 44.8555 4.8326 0.0000 5.9736 0.0000
# 3 24.2911 4.8326 42.9294 0.0000 14.0607 0.0000
# 4 0.0000 0.0000 0.0000 23.5547 0.0000 2.8146
# 5 16.6028 5.9736 14.0607 0.0000 39.7734 0.0000
# 6 0.0000 0.0000 0.0000 2.8146 0.0000 27.4106
#
#
#
# Elastic Compliance Matrix: (Units=1/GPa)
#
#
# Indices 1 2 3 4 5 6 
#
# 1 0.013401 -0.001906 -0.006367 0.000000 -0.003057 0.000000
# 2 -0.001906 0.023121 -0.000732 0.000000 -0.002418 0.000000
# 3 -0.006367 -0.000732 0.029487 0.000000 -0.007656 0.000000
# 4 0.000000 0.000000 0.000000 0.042982 0.000000 -0.004413
# 5 -0.003057 -0.002418 -0.007656 0.000000 0.029488 0.000000
# 6 0.000000 0.000000 0.000000 -0.004413 0.000000 0.036935
#
#
# Mechanical properties :
#
#
# Convention : Reuss Voigt Hill
#
# Bulk Modulus (GPa) = 20.83401 28.60981 24.72191
# Shear Modulus (GPa) = 23.87494 27.48112 25.67803
#
# Velocity S-wave (km/s) = 3.44137 3.69213 3.56895
# Velocity P-wave (km/s) = 5.11129 5.68924 5.40799
#
# Compressibility (1/GPa) = 0.04799844
#
# Stress axis : x y z
#
# Youngs Moduli (GPa) = 74.62204 43.25016 33.91339
#
# Poissons Ratio (x) = 0.08244 0.21592
# Poissons Ratio (y) = 0.14224 0.02483
# Poissons Ratio (z) = 0.47511 0.03167
#
# Static dielectric constant tensor:
#      x y z
#    x 1.767790 0.000000 -0.041940 
#    y 0.000000 1.684620 0.000000 
#    z -0.041940 0.000000 1.726600 
# 
# From -- ./inp_files/67074.got.cif
#   From: 2010.05.17/outbox.cif.g08.bks.cpg/sg11_34_cif.got.tgz:67074.got - 2010.06.03 12:22:45.
