data_PCOD9160553
_publ_section_title
;
Structure prediction by ZEFSAII (Michael W. Deem and Ramdas Pophale) SiO2 
 PCOD9160553
Probable space group: P 21/M
;
_chemical_formula_sum "Si O2"
_cell_formula_units_Z 32
_cell_length_a 8.345746
_cell_length_b 15.336688
_cell_length_c 20.285882
_cell_angle_alpha 90.000000
_cell_angle_beta 143.514774
_cell_angle_gamma 90.000000
_cell_volume 1543.927341
_symmetry_space_group_name_H-M "P 21/M"
_symmetry_group_IT_number 11
_symmetry_cell_setting 'monoclinic'
loop_
_space_group_symop_operation_xyz
x,y,z
-x,1/2+y,-z
-x,-y,-z
x,1/2-y,z
loop_
_atom_site_type_symbol
_atom_site_label
_atom_site_fract_x
_atom_site_fract_y
_atom_site_fract_z
Si Si1 0.753870 0.155034 0.193094
Si Si2 0.438720 0.523152 0.647734
Si Si3 0.451551 0.151611 0.573592
Si Si4 0.854621 0.470469 0.884099
Si Si5 0.276219 0.490466 0.723487
Si Si6 0.065634 0.154013 0.736140
Si Si7 0.344618 0.408365 0.958269
Si Si8 0.370542 0.350501 0.396216
O O1 0.735321 0.250000 0.220806
O O2 0.060644 0.144877 0.271073
O O3 0.685609 0.072505 0.215995
O O4 0.550777 0.151698 0.065492
O O5 0.410150 0.425141 0.611389
O O6 0.218891 0.530438 0.632753
O O7 0.453519 0.588520 0.592124
O O8 0.719440 0.534173 0.783491
O O9 0.350528 0.250000 0.555560
O O10 0.355857 0.125148 0.468568
O O11 0.772923 0.157157 0.671643
O O12 0.077707 0.419018 0.915728
O O13 0.560579 0.436719 0.811638
O O14 0.000000 0.500000 0.000000
O O15 0.067959 0.422522 0.683576
O O16 0.128216 0.250000 0.730044
O O17 0.265346 0.127269 0.860816
O O18 0.500000 0.500000 0.000000
O O19 0.464471 0.250000 0.425069
#
# Coordination Sequence:
#
# PCOD9160553 Si02
#       8
#     4   4   4   4   4   4   4   4
#     4  11  22  37  58  85 117 156 198 239 293 350
#     4  10  20  37  61  84 113 155 195 233 296 353
#     4  10  21  39  64  88 114 150 200 253 293 342
#     4  10  19  36  58  87 119 158 187 232 297 345
#     4  10  22  36  56  82 124 154 184 241 291 346
#     4  11  21  37  59  88 116 152 201 244 294 348
#     4  12  19  36  64  82 118 151 196 247 289 342
#     4  10  22  40  62  88 115 151 201 251 292 343
#
# _framework density 20.726362999999999
#
# number of rings (size 3 to 8) (size 9 to 14) (size 15 to 20)
#    0.750    0.750    3.750    2.250    0.000    1.000 
#    0.000    3.750    0.000    4.500    0.000    0.000 
#    0.000    0.000    0.000    0.000    0.000    0.000 
#
# Total GULP energy -178235.859377 kJ/mol
# GULP energy per Si atom -5569.870606 kJ/mol
# Density = 2.067919 g / cm^3
# Si number density = 20.726363 Si / 1000 Ang^3
#
#
#
# Elastic Constant Matrix: (Units=GPa)
#
#
# Indices 1 2 3 4 5 6 
#
# 1 53.7709 36.9377 12.1160 0.0000 -17.9935 0.0000
# 2 36.9377 87.1708 12.7270 0.0000 -8.6878 0.0000
# 3 12.1160 12.7270 73.6072 0.0000 -9.7493 0.0000
# 4 0.0000 0.0000 0.0000 18.3746 0.0000 -0.0029
# 5 -17.9935 -8.6878 -9.7493 0.0000 26.0800 0.0000
# 6 0.0000 0.0000 0.0000 -0.0029 0.0000 -1.7638
#
#
#
# Elastic Compliance Matrix: (Units=1/GPa)
#
#
# Indices 1 2 3 4 5 6 
#
# 1 0.033398 -0.012158 -0.000925 0.000000 0.018646 0.000000
# 2 -0.012158 0.016476 -0.001296 0.000000 -0.003385 0.000000
# 3 -0.000925 -0.001296 0.014540 0.000000 0.004365 0.000000
# 4 0.000000 0.000000 0.000000 0.054423 0.000000 -0.000090
# 5 0.018646 -0.003385 0.004365 0.000000 0.051713 0.000000
# 6 0.000000 0.000000 0.000000 -0.000090 0.000000 -0.566943
#
#
# Mechanical properties :
#
#
# Convention : Reuss Voigt Hill
#
# Bulk Modulus (GPa) = 28.04705 37.56782 32.80743
# Shear Modulus (GPa) = -14.05483 18.72269 2.33393
#
# Velocity S-wave (km/s) = -2.60689 3.00880 1.06232
# Velocity P-wave (km/s) = 2.12139 5.49868 4.16748
#
# Compressibility (1/GPa) = 0.03565438
#
# Stress axis : x y z
#
# Youngs Moduli (GPa) = 29.94210 60.69577 68.77498
#
# Poissons Ratio (x) = 0.73797 0.06365
# Poissons Ratio (y) = 0.36405 0.08911
# Poissons Ratio (z) = 0.02771 0.07864
#
# Static dielectric constant tensor:
#      x y z
#    x 1.762020 0.000000 0.009970 
#    y 0.000000 1.842140 0.000000 
#    z 0.009970 0.000000 1.820930 
# 
# From -- ./inp_files/63823.got.cif
#   From: 2010.05.17/outbox.cif.g08.bks.cpg/sg11_32_cif.got.tgz:63823.got - 2010.06.03 12:22:45.
