data_PCOD9160963
_publ_section_title
;
Structure prediction by ZEFSAII (Michael W. Deem and Ramdas Pophale) SiO2 
 PCOD9160963
Probable space group: P 21/M
;
_chemical_formula_sum "Si O2"
_cell_formula_units_Z 32
_cell_length_a 17.781625
_cell_length_b 7.383662
_cell_length_c 10.967159
_cell_angle_alpha 90.000000
_cell_angle_beta 94.729556
_cell_angle_gamma 90.000000
_cell_volume 1435.013850
_symmetry_space_group_name_H-M "P 21/M"
_symmetry_group_IT_number 11
_symmetry_cell_setting 'monoclinic'
loop_
_space_group_symop_operation_xyz
x,y,z
-x,1/2+y,-z
-x,-y,-z
x,1/2-y,z
loop_
_atom_site_type_symbol
_atom_site_label
_atom_site_fract_x
_atom_site_fract_y
_atom_site_fract_z
Si Si1 0.580271 0.461958 0.665452
Si Si2 0.879673 0.537288 0.187970
Si Si3 0.028514 0.970957 0.314237
Si Si4 0.738018 0.470183 0.762814
Si Si5 0.119110 0.532414 0.084051
Si Si6 0.412653 0.470366 0.619544
Si Si7 0.170483 0.531269 0.471257
Si Si8 0.263575 0.455119 0.722329
O O1 0.575567 0.250000 0.695488
O O2 0.652377 0.537697 0.746409
O O3 0.495721 0.535237 0.670426
O O4 0.597857 0.476237 0.523158
O O5 0.872995 0.750000 0.214577
O O6 0.795701 0.458777 0.191579
O O7 0.943047 0.463098 0.288131
O O8 0.906456 0.524470 0.052567
O O9 0.027618 0.750000 0.317361
O O10 0.068945 0.024861 0.192348
O O11 0.084869 0.028993 0.429265
O O12 0.735224 0.250000 0.766257
O O13 0.795252 0.529211 0.875881
O O14 0.779840 0.514966 0.641362
O O15 0.118101 0.750000 0.085445
O O16 0.411994 0.250000 0.620075
O O17 0.343376 0.536298 0.692707
O O18 0.170821 0.750000 0.482656
O O19 0.212413 0.453393 0.593157
O O20 0.280803 0.250000 0.764908
#
# Coordination Sequence:
#
# PCOD9160963 Si02
#       8
#     4   4   4   4   4   4   4   4
#     4   9  15  26  46  68  88 114 147 178 217 263
#     4  10  20  33  46  62  89 125 154 176 220 273
#     4   8  16  31  50  68  87 112 145 192 233 259
#     4   8  14  26  46  69  89 109 138 184 231 262
#     4   9  17  31  50  69  86 106 146 198 231 253
#     4   9  17  27  41  65  94 119 144 177 213 256
#     4   9  16  29  48  67  87 115 150 183 220 263
#     4  10  20  31  42  62  97 128 146 174 216 267
#
# _framework density 22.299436
#
# number of rings (size 3 to 8) (size 9 to 14) (size 15 to 20)
#    0.000    3.000    1.250    1.875    0.000    1.000 
#    0.000    3.750    0.000    0.750    0.000    0.000 
#    0.000    0.000    0.000    0.000    0.000    0.000 
#
# Total GULP energy -178520.183719 kJ/mol
# GULP energy per Si atom -5578.755741 kJ/mol
# Density = 2.224868 g / cm^3
# Si number density = 22.299436 Si / 1000 Ang^3
#
#
#
# Elastic Constant Matrix: (Units=GPa)
#
#
# Indices 1 2 3 4 5 6 
#
# 1 141.5278 3.6245 1.9770 0.0000 6.4008 0.0000
# 2 3.6245 80.0168 -5.4618 0.0000 -1.0121 0.0000
# 3 1.9770 -5.4618 42.3115 0.0000 3.9260 0.0000
# 4 0.0000 0.0000 0.0000 12.3932 0.0000 -1.3796
# 5 6.4008 -1.0121 3.9260 0.0000 31.6039 0.0000
# 6 0.0000 0.0000 0.0000 -1.3796 0.0000 -14.6237
#
#
#
# Elastic Compliance Matrix: (Units=1/GPa)
#
#
# Indices 1 2 3 4 5 6 
#
# 1 0.007143 -0.000359 -0.000248 0.000000 -0.001427 0.000000
# 2 -0.000359 0.012628 0.001621 0.000000 0.000276 0.000000
# 3 -0.000248 0.001621 0.024124 0.000000 -0.002895 0.000000
# 4 0.000000 0.000000 0.000000 0.079851 0.000000 -0.007533
# 5 -0.001427 0.000276 -0.002895 0.000000 0.032299 0.000000
# 6 0.000000 0.000000 0.000000 -0.007533 0.000000 -0.067672
#
#
# Mechanical properties :
#
#
# Convention : Reuss Voigt Hill
#
# Bulk Modulus (GPa) = 21.77477 29.34837 25.56157
# Shear Modulus (GPa) = 49.18810 23.45579 36.32195
#
# Velocity S-wave (km/s) = 4.70169 3.24675 4.04025
# Velocity P-wave (km/s) = 6.26581 5.21965 5.76651
#
# Compressibility (1/GPa) = 0.04592471
#
# Stress axis : x y z
#
# Youngs Moduli (GPa) = 139.99823 79.19052 41.45305
#
# Poissons Ratio (x) = 0.02839 0.01026
# Poissons Ratio (y) = 0.05019 -0.06721
# Poissons Ratio (z) = 0.03466 -0.12839
#
# Static dielectric constant tensor:
#      x y z
#    x 1.892080 0.000000 -0.016680 
#    y 0.000000 1.838040 0.000000 
#    z -0.016680 0.000000 1.783850 
# 
# From -- ./inp_files/40704.got.cif
#   From: 2010.05.17/outbox.cif.g08.bks.cpg/sg11_21_cif.got.tgz:40704.got - 2010.06.03 12:22:45.
