data_PCOD9160373
_publ_section_title
;
Structure prediction by ZEFSAII (Michael W. Deem and Ramdas Pophale) SiO2 
 PCOD9160373
Probable space group: P 21/M
;
_chemical_formula_sum "Si O2"
_cell_formula_units_Z 20
_cell_length_a 5.109019
_cell_length_b 21.933908
_cell_length_c 6.569781
_cell_angle_alpha 90.000000
_cell_angle_beta 84.073828
_cell_angle_gamma 90.000000
_cell_volume 732.280096
_symmetry_space_group_name_H-M "P 21/M"
_symmetry_group_IT_number 11
_symmetry_cell_setting 'monoclinic'
loop_
_space_group_symop_operation_xyz
x,y,z
-x,1/2+y,-z
-x,-y,-z
x,1/2-y,z
loop_
_atom_site_type_symbol
_atom_site_label
_atom_site_fract_x
_atom_site_fract_y
_atom_site_fract_z
Si Si1 0.977140 0.317697 0.869164
Si Si2 0.311740 0.575916 0.953123
Si Si3 0.208602 0.682229 0.561857
Si Si4 0.276048 0.384381 0.522796
Si Si5 0.839066 0.980494 0.746684
O O1 0.065767 0.250000 0.924507
O O2 0.799476 0.355471 0.038737
O O3 0.796503 0.310335 0.684393
O O4 0.209707 0.359674 0.753993
O O5 0.247068 0.548451 0.185000
O O6 0.610465 0.559480 0.880335
O O7 0.115620 0.537412 0.824214
O O8 0.257692 0.750000 0.641868
O O9 0.433210 0.632310 0.567725
O O10 0.914378 0.656431 0.607480
O O11 0.196138 0.453636 0.477997
#
# Coordination Sequence:
#
# PCOD9160373 Si02
#       5
#     4   4   4   4   4
#     4   9  21  38  59  85 113 148 188 232 279 333
#     4  10  22  40  60  81 116 150 186 233 279 333
#     4   9  18  33  54  81 112 144 179 229 276 323
#     4  10  19  35  59  82 110 145 188 229 276 332
#     4  10  22  40  58  83 114 150 187 231 283 330
#
# _framework density 27.311952000000002
#
# number of rings (size 3 to 8) (size 9 to 14) (size 15 to 20)
#    1.200    1.200    0.000    2.400    2.800    0.800 
#    0.000    9.000    0.000    0.000    0.000    0.000 
#    0.000    0.000    0.000    0.000    0.000    0.000 
#
# Total GULP energy -111748.236829 kJ/mol
# GULP energy per Si atom -5587.411841 kJ/mol
# Density = 2.724979 g / cm^3
# Si number density = 27.311952 Si / 1000 Ang^3
#
#
#
# Elastic Constant Matrix: (Units=GPa)
#
#
# Indices 1 2 3 4 5 6 
#
# 1 124.3795 7.1420 8.8225 0.0000 -12.8479 0.0000
# 2 7.1420 137.7194 13.4110 0.0000 -0.1461 0.0000
# 3 8.8225 13.4110 76.6850 0.0000 -17.2523 0.0000
# 4 0.0000 0.0000 0.0000 48.4258 0.0000 4.2272
# 5 -12.8479 -0.1461 -17.2523 0.0000 32.7572 0.0000
# 6 0.0000 0.0000 0.0000 4.2272 0.0000 28.0088
#
#
#
# Elastic Compliance Matrix: (Units=1/GPa)
#
#
# Indices 1 2 3 4 5 6 
#
# 1 0.008407 -0.000416 -0.000174 0.000000 0.003204 0.000000
# 2 -0.000416 0.007423 -0.001452 0.000000 -0.000894 0.000000
# 3 -0.000174 -0.001452 0.015085 0.000000 0.007870 0.000000
# 4 0.000000 0.000000 0.000000 0.020926 0.000000 -0.003158
# 5 0.003204 -0.000894 0.007870 0.000000 0.035925 0.000000
# 6 0.000000 0.000000 0.000000 -0.003158 0.000000 0.036180
#
#
# Mechanical properties :
#
#
# Convention : Reuss Voigt Hill
#
# Bulk Modulus (GPa) = 37.26744 44.17054 40.71899
# Shear Modulus (GPa) = 36.50380 42.46561 39.48471
#
# Velocity S-wave (km/s) = 3.65985 3.94742 3.80635
# Velocity P-wave (km/s) = 5.61552 6.08144 5.85312
#
# Compressibility (1/GPa) = 0.02683307
#
# Stress axis : x y z
#
# Youngs Moduli (GPa) = 118.94761 134.71457 66.29192
#
# Poissons Ratio (x) = 0.05600 0.01151
# Poissons Ratio (y) = 0.04944 0.09623
# Poissons Ratio (z) = 0.02066 0.19555
#
# Static dielectric constant tensor:
#      x y z
#    x 2.001160 0.000000 -0.037720 
#    y 0.000000 2.140420 0.000000 
#    z -0.037720 0.000000 2.348060 
# 
# From -- ./inp_files/10172.got.cif
#   From: 2010.05.17/outbox.cif.g08.bks.cpg/sg11_6_cif.got.tgz:10172.got - 2010.06.03 12:22:45.
