data_PCOD9160257
_publ_section_title
;
Structure prediction by ZEFSAII (Michael W. Deem and Ramdas Pophale) SiO2 
 PCOD9160257
Probable space group: P 21/M
;
_chemical_formula_sum "Si O2"
_cell_formula_units_Z 28
_cell_length_a 16.564916
_cell_length_b 7.833603
_cell_length_c 20.942800
_cell_angle_alpha 90.000000
_cell_angle_beta 149.853212
_cell_angle_gamma 90.000000
_cell_volume 1364.825096
_symmetry_space_group_name_H-M "P 21/M"
_symmetry_group_IT_number 11
_symmetry_cell_setting 'monoclinic'
loop_
_space_group_symop_operation_xyz
x,y,z
-x,1/2+y,-z
-x,-y,-z
x,1/2-y,z
loop_
_atom_site_type_symbol
_atom_site_label
_atom_site_fract_x
_atom_site_fract_y
_atom_site_fract_z
Si Si1 0.987142 0.540689 0.803990
Si Si2 0.451055 0.545817 0.282294
Si Si3 0.810396 0.959365 0.554186
Si Si4 0.048634 0.955734 0.605251
Si Si5 0.860766 0.953342 0.854400
Si Si6 0.652185 0.454262 0.927116
Si Si7 0.589757 0.453384 0.126642
O O1 0.986412 0.750000 0.803119
O O2 0.892561 0.485617 0.676377
O O3 0.906875 0.483121 0.815411
O O4 0.172774 0.483405 0.931111
O O5 0.466460 0.750000 0.286231
O O6 0.626766 0.481602 0.421943
O O7 0.310293 0.513366 0.236399
O O8 0.395969 0.477299 0.175462
O O9 0.810083 0.750000 0.554089
O O10 0.917836 0.015391 0.567459
O O11 0.051975 0.750000 0.612268
O O12 0.227772 0.020614 0.744042
O O13 0.000000 0.000000 0.500000
O O14 0.856301 0.750000 0.847861
O O15 0.000000 0.000000 0.000000
O O16 0.668046 0.250000 0.931650
O O17 0.516328 0.488305 0.886150
O O18 0.599522 0.250000 0.135837
O O19 0.500000 0.500000 0.000000
#
# Coordination Sequence:
#
# PCOD9160257 Si02
#       7
#     4   4   4   4   4   4   4
#     4   9  18  34  56  80 109 148 187 226 275 333
#     4  10  20  35  57  84 110 142 184 228 276 333
#     4   9  18  34  56  80 108 145 187 224 271 336
#     4  10  21  38  60  83 111 150 192 235 282 340
#     4  11  21  36  58  83 112 145 185 230 278 331
#     4  10  19  35  57  79 109 149 191 231 279 336
#     4  11  23  37  56  85 116 148 191 239 289 340
#
# _framework density 20.515450000000001
#
# number of rings (size 3 to 8) (size 9 to 14) (size 15 to 20)
#    0.000    2.000    1.429    2.571    0.000    5.714 
#    0.000    0.714    0.000    3.429    0.000    0.000 
#    0.000    0.000    0.000    0.000    0.000    0.000 
#
# Total GULP energy -156441.500557 kJ/mol
# GULP energy per Si atom -5587.196448 kJ/mol
# Density = 2.046876 g / cm^3
# Si number density = 20.515450 Si / 1000 Ang^3
#
#
#
# Elastic Constant Matrix: (Units=GPa)
#
#
# Indices 1 2 3 4 5 6 
#
# 1 163.1966 -0.7973 105.2154 0.0000 13.7812 0.0000
# 2 -0.7973 13.7930 13.5521 0.0000 -4.6191 0.0000
# 3 105.2154 13.5521 216.8849 0.0000 15.6788 0.0000
# 4 0.0000 0.0000 0.0000 12.2177 0.0000 5.7243
# 5 13.7812 -4.6191 15.6788 0.0000 40.0344 0.0000
# 6 0.0000 0.0000 0.0000 5.7243 0.0000 28.6389
#
#
#
# Elastic Compliance Matrix: (Units=1/GPa)
#
#
# Indices 1 2 3 4 5 6 
#
# 1 0.009284 0.004958 -0.004759 0.000000 -0.000760 0.000000
# 2 0.004958 0.085017 -0.008545 0.000000 0.011449 0.000000
# 3 -0.004759 -0.008545 0.007622 0.000000 -0.002333 0.000000
# 4 0.000000 0.000000 0.000000 0.090305 0.000000 -0.018050
# 5 -0.000760 0.011449 -0.002333 0.000000 0.027475 0.000000
# 6 0.000000 0.000000 0.000000 -0.018050 0.000000 0.038525
#
#
# Mechanical properties :
#
#
# Convention : Reuss Voigt Hill
#
# Bulk Modulus (GPa) = 11.73288 69.97944 40.85616
# Shear Modulus (GPa) = 16.48368 34.57182 25.52775
#
# Velocity S-wave (km/s) = 2.83764 4.10952 3.53132
# Velocity P-wave (km/s) = 4.05805 7.53009 6.04855
#
# Compressibility (1/GPa) = 0.08523058
#
# Stress axis : x y z
#
# Youngs Moduli (GPa) = 107.71233 11.76238 131.20172
#
# Poissons Ratio (x) = -0.05831 0.62435
# Poissons Ratio (y) = -0.53400 1.12112
# Poissons Ratio (z) = 0.51257 0.10051
#
# Static dielectric constant tensor:
#      x y z
#    x 1.684020 0.000000 0.000040 
#    y 0.000000 1.752170 0.000000 
#    z 0.000040 0.000000 1.710800 
# 
# From -- ./inp_files/54538.got.cif
#   From: 2010.05.17/outbox.cif.g08.bks.cpg/sg11_28_cif.got.tgz:54538.got - 2010.06.03 12:22:45.
