data_PCOD9160426
_publ_section_title
;
Structure prediction by ZEFSAII (Michael W. Deem and Ramdas Pophale) SiO2 
 PCOD9160426
Probable space group: P 21/M
;
_chemical_formula_sum "Si O2"
_cell_formula_units_Z 32
_cell_length_a 31.656911
_cell_length_b 9.378040
_cell_length_c 12.692198
_cell_angle_alpha 90.000000
_cell_angle_beta 153.269409
_cell_angle_gamma 90.000000
_cell_volume 1694.856620
_symmetry_space_group_name_H-M "P 21/M"
_symmetry_group_IT_number 11
_symmetry_cell_setting 'monoclinic'
loop_
_space_group_symop_operation_xyz
x,y,z
-x,1/2+y,-z
-x,-y,-z
x,1/2-y,z
loop_
_atom_site_type_symbol
_atom_site_label
_atom_site_fract_x
_atom_site_fract_y
_atom_site_fract_z
Si Si1 0.366200 0.414355 0.633702
Si Si2 0.096319 0.084295 0.726509
Si Si3 0.298126 0.582327 0.677211
Si Si4 0.394964 0.917776 0.116611
Si Si5 0.570516 0.081058 0.425239
Si Si6 0.146821 0.408855 0.083853
Si Si7 0.086279 0.919002 0.139415
Si Si8 0.726495 0.081642 0.947222
O O1 0.397495 0.250000 0.711063
O O2 0.359341 0.490806 0.731414
O O3 0.422772 0.500185 0.671176
O O4 0.258148 0.416142 0.352356
O O5 0.085433 0.250000 0.673787
O O6 0.125622 0.076120 0.914309
O O7 0.000000 0.000000 0.500000
O O8 0.179955 0.010875 0.848383
O O9 0.307915 0.750000 0.671296
O O10 0.187812 0.545715 0.417932
O O11 0.331923 0.563058 0.871648
O O12 0.422411 0.750000 0.182679
O O13 0.336894 0.951110 0.092220
O O14 0.485270 0.015665 0.301877
O O15 0.559373 0.250000 0.384807
O O16 0.664203 0.057692 0.703665
O O17 0.115441 0.250000 0.048522
O O18 0.097363 0.527080 0.044474
O O19 0.072960 0.750000 0.115801
O O20 0.000000 0.000000 0.000000
O O21 0.750179 0.250000 0.004025
#
# Coordination Sequence:
#
# PCOD9160426 Si02
#       8
#     4   4   4   4   4   4   4   4
#     4  10  19  35  60  85 111 148 192 237 287 344
#     4  11  23  39  60  88 119 153 195 242 295 350
#     4   9  20  38  57  81 114 151 191 239 293 345
#     4  10  22  40  60  83 117 158 197 239 294 355
#     4  11  22  36  59  89 118 151 197 245 293 350
#     4   9  19  36  56  79 109 146 189 237 285 338
#     4  10  20  34  56  84 113 148 191 237 289 349
#     4  10  22  40  61  86 118 157 198 243 294 351
#
# _framework density 18.880652999999999
#
# number of rings (size 3 to 8) (size 9 to 14) (size 15 to 20)
#    0.000    2.000    1.250    1.875    0.000    5.000 
#    0.000    2.500    0.000    0.000    0.000    0.000 
#    0.000    0.000    0.000    0.000    0.000    0.000 
#
# Total GULP energy -178746.401370 kJ/mol
# GULP energy per Si atom -5585.825043 kJ/mol
# Density = 1.883768 g / cm^3
# Si number density = 18.880653 Si / 1000 Ang^3
#
#
#
# Elastic Constant Matrix: (Units=GPa)
#
#
# Indices 1 2 3 4 5 6 
#
# 1 96.6262 67.2033 20.3155 0.0000 17.1225 0.0000
# 2 67.2033 101.8516 45.9065 0.0000 21.8101 0.0000
# 3 20.3155 45.9065 50.0603 0.0000 12.8688 0.0000
# 4 0.0000 0.0000 0.0000 25.5019 0.0000 6.4612
# 5 17.1225 21.8101 12.8688 0.0000 28.9171 0.0000
# 6 0.0000 0.0000 0.0000 6.4612 0.0000 40.2566
#
#
#
# Elastic Compliance Matrix: (Units=1/GPa)
#
#
# Indices 1 2 3 4 5 6 
#
# 1 0.020702 -0.016283 0.007368 0.000000 -0.003256 0.000000
# 2 -0.016283 0.030715 -0.020417 0.000000 -0.004438 0.000000
# 3 0.007368 -0.020417 0.037118 0.000000 -0.005482 0.000000
# 4 0.000000 0.000000 0.000000 0.040875 0.000000 -0.006560
# 5 -0.003256 -0.004438 -0.005482 0.000000 0.042296 0.000000
# 6 0.000000 0.000000 0.000000 -0.006560 0.000000 0.025894
#
#
# Mechanical properties :
#
#
# Convention : Reuss Voigt Hill
#
# Bulk Modulus (GPa) = 33.47887 57.26539 45.37213
# Shear Modulus (GPa) = 18.78133 26.60930 22.69531
#
# Velocity S-wave (km/s) = 3.15737 3.75819 3.47081
# Velocity P-wave (km/s) = 5.57336 7.01627 6.33602
#
# Compressibility (1/GPa) = 0.02986959
#
# Stress axis : x y z
#
# Youngs Moduli (GPa) = 48.30502 32.55763 26.94080
#
# Poissons Ratio (x) = 0.53013 -0.19849
# Poissons Ratio (y) = 0.78654 0.55006
# Poissons Ratio (z) = -0.35589 0.66474
#
# Static dielectric constant tensor:
#      x y z
#    x 1.624650 0.000000 -0.004210 
#    y 0.000000 1.659550 0.000000 
#    z -0.004210 0.000000 1.653340 
# 
# From -- ./inp_files/45300.got.cif
#   From: 2010.05.17/outbox.cif.g08.bks.cpg/sg11_23_cif.got.tgz:45300.got - 2010.06.03 12:22:45.
