data_PCOD9160539
_publ_section_title
;
Structure prediction by ZEFSAII (Michael W. Deem and Ramdas Pophale) SiO2 
 PCOD9160539
Probable space group: P 21/M
;
_chemical_formula_sum "Si O2"
_cell_formula_units_Z 24
_cell_length_a 24.767803
_cell_length_b 8.427967
_cell_length_c 12.913303
_cell_angle_alpha 90.000000
_cell_angle_beta 150.491212
_cell_angle_gamma 90.000000
_cell_volume 1327.712950
_symmetry_space_group_name_H-M "P 21/M"
_symmetry_group_IT_number 11
_symmetry_cell_setting 'monoclinic'
loop_
_space_group_symop_operation_xyz
x,y,z
-x,1/2+y,-z
-x,-y,-z
x,1/2-y,z
loop_
_atom_site_type_symbol
_atom_site_label
_atom_site_fract_x
_atom_site_fract_y
_atom_site_fract_z
Si Si1 0.372900 0.059726 0.125698
Si Si2 0.995918 0.939773 0.375161
Si Si3 0.618399 0.443602 0.478268
Si Si4 0.764875 0.439716 0.910160
Si Si5 0.232389 0.942210 0.695899
Si Si6 0.383889 0.941894 0.762114
O O1 0.370430 0.250000 0.128744
O O2 0.498676 0.007932 0.320231
O O3 0.316096 0.989271 0.132207
O O4 0.304060 0.007011 0.910565
O O5 0.995875 0.750000 0.378154
O O6 0.106888 0.993099 0.502691
O O7 0.000000 0.000000 0.500000
O O8 0.885062 0.995889 0.135803
O O9 0.619049 0.250000 0.478612
O O10 0.711975 0.496279 0.713984
O O11 0.631815 0.496799 0.382162
O O12 0.770824 0.250000 0.918093
O O13 0.235459 0.750000 0.705620
O O14 0.288899 0.992428 0.683002
O O15 0.386090 0.750000 0.764618
O O16 0.500000 0.000000 0.000000
#
# Coordination Sequence:
#
# PCOD9160539 Si02
#       6
#     4   4   4   4   4   4
#     4  11  20  33  56  84 113 143 180 229 276 329
#     4  11  22  37  56  81 110 145 186 231 275 322
#     4   9  20  36  55  81 114 148 182 223 277 332
#     4  11  22  37  55  79 113 151 186 224 276 332
#     4  10  21  35  56  83 111 141 180 227 277 326
#     4  10  19  36  58  82 110 144 181 224 274 327
#
# _framework density 18.076195999999999
#
# number of rings (size 3 to 8) (size 9 to 14) (size 15 to 20)
#    0.000    1.667    3.333    2.000    0.000    0.667 
#    0.000    5.000    0.000    0.000    0.000    0.000 
#    0.000    0.000    0.000    0.000    0.000    0.000 
#
# Total GULP energy -134039.813816 kJ/mol
# GULP energy per Si atom -5584.992242 kJ/mol
# Density = 1.803505 g / cm^3
# Si number density = 18.076196 Si / 1000 Ang^3
#
#
#
# Elastic Constant Matrix: (Units=GPa)
#
#
# Indices 1 2 3 4 5 6 
#
# 1 147.2595 23.8356 111.6449 0.0000 15.2200 0.0000
# 2 23.8356 20.4106 25.2422 0.0000 4.4268 0.0000
# 3 111.6449 25.2422 189.7331 0.0000 -5.3843 0.0000
# 4 0.0000 0.0000 0.0000 26.9059 0.0000 1.4152
# 5 15.2200 4.4268 -5.3843 0.0000 25.6870 0.0000
# 6 0.0000 0.0000 0.0000 1.4152 0.0000 6.5893
#
#
#
# Elastic Compliance Matrix: (Units=1/GPa)
#
#
# Indices 1 2 3 4 5 6 
#
# 1 0.015019 -0.004950 -0.008458 0.000000 -0.009819 0.000000
# 2 -0.004950 0.064067 -0.005876 0.000000 -0.009340 0.000000
# 3 -0.008458 -0.005876 0.011267 0.000000 0.008386 0.000000
# 4 0.000000 0.000000 0.000000 0.037591 0.000000 -0.008074
# 5 -0.009819 -0.009340 0.008386 0.000000 0.048116 0.000000
# 6 0.000000 0.000000 0.000000 -0.008074 0.000000 0.153495
#
#
# Mechanical properties :
#
#
# Convention : Reuss Voigt Hill
#
# Bulk Modulus (GPa) = 19.31017 75.42762 47.36889
# Shear Modulus (GPa) = 12.97407 24.94848 18.96127
#
# Velocity S-wave (km/s) = 2.68198 3.71911 3.24228
# Velocity P-wave (km/s) = 4.50517 7.76277 6.34654
#
# Compressibility (1/GPa) = 0.05178619
#
# Stress axis : x y z
#
# Youngs Moduli (GPa) = 66.58230 15.60862 88.75393
#
# Poissons Ratio (x) = 0.07726 0.75066
# Poissons Ratio (y) = 0.32957 0.52152
# Poissons Ratio (z) = 0.56314 0.09172
#
# Static dielectric constant tensor:
#      x y z
#    x 1.615930 0.000000 -0.000210 
#    y 0.000000 1.622930 0.000000 
#    z -0.000210 0.000000 1.645330 
# 
# From -- ./inp_files/33688.got.cif
#   From: 2010.05.17/outbox.cif.g08.bks.cpg/sg11_17_cif.got.tgz:33688.got - 2010.06.03 12:22:45.
