data_PCOD9160732
_publ_section_title
;
Structure prediction by ZEFSAII (Michael W. Deem and Ramdas Pophale) SiO2 
 PCOD9160732
Probable space group: P 21/M
;
_chemical_formula_sum "Si O2"
_cell_formula_units_Z 30
_cell_length_a 8.981346
_cell_length_b 13.325693
_cell_length_c 12.403448
_cell_angle_alpha 90.000000
_cell_angle_beta 67.779975
_cell_angle_gamma 90.000000
_cell_volume 1374.238066
_symmetry_space_group_name_H-M "P 21/M"
_symmetry_group_IT_number 11
_symmetry_cell_setting 'monoclinic'
loop_
_space_group_symop_operation_xyz
x,y,z
-x,1/2+y,-z
-x,-y,-z
x,1/2-y,z
loop_
_atom_site_type_symbol
_atom_site_label
_atom_site_fract_x
_atom_site_fract_y
_atom_site_fract_z
Si Si1 0.690798 0.411844 0.945109
Si Si2 0.639655 0.457221 0.723655
Si Si3 0.322944 0.553420 0.714417
Si Si4 0.249594 0.141068 0.021798
Si Si5 0.650691 0.250000 0.141209
Si Si6 0.769397 0.132882 0.473996
Si Si7 0.875252 0.862100 0.714292
Si Si8 0.053045 0.073038 0.889108
O O1 0.629236 0.399931 0.840301
O O2 0.671407 0.530302 0.984503
O O3 0.884384 0.389206 0.889068
O O4 0.625035 0.338901 0.054816
O O5 0.469189 0.490964 0.724098
O O6 0.732969 0.398469 0.605141
O O7 0.742855 0.557238 0.719226
O O8 0.313794 0.659916 0.778982
O O9 0.336808 0.573841 0.583898
O O10 0.163120 0.487739 0.777462
O O11 0.332574 0.250000 0.014014
O O12 0.120591 0.138529 0.156329
O O13 0.166460 0.144638 0.928042
O O14 0.736462 0.250000 0.470690
O O15 0.954806 0.117028 0.387478
O O16 0.821611 0.750000 0.696316
O O17 0.000000 0.000000 0.000000
#
# Coordination Sequence:
#
# PCOD9160732 Si02
#       8
#     4   4   4   4   2   4   4   4
#     4  10  23  39  63  94 131 167 210 261 325 379
#     4  11  25  43  61  96 136 167 206 264 331 385
#     4  12  24  42  68  94 126 171 221 266 317 383
#     4   9  17  33  57  93 132 162 210 262 310 370
#     4  12  24  40  68  96 130 166 218 268 318 392
#     4  11  23  42  70  91 120 172 223 268 314 374
#     4   9  20  37  65  97 125 168 220 266 314 375
#     4  10  19  37  59  95 127 167 215 262 311 375
#
# _framework density 21.830279000000001
#
# number of rings (size 3 to 8) (size 9 to 14) (size 15 to 20)
#    0.000    1.600    3.333    3.200    2.800    0.533 
#    0.000    0.667    0.000    0.800    0.000    0.000 
#    0.000    0.000    0.000    0.000    0.000    0.000 
#
# Total GULP energy -167030.676322 kJ/mol
# GULP energy per Si atom -5567.689211 kJ/mol
# Density = 2.178059 g / cm^3
# Si number density = 21.830279 Si / 1000 Ang^3
#
#
#
# Elastic Constant Matrix: (Units=GPa)
#
#
# Indices 1 2 3 4 5 6 
#
# 1 55.1856 0.8151 13.7070 0.0000 10.2707 0.0000
# 2 0.8151 73.4223 12.2806 0.0000 -10.0701 0.0000
# 3 13.7070 12.2806 99.9803 0.0000 12.3567 0.0000
# 4 0.0000 0.0000 0.0000 23.3571 0.0000 3.6708
# 5 10.2707 -10.0701 12.3567 0.0000 24.5307 0.0000
# 6 0.0000 0.0000 0.0000 3.6708 0.0000 20.7690
#
#
#
# Elastic Compliance Matrix: (Units=1/GPa)
#
#
# Indices 1 2 3 4 5 6 
#
# 1 0.020029 -0.001046 -0.001629 0.000000 -0.007995 0.000000
# 2 -0.001046 0.015189 -0.002716 0.000000 0.008041 0.000000
# 3 -0.001629 -0.002716 0.011317 0.000000 -0.006133 0.000000
# 4 0.000000 0.000000 0.000000 0.044037 0.000000 -0.007783
# 5 -0.007995 0.008041 -0.006133 0.000000 0.050503 0.000000
# 6 0.000000 0.000000 0.000000 -0.007783 0.000000 0.049524
#
#
# Mechanical properties :
#
#
# Convention : Reuss Voigt Hill
#
# Bulk Modulus (GPa) = 27.97118 31.35483 29.66300
# Shear Modulus (GPa) = 23.44131 27.18373 25.31252
#
# Velocity S-wave (km/s) = 3.28044 3.53261 3.40886
# Velocity P-wave (km/s) = 5.21433 5.57075 5.39549
#
# Compressibility (1/GPa) = 0.03575108
#
# Stress axis : x y z
#
# Youngs Moduli (GPa) = 49.92842 65.83877 88.36276
#
# Poissons Ratio (x) = 0.06889 0.14397
# Poissons Ratio (y) = 0.05224 0.23999
# Poissons Ratio (z) = 0.08135 0.17882
#
# Static dielectric constant tensor:
#      x y z
#    x 1.907700 0.000000 -0.013860 
#    y 0.000000 1.831830 0.000000 
#    z -0.013860 0.000000 1.767750 
# 
# From -- ./inp_files/31847.got.cif
#   From: 2010.05.17/outbox.cif.g08.bks.cpg/sg11_16_cif.got.tgz:31847.got - 2010.06.03 12:22:45.
