data_PCOD9160823
_publ_section_title
;
Structure prediction by ZEFSAII (Michael W. Deem and Ramdas Pophale) SiO2 
 PCOD9160823
Probable space group: P 21/M
;
_chemical_formula_sum "Si O2"
_cell_formula_units_Z 32
_cell_length_a 18.397844
_cell_length_b 14.703537
_cell_length_c 12.759450
_cell_angle_alpha 90.000000
_cell_angle_beta 151.318216
_cell_angle_gamma 90.000000
_cell_volume 1656.577725
_symmetry_space_group_name_H-M "P 21/M"
_symmetry_group_IT_number 11
_symmetry_cell_setting 'monoclinic'
loop_
_space_group_symop_operation_xyz
x,y,z
-x,1/2+y,-z
-x,-y,-z
x,1/2-y,z
loop_
_atom_site_type_symbol
_atom_site_label
_atom_site_fract_x
_atom_site_fract_y
_atom_site_fract_z
Si Si1 0.290785 0.648274 0.659621
Si Si2 0.169891 0.970417 0.693890
Si Si3 0.852984 0.857479 0.866309
Si Si4 0.214665 0.642859 0.330821
Si Si5 0.331179 0.859612 0.078831
Si Si6 0.326919 0.358254 0.565681
Si Si7 0.323035 0.523183 0.274474
Si Si8 0.396311 0.088049 0.883123
O O1 0.224725 0.750000 0.579929
O O2 0.199444 0.583499 0.622695
O O3 0.278714 0.614931 0.525159
O O4 0.467958 0.655091 0.915524
O O5 0.274204 0.060861 0.815510
O O6 0.231274 0.902536 0.860200
O O7 0.000000 0.000000 0.500000
O O8 0.812694 0.750000 0.832062
O O9 0.796464 0.884252 0.677492
O O10 0.770235 0.928694 0.838017
O O11 0.032898 0.865963 0.102235
O O12 0.250465 0.750000 0.359527
O O13 0.280972 0.581809 0.323120
O O14 0.313767 0.750000 0.065662
O O15 0.506389 0.879302 0.269536
O O16 0.292076 0.913457 0.134981
O O17 0.317882 0.250000 0.563278
O O18 0.317858 0.393165 0.672738
O O19 0.500000 0.500000 0.500000
O O20 0.500000 0.000000 0.000000
#
# Coordination Sequence:
#
# PCOD9160823 Si02
#       8
#     4   4   4   4   4   4   4   4
#     4  10  21  41  67  87 122 171 214 261 318 386
#     4  11  25  39  62  96 132 163 209 268 336 394
#     4  10  23  42  63  92 128 171 218 269 324 383
#     4  10  24  43  63  93 129 168 218 266 322 390
#     4  11  23  42  64  92 131 176 219 264 327 395
#     4  10  19  37  65  92 122 165 219 265 311 379
#     4  12  25  37  66  94 131 167 214 269 328 378
#     4  10  20  35  63  88 117 157 216 260 306 378
#
# _framework density 19.316932999999999
#
# number of rings (size 3 to 8) (size 9 to 14) (size 15 to 20)
#    0.000    1.500    3.750    1.500    7.000    1.500 
#    0.000    3.750    0.000    0.000    0.000    0.000 
#    0.000    0.000    0.000    0.000    0.000    0.000 
#
# Total GULP energy -178583.157524 kJ/mol
# GULP energy per Si atom -5580.723673 kJ/mol
# Density = 1.927297 g / cm^3
# Si number density = 19.316933 Si / 1000 Ang^3
#
#
#
# Elastic Constant Matrix: (Units=GPa)
#
#
# Indices 1 2 3 4 5 6 
#
# 1 116.5985 67.3281 40.5045 0.0000 -4.3769 0.0000
# 2 67.3281 91.8597 31.6792 0.0000 -4.2241 0.0000
# 3 40.5045 31.6792 62.1521 0.0000 -6.7696 0.0000
# 4 0.0000 0.0000 0.0000 27.9614 0.0000 -9.4305
# 5 -4.3769 -4.2241 -6.7696 0.0000 38.5806 0.0000
# 6 0.0000 0.0000 0.0000 -9.4305 0.0000 25.4268
#
#
#
# Elastic Compliance Matrix: (Units=1/GPa)
#
#
# Indices 1 2 3 4 5 6 
#
# 1 0.016284 -0.010042 -0.005517 0.000000 -0.000220 0.000000
# 2 -0.010042 0.019404 -0.003301 0.000000 0.000406 0.000000
# 3 -0.005517 -0.003301 0.021675 0.000000 0.002816 0.000000
# 4 0.000000 0.000000 0.000000 0.040877 0.000000 0.015161
# 5 -0.000220 0.000406 0.002816 0.000000 0.026433 0.000000
# 6 0.000000 0.000000 0.000000 0.015161 0.000000 0.044951
#
#
# Mechanical properties :
#
#
# Convention : Reuss Voigt Hill
#
# Bulk Modulus (GPa) = 50.91696 61.07046 55.99371
# Shear Modulus (GPa) = 23.37620 27.13366 25.25493
#
# Velocity S-wave (km/s) = 3.48248 3.75194 3.61972
# Velocity P-wave (km/s) = 6.52581 7.10303 6.82053
#
# Compressibility (1/GPa) = 0.01963982
#
# Stress axis : x y z
#
# Youngs Moduli (GPa) = 61.41123 51.53605 46.13673
#
# Poissons Ratio (x) = 0.51755 0.25455
# Poissons Ratio (y) = 0.61672 0.15232
# Poissons Ratio (z) = 0.33883 0.17014
#
# Static dielectric constant tensor:
#      x y z
#    x 1.972830 0.000000 -0.132230 
#    y 0.000000 1.755430 0.000000 
#    z -0.132230 0.000000 1.731820 
# 
# From -- ./inp_files/41720.got.cif
#   From: 2010.05.17/outbox.cif.g08.bks.cpg/sg11_21_cif.got.tgz:41720.got - 2010.06.03 12:22:45.
