data_PCOD9160809
_publ_section_title
;
Structure prediction by ZEFSAII (Michael W. Deem and Ramdas Pophale) SiO2 
 PCOD9160809
Probable space group: P 21/M
;
_chemical_formula_sum "Si O2"
_cell_formula_units_Z 26
_cell_length_a 11.727291
_cell_length_b 17.018076
_cell_length_c 11.544990
_cell_angle_alpha 90.000000
_cell_angle_beta 38.981261
_cell_angle_gamma 90.000000
_cell_volume 1449.432727
_symmetry_space_group_name_H-M "P 21/M"
_symmetry_group_IT_number 11
_symmetry_cell_setting 'monoclinic'
loop_
_space_group_symop_operation_xyz
x,y,z
-x,1/2+y,-z
-x,-y,-z
x,1/2-y,z
loop_
_atom_site_type_symbol
_atom_site_label
_atom_site_fract_x
_atom_site_fract_y
_atom_site_fract_z
Si Si1 0.158061 0.402421 0.728785
Si Si2 0.936220 0.750000 0.340632
Si Si3 0.280411 0.250000 0.256102
Si Si4 0.757080 0.401780 0.151240
Si Si5 0.145515 0.339128 0.155013
Si Si6 0.665413 0.250000 0.076762
Si Si7 0.383035 0.075166 0.775109
Si Si8 0.780081 0.075946 0.403863
O O1 0.143255 0.326872 0.659904
O O2 0.308096 0.394724 0.710353
O O3 0.193473 0.482264 0.630757
O O4 0.965366 0.411563 0.946241
O O5 0.868706 0.750000 0.525175
O O6 0.153103 0.750000 0.146602
O O7 0.245174 0.323725 0.198262
O O8 0.479723 0.250000 0.152298
O O9 0.677906 0.326811 0.148018
O O10 0.652949 0.481633 0.200813
O O11 0.757903 0.393871 0.289004
O O12 0.110837 0.250000 0.137307
O O13 0.956388 0.383780 0.317412
O O14 0.267976 0.385596 0.967430
O O15 0.594942 0.092242 0.616885
#
# Coordination Sequence:
#
# PCOD9160809 Si02
#       8
#     4   2   2   4   4   2   4   4
#     4  10  19  37  63  92 134 151 188 249 308 360
#     4  10  24  39  63  87 117 164 204 241 300 358
#     4  10  26  44  62  78 122 162 208 258 288 340
#     4  10  19  37  63  92 134 151 188 249 308 360
#     4  10  24  43  61  81 125 158 199 253 303 341
#     4  10  24  39  63  87 117 164 204 241 300 358
#     4  11  21  36  62  98 123 154 194 246 306 366
#     4  11  21  36  62  98 123 154 194 246 306 366
#
# _framework density 17.938051000000002
#
# number of rings (size 3 to 8) (size 9 to 14) (size 15 to 20)
#    0.462    1.231    3.077    2.769    6.462    1.846 
#    0.000    1.538    0.000    0.000    0.000    0.000 
#    0.000    0.000    0.000    0.000    0.000    0.000 
#
# Total GULP energy -145139.818113 kJ/mol
# GULP energy per Si atom -5582.300697 kJ/mol
# Density = 1.789722 g / cm^3
# Si number density = 17.938051 Si / 1000 Ang^3
#
#
#
# Elastic Constant Matrix: (Units=GPa)
#
#
# Indices 1 2 3 4 5 6 
#
# 1 82.1530 48.2782 15.3843 0.0000 -17.8290 0.0000
# 2 48.2782 61.0294 13.7822 0.0000 -4.4240 0.0000
# 3 15.3843 13.7822 32.2392 0.0000 -23.9810 0.0000
# 4 0.0000 0.0000 0.0000 1.7497 0.0000 -10.4791
# 5 -17.8290 -4.4240 -23.9810 0.0000 29.9516 0.0000
# 6 0.0000 0.0000 0.0000 -10.4791 0.0000 -67.7284
#
#
#
# Elastic Compliance Matrix: (Units=1/GPa)
#
#
# Indices 1 2 3 4 5 6 
#
# 1 0.030175 -0.025816 0.017707 0.000000 0.028326 0.000000
# 2 -0.025816 0.041194 -0.030156 0.000000 -0.033427 0.000000
# 3 0.017707 -0.030156 0.098872 0.000000 0.085249 0.000000
# 4 0.000000 0.000000 0.000000 0.296640 0.000000 -0.045897
# 5 0.028326 -0.033427 0.085249 0.000000 0.113567 0.000000
# 6 0.000000 0.000000 0.000000 -0.045897 0.000000 -0.007664
#
#
# Mechanical properties :
#
#
# Convention : Reuss Voigt Hill
#
# Bulk Modulus (GPa) = 10.67096 36.70123 23.68610
# Shear Modulus (GPa) = 7.34699 -0.67362 3.33669
#
# Velocity S-wave (km/s) = 2.02599 -0.61346 1.36534
# Velocity P-wave (km/s) = 3.38150 4.47243 3.96467
#
# Compressibility (1/GPa) = 0.09371224
#
# Stress axis : x y z
#
# Youngs Moduli (GPa) = 33.14022 24.27514 10.11410
#
# Poissons Ratio (x) = 0.62668 -0.17909
# Poissons Ratio (y) = 0.85554 0.30500
# Poissons Ratio (z) = -0.58683 0.73204
#
# Static dielectric constant tensor:
#      x y z
#    x 1.586860 0.000000 -0.016040 
#    y 0.000000 1.606480 0.000000 
#    z -0.016040 0.000000 1.614890 
# 
# From -- ./inp_files/36000.got.cif
#   From: 2010.05.17/outbox.cif.g08.bks.cpg/sg11_18_cif.got.tgz:36000.got - 2010.06.03 12:22:45.
