data_PCOD9160833
_publ_section_title
;
Structure prediction by ZEFSAII (Michael W. Deem and Ramdas Pophale) SiO2 
 PCOD9160833
Probable space group: P 21/M
;
_chemical_formula_sum "Si O2"
_cell_formula_units_Z 26
_cell_length_a 10.550358
_cell_length_b 21.963214
_cell_length_c 8.815777
_cell_angle_alpha 90.000000
_cell_angle_beta 41.010733
_cell_angle_gamma 90.000000
_cell_volume 1340.479488
_symmetry_space_group_name_H-M "P 21/M"
_symmetry_group_IT_number 11
_symmetry_cell_setting 'monoclinic'
loop_
_space_group_symop_operation_xyz
x,y,z
-x,1/2+y,-z
-x,-y,-z
x,1/2-y,z
loop_
_atom_site_type_symbol
_atom_site_label
_atom_site_fract_x
_atom_site_fract_y
_atom_site_fract_z
Si Si1 0.126966 0.916811 0.972904
Si Si2 0.964869 0.250000 0.143106
Si Si3 0.194443 0.450776 0.985691
Si Si4 0.575225 0.118797 0.552199
Si Si5 0.399704 0.250000 0.645635
Si Si6 0.921112 0.181308 0.749576
Si Si7 0.055836 0.865004 0.610231
Si Si8 0.644180 0.250000 0.158529
O O1 0.309221 0.892593 0.709751
O O2 0.966931 0.935612 0.995021
O O3 0.024678 0.867608 0.173464
O O4 0.191401 0.976634 0.006637
O O5 0.954188 0.308799 0.261227
O O6 0.802145 0.250000 0.157167
O O7 0.174576 0.250000 0.880038
O O8 0.115621 0.412071 0.198950
O O9 0.396858 0.425818 0.741671
O O10 0.494512 0.188120 0.626370
O O11 0.734807 0.107749 0.538041
O O12 0.446490 0.250000 0.424385
O O13 0.003023 0.250000 0.687886
O O14 0.948489 0.158327 0.556455
O O15 0.696669 0.193843 0.002033
#
# Coordination Sequence:
#
# PCOD9160833 Si02
#       8
#     4   2   4   4   2   4   4   2
#     4  10  21  41  61  86 119 151 200 250 293 336
#     4  12  19  35  59  85 117 145 201 240 286 347
#     4  10  22  38  63  88 113 156 202 245 284 350
#     4  11  20  36  60  87 112 151 198 240 290 340
#     4  12  20  29  64  85 108 143 193 241 285 339
#     4  10  21  36  60  81 121 159 183 239 307 342
#     4  11  21  37  56  85 120 155 189 234 295 356
#     4  10  19  38  55  84 111 148 186 243 289 326
#
# _framework density 19.396045000000001
#
# number of rings (size 3 to 8) (size 9 to 14) (size 15 to 20)
#    0.462    0.923    5.385    1.385    0.000    0.615 
#    0.000    3.846    0.000    0.000    0.000    0.000 
#    0.000    0.000    0.000    0.000    0.000    0.000 
#
# Total GULP energy -144910.836061 kJ/mol
# GULP energy per Si atom -5573.493695 kJ/mol
# Density = 1.935190 g / cm^3
# Si number density = 19.396045 Si / 1000 Ang^3
#
#
#
# Elastic Constant Matrix: (Units=GPa)
#
#
# Indices 1 2 3 4 5 6 
#
# 1 30.0664 18.7988 44.7801 0.0000 0.4752 0.0000
# 2 18.7988 98.4707 26.5561 0.0000 9.9007 0.0000
# 3 44.7801 26.5561 115.3367 0.0000 3.9509 0.0000
# 4 0.0000 0.0000 0.0000 23.0543 0.0000 -0.2463
# 5 0.4752 9.9007 3.9509 0.0000 39.7040 0.0000
# 6 0.0000 0.0000 0.0000 -0.2463 0.0000 16.4897
#
#
#
# Elastic Compliance Matrix: (Units=1/GPa)
#
#
# Indices 1 2 3 4 5 6 
#
# 1 0.084687 -0.008185 -0.031137 0.000000 0.004126 0.000000
# 2 -0.008185 0.011864 0.000546 0.000000 -0.002915 0.000000
# 3 -0.031137 0.000546 0.020696 0.000000 -0.001823 0.000000
# 4 0.000000 0.000000 0.000000 0.043383 0.000000 0.000648
# 5 0.004126 -0.002915 -0.001823 0.000000 0.026045 0.000000
# 6 0.000000 0.000000 0.000000 0.000648 0.000000 0.060654
#
#
# Mechanical properties :
#
#
# Convention : Reuss Voigt Hill
#
# Bulk Modulus (GPa) = 25.19215 47.12709 36.15962
# Shear Modulus (GPa) = 14.78805 26.09885 20.44345
#
# Velocity S-wave (km/s) = 2.76420 3.67219 3.25006
# Velocity P-wave (km/s) = 4.81708 6.50615 5.72426
#
# Compressibility (1/GPa) = 0.03969490
#
# Stress axis : x y z
#
# Youngs Moduli (GPa) = 11.80825 84.29097 48.31850
#
# Poissons Ratio (x) = 0.68992 1.50448
# Poissons Ratio (y) = 0.09665 -0.02639
# Poissons Ratio (z) = 0.36767 -0.04603
#
# Static dielectric constant tensor:
#      x y z
#    x 1.663470 0.000000 -0.006300 
#    y 0.000000 1.776310 0.000000 
#    z -0.006300 0.000000 1.686360 
# 
# From -- ./inp_files/19636.got.cif
#   From: 2010.05.17/outbox.cif.g08.bks.cpg/sg11_10_cif.got.tgz:19636.got - 2010.06.03 12:22:45.
