data_PCOD9160207
_publ_section_title
;
Structure prediction by ZEFSAII (Michael W. Deem and Ramdas Pophale) SiO2 
 PCOD9160207
Probable space group: P 21/M
;
_chemical_formula_sum "Si O2"
_cell_formula_units_Z 32
_cell_length_a 18.791589
_cell_length_b 15.594127
_cell_length_c 11.745401
_cell_angle_alpha 90.000000
_cell_angle_beta 24.900369
_cell_angle_gamma 90.000000
_cell_volume 1449.163826
_symmetry_space_group_name_H-M "P 21/M"
_symmetry_group_IT_number 11
_symmetry_cell_setting 'monoclinic'
loop_
_space_group_symop_operation_xyz
x,y,z
-x,1/2+y,-z
-x,-y,-z
x,1/2-y,z
loop_
_atom_site_type_symbol
_atom_site_label
_atom_site_fract_x
_atom_site_fract_y
_atom_site_fract_z
Si Si1 0.301172 0.849711 0.474702
Si Si2 0.358987 0.098323 0.135052
Si Si3 0.543768 0.408745 0.082648
Si Si4 0.128252 0.847369 0.500376
Si Si5 0.206371 0.847026 0.966772
Si Si6 0.543690 0.922392 0.524066
Si Si7 0.154801 0.519057 0.858111
Si Si8 0.021574 0.147799 0.497680
O O1 0.264248 0.750000 0.559526
O O2 0.176344 0.881666 0.554324
O O3 0.282709 0.919152 0.600416
O O4 0.487683 0.853100 0.150550
O O5 0.383234 0.112916 0.234919
O O6 0.183675 0.122390 0.333702
O O7 0.389236 0.999145 0.062337
O O8 0.503708 0.419655 0.272760
O O9 0.695200 0.345904 0.826515
O O10 0.073351 0.750000 0.602775
O O11 0.000534 0.891227 0.596752
O O12 0.154177 0.750000 0.014507
O O13 0.411032 0.852868 0.667556
O O14 0.118522 0.917864 0.015356
O O15 0.140091 0.868631 0.188989
O O16 0.500000 0.000000 0.500000
O O17 0.746806 0.934504 0.239459
O O18 0.000000 0.500000 0.000000
O O19 0.029673 0.250000 0.469465
#
# Coordination Sequence:
#
# PCOD9160207 Si02
#       8
#     4   4   4   4   4   4   4   4
#     4  10  20  39  61  84 118 161 199 242 305 368
#     4  10  21  33  58  87 119 149 195 244 294 363
#     4  10  19  35  55  82 114 152 196 237 296 357
#     4   9  19  35  56  83 117 155 191 238 298 356
#     4  10  22  41  63  86 119 162 200 244 302 367
#     4  10  21  40  59  84 116 158 201 243 297 359
#     4  11  24  41  64  87 120 158 205 262 307 354
#     4  10  20  36  56  86 120 149 190 243 294 350
#
# _framework density 22.081699
#
# number of rings (size 3 to 8) (size 9 to 14) (size 15 to 20)
#    0.000    2.000    2.500    0.750    1.750    1.000 
#    4.500    1.250    0.000    0.000    0.000    0.000 
#    0.000    0.000    0.000    0.000    0.000    0.000 
#
# Total GULP energy -178192.415595 kJ/mol
# GULP energy per Si atom -5568.512987 kJ/mol
# Density = 2.203144 g / cm^3
# Si number density = 22.081699 Si / 1000 Ang^3
#
#
#
# Elastic Constant Matrix: (Units=GPa)
#
#
# Indices 1 2 3 4 5 6 
#
# 1 110.3546 2.6203 10.1629 0.0000 -18.4823 0.0000
# 2 2.6203 35.5971 -0.4058 0.0000 4.0736 0.0000
# 3 10.1629 -0.4058 30.1714 0.0000 -15.6792 0.0000
# 4 0.0000 0.0000 0.0000 46.7485 0.0000 61.8896
# 5 -18.4823 4.0736 -15.6792 0.0000 46.0403 0.0000
# 6 0.0000 0.0000 0.0000 61.8896 0.0000 178.0717
#
#
#
# Elastic Compliance Matrix: (Units=1/GPa)
#
#
# Indices 1 2 3 4 5 6 
#
# 1 0.009818 -0.001144 -0.001484 0.000000 0.003537 0.000000
# 2 -0.001144 0.028544 -0.000950 0.000000 -0.003308 0.000000
# 3 -0.001484 -0.000950 0.040540 0.000000 0.013294 0.000000
# 4 0.000000 0.000000 0.000000 0.039622 0.000000 -0.013771
# 5 0.003537 -0.003308 0.013294 0.000000 0.027960 0.000000
# 6 0.000000 0.000000 0.000000 -0.013771 0.000000 0.010402
#
#
# Mechanical properties :
#
#
# Convention : Reuss Voigt Hill
#
# Bulk Modulus (GPa) = 13.93832 22.31975 18.12903
# Shear Modulus (GPa) = 26.60169 65.08848 45.84508
#
# Velocity S-wave (km/s) = 3.47464 5.43509 4.56143
# Velocity P-wave (km/s) = 4.73533 7.03681 5.99750
#
# Compressibility (1/GPa) = 0.07174468
#
# Stress axis : x y z
#
# Youngs Moduli (GPa) = 101.85412 35.03336 24.66713
#
# Poissons Ratio (x) = 0.04009 0.03662
# Poissons Ratio (y) = 0.11656 0.02343
# Poissons Ratio (z) = 0.15119 0.03328
#
# Static dielectric constant tensor:
#      x y z
#    x 2.019150 0.000000 -0.071680 
#    y 0.000000 1.843260 0.000000 
#    z -0.071680 0.000000 1.855450 
# 
# From -- ./inp_files/41673.got.cif
#   From: 2010.05.17/outbox.cif.g08.bks.cpg/sg11_21_cif.got.tgz:41673.got - 2010.06.03 12:22:45.
