data_PCOD9160380
_publ_section_title
;
Structure prediction by ZEFSAII (Michael W. Deem and Ramdas Pophale) SiO2 
 PCOD9160380
Probable space group: P 21/M
;
_chemical_formula_sum "Si O2"
_cell_formula_units_Z 32
_cell_length_a 10.970106
_cell_length_b 12.076364
_cell_length_c 11.061164
_cell_angle_alpha 90.000000
_cell_angle_beta 110.061930
_cell_angle_gamma 90.000000
_cell_volume 1376.456605
_symmetry_space_group_name_H-M "P 21/M"
_symmetry_group_IT_number 11
_symmetry_cell_setting 'monoclinic'
loop_
_space_group_symop_operation_xyz
x,y,z
-x,1/2+y,-z
-x,-y,-z
x,1/2-y,z
loop_
_atom_site_type_symbol
_atom_site_label
_atom_site_fract_x
_atom_site_fract_y
_atom_site_fract_z
Si Si1 0.651239 0.423833 0.266410
Si Si2 0.947045 0.373908 0.956785
Si Si3 0.626590 0.630912 0.837508
Si Si4 0.916002 0.626860 0.242001
Si Si5 0.690431 0.969018 0.635496
Si Si6 0.727653 0.045920 0.045252
Si Si7 0.541204 0.877074 0.360594
Si Si8 0.138312 0.878070 0.469117
O O1 0.517605 0.369557 0.269418
O O2 0.656092 0.391496 0.128049
O O3 0.620869 0.552276 0.288369
O O4 0.782607 0.390112 0.379101
O O5 0.000098 0.250000 0.014132
O O6 0.969132 0.368687 0.820344
O O7 0.808922 0.383222 0.976991
O O8 0.000000 0.500000 0.000000
O O9 0.655848 0.750000 0.900372
O O10 0.727373 0.602267 0.764765
O O11 0.636599 0.535377 0.938986
O O12 0.856642 0.750000 0.224994
O O13 0.822337 0.533641 0.157606
O O14 0.984383 0.605298 0.394581
O O15 0.616072 0.893526 0.512981
O O16 0.595297 0.062839 0.658803
O O17 0.796407 0.031777 0.594676
O O18 0.526766 0.750000 0.323270
O O19 0.161295 0.750000 0.440427
#
# Coordination Sequence:
#
# PCOD9160380 Si02
#       8
#     4   4   4   4   4   4   4   4
#     4  10  23  37  53  81 114 151 197 237 283 348
#     4   9  19  37  62  90 119 152 197 250 302 356
#     4  11  22  37  57  82 115 153 193 238 291 347
#     4   9  19  36  59  85 108 140 188 238 294 353
#     4   9  18  31  52  83 109 139 188 238 289 344
#     4  11  22  38  57  81 116 154 193 236 286 346
#     4   9  17  31  51  75 109 148 187 238 293 348
#     4  10  19  35  59  83 112 146 183 234 290 344
#
# _framework density 23.248100000000001
#
# number of rings (size 3 to 8) (size 9 to 14) (size 15 to 20)
#    0.000    2.250    0.000    3.375    0.000    3.000 
#    0.000    2.500    0.000    6.750    0.000    0.000 
#    0.000    0.000    0.000    0.000    0.000    0.000 
#
# Total GULP energy -178276.790459 kJ/mol
# GULP energy per Si atom -5571.149702 kJ/mol
# Density = 2.319519 g / cm^3
# Si number density = 23.248100 Si / 1000 Ang^3
#
#
#
# Elastic Constant Matrix: (Units=GPa)
#
#
# Indices 1 2 3 4 5 6 
#
# 1 32.9333 2.5133 4.5232 0.0000 -5.6873 0.0000
# 2 2.5133 120.4292 7.9019 0.0000 10.1628 0.0000
# 3 4.5232 7.9019 74.4013 0.0000 7.1478 0.0000
# 4 0.0000 0.0000 0.0000 18.0266 0.0000 3.5324
# 5 -5.6873 10.1628 7.1478 0.0000 36.2708 0.0000
# 6 0.0000 0.0000 0.0000 3.5324 0.0000 8.9061
#
#
#
# Elastic Compliance Matrix: (Units=1/GPa)
#
#
# Indices 1 2 3 4 5 6 
#
# 1 0.031755 -0.000990 -0.002375 0.000000 0.005725 0.000000
# 2 -0.000990 0.008570 -0.000616 0.000000 -0.002435 0.000000
# 3 -0.002375 -0.000616 0.013933 0.000000 -0.002946 0.000000
# 4 0.000000 0.000000 0.000000 0.060148 0.000000 -0.023856
# 5 0.005725 -0.002435 -0.002946 0.000000 0.029731 0.000000
# 6 0.000000 0.000000 0.000000 -0.023856 0.000000 0.121745
#
#
# Mechanical properties :
#
#
# Convention : Reuss Voigt Hill
#
# Bulk Modulus (GPa) = 21.60027 28.62674 25.11350
# Shear Modulus (GPa) = 17.28445 26.82905 22.05675
#
# Velocity S-wave (km/s) = 2.72964 3.40079 3.08353
# Velocity P-wave (km/s) = 4.38702 5.26885 4.84803
#
# Compressibility (1/GPa) = 0.04629572
#
# Stress axis : x y z
#
# Youngs Moduli (GPa) = 31.49125 116.68321 71.76965
#
# Poissons Ratio (x) = 0.11551 0.17048
# Poissons Ratio (y) = 0.03117 0.04422
# Poissons Ratio (z) = 0.07480 0.07189
#
# Static dielectric constant tensor:
#      x y z
#    x 1.962250 0.000000 0.000330 
#    y 0.000000 1.904860 0.000000 
#    z 0.000330 0.000000 1.913670 
# 
# From -- ./inp_files/35111.got.cif
#   From: 2010.05.17/outbox.cif.g08.bks.cpg/sg11_18_cif.got.tgz:35111.got - 2010.06.03 12:22:45.
