data_PCOD9160388
_publ_section_title
;
Structure prediction by ZEFSAII (Michael W. Deem and Ramdas Pophale) SiO2 
 PCOD9160388
Probable space group: P 21/M
;
_chemical_formula_sum "Si O2"
_cell_formula_units_Z 32
_cell_length_a 30.419779
_cell_length_b 11.110944
_cell_length_c 10.373125
_cell_angle_alpha 90.000000
_cell_angle_beta 151.307311
_cell_angle_gamma 90.000000
_cell_volume 1683.289427
_symmetry_space_group_name_H-M "P 21/M"
_symmetry_group_IT_number 11
_symmetry_cell_setting 'monoclinic'
loop_
_space_group_symop_operation_xyz
x,y,z
-x,1/2+y,-z
-x,-y,-z
x,1/2-y,z
loop_
_atom_site_type_symbol
_atom_site_label
_atom_site_fract_x
_atom_site_fract_y
_atom_site_fract_z
Si Si1 0.710153 0.536785 0.366345
Si Si2 0.652766 0.394028 0.687455
Si Si3 0.093775 0.378641 0.169971
Si Si4 0.078897 0.527079 0.387771
Si Si5 0.278193 0.609475 0.869858
Si Si6 0.989036 0.390057 0.371337
Si Si7 0.511999 0.611195 0.930588
Si Si8 0.775357 0.390784 0.775120
O O1 0.802437 0.615620 0.610516
O O2 0.708976 0.467152 0.226803
O O3 0.615547 0.604409 0.145631
O O4 0.725593 0.446340 0.524734
O O5 0.665840 0.250000 0.735210
O O6 0.732987 0.441063 0.799096
O O7 0.660839 0.438750 0.854328
O O8 0.559071 0.411939 0.368864
O O9 0.073864 0.250000 0.179893
O O10 0.088438 0.476884 0.267797
O O11 0.016058 0.399261 0.862788
O O12 0.172998 0.597592 0.650494
O O13 0.060595 0.421428 0.442259
O O14 0.296330 0.750000 0.888482
O O15 0.999301 0.250000 0.442597
O O16 0.000000 0.500000 0.500000
O O17 0.884751 0.401536 0.051344
O O18 0.494617 0.750000 0.933402
O O19 0.500000 0.500000 0.000000
O O20 0.754274 0.250000 0.720444
#
# Coordination Sequence:
#
# PCOD9160388 Si02
#       8
#     4   4   4   4   4   4   4   4
#     4  11  21  36  58  90 118 153 200 248 302 350
#     4   9  19  37  59  85 117 156 194 245 305 357
#     4  10  20  34  53  80 115 150 191 243 296 350
#     4  10  20  35  55  81 112 156 199 241 296 347
#     4  10  21  36  60  89 121 158 205 249 294 364
#     4  11  23  38  57  85 120 162 208 251 302 357
#     4  11  23  40  66  92 122 159 200 250 307 369
#     4  10  19  35  59  84 119 160 202 247 299 357
#
# _framework density 19.010397000000001
#
# number of rings (size 3 to 8) (size 9 to 14) (size 15 to 20)
#    0.000    1.750    2.500    2.250    0.000    3.000 
#    0.000    0.000    0.000    3.750    0.000    0.000 
#    0.000    0.000    0.000    0.000    0.000    0.000 
#
# Total GULP energy -178237.547235 kJ/mol
# GULP energy per Si atom -5569.923351 kJ/mol
# Density = 1.896713 g / cm^3
# Si number density = 19.010397 Si / 1000 Ang^3
#
#
#
# Elastic Constant Matrix: (Units=GPa)
#
#
# Indices 1 2 3 4 5 6 
#
# 1 60.2781 18.2582 22.1375 0.0000 -1.0786 0.0000
# 2 18.2582 75.2816 33.5409 0.0000 -5.8137 0.0000
# 3 22.1375 33.5409 78.5658 0.0000 -11.3030 0.0000
# 4 0.0000 0.0000 0.0000 22.6274 0.0000 1.1528
# 5 -1.0786 -5.8137 -11.3030 0.0000 36.5631 0.0000
# 6 0.0000 0.0000 0.0000 1.1528 0.0000 23.4856
#
#
#
# Elastic Compliance Matrix: (Units=1/GPa)
#
#
# Indices 1 2 3 4 5 6 
#
# 1 0.019003 -0.002765 -0.004350 0.000000 -0.001224 0.000000
# 2 -0.002765 0.016813 -0.006306 0.000000 0.000642 0.000000
# 3 -0.004350 -0.006306 0.017251 0.000000 0.004202 0.000000
# 4 0.000000 0.000000 0.000000 0.044305 0.000000 -0.002175
# 5 -0.001224 0.000642 0.004202 0.000000 0.028715 0.000000
# 6 0.000000 0.000000 0.000000 -0.002175 0.000000 0.042686
#
#
# Mechanical properties :
#
#
# Convention : Reuss Voigt Hill
#
# Bulk Modulus (GPa) = 38.13317 40.22208 39.17762
# Shear Modulus (GPa) = 24.46692 25.88115 25.17404
#
# Velocity S-wave (km/s) = 3.59141 3.69375 3.64294
# Velocity P-wave (km/s) = 6.10740 6.27659 6.19257
#
# Compressibility (1/GPa) = 0.02622389
#
# Stress axis : x y z
#
# Youngs Moduli (GPa) = 52.62313 59.47626 57.96884
#
# Poissons Ratio (x) = 0.16447 0.25217
# Poissons Ratio (y) = 0.14552 0.36557
# Poissons Ratio (z) = 0.22891 0.37508
#
# Static dielectric constant tensor:
#      x y z
#    x 1.696250 0.000000 0.010310 
#    y 0.000000 1.658890 0.000000 
#    z 0.010310 0.000000 1.675750 
# 
# From -- ./inp_files/29269.got.cif
#   From: 2010.05.17/outbox.cif.g08.bks.cpg/sg11_15_cif.got.tgz:29269.got - 2010.06.03 12:22:45.
