data_PCOD9160575
_publ_section_title
;
Structure prediction by ZEFSAII (Michael W. Deem and Ramdas Pophale) SiO2 
 PCOD9160575
Probable space group: P 21/M
;
_chemical_formula_sum "Si O2"
_cell_formula_units_Z 32
_cell_length_a 13.528358
_cell_length_b 20.548298
_cell_length_c 8.819586
_cell_angle_alpha 90.000000
_cell_angle_beta 38.741793
_cell_angle_gamma 90.000000
_cell_volume 1534.309094
_symmetry_space_group_name_H-M "P 21/M"
_symmetry_group_IT_number 11
_symmetry_cell_setting 'monoclinic'
loop_
_space_group_symop_operation_xyz
x,y,z
-x,1/2+y,-z
-x,-y,-z
x,1/2-y,z
loop_
_atom_site_type_symbol
_atom_site_label
_atom_site_fract_x
_atom_site_fract_y
_atom_site_fract_z
Si Si1 0.692814 0.176781 0.217013
Si Si2 0.403223 0.823840 0.999741
Si Si3 0.486732 0.066290 0.610244
Si Si4 0.862270 0.946394 0.026414
Si Si5 0.223292 0.321798 0.513939
Si Si6 0.628315 0.047515 0.770604
Si Si7 0.001497 0.178753 0.054916
Si Si8 0.898345 0.958367 0.345599
O O1 0.633354 0.250000 0.319280
O O2 0.702312 0.171004 0.024960
O O3 0.571427 0.123698 0.419996
O O4 0.858078 0.170418 0.107528
O O5 0.386236 0.750000 0.082352
O O6 0.588528 0.830539 0.727712
O O7 0.364267 0.883298 0.155397
O O8 0.300708 0.076639 0.848237
O O9 0.570533 0.059509 0.669636
O O10 0.500000 0.000000 0.500000
O O11 0.985646 0.886666 0.863954
O O12 0.847626 0.959275 0.226151
O O13 0.926748 0.012014 0.872425
O O14 0.182715 0.250000 0.498547
O O15 0.134494 0.385517 0.557649
O O16 0.161104 0.319820 0.762000
O O17 0.790145 0.007588 0.567988
O O18 0.500000 0.000000 0.000000
O O19 0.983700 0.250000 0.149736
#
# Coordination Sequence:
#
# PCOD9160575 Si02
#       8
#     4   4   4   4   4   4   4   4
#     4  10  21  39  64  94 121 158 211 258 303 365
#     4  10  21  39  62  88 123 164 203 249 307 373
#     4  12  24  38  62  92 121 163 209 261 305 357
#     4  10  21  37  59  89 121 160 203 261 311 356
#     4   9  17  32  55  81 111 153 201 245 295 357
#     4  12  23  40  59  88 129 165 205 250 317 377
#     4   9  18  33  59  91 120 155 200 253 307 360
#     4  10  19  36  59  83 121 157 201 250 311 363
#
# _framework density 20.856293000000001
#
# number of rings (size 3 to 8) (size 9 to 14) (size 15 to 20)
#    0.000    1.750    2.500    3.000    3.500    2.000 
#    0.000    2.500    0.000    0.750    0.000    0.000 
#    0.000    0.000    0.000    0.000    0.000    0.000 
#
# Total GULP energy -178625.819361 kJ/mol
# GULP energy per Si atom -5582.056855 kJ/mol
# Density = 2.080882 g / cm^3
# Si number density = 20.856293 Si / 1000 Ang^3
#
#
#
# Elastic Constant Matrix: (Units=GPa)
#
#
# Indices 1 2 3 4 5 6 
#
# 1 42.4124 43.8751 1.4244 0.0000 -3.0881 0.0000
# 2 43.8751 185.7166 43.2695 0.0000 5.0091 0.0000
# 3 1.4244 43.2695 45.6207 0.0000 -6.3975 0.0000
# 4 0.0000 0.0000 0.0000 41.8310 0.0000 0.8266
# 5 -3.0881 5.0091 -6.3975 0.0000 20.1676 0.0000
# 6 0.0000 0.0000 0.0000 0.8266 0.0000 23.4782
#
#
#
# Elastic Compliance Matrix: (Units=1/GPa)
#
#
# Indices 1 2 3 4 5 6 
#
# 1 0.035945 -0.011483 0.011450 0.000000 0.011988 0.000000
# 2 -0.011483 0.010899 -0.011098 0.000000 -0.007986 0.000000
# 3 0.011450 -0.011098 0.034244 0.000000 0.015373 0.000000
# 4 0.000000 0.000000 0.000000 0.023922 0.000000 -0.000842
# 5 0.011988 -0.007986 0.015373 0.000000 0.058280 0.000000
# 6 0.000000 0.000000 0.000000 -0.000842 0.000000 0.042622
#
#
# Mechanical properties :
#
#
# Convention : Reuss Voigt Hill
#
# Bulk Modulus (GPa) = 16.99929 50.09865 33.54897
# Shear Modulus (GPa) = 20.17887 29.44074 24.80980
#
# Velocity S-wave (km/s) = 3.11387 3.76120 3.45274
# Velocity P-wave (km/s) = 4.59311 6.55250 5.65826
#
# Compressibility (1/GPa) = 0.05882600
#
# Stress axis : x y z
#
# Youngs Moduli (GPa) = 27.81991 91.75560 29.20194
#
# Poissons Ratio (x) = 1.05364 -0.33437
# Poissons Ratio (y) = 0.31946 0.32409
# Poissons Ratio (z) = -0.31854 1.01832
#
# Static dielectric constant tensor:
#      x y z
#    x 1.743970 0.000000 -0.010260 
#    y 0.000000 1.826000 0.000000 
#    z -0.010260 0.000000 1.790860 
# 
# From -- ./inp_files/23071.got.cif
#   From: 2010.05.17/outbox.cif.g08.bks.cpg/sg11_12_cif.got.tgz:23071.got - 2010.06.03 12:22:45.
