data_PCOD9160088
_publ_section_title
;
Structure prediction by ZEFSAII (Michael W. Deem and Ramdas Pophale) SiO2 
 PCOD9160088
Probable space group: P 21/M
;
_chemical_formula_sum "Si O2"
_cell_formula_units_Z 28
_cell_length_a 11.760108
_cell_length_b 9.167873
_cell_length_c 14.310294
_cell_angle_alpha 90.000000
_cell_angle_beta 95.563702
_cell_angle_gamma 90.000000
_cell_volume 1535.598461
_symmetry_space_group_name_H-M "P 21/M"
_symmetry_group_IT_number 11
_symmetry_cell_setting 'monoclinic'
loop_
_space_group_symop_operation_xyz
x,y,z
-x,1/2+y,-z
-x,-y,-z
x,1/2-y,z
loop_
_atom_site_type_symbol
_atom_site_label
_atom_site_fract_x
_atom_site_fract_y
_atom_site_fract_z
Si Si1 0.811868 0.423980 0.213560
Si Si2 0.053615 0.078611 0.323319
Si Si3 0.877448 0.424449 0.005195
Si Si4 0.218553 0.921745 0.471171
Si Si5 0.668137 0.923822 0.346870
Si Si6 0.404240 0.922367 0.322820
Si Si7 0.240300 0.421510 0.173459
O O1 0.793525 0.250000 0.222396
O O2 0.833961 0.454261 0.106534
O O3 0.709700 0.512682 0.251590
O O4 0.927528 0.461803 0.279563
O O5 0.054788 0.250000 0.348537
O O6 0.136895 0.061070 0.240190
O O7 0.107203 0.986092 0.411313
O O8 0.889305 0.250000 0.995740
O O9 0.793017 0.489564 0.921013
O O10 0.000000 0.500000 0.000000
O O11 0.205159 0.750000 0.487358
O O12 0.322819 0.944299 0.405985
O O13 0.253947 0.003467 0.567620
O O14 0.680060 0.750000 0.350749
O O15 0.535200 0.960856 0.353097
O O16 0.398843 0.750000 0.299117
O O17 0.350625 0.015139 0.234623
O O18 0.251496 0.250000 0.154336
#
# Coordination Sequence:
#
# PCOD9160088 Si02
#       7
#     4   4   4   4   4   4   4
#     4  10  22  39  56  79 114 150 185 226 275 331
#     4   9  18  35  55  80 113 144 180 228 276 326
#     4  11  21  36  59  86 115 146 183 228 277 330
#     4  10  20  35  58  84 109 143 186 229 279 332
#     4  11  23  38  56  80 112 149 188 231 278 328
#     4   9  20  38  58  83 112 144 187 234 276 324
#     4  10  19  34  58  88 114 142 183 230 281 328
#
# _framework density 18.233931999999999
#
# number of rings (size 3 to 8) (size 9 to 14) (size 15 to 20)
#    0.000    2.000    1.429    2.143    0.000    4.571 
#    0.000    0.714    0.000    0.000    0.000    0.000 
#    0.000    0.000    0.000    0.000    0.000    0.000 
#
# Total GULP energy -156405.514905 kJ/mol
# GULP energy per Si atom -5585.911247 kJ/mol
# Density = 1.819243 g / cm^3
# Si number density = 18.233932 Si / 1000 Ang^3
#
#
#
# Elastic Constant Matrix: (Units=GPa)
#
#
# Indices 1 2 3 4 5 6 
#
# 1 18.6640 18.3452 14.8144 0.0000 -3.5742 0.0000
# 2 18.3452 58.0740 55.6565 0.0000 -5.6204 0.0000
# 3 14.8144 55.6565 99.4340 0.0000 4.9531 0.0000
# 4 0.0000 0.0000 0.0000 34.8550 0.0000 1.3341
# 5 -3.5742 -5.6204 4.9531 0.0000 16.1089 0.0000
# 6 0.0000 0.0000 0.0000 1.3341 0.0000 26.4716
#
#
#
# Elastic Compliance Matrix: (Units=1/GPa)
#
#
# Indices 1 2 3 4 5 6 
#
# 1 0.079378 -0.027441 0.003181 0.000000 0.007060 0.000000
# 2 -0.027441 0.053969 -0.027171 0.000000 0.021096 0.000000
# 3 0.003181 -0.027171 0.025621 0.000000 -0.016652 0.000000
# 4 0.000000 0.000000 0.000000 0.028746 0.000000 -0.001449
# 5 0.007060 0.021096 -0.016652 0.000000 0.076124 0.000000
# 6 0.000000 0.000000 0.000000 -0.001449 0.000000 0.037849
#
#
# Mechanical properties :
#
#
# Convention : Reuss Voigt Hill
#
# Bulk Modulus (GPa) = 17.82291 39.31159 28.56725
# Shear Modulus (GPa) = 11.81335 21.31084 16.56209
#
# Velocity S-wave (km/s) = 2.54810 3.42240 3.01709
# Velocity P-wave (km/s) = 4.29569 6.10111 5.27619
#
# Compressibility (1/GPa) = 0.05610756
#
# Stress axis : x y z
#
# Youngs Moduli (GPa) = 12.59801 18.52906 39.03064
#
# Poissons Ratio (x) = 0.50845 -0.12418
# Poissons Ratio (y) = 0.34570 1.06050
# Poissons Ratio (z) = -0.04008 0.50345
#
# Static dielectric constant tensor:
#      x y z
#    x 1.626280 0.000000 -0.011560 
#    y 0.000000 1.604220 0.000000 
#    z -0.011560 0.000000 1.607770 
# 
# From -- ./inp_files/44602.got.cif
#   From: 2010.05.17/outbox.cif.g08.bks.cpg/sg11_23_cif.got.tgz:44602.got - 2010.06.03 12:22:45.
