data_PCOD9160253
_publ_section_title
;
Structure prediction by ZEFSAII (Michael W. Deem and Ramdas Pophale) SiO2 
 PCOD9160253
Probable space group: P 21/M
;
_chemical_formula_sum "Si O2"
_cell_formula_units_Z 28
_cell_length_a 18.052398
_cell_length_b 13.805052
_cell_length_c 6.519394
_cell_angle_alpha 90.000000
_cell_angle_beta 68.829904
_cell_angle_gamma 90.000000
_cell_volume 1515.077321
_symmetry_space_group_name_H-M "P 21/M"
_symmetry_group_IT_number 11
_symmetry_cell_setting 'monoclinic'
loop_
_space_group_symop_operation_xyz
x,y,z
-x,1/2+y,-z
-x,-y,-z
x,1/2-y,z
loop_
_atom_site_type_symbol
_atom_site_label
_atom_site_fract_x
_atom_site_fract_y
_atom_site_fract_z
Si Si1 0.750000 0.000000 0.926498
Si Si2 0.165466 0.362265 0.857748
Si Si3 0.613320 0.019838 0.747538
Si Si4 0.334535 0.637735 0.688680
Si Si5 0.113320 0.019838 0.525822
Si Si6 0.013765 0.362257 0.302562
Si Si7 0.513765 0.362257 0.169908
O O1 0.674798 0.981727 0.855912
O O2 0.825203 0.018273 0.705507
O O3 0.771851 0.910113 0.049928
O O4 0.728149 0.089888 0.093629
O O5 0.182714 0.250000 0.799961
O O6 0.159243 0.424143 0.657967
O O7 0.080115 0.368565 0.058290
O O8 0.659243 0.075856 0.523546
O O9 0.560126 0.932495 0.714976
O O10 0.555717 0.095656 0.922872
O O11 0.317287 0.750000 0.665387
O O12 0.419885 0.631435 0.718520
O O13 0.060125 0.932496 0.664774
O O14 0.055716 0.095657 0.465695
O O15 0.991730 0.250000 0.349619
O O16 0.491731 0.250000 0.166919
#
# Coordination Sequence:
#
# PCOD9160253 Si02
#       7
#     4   4   4   4   4   4   4
#     4  10  22  36  52  80 110 142 182 220 264 322
#     4  10  20  36  56  78 108 145 182 222 272 325
#     4  10  19  35  57  78 110 144 179 225 274 323
#     4  10  20  36  56  78 108 145 182 222 272 325
#     4  10  19  35  57  78 110 144 179 225 274 323
#     4   9  19  34  55  82 106 137 183 229 273 321
#     4   9  19  34  55  82 106 137 183 229 273 321
#
# _framework density 18.480905
#
# number of rings (size 3 to 8) (size 9 to 14) (size 15 to 20)
#    0.000    2.286    0.000    2.571    0.000    2.286 
#    0.000    4.286    0.000    0.000    0.000    0.000 
#    0.000    0.000    0.000    0.000    0.000    0.000 
#
# Total GULP energy -156282.238349 kJ/mol
# GULP energy per Si atom -5581.508512 kJ/mol
# Density = 1.843884 g / cm^3
# Si number density = 18.480905 Si / 1000 Ang^3
#
#
#
# Elastic Constant Matrix: (Units=GPa)
#
#
# Indices 1 2 3 4 5 6 
#
# 1 55.8366 63.7232 32.2209 0.0000 0.9776 0.0000
# 2 63.7232 141.7547 60.0570 0.0000 -1.5064 0.0000
# 3 32.2209 60.0570 83.2923 0.0000 10.3186 0.0000
# 4 0.0000 0.0000 0.0000 18.3396 0.0000 -3.5374
# 5 0.9776 -1.5064 10.3186 0.0000 16.8384 0.0000
# 6 0.0000 0.0000 0.0000 -3.5374 0.0000 26.9383
#
#
#
# Elastic Compliance Matrix: (Units=1/GPa)
#
#
# Indices 1 2 3 4 5 6 
#
# 1 0.037468 -0.015563 -0.003063 0.000000 -0.001691 0.000000
# 2 -0.015563 0.017182 -0.007219 0.000000 0.006864 0.000000
# 3 -0.003063 -0.007219 0.019970 0.000000 -0.012705 0.000000
# 4 0.000000 0.000000 0.000000 0.055944 0.000000 0.007346
# 5 -0.001691 0.006864 -0.012705 0.000000 0.067886 0.000000
# 6 0.000000 0.000000 0.000000 0.007346 0.000000 0.038086
#
#
# Mechanical properties :
#
#
# Convention : Reuss Voigt Hill
#
# Bulk Modulus (GPa) = 43.61142 65.87623 54.74382
# Shear Modulus (GPa) = 16.89933 20.74877 18.82405
#
# Velocity S-wave (km/s) = 3.02722 3.35433 3.19496
# Velocity P-wave (km/s) = 5.98900 7.12215 6.58001
#
# Compressibility (1/GPa) = 0.02292977
#
# Stress axis : x y z
#
# Youngs Moduli (GPa) = 26.68934 58.20054 50.07569
#
# Poissons Ratio (x) = 0.90580 0.15338
# Poissons Ratio (y) = 0.41538 0.36148
# Poissons Ratio (z) = 0.08175 0.42013
#
# Static dielectric constant tensor:
#      x y z
#    x 1.636150 0.000000 -0.002980 
#    y 0.000000 1.602770 0.000000 
#    z -0.002980 0.000000 1.628910 
# 
# From -- ./inp_files/7888.got.cif
#   From: 2010.05.17/outbox.cif.g08.bks.cpg/sg11_4_cif.got.tgz:7888.got - 2010.06.03 12:22:45.
