data_PCOD9160327
_publ_section_title
;
Structure prediction by ZEFSAII (Michael W. Deem and Ramdas Pophale) SiO2 
 PCOD9160327
Probable space group: P 21/M
;
_chemical_formula_sum "Si O2"
_cell_formula_units_Z 32
_cell_length_a 31.658145
_cell_length_b 8.352918
_cell_length_c 12.324549
_cell_angle_alpha 90.000000
_cell_angle_beta 150.464599
_cell_angle_gamma 90.000000
_cell_volume 1606.598955
_symmetry_space_group_name_H-M "P 21/M"
_symmetry_group_IT_number 11
_symmetry_cell_setting 'monoclinic'
loop_
_space_group_symop_operation_xyz
x,y,z
-x,1/2+y,-z
-x,-y,-z
x,1/2-y,z
loop_
_atom_site_type_symbol
_atom_site_label
_atom_site_fract_x
_atom_site_fract_y
_atom_site_fract_z
Si Si1 0.236787 0.942929 0.359558
Si Si2 0.534563 0.056974 0.405374
Si Si3 0.058111 0.943313 0.031922
Si Si4 0.426361 0.555646 0.753976
Si Si5 0.370957 0.941753 0.163735
Si Si6 0.165425 0.935570 0.960600
Si Si7 0.003146 0.565169 0.336357
Si Si8 0.810940 0.567153 0.210023
O O1 0.240754 0.750000 0.377750
O O2 0.158367 0.994357 0.261152
O O3 0.333194 0.002909 0.587027
O O4 0.205420 0.975954 0.166509
O O5 0.537515 0.250000 0.410998
O O6 0.558881 0.002823 0.338367
O O7 0.596055 0.004141 0.642495
O O8 0.440309 0.002340 0.232024
O O9 0.055508 0.750000 0.016100
O O10 0.000000 0.000000 0.000000
O O11 0.020455 0.020785 0.839259
O O12 0.425587 0.750000 0.750925
O O13 0.500000 0.500000 0.000000
O O14 0.370230 0.750000 0.161732
O O15 0.275763 0.004512 0.930104
O O16 0.185385 0.750000 0.981019
O O17 0.201060 0.045006 0.945716
O O18 0.062985 0.959435 0.741261
O O19 0.984204 0.750000 0.317062
O O20 0.102935 0.530730 0.574281
O O21 0.826640 0.750000 0.274311
#
# Coordination Sequence:
#
# PCOD9160327 Si02
#       8
#     4   4   4   4   4   4   4   4
#     4   8  17  35  59  82 108 145 189 230 280 338
#     4   9  19  37  59  81 112 148 187 236 292 347
#     4  10  20  38  61  84 110 149 193 240 288 339
#     4  10  20  37  58  83 114 150 189 237 290 341
#     4  10  20  36  59  84 109 147 193 235 287 350
#     4  10  19  35  58  82 110 147 188 231 281 339
#     4  11  22  37  55  80 113 148 187 232 281 338
#     4  12  23  35  52  81 117 150 185 228 281 340
#
# _framework density 19.917852
#
# number of rings (size 3 to 8) (size 9 to 14) (size 15 to 20)
#    0.000    2.000    0.000    5.250    0.000    3.000 
#    2.250    5.000    0.000    0.000    0.000    0.000 
#    0.000    0.000    0.000    0.000    0.000    0.000 
#
# Total GULP energy -178654.656807 kJ/mol
# GULP energy per Si atom -5582.958025 kJ/mol
# Density = 1.987252 g / cm^3
# Si number density = 19.917852 Si / 1000 Ang^3
#
#
#
# Elastic Constant Matrix: (Units=GPa)
#
#
# Indices 1 2 3 4 5 6 
#
# 1 101.6442 4.6481 43.2624 0.0000 23.4817 0.0000
# 2 4.6481 30.6560 6.2592 0.0000 0.5556 0.0000
# 3 43.2624 6.2592 104.7984 0.0000 33.9328 0.0000
# 4 0.0000 0.0000 0.0000 27.2330 0.0000 0.3504
# 5 23.4817 0.5556 33.9328 0.0000 27.9474 0.0000
# 6 0.0000 0.0000 0.0000 0.3504 0.0000 28.7261
#
#
#
# Elastic Compliance Matrix: (Units=1/GPa)
#
#
# Indices 1 2 3 4 5 6 
#
# 1 0.012785 -0.001224 -0.002858 0.000000 -0.007248 0.000000
# 2 -0.001224 0.033280 -0.002639 0.000000 0.003570 0.000000
# 3 -0.002858 -0.002639 0.016618 0.000000 -0.017724 0.000000
# 4 0.000000 0.000000 0.000000 0.036726 0.000000 -0.000448
# 5 -0.007248 0.003570 -0.017724 0.000000 0.063319 0.000000
# 6 0.000000 0.000000 0.000000 -0.000448 0.000000 0.034817
#
#
# Mechanical properties :
#
#
# Convention : Reuss Voigt Hill
#
# Bulk Modulus (GPa) = 20.30760 38.38200 29.34480
# Shear Modulus (GPa) = 21.98773 28.97658 25.48216
#
# Velocity S-wave (km/s) = 3.32613 3.81833 3.58070
# Velocity P-wave (km/s) = 4.99687 6.22507 5.64447
#
# Compressibility (1/GPa) = 0.04924265
#
# Stress axis : x y z
#
# Youngs Moduli (GPa) = 78.21679 30.04847 60.17467
#
# Poissons Ratio (x) = 0.03677 0.17198
# Poissons Ratio (y) = 0.09570 0.15877
# Poissons Ratio (z) = 0.22355 0.07928
#
# Static dielectric constant tensor:
#      x y z
#    x 1.698500 0.000000 0.027100 
#    y 0.000000 1.682590 0.000000 
#    z 0.027100 0.000000 1.682350 
# 
# From -- ./inp_files/45280.got.cif
#   From: 2010.05.17/outbox.cif.g08.bks.cpg/sg11_23_cif.got.tgz:45280.got - 2010.06.03 12:22:45.
