data_PCOD9160419
_publ_section_title
;
Structure prediction by ZEFSAII (Michael W. Deem and Ramdas Pophale) SiO2 
 PCOD9160419
Probable space group: P 21/M
;
_chemical_formula_sum "Si O2"
_cell_formula_units_Z 32
_cell_length_a 15.036777
_cell_length_b 8.880782
_cell_length_c 13.031644
_cell_angle_alpha 90.000000
_cell_angle_beta 78.077069
_cell_angle_gamma 90.000000
_cell_volume 1702.681154
_symmetry_space_group_name_H-M "P 21/M"
_symmetry_group_IT_number 11
_symmetry_cell_setting 'monoclinic'
loop_
_space_group_symop_operation_xyz
x,y,z
-x,1/2+y,-z
-x,-y,-z
x,1/2-y,z
loop_
_atom_site_type_symbol
_atom_site_label
_atom_site_fract_x
_atom_site_fract_y
_atom_site_fract_z
Si Si1 0.924150 0.432609 0.298978
Si Si2 0.596827 0.927183 0.456627
Si Si3 0.145437 0.925193 0.898092
Si Si4 0.875231 0.567017 0.686579
Si Si5 0.782197 0.569522 0.920661
Si Si6 0.410719 0.929155 0.972424
Si Si7 0.213952 0.067295 0.505935
Si Si8 0.649045 0.077424 0.237449
O O1 0.916543 0.250000 0.302170
O O2 0.917971 0.477802 0.180456
O O3 0.843716 0.501206 0.386041
O O4 0.020007 0.478499 0.325332
O O5 0.587889 0.750000 0.472581
O O6 0.680902 0.979483 0.507640
O O7 0.500000 0.000000 0.500000
O O8 0.627464 0.966720 0.334213
O O9 0.125691 0.750000 0.925945
O O10 0.246706 0.931696 0.824503
O O11 0.152800 0.016250 0.001625
O O12 0.874249 0.750000 0.685787
O O13 0.821028 0.520440 0.801358
O O14 0.830181 0.517122 0.590983
O O15 0.776514 0.750000 0.924053
O O16 0.682347 0.501187 0.963139
O O17 0.407662 0.750000 0.990239
O O18 0.409596 0.953501 0.849973
O O19 0.500000 0.000000 0.000000
O O20 0.210286 0.250000 0.511960
O O21 0.632777 0.250000 0.275447
#
# Coordination Sequence:
#
# PCOD9160419 Si02
#       8
#     4   4   4   4   4   4   4   4
#     4  10  19  35  60  84 109 148 192 231 281 344
#     4  11  23  36  55  82 111 144 185 233 285 340
#     4   9  18  33  55  81 110 144 183 233 283 329
#     4   9  20  37  56  81 116 153 187 229 286 343
#     4  10  20  35  55  80 113 153 192 230 281 339
#     4  10  21  37  58  84 111 145 188 233 284 338
#     4  10  21  38  57  81 113 146 186 237 285 334
#     4   9  18  35  55  76 107 143 179 225 278 330
#
# _framework density 18.793890000000001
#
# number of rings (size 3 to 8) (size 9 to 14) (size 15 to 20)
#    0.000    2.250    1.250    2.250    0.000    5.000 
#    0.000    5.000    0.000    0.000    0.000    0.000 
#    0.000    0.000    0.000    0.000    0.000    0.000 
#
# Total GULP energy -178583.928117 kJ/mol
# GULP energy per Si atom -5580.747754 kJ/mol
# Density = 1.875111 g / cm^3
# Si number density = 18.793890 Si / 1000 Ang^3
#
#
#
# Elastic Constant Matrix: (Units=GPa)
#
#
# Indices 1 2 3 4 5 6 
#
# 1 111.2939 27.7440 39.7587 0.0000 26.4427 0.0000
# 2 27.7440 28.2313 25.2876 0.0000 9.8558 0.0000
# 3 39.7587 25.2876 78.2383 0.0000 18.9291 0.0000
# 4 0.0000 0.0000 0.0000 29.1151 0.0000 3.2333
# 5 26.4427 9.8558 18.9291 0.0000 32.9212 0.0000
# 6 0.0000 0.0000 0.0000 3.2333 0.0000 19.2245
#
#
#
# Elastic Compliance Matrix: (Units=1/GPa)
#
#
# Indices 1 2 3 4 5 6 
#
# 1 0.013719 -0.008888 -0.002412 0.000000 -0.006971 0.000000
# 2 -0.008888 0.056869 -0.013326 0.000000 -0.002224 0.000000
# 3 -0.002412 -0.013326 0.019608 0.000000 -0.005347 0.000000
# 4 0.000000 0.000000 0.000000 0.035000 0.000000 -0.005887
# 5 -0.006971 -0.002224 -0.005347 0.000000 0.039716 0.000000
# 6 0.000000 0.000000 0.000000 -0.005887 0.000000 0.053007
#
#
# Mechanical properties :
#
#
# Convention : Reuss Voigt Hill
#
# Bulk Modulus (GPa) = 24.42359 44.81604 34.61981
# Shear Modulus (GPa) = 17.80503 24.58370 21.19437
#
# Velocity S-wave (km/s) = 3.08130 3.62065 3.36181
# Velocity P-wave (km/s) = 5.06783 6.43247 5.79049
#
# Compressibility (1/GPa) = 0.04094402
#
# Stress axis : x y z
#
# Youngs Moduli (GPa) = 72.89208 17.58421 50.99873
#
# Poissons Ratio (x) = 0.15628 0.12303
# Poissons Ratio (y) = 0.64783 0.67962
# Poissons Ratio (z) = 0.17584 0.23433
#
# Static dielectric constant tensor:
#      x y z
#    x 1.655520 0.000000 0.023140 
#    y 0.000000 1.634350 0.000000 
#    z 0.023140 0.000000 1.639490 
# 
# From -- ./inp_files/38114.got.cif
#   From: 2010.05.17/outbox.cif.g08.bks.cpg/sg11_20_cif.got.tgz:38114.got - 2010.06.03 12:22:45.
