data_PCOD9160652
_publ_section_title
;
Structure prediction by ZEFSAII (Michael W. Deem and Ramdas Pophale) SiO2 
 PCOD9160652
Probable space group: P 21/M
;
_chemical_formula_sum "Si O2"
_cell_formula_units_Z 32
_cell_length_a 23.174171
_cell_length_b 8.561335
_cell_length_c 15.599737
_cell_angle_alpha 90.000000
_cell_angle_beta 148.279752
_cell_angle_gamma 90.000000
_cell_volume 1627.273936
_symmetry_space_group_name_H-M "P 21/M"
_symmetry_group_IT_number 11
_symmetry_cell_setting 'monoclinic'
loop_
_space_group_symop_operation_xyz
x,y,z
-x,1/2+y,-z
-x,-y,-z
x,1/2-y,z
loop_
_atom_site_type_symbol
_atom_site_label
_atom_site_fract_x
_atom_site_fract_y
_atom_site_fract_z
Si Si1 0.224126 0.061193 0.623174
Si Si2 0.345014 0.059500 0.946531
Si Si3 0.377116 0.435742 0.337280
Si Si4 0.990307 0.063892 0.256980
Si Si5 0.302216 0.565159 0.419940
Si Si6 0.247444 0.061385 0.004753
Si Si7 0.051569 0.565440 0.151835
Si Si8 0.407952 0.938962 0.726187
O O1 0.223049 0.250000 0.620608
O O2 0.267330 0.008634 0.770635
O O3 0.101474 0.007633 0.444635
O O4 0.312007 0.005215 0.664128
O O5 0.344951 0.250000 0.946840
O O6 0.302715 0.007941 0.986014
O O7 0.471083 0.010756 0.091883
O O8 0.500000 0.500000 0.500000
O O9 0.383411 0.250000 0.338094
O O10 0.314980 0.480044 0.346116
O O11 0.313253 0.495104 0.172172
O O12 0.983484 0.250000 0.257348
O O13 0.878528 0.989872 0.149602
O O14 0.004966 0.020161 0.175894
O O15 0.317480 0.750000 0.423159
O O16 0.182187 0.542633 0.308711
O O17 0.387741 0.515559 0.601448
O O18 0.251348 0.250000 0.010613
O O19 0.029516 0.750000 0.131728
O O20 0.000000 0.500000 0.000000
O O21 0.401673 0.750000 0.721284
#
# Coordination Sequence:
#
# PCOD9160652 Si02
#       8
#     4   4   4   4   4   4   4   4
#     4  10  21  37  58  87 120 153 191 241 299 350
#     4   9  19  37  61  85 113 152 196 245 299 353
#     4  11  23  38  59  86 116 153 194 239 289 346
#     4  11  23  38  57  84 122 157 193 243 294 348
#     4  10  21  36  56  83 114 149 190 235 284 343
#     4  10  22  41  62  83 113 156 204 245 291 350
#     4  11  22  37  58  84 114 150 193 237 287 344
#     4  10  19  36  61  87 116 150 192 240 295 358
#
# _framework density 19.664788999999999
#
# number of rings (size 3 to 8) (size 9 to 14) (size 15 to 20)
#    0.000    1.750    1.250    3.000    0.000    7.500 
#    0.000    1.250    0.000    0.000    0.000    0.000 
#    0.000    0.000    0.000    0.000    0.000    0.000 
#
# Total GULP energy -178809.619291 kJ/mol
# GULP energy per Si atom -5587.800603 kJ/mol
# Density = 1.962003 g / cm^3
# Si number density = 19.664789 Si / 1000 Ang^3
#
#
#
# Elastic Constant Matrix: (Units=GPa)
#
#
# Indices 1 2 3 4 5 6 
#
# 1 97.0699 15.4427 54.7695 0.0000 -3.9403 0.0000
# 2 15.4427 8.5288 13.0500 0.0000 3.9239 0.0000
# 3 54.7695 13.0500 151.6176 0.0000 -2.1784 0.0000
# 4 0.0000 0.0000 0.0000 21.9924 0.0000 4.5742
# 5 -3.9403 3.9239 -2.1784 0.0000 31.8778 0.0000
# 6 0.0000 0.0000 0.0000 4.5742 0.0000 30.3661
#
#
#
# Elastic Compliance Matrix: (Units=1/GPa)
#
#
# Indices 1 2 3 4 5 6 
#
# 1 0.016968 -0.027484 -0.003689 0.000000 0.005228 0.000000
# 2 -0.027484 0.189976 -0.006815 0.000000 -0.027247 0.000000
# 3 -0.003689 -0.006815 0.008528 0.000000 0.000966 0.000000
# 4 0.000000 0.000000 0.000000 0.046941 0.000000 -0.007071
# 5 0.005228 -0.027247 0.000966 0.000000 0.035436 0.000000
# 6 0.000000 0.000000 0.000000 -0.007071 0.000000 0.033997
#
#
# Mechanical properties :
#
#
# Convention : Reuss Voigt Hill
#
# Bulk Modulus (GPa) = 7.16860 47.08231 27.12545
# Shear Modulus (GPa) = 11.00547 28.44418 19.72483
#
# Velocity S-wave (km/s) = 2.36827 3.80735 3.17054
# Velocity P-wave (km/s) = 3.33640 6.58197 5.21794
#
# Compressibility (1/GPa) = 0.13949733
#
# Stress axis : x y z
#
# Youngs Moduli (GPa) = 58.93565 5.26382 117.25472
#
# Poissons Ratio (x) = 0.14467 0.43251
# Poissons Ratio (y) = 1.61978 0.79908
# Poissons Ratio (z) = 0.21739 0.03587
#
# Static dielectric constant tensor:
#      x y z
#    x 1.655840 0.000000 -0.010810 
#    y 0.000000 1.679670 0.000000 
#    z -0.010810 0.000000 1.694780 
# 
# From -- ./inp_files/55680.got.cif
#   From: 2010.05.17/outbox.cif.g08.bks.cpg/sg11_28_cif.got.tgz:55680.got - 2010.06.03 12:22:45.
