data_PCOD9160350
_publ_section_title
;
Structure prediction by ZEFSAII (Michael W. Deem and Ramdas Pophale) SiO2 
 PCOD9160350
Probable space group: P 21/M
;
_chemical_formula_sum "Si O2"
_cell_formula_units_Z 32
_cell_length_a 25.732052
_cell_length_b 7.558392
_cell_length_c 16.852081
_cell_angle_alpha 90.000000
_cell_angle_beta 154.017025
_cell_angle_gamma 90.000000
_cell_volume 1435.934552
_symmetry_space_group_name_H-M "P 21/M"
_symmetry_group_IT_number 11
_symmetry_cell_setting 'monoclinic'
loop_
_space_group_symop_operation_xyz
x,y,z
-x,1/2+y,-z
-x,-y,-z
x,1/2-y,z
loop_
_atom_site_type_symbol
_atom_site_label
_atom_site_fract_x
_atom_site_fract_y
_atom_site_fract_z
Si Si1 0.409344 0.036977 0.229306
Si Si2 0.998900 0.035407 0.253905
Si Si3 0.790266 0.955532 0.564766
Si Si4 0.328697 0.466306 0.952649
Si Si5 0.740460 0.540139 0.833020
Si Si6 0.685539 0.961400 0.585228
Si Si7 0.086163 0.038061 0.544948
Si Si8 0.551045 0.039828 0.156544
O O1 0.402204 0.250000 0.221860
O O2 0.359806 0.967960 0.244792
O O3 0.544642 0.991608 0.395936
O O4 0.328576 0.977927 0.044200
O O5 0.004000 0.250000 0.262230
O O6 0.094893 0.968651 0.321410
O O7 0.035583 0.971308 0.391993
O O8 0.867171 0.984610 0.047815
O O9 0.818244 0.750000 0.617931
O O10 0.744974 0.033566 0.586264
O O11 0.679018 0.962313 0.351940
O O12 0.327662 0.250000 0.949702
O O13 0.216550 0.528543 0.748180
O O14 0.452048 0.523986 0.082824
O O15 0.718392 0.750000 0.795185
O O16 0.736597 0.467566 0.738442
O O17 0.703349 0.750000 0.607260
O O18 0.095753 0.250000 0.550489
O O19 0.000000 0.000000 0.500000
O O20 0.562571 0.250000 0.181133
O O21 0.500000 0.000000 0.000000
#
# Coordination Sequence:
#
# PCOD9160350 Si02
#       8
#     4   4   4   4   4   4   4   4
#     4  10  19  35  58  84 115 149 187 231 286 348
#     4  10  22  39  58  81 113 155 196 234 282 341
#     4  10  21  39  59  81 115 152 188 236 289 337
#     4   9  18  33  54  78 107 144 181 219 271 335
#     4  10  22  38  58  84 114 150 191 239 291 339
#     4  10  21  37  58  86 117 147 186 241 294 336
#     4  10  20  36  56  79 110 147 187 229 276 331
#     4  11  21  35  56  82 111 146 189 231 280 337
#
# _framework density 22.285138
#
# number of rings (size 3 to 8) (size 9 to 14) (size 15 to 20)
#    0.000    2.000    1.250    2.250    0.000    5.500 
#    0.000    3.125    0.000    0.000    0.000    0.000 
#    0.000    0.000    0.000    0.000    0.000    0.000 
#
# Total GULP energy -178834.601527 kJ/mol
# GULP energy per Si atom -5588.581298 kJ/mol
# Density = 2.223442 g / cm^3
# Si number density = 22.285138 Si / 1000 Ang^3
#
#
#
# Elastic Constant Matrix: (Units=GPa)
#
#
# Indices 1 2 3 4 5 6 
#
# 1 155.3727 1.5606 34.6001 0.0000 -16.1409 0.0000
# 2 1.5606 52.0763 -11.2334 0.0000 -7.1015 0.0000
# 3 34.6001 -11.2334 79.9350 0.0000 -19.4265 0.0000
# 4 0.0000 0.0000 0.0000 18.9353 0.0000 5.4012
# 5 -16.1409 -7.1015 -19.4265 0.0000 42.8532 0.0000
# 6 0.0000 0.0000 0.0000 5.4012 0.0000 13.9458
#
#
#
# Elastic Compliance Matrix: (Units=1/GPa)
#
#
# Indices 1 2 3 4 5 6 
#
# 1 0.007224 -0.000667 -0.002907 0.000000 0.001293 0.000000
# 2 -0.000667 0.020911 0.004505 0.000000 0.005256 0.000000
# 3 -0.002907 0.004505 0.016089 0.000000 0.006945 0.000000
# 4 0.000000 0.000000 0.000000 0.059370 0.000000 -0.022994
# 5 0.001293 0.005256 0.006945 0.000000 0.027842 0.000000
# 6 0.000000 0.000000 0.000000 -0.022994 0.000000 0.080612
#
#
# Mechanical properties :
#
#
# Convention : Reuss Voigt Hill
#
# Bulk Modulus (GPa) = 21.69814 37.47096 29.58455
# Shear Modulus (GPa) = 22.16809 32.64396 27.40602
#
# Velocity S-wave (km/s) = 3.15738 3.83146 3.51064
# Velocity P-wave (km/s) = 4.80102 6.03526 5.45317
#
# Compressibility (1/GPa) = 0.04608689
#
# Stress axis : x y z
#
# Youngs Moduli (GPa) = 138.41909 47.82151 62.15294
#
# Poissons Ratio (x) = 0.03191 0.18066
# Poissons Ratio (y) = 0.09235 -0.27999
# Poissons Ratio (z) = 0.40234 -0.21543
#
# Static dielectric constant tensor:
#      x y z
#    x 1.840350 0.000000 -0.024420 
#    y 0.000000 1.853350 0.000000 
#    z -0.024420 0.000000 1.790690 
# 
# From -- ./inp_files/55648.got.cif
#   From: 2010.05.17/outbox.cif.g08.bks.cpg/sg11_28_cif.got.tgz:55648.got - 2010.06.03 12:22:45.
