data_PCOD9160882
_publ_section_title
;
Structure prediction by ZEFSAII (Michael W. Deem and Ramdas Pophale) SiO2 
 PCOD9160882
Probable space group: P 21/M
;
_chemical_formula_sum "Si O2"
_cell_formula_units_Z 28
_cell_length_a 8.271835
_cell_length_b 28.211554
_cell_length_c 5.299970
_cell_angle_alpha 90.000000
_cell_angle_beta 112.800057
_cell_angle_gamma 90.000000
_cell_volume 1140.167238
_symmetry_space_group_name_H-M "P 21/M"
_symmetry_group_IT_number 11
_symmetry_cell_setting 'monoclinic'
loop_
_space_group_symop_operation_xyz
x,y,z
-x,1/2+y,-z
-x,-y,-z
x,1/2-y,z
loop_
_atom_site_type_symbol
_atom_site_label
_atom_site_fract_x
_atom_site_fract_y
_atom_site_fract_z
Si Si1 0.610293 0.562973 0.150387
Si Si2 0.889868 0.487475 0.187244
Si Si3 0.835125 0.645227 0.174599
Si Si4 0.558194 0.401317 0.469736
Si Si5 0.116023 0.888561 0.025752
Si Si6 0.635790 0.803210 0.677333
Si Si7 0.969762 0.303030 0.323499
O O1 0.709862 0.516378 0.115659
O O2 0.512097 0.562298 0.357745
O O3 0.755559 0.604023 0.293402
O O4 0.501017 0.582922 0.844304
O O5 0.000000 0.500000 0.500000
O O6 0.860554 0.431739 0.147965
O O7 0.000000 0.500000 0.000000
O O8 0.914609 0.615309 0.990841
O O9 0.995634 0.674643 0.383362
O O10 0.690860 0.682691 0.996817
O O11 0.762164 0.398479 0.661364
O O12 0.481758 0.347992 0.472806
O O13 0.147946 0.838743 0.907527
O O14 0.562172 0.750000 0.612249
O O15 0.828200 0.802421 0.659591
O O16 0.902663 0.250000 0.286445
#
# Coordination Sequence:
#
# PCOD9160882 Si02
#       7
#     4   4   4   4   4   4   4
#     4  11  23  43  66  93 131 175 220 262 324 397
#     4  12  25  42  72 101 128 174 227 278 324 389
#     4  10  19  38  65  91 123 171 222 271 314 386
#     4  11  25  42  64  95 137 172 211 274 332 394
#     4  11  26  40  65  98 134 170 218 278 333 388
#     4   9  19  36  60  89 122 168 217 263 320 389
#     4  10  20  38  66  94 126 170 224 271 320 390
#
# _framework density 24.557798999999999
#
# number of rings (size 3 to 8) (size 9 to 14) (size 15 to 20)
#    0.000    1.429    2.857    2.143    4.000    2.286 
#    0.000    0.000    0.000    0.000    0.000    0.000 
#    0.000    0.000    0.000    0.000    0.000    0.000 
#
# Total GULP energy -156498.387702 kJ/mol
# GULP energy per Si atom -5589.228132 kJ/mol
# Density = 2.450190 g / cm^3
# Si number density = 24.557799 Si / 1000 Ang^3
#
#
#
# Elastic Constant Matrix: (Units=GPa)
#
#
# Indices 1 2 3 4 5 6 
#
# 1 49.5498 21.0476 8.7774 0.0000 -8.2132 0.0000
# 2 21.0476 125.5885 30.0289 0.0000 3.3666 0.0000
# 3 8.7774 30.0289 127.2226 0.0000 3.8522 0.0000
# 4 0.0000 0.0000 0.0000 30.2314 0.0000 -0.0320
# 5 -8.2132 3.3666 3.8522 0.0000 29.7131 0.0000
# 6 0.0000 0.0000 0.0000 -0.0320 0.0000 18.2366
#
#
#
# Elastic Compliance Matrix: (Units=1/GPa)
#
#
# Indices 1 2 3 4 5 6 
#
# 1 0.023126 -0.003847 -0.000898 0.000000 0.006945 0.000000
# 2 -0.003847 0.009093 -0.001825 0.000000 -0.001857 0.000000
# 3 -0.000898 -0.001825 0.008387 0.000000 -0.001129 0.000000
# 4 0.000000 0.000000 0.000000 0.033078 0.000000 0.000058
# 5 0.006945 -0.001857 -0.001129 0.000000 0.035932 0.000000
# 6 0.000000 0.000000 0.000000 0.000058 0.000000 0.054835
#
#
# Mechanical properties :
#
#
# Convention : Reuss Voigt Hill
#
# Bulk Modulus (GPa) = 36.40707 46.89650 41.65179
# Shear Modulus (GPa) = 26.77430 31.80334 29.28882
#
# Velocity S-wave (km/s) = 3.30549 3.60257 3.45722
# Velocity P-wave (km/s) = 5.42453 6.03676 5.73882
#
# Compressibility (1/GPa) = 0.02746719
#
# Stress axis : x y z
#
# Youngs Moduli (GPa) = 43.24120 109.97036 119.23153
#
# Poissons Ratio (x) = 0.42308 0.10704
# Poissons Ratio (y) = 0.16636 0.21756
# Poissons Ratio (z) = 0.03882 0.20066
#
# Static dielectric constant tensor:
#      x y z
#    x 2.069870 0.000000 0.075940 
#    y 0.000000 2.017720 0.000000 
#    z 0.075940 0.000000 2.317170 
# 
# From -- ./inp_files/3452.got.cif
#   From: 2010.05.17/outbox.cif.g08.bks.cpg/sg11_2_cif.got.tgz:3452.got - 2010.06.03 12:22:45.
