data_PCOD9160535
_publ_section_title
;
Structure prediction by ZEFSAII (Michael W. Deem and Ramdas Pophale) SiO2 
 PCOD9160535
Probable space group: P 21/M
;
_chemical_formula_sum "Si O2"
_cell_formula_units_Z 16
_cell_length_a 10.397506
_cell_length_b 13.456264
_cell_length_c 5.170745
_cell_angle_alpha 90.000000
_cell_angle_beta 75.955831
_cell_angle_gamma 90.000000
_cell_volume 701.822532
_symmetry_space_group_name_H-M "P 21/M"
_symmetry_group_IT_number 11
_symmetry_cell_setting 'monoclinic'
loop_
_space_group_symop_operation_xyz
x,y,z
-x,1/2+y,-z
-x,-y,-z
x,1/2-y,z
loop_
_atom_site_type_symbol
_atom_site_label
_atom_site_fract_x
_atom_site_fract_y
_atom_site_fract_z
Si Si1 0.046163 0.889848 0.920836
Si Si2 0.496064 0.070006 0.752101
Si Si3 0.214805 0.585967 0.326942
Si Si4 0.238022 0.357065 0.121844
O O1 0.126268 0.887945 0.615882
O O2 0.901832 0.844822 0.952605
O O3 0.144483 0.867782 0.109523
O O4 0.000000 0.000000 0.000000
O O5 0.636722 0.124844 0.697664
O O6 0.359213 0.128032 0.860906
O O7 0.500000 0.000000 0.000000
O O8 0.500000 0.500000 0.500000
O O9 0.775249 0.536565 0.715706
O O10 0.262284 0.250000 0.250221
#
# Coordination Sequence:
#
# PCOD9160535 Si02
#       4
#     4   4   4   4
#     4  10  19  36  58  81 110 152 191 224 275 346
#     4  10  20  37  58  82 112 153 191 225 278 349
#     4  10  20  38  60  79 111 157 192 220 275 354
#     4  10  21  37  59  90 116 142 189 249 286 319
#
# _framework density 22.797789000000002
#
# number of rings (size 3 to 8) (size 9 to 14) (size 15 to 20)
#    0.000    2.000    0.000    7.500    0.000    2.000 
#    0.000   33.750    0.000    0.000    0.000    1.750 
#    0.000    0.000    0.000    0.000    0.000    0.000 
#
# Total GULP energy -89135.716627 kJ/mol
# GULP energy per Si atom -5570.982289 kJ/mol
# Density = 2.274590 g / cm^3
# Si number density = 22.797789 Si / 1000 Ang^3
#
#
#
# Elastic Constant Matrix: (Units=GPa)
#
#
# Indices 1 2 3 4 5 6 
#
# 1 181.6628 22.0257 119.7187 0.0000 -32.2161 0.0000
# 2 22.0257 112.7755 29.6946 0.0000 -6.4746 0.0000
# 3 119.7187 29.6946 169.9379 0.0000 -20.6982 0.0000
# 4 0.0000 0.0000 0.0000 -48.0521 0.0000 25.3963
# 5 -32.2161 -6.4746 -20.6982 0.0000 66.0842 0.0000
# 6 0.0000 0.0000 0.0000 25.3963 0.0000 -21.7488
#
#
#
# Elastic Compliance Matrix: (Units=1/GPa)
#
#
# Indices 1 2 3 4 5 6 
#
# 1 0.010819 -0.000032 -0.007251 0.000000 0.003000 0.000000
# 2 -0.000032 0.009306 -0.001554 0.000000 0.000410 0.000000
# 3 -0.007251 -0.001554 0.011244 0.000000 -0.000165 0.000000
# 4 0.000000 0.000000 0.000000 -0.054358 0.000000 -0.063474
# 5 0.003000 0.000410 -0.000165 0.000000 0.016583 0.000000
# 6 0.000000 0.000000 0.000000 -0.063474 0.000000 -0.120099
#
#
# Mechanical properties :
#
#
# Convention : Reuss Voigt Hill
#
# Bulk Modulus (GPa) = 73.01296 89.69493 81.35395
# Shear Modulus (GPa) = -47.95415 18.78580 -14.58417
#
# Velocity S-wave (km/s) = -4.59132 2.87369 -2.53201
# Velocity P-wave (km/s) = 1.99722 7.10210 5.21674
#
# Compressibility (1/GPa) = 0.01369620
#
# Stress axis : x y z
#
# Youngs Moduli (GPa) = 92.42951 107.45721 88.93565
#
# Poissons Ratio (x) = 0.00339 0.64487
# Poissons Ratio (y) = 0.00292 0.13821
# Poissons Ratio (z) = 0.67020 0.16699
#
# Static dielectric constant tensor:
#      x y z
#    x 1.893610 0.000000 -0.037490 
#    y 0.000000 1.579910 0.000000 
#    z -0.037490 0.000000 1.802540 
# 
# From -- ./inp_files/12083.got.cif
#   From: 2010.05.17/outbox.cif.g08.bks.cpg/sg11_7_cif.got.tgz:12083.got - 2010.06.03 12:22:45.
