data_PCOD9160066
_publ_section_title
;
Structure prediction by ZEFSAII (Michael W. Deem and Ramdas Pophale) SiO2 
 PCOD9160066
Probable space group: P 21/M
;
_chemical_formula_sum "Si O2"
_cell_formula_units_Z 20
_cell_length_a 7.547276
_cell_length_b 18.306799
_cell_length_c 10.960585
_cell_angle_alpha 90.000000
_cell_angle_beta 39.166449
_cell_angle_gamma 90.000000
_cell_volume 956.448498
_symmetry_space_group_name_H-M "P 21/M"
_symmetry_group_IT_number 11
_symmetry_cell_setting 'monoclinic'
loop_
_space_group_symop_operation_xyz
x,y,z
-x,1/2+y,-z
-x,-y,-z
x,1/2-y,z
loop_
_atom_site_type_symbol
_atom_site_label
_atom_site_fract_x
_atom_site_fract_y
_atom_site_fract_z
Si Si1 0.664728 0.664463 0.206926
Si Si2 0.848083 0.963591 0.965025
Si Si3 0.699393 0.539594 0.671952
Si Si4 0.023803 0.665982 0.468589
Si Si5 0.827094 0.572576 0.359059
O O1 0.741051 0.750000 0.175621
O O2 0.819576 0.621559 0.013488
O O3 0.331602 0.659624 0.360482
O O4 0.727300 0.618342 0.296089
O O5 0.534092 0.996721 0.132164
O O6 0.012104 0.999016 0.765352
O O7 0.000000 0.000000 0.000000
O O8 0.000000 0.500000 0.500000
O O9 0.787488 0.620216 0.668077
O O10 0.599555 0.549932 0.583491
O O11 0.947766 0.750000 0.499049
O O12 0.017431 0.627427 0.339031
#
# Coordination Sequence:
#
# PCOD9160066 Si02
#       5
#     4   4   4   4   4
#     4  10  19  34  58  84 115 154 192 238 296 344
#     4  10  20  37  58  91 112 151 197 242 281 350
#     4  10  20  37  59  87 115 152 196 240 285 349
#     4   9  19  36  58  84 116 151 194 242 288 344
#     4   9  21  36  63  79 116 156 194 231 296 345
#
# _framework density 20.910692999999998
#
# number of rings (size 3 to 8) (size 9 to 14) (size 15 to 20)
#    1.200    1.200    2.000    0.600    0.000    6.400 
#    0.000    5.000    0.000    2.400    0.000    0.000 
#    0.000    0.000    0.000    0.000    0.000    0.000 
#
# Total GULP energy -111376.512842 kJ/mol
# GULP energy per Si atom -5568.825642 kJ/mol
# Density = 2.086310 g / cm^3
# Si number density = 20.910693 Si / 1000 Ang^3
#
#
#
# Elastic Constant Matrix: (Units=GPa)
#
#
# Indices 1 2 3 4 5 6 
#
# 1 83.3805 30.2807 14.9450 0.0000 5.0653 0.0000
# 2 30.2807 140.1884 29.5393 0.0000 6.5463 0.0000
# 3 14.9450 29.5393 33.7446 0.0000 3.5274 0.0000
# 4 0.0000 0.0000 0.0000 21.8315 0.0000 -0.0556
# 5 5.0653 6.5463 3.5274 0.0000 24.9307 0.0000
# 6 0.0000 0.0000 0.0000 -0.0556 0.0000 34.4921
#
#
#
# Elastic Compliance Matrix: (Units=1/GPa)
#
#
# Indices 1 2 3 4 5 6 
#
# 1 0.013548 -0.001988 -0.004087 0.000000 -0.001652 0.000000
# 2 -0.001988 0.009076 -0.006960 0.000000 -0.000994 0.000000
# 3 -0.004087 -0.006960 0.037819 0.000000 -0.002693 0.000000
# 4 0.000000 0.000000 0.000000 0.045806 0.000000 0.000074
# 5 -0.001652 -0.000994 -0.002693 0.000000 0.041089 0.000000
# 6 0.000000 0.000000 0.000000 0.000074 0.000000 0.028992
#
#
# Mechanical properties :
#
#
# Convention : Reuss Voigt Hill
#
# Bulk Modulus (GPa) = 29.09377 45.20484 37.14930
# Shear Modulus (GPa) = 23.38000 28.42076 25.90038
#
# Velocity S-wave (km/s) = 3.34741 3.69066 3.52322
# Velocity P-wave (km/s) = 5.37436 6.31081 5.86132
#
# Compressibility (1/GPa) = 0.03437163
#
# Stress axis : x y z
#
# Youngs Moduli (GPa) = 73.81074 110.18421 26.44180
#
# Poissons Ratio (x) = 0.21905 0.10808
# Poissons Ratio (y) = 0.14674 0.18404
# Poissons Ratio (z) = 0.30169 0.76691
#
# Static dielectric constant tensor:
#      x y z
#    x 1.830620 0.000000 0.035350 
#    y 0.000000 1.805620 0.000000 
#    z 0.035350 0.000000 1.781110 
# 
# From -- ./inp_files/32445.got.cif
#   From: 2010.05.17/outbox.cif.g08.bks.cpg/sg11_17_cif.got.tgz:32445.got - 2010.06.03 12:22:45.
