data_PCOD9160073
_publ_section_title
;
Structure prediction by ZEFSAII (Michael W. Deem and Ramdas Pophale) SiO2 
 PCOD9160073
Probable space group: P 21/M
;
_chemical_formula_sum "Si O2"
_cell_formula_units_Z 32
_cell_length_a 22.168742
_cell_length_b 8.716079
_cell_length_c 28.561994
_cell_angle_alpha 90.000000
_cell_angle_beta 18.916750
_cell_angle_gamma 90.000000
_cell_volume 1789.186794
_symmetry_space_group_name_H-M "P 21/M"
_symmetry_group_IT_number 11
_symmetry_cell_setting 'monoclinic'
loop_
_space_group_symop_operation_xyz
x,y,z
-x,1/2+y,-z
-x,-y,-z
x,1/2-y,z
loop_
_atom_site_type_symbol
_atom_site_label
_atom_site_fract_x
_atom_site_fract_y
_atom_site_fract_z
Si Si1 0.451653 0.565643 0.086117
Si Si2 0.931520 0.933529 0.894117
Si Si3 0.364997 0.933048 0.957570
Si Si4 0.197875 0.932117 0.838747
Si Si5 0.960625 0.434800 0.580075
Si Si6 0.697058 0.933228 0.339104
Si Si7 0.637168 0.931724 0.192635
Si Si8 0.653335 0.933757 0.662553
O O1 0.458890 0.750000 0.080039
O O2 0.585968 0.504090 0.028403
O O3 0.241175 0.516782 0.253841
O O4 0.500000 0.500000 0.000000
O O5 0.945918 0.750000 0.880312
O O6 0.805392 0.969091 0.032817
O O7 0.132974 0.006583 0.753693
O O8 0.816258 0.998193 0.934787
O O9 0.346980 0.750000 0.974597
O O10 0.536740 0.965970 0.795773
O O11 0.182661 0.750000 0.843823
O O12 0.259668 0.007712 0.744943
O O13 0.335612 0.975612 0.779795
O O14 0.000000 0.000000 0.000000
O O15 0.962367 0.250000 0.575958
O O16 0.000000 0.500000 0.500000
O O17 0.133585 0.479352 0.485980
O O18 0.692779 0.750000 0.343159
O O19 0.500000 0.000000 0.500000
O O20 0.643530 0.750000 0.197172
O O21 0.450977 0.978729 0.302162
O O22 0.641859 0.750000 0.663039
#
# Coordination Sequence:
#
# PCOD9160073 Si02
#       8
#     4   4   4   4   4   4   4   4
#     4  11  23  38  57  83 117 155 197 241 293 352
#     4  10  20  36  59  87 120 154 197 244 291 349
#     4  10  19  34  58  85 115 150 193 241 294 351
#     4  12  23  38  61  89 120 155 197 245 297 352
#     4  10  20  35  57  84 113 146 187 236 288 343
#     4  12  25  42  63  89 123 160 201 246 297 355
#     4  10  20  34  56  87 120 153 194 243 296 350
#     4   9  18  33  54  83 116 148 187 239 297 351
#
# _framework density 17.885221999999999
#
# number of rings (size 3 to 8) (size 9 to 14) (size 15 to 20)
#    0.000    1.500    2.500    3.750    0.000    2.500 
#    0.000    1.250    0.000    1.500    0.000    0.000 
#    0.000    0.000    0.000    0.000    0.000    0.000 
#
# Total GULP energy -178804.550305 kJ/mol
# GULP energy per Si atom -5587.642197 kJ/mol
# Density = 1.784451 g / cm^3
# Si number density = 17.885222 Si / 1000 Ang^3
#
#
#
# Elastic Constant Matrix: (Units=GPa)
#
#
# Indices 1 2 3 4 5 6 
#
# 1 146.6143 61.0845 81.0480 0.0000 -13.1494 0.0000
# 2 61.0845 88.2080 54.1429 0.0000 -6.0073 0.0000
# 3 81.0480 54.1429 130.5925 0.0000 -12.5569 0.0000
# 4 0.0000 0.0000 0.0000 25.7148 0.0000 -2.7542
# 5 -13.1494 -6.0073 -12.5569 0.0000 30.8624 0.0000
# 6 0.0000 0.0000 0.0000 -2.7542 0.0000 36.9898
#
#
#
# Elastic Compliance Matrix: (Units=1/GPa)
#
#
# Indices 1 2 3 4 5 6 
#
# 1 0.011908 -0.004952 -0.005143 0.000000 0.002017 0.000000
# 2 -0.004952 0.017271 -0.004128 0.000000 -0.000428 0.000000
# 3 -0.005143 -0.004128 0.012773 0.000000 0.002202 0.000000
# 4 0.000000 0.000000 0.000000 0.039201 0.000000 0.002919
# 5 0.002017 -0.000428 0.002202 0.000000 0.034074 0.000000
# 6 0.000000 0.000000 0.000000 0.002919 0.000000 0.027252
#
#
# Mechanical properties :
#
#
# Convention : Reuss Voigt Hill
#
# Bulk Modulus (GPa) = 74.04925 84.21841 79.13383
# Shear Modulus (GPa) = 28.50201 29.98935 29.24568
#
# Velocity S-wave (km/s) = 3.99633 4.09928 4.04813
# Velocity P-wave (km/s) = 7.92380 8.34242 8.13580
#
# Compressibility (1/GPa) = 0.01350453
#
# Stress axis : x y z
#
# Youngs Moduli (GPa) = 83.97848 57.90076 78.29203
#
# Poissons Ratio (x) = 0.28672 0.40267
# Poissons Ratio (y) = 0.41585 0.32322
# Poissons Ratio (z) = 0.43192 0.23903
#
# Static dielectric constant tensor:
#      x y z
#    x 1.598130 0.000000 -0.020160 
#    y 0.000000 1.597140 0.000000 
#    z -0.020160 0.000000 1.602750 
# 
# From -- ./inp_files/67224.got.cif
#   From: 2010.05.17/outbox.cif.g08.bks.cpg/sg11_34_cif.got.tgz:67224.got - 2010.06.03 12:22:45.
