data_PCOD9160083
_publ_section_title
;
Structure prediction by ZEFSAII (Michael W. Deem and Ramdas Pophale) SiO2 
 PCOD9160083
Probable space group: P 21/M
;
_chemical_formula_sum "Si O2"
_cell_formula_units_Z 28
_cell_length_a 9.714364
_cell_length_b 14.320918
_cell_length_c 14.538261
_cell_angle_alpha 90.000000
_cell_angle_beta 139.017689
_cell_angle_gamma 90.000000
_cell_volume 1326.436057
_symmetry_space_group_name_H-M "P 21/M"
_symmetry_group_IT_number 11
_symmetry_cell_setting 'monoclinic'
loop_
_space_group_symop_operation_xyz
x,y,z
-x,1/2+y,-z
-x,-y,-z
x,1/2-y,z
loop_
_atom_site_type_symbol
_atom_site_label
_atom_site_fract_x
_atom_site_fract_y
_atom_site_fract_z
Si Si1 0.981705 0.428431 0.191208
Si Si2 0.678935 0.421947 0.597890
Si Si3 0.104620 0.148832 0.067962
Si Si4 0.833826 0.057454 0.305251
Si Si5 0.605678 0.502507 0.888952
Si Si6 0.382957 0.650114 0.239959
Si Si7 0.068494 0.860344 0.446751
O O1 0.959546 0.396001 0.284552
O O2 0.113558 0.524133 0.261583
O O3 0.095088 0.365385 0.172770
O O4 0.750912 0.448461 0.034343
O O5 0.500000 0.500000 0.500000
O O6 0.605841 0.357926 0.645095
O O7 0.745420 0.374933 0.535324
O O8 0.191049 0.250000 0.087991
O O9 0.239706 0.070318 0.088122
O O10 0.863965 0.144409 0.911867
O O11 0.586342 0.054806 0.162049
O O12 0.865318 0.112076 0.416326
O O13 0.910544 0.948074 0.346021
O O14 0.513498 0.433258 0.764259
O O15 0.465479 0.750000 0.250300
O O16 0.003416 0.750000 0.408545
#
# Coordination Sequence:
#
# PCOD9160083 Si02
#       7
#     4   4   4   4   4   4   4
#     4  10  20  39  59  84 122 157 192 250 303 355
#     4  11  20  36  60  87 117 156 203 250 299 355
#     4  10  20  35  60  90 120 155 195 246 307 362
#     4  10  23  39  62  88 118 164 203 247 299 364
#     4  11  19  38  60  92 120 154 197 249 305 362
#     4  10  19  34  58  86 119 155 195 247 304 354
#     4  10  23  42  60  84 122 164 207 251 296 356
#
# _framework density 21.109197000000002
#
# number of rings (size 3 to 8) (size 9 to 14) (size 15 to 20)
#    0.000    1.714    2.857    2.571    0.000    1.714 
#    0.000    0.714    0.000    4.286    0.000    0.000 
#    0.000    0.000    0.000    0.000    0.000    0.000 
#
# Total GULP energy -156154.195763 kJ/mol
# GULP energy per Si atom -5576.935563 kJ/mol
# Density = 2.106115 g / cm^3
# Si number density = 21.109197 Si / 1000 Ang^3
#
#
#
# Elastic Constant Matrix: (Units=GPa)
#
#
# Indices 1 2 3 4 5 6 
#
# 1 92.3565 22.9543 19.5592 0.0000 -25.6356 0.0000
# 2 22.9543 80.3674 4.8673 0.0000 -20.1903 0.0000
# 3 19.5592 4.8673 38.0526 0.0000 -19.3138 0.0000
# 4 0.0000 0.0000 0.0000 9.7613 0.0000 -3.9052
# 5 -25.6356 -20.1903 -19.3138 0.0000 33.7741 0.0000
# 6 0.0000 0.0000 0.0000 -3.9052 0.0000 8.2282
#
#
#
# Elastic Compliance Matrix: (Units=1/GPa)
#
#
# Indices 1 2 3 4 5 6 
#
# 1 0.014117 -0.001873 -0.003024 0.000000 0.007866 0.000000
# 2 -0.001873 0.015253 0.004111 0.000000 0.010048 0.000000
# 3 -0.003024 0.004111 0.038591 0.000000 0.022231 0.000000
# 4 0.000000 0.000000 0.000000 0.126456 0.000000 0.060017
# 5 0.007866 0.010048 0.022231 0.000000 0.054299 0.000000
# 6 0.000000 0.000000 0.000000 0.060017 0.000000 0.150018
#
#
# Mechanical properties :
#
#
# Convention : Reuss Voigt Hill
#
# Bulk Modulus (GPa) = 15.06229 33.94869 24.50549
# Shear Modulus (GPa) = 11.83613 21.24577 16.54095
#
# Velocity S-wave (km/s) = 2.37050 3.17593 2.80230
# Velocity P-wave (km/s) = 3.82665 5.43747 4.70156
#
# Compressibility (1/GPa) = 0.06639096
#
# Stress axis : x y z
#
# Youngs Moduli (GPa) = 70.83670 65.56073 25.91257
#
# Poissons Ratio (x) = 0.12277 0.07836
# Poissons Ratio (y) = 0.13265 -0.10654
# Poissons Ratio (z) = 0.21421 -0.26955
#
# Static dielectric constant tensor:
#      x y z
#    x 1.741300 0.000000 -0.012710 
#    y 0.000000 1.775140 0.000000 
#    z -0.012710 0.000000 1.785530 
# 
# From -- ./inp_files/47676.got.cif
#   From: 2010.05.17/outbox.cif.g08.bks.cpg/sg11_24_cif.got.tgz:47676.got - 2010.06.03 12:22:45.
