data_PCOD9160518
_publ_section_title
;
Structure prediction by ZEFSAII (Michael W. Deem and Ramdas Pophale) SiO2 
 PCOD9160518
Probable space group: P 21/M
;
_chemical_formula_sum "Si O2"
_cell_formula_units_Z 32
_cell_length_a 20.354952
_cell_length_b 19.619976
_cell_length_c 14.633370
_cell_angle_alpha 90.000000
_cell_angle_beta 15.713056
_cell_angle_gamma 90.000000
_cell_volume 1582.680799
_symmetry_space_group_name_H-M "P 21/M"
_symmetry_group_IT_number 11
_symmetry_cell_setting 'monoclinic'
loop_
_space_group_symop_operation_xyz
x,y,z
-x,1/2+y,-z
-x,-y,-z
x,1/2-y,z
loop_
_atom_site_type_symbol
_atom_site_label
_atom_site_fract_x
_atom_site_fract_y
_atom_site_fract_z
Si Si1 0.280557 0.823400 0.826755
Si Si2 0.734195 0.529495 0.640050
Si Si3 0.654286 0.976844 0.550347
Si Si4 0.773006 0.821834 0.612879
Si Si5 0.433863 0.948341 0.507700
Si Si6 0.028202 0.673240 0.464218
Si Si7 0.539701 0.826356 0.672365
Si Si8 0.158368 0.456848 0.173543
O O1 0.325148 0.750000 0.722914
O O2 0.304066 0.884574 0.725942
O O3 0.460926 0.831070 0.671531
O O4 0.020553 0.821524 0.223540
O O5 0.781861 0.503308 0.473668
O O6 0.658832 0.608501 0.735886
O O7 0.964184 0.510750 0.394517
O O8 0.500000 0.500000 0.000000
O O9 0.681407 0.895813 0.501556
O O10 0.713908 0.014995 0.375998
O O11 0.368054 0.000044 0.946058
O O12 0.642493 0.750000 0.772179
O O13 0.846297 0.827065 0.620765
O O14 0.500000 0.000000 0.500000
O O15 0.684941 0.928122 0.121346
O O16 0.006417 0.750000 0.535794
O O17 0.962241 0.606797 0.612473
O O18 0.294893 0.669834 0.061298
O O19 0.646567 0.750000 0.544017
#
# Coordination Sequence:
#
# PCOD9160518 Si02
#       8
#     4   4   4   4   4   4   4   4
#     4   9  16  32  60  86 108 150 197 239 291 346
#     4  12  23  36  58  88 119 152 197 237 295 357
#     4  10  22  35  56  84 112 151 193 232 293 345
#     4   9  19  35  58  87 119 149 195 248 292 342
#     4  10  19  36  57  80 117 149 191 240 288 336
#     4   9  17  32  55  82 108 150 190 229 291 348
#     4   9  16  29  52  79 108 137 185 239 284 336
#     4  10  22  37  56  80 122 148 190 243 290 342
#
# _framework density 20.218859999999999
#
# number of rings (size 3 to 8) (size 9 to 14) (size 15 to 20)
#    0.750    1.500    1.250    5.250    0.000    2.500 
#    0.000    3.125    0.000    1.500    0.000    0.000 
#    0.000    0.000    0.000    0.000    0.000    0.000 
#
# Total GULP energy -178379.087389 kJ/mol
# GULP energy per Si atom -5574.346481 kJ/mol
# Density = 2.017284 g / cm^3
# Si number density = 20.218860 Si / 1000 Ang^3
#
#
#
# Elastic Constant Matrix: (Units=GPa)
#
#
# Indices 1 2 3 4 5 6 
#
# 1 89.8460 56.6077 10.9381 0.0000 13.7704 0.0000
# 2 56.6077 154.7686 20.1353 0.0000 20.4709 0.0000
# 3 10.9381 20.1353 28.0296 0.0000 9.3589 0.0000
# 4 0.0000 0.0000 0.0000 30.4860 0.0000 10.1429
# 5 13.7704 20.4709 9.3589 0.0000 29.3752 0.0000
# 6 0.0000 0.0000 0.0000 10.1429 0.0000 21.4346
#
#
#
# Elastic Compliance Matrix: (Units=1/GPa)
#
#
# Indices 1 2 3 4 5 6 
#
# 1 0.014816 -0.004837 -0.001246 0.000000 -0.003178 0.000000
# 2 -0.004837 0.009092 -0.003676 0.000000 -0.002897 0.000000
# 3 -0.001246 -0.003676 0.042248 0.000000 -0.010314 0.000000
# 4 0.000000 0.000000 0.000000 0.038931 0.000000 -0.018422
# 5 -0.003178 -0.002897 -0.010314 0.000000 0.040837 0.000000
# 6 0.000000 0.000000 0.000000 -0.018422 0.000000 0.055371
#
#
# Mechanical properties :
#
#
# Convention : Reuss Voigt Hill
#
# Bulk Modulus (GPa) = 21.44218 49.77847 35.61032
# Shear Modulus (GPa) = 21.15423 28.59003 24.87213
#
# Velocity S-wave (km/s) = 3.23811 3.76444 3.51115
# Velocity P-wave (km/s) = 4.96070 6.60060 5.83851
#
# Compressibility (1/GPa) = 0.04663705
#
# Stress axis : x y z
#
# Youngs Moduli (GPa) = 67.49311 109.98889 23.67000
#
# Poissons Ratio (x) = 0.53198 0.02950
# Poissons Ratio (y) = 0.32644 0.08702
# Poissons Ratio (z) = 0.08411 0.40436
#
# Static dielectric constant tensor:
#      x y z
#    x 1.757530 0.000000 -0.029410 
#    y 0.000000 1.726600 0.000000 
#    z -0.029410 0.000000 1.724650 
# 
# From -- ./inp_files/55102.got.cif
#   From: 2010.05.17/outbox.cif.g08.bks.cpg/sg11_28_cif.got.tgz:55102.got - 2010.06.03 12:22:45.
