data_PCOD9160473
_publ_section_title
;
Structure prediction by ZEFSAII (Michael W. Deem and Ramdas Pophale) SiO2 
 PCOD9160473
Probable space group: P 21/M
;
_chemical_formula_sum "Si O2"
_cell_formula_units_Z 32
_cell_length_a 15.291516
_cell_length_b 20.488644
_cell_length_c 15.245056
_cell_angle_alpha 90.000000
_cell_angle_beta 160.499727
_cell_angle_gamma 90.000000
_cell_volume 1594.387511
_symmetry_space_group_name_H-M "P 21/M"
_symmetry_group_IT_number 11
_symmetry_cell_setting 'monoclinic'
loop_
_space_group_symop_operation_xyz
x,y,z
-x,1/2+y,-z
-x,-y,-z
x,1/2-y,z
loop_
_atom_site_type_symbol
_atom_site_label
_atom_site_fract_x
_atom_site_fract_y
_atom_site_fract_z
Si Si1 0.536874 0.970605 0.838818
Si Si2 0.066241 0.893226 0.303952
Si Si3 0.881301 0.673800 0.648746
Si Si4 0.566893 0.118892 0.888656
Si Si5 0.407181 0.892938 0.879082
Si Si6 0.801734 0.575956 0.734947
Si Si7 0.749381 0.077038 0.699452
Si Si8 0.936024 0.677173 0.347104
O O1 0.294636 0.937639 0.561013
O O2 0.487664 0.955230 0.895807
O O3 0.560366 0.046570 0.841348
O O4 0.798855 0.934255 0.056324
O O5 0.145743 0.878747 0.280181
O O6 0.027628 0.833357 0.333624
O O7 0.856378 0.750000 0.649474
O O8 0.687601 0.657177 0.385066
O O9 0.809680 0.624088 0.659829
O O10 0.176290 0.657326 0.898777
O O11 0.578081 0.105610 0.002858
O O12 0.117492 0.871239 0.575344
O O13 0.630841 0.840876 0.063309
O O14 0.547816 0.590562 0.554565
O O15 0.774513 0.498361 0.689766
O O16 0.065204 0.583454 0.040824
O O17 0.981322 0.750000 0.420959
#
# Coordination Sequence:
#
# PCOD9160473 Si02
#       8
#     4   4   4   4   4   4   4   4
#     4  10  20  36  58  87 121 146 181 240 300 334
#     4  10  20  35  57  88 117 146 182 231 284 346
#     4  12  27  43  58  83 119 158 197 235 284 344
#     4  12  23  39  62  83 110 154 199 237 280 339
#     4  10  22  36  57  85 113 148 193 244 285 328
#     4  10  21  37  58  84 112 142 177 233 282 325
#     4  10  19  35  62  88 107 135 184 227 280 340
#     4  10  21  37  55  78 115 153 185 227 282 336
#
# _framework density 20.070402999999999
#
# number of rings (size 3 to 8) (size 9 to 14) (size 15 to 20)
#    0.000    1.500    0.000    5.625    0.000    5.000 
#    0.000    6.250    0.000    0.000    0.000    0.000 
#    0.000    0.000    0.000    0.000    0.000    0.000 
#
# Total GULP energy -178787.371458 kJ/mol
# GULP energy per Si atom -5587.105358 kJ/mol
# Density = 2.002472 g / cm^3
# Si number density = 20.070403 Si / 1000 Ang^3
#
#
#
# Elastic Constant Matrix: (Units=GPa)
#
#
# Indices 1 2 3 4 5 6 
#
# 1 60.8560 3.2309 -7.1877 0.0000 -7.7010 0.0000
# 2 3.2309 63.7730 12.9957 0.0000 -3.8888 0.0000
# 3 -7.1877 12.9957 81.9621 0.0000 12.5695 0.0000
# 4 0.0000 0.0000 0.0000 16.9344 0.0000 -2.1238
# 5 -7.7010 -3.8888 12.5695 0.0000 26.1375 0.0000
# 6 0.0000 0.0000 0.0000 -2.1238 0.0000 11.8355
#
#
#
# Elastic Compliance Matrix: (Units=1/GPa)
#
#
# Indices 1 2 3 4 5 6 
#
# 1 0.017153 -0.000787 0.000941 0.000000 0.004484 0.000000
# 2 -0.000787 0.016624 -0.003291 0.000000 0.003824 0.000000
# 3 0.000941 -0.003291 0.013860 0.000000 -0.006878 0.000000
# 4 0.000000 0.000000 0.000000 0.060411 0.000000 0.010840
# 5 0.004484 0.003824 -0.006878 0.000000 0.043457 0.000000
# 6 0.000000 0.000000 0.000000 0.010840 0.000000 0.086437
#
#
# Mechanical properties :
#
#
# Convention : Reuss Voigt Hill
#
# Bulk Modulus (GPa) = 24.17672 24.96321 24.56996
# Shear Modulus (GPa) = 19.37956 24.15162 21.76559
#
# Velocity S-wave (km/s) = 3.11075 3.47269 3.29669
# Velocity P-wave (km/s) = 4.99744 5.34268 5.17294
#
# Compressibility (1/GPa) = 0.04136211
#
# Stress axis : x y z
#
# Youngs Moduli (GPa) = 58.30007 60.15238 72.15038
#
# Poissons Ratio (x) = 0.04736 -0.06792
# Poissons Ratio (y) = 0.04591 0.23748
# Poissons Ratio (z) = -0.05489 0.19799
#
# Static dielectric constant tensor:
#      x y z
#    x 1.722230 0.000000 -0.017090 
#    y 0.000000 1.693130 0.000000 
#    z -0.017090 0.000000 1.675370 
# 
# From -- ./inp_files/52699.got.cif
#   From: 2010.05.17/outbox.cif.g08.bks.cpg/sg11_27_cif.got.tgz:52699.got - 2010.06.03 12:22:45.
