data_PCOD9160921
_publ_section_title
;
Structure prediction by ZEFSAII (Michael W. Deem and Ramdas Pophale) SiO2 
 PCOD9160921
Probable space group: P 21/M
;
_chemical_formula_sum "Si O2"
_cell_formula_units_Z 24
_cell_length_a 14.835562
_cell_length_b 14.929870
_cell_length_c 10.681813
_cell_angle_alpha 90.000000
_cell_angle_beta 154.204012
_cell_angle_gamma 90.000000
_cell_volume 1029.584528
_symmetry_space_group_name_H-M "P 21/M"
_symmetry_group_IT_number 11
_symmetry_cell_setting 'monoclinic'
loop_
_space_group_symop_operation_xyz
x,y,z
-x,1/2+y,-z
-x,-y,-z
x,1/2-y,z
loop_
_atom_site_type_symbol
_atom_site_label
_atom_site_fract_x
_atom_site_fract_y
_atom_site_fract_z
Si Si1 0.548955 0.924379 0.167129
Si Si2 0.505021 0.352454 0.465169
Si Si3 0.286559 0.153016 0.853067
Si Si4 0.287907 0.587517 0.503931
Si Si5 0.243473 0.648374 0.973412
Si Si6 0.121279 0.453624 0.867268
O O1 0.698489 0.860567 0.276298
O O2 0.351550 0.873908 0.975666
O O3 0.645211 0.983623 0.398138
O O4 0.500000 0.000000 0.000000
O O5 0.443216 0.250000 0.357113
O O6 0.702860 0.380038 0.626913
O O7 0.574655 0.353332 0.694811
O O8 0.322879 0.419659 0.196491
O O9 0.205528 0.250000 0.784596
O O10 0.524724 0.143152 0.198335
O O11 0.158933 0.081521 0.773246
O O12 0.075371 0.591232 0.312981
O O13 0.158706 0.750000 0.868581
O O14 0.110803 0.560929 0.844690
#
# Coordination Sequence:
#
# PCOD9160921 Si02
#       6
#     4   4   4   4   4   4
#     4  10  19  40  62  83 115 163 198 241 301 349
#     4  10  22  40  62  90 122 156 200 246 298 362
#     4  10  21  39  62  90 122 157 202 248 296 357
#     4  10  21  36  65  88 119 156 202 245 298 357
#     4  11  22  40  63  87 122 163 199 246 301 355
#     4  11  21  38  66  88 121 159 200 245 305 355
#
# _framework density 23.310373999999999
#
# number of rings (size 3 to 8) (size 9 to 14) (size 15 to 20)
#    0.000    1.667    5.000    3.000    0.000    4.000 
#    0.000    1.667    0.000    0.000    0.000    0.000 
#    0.000    0.000    0.000    0.000    0.000    0.000 
#
# Total GULP energy -133999.990677 kJ/mol
# GULP energy per Si atom -5583.332945 kJ/mol
# Density = 2.325732 g / cm^3
# Si number density = 23.310374 Si / 1000 Ang^3
#
#
#
# Elastic Constant Matrix: (Units=GPa)
#
#
# Indices 1 2 3 4 5 6 
#
# 1 101.4510 34.7631 41.6259 0.0000 9.1926 0.0000
# 2 34.7631 147.8172 22.9334 0.0000 2.0985 0.0000
# 3 41.6259 22.9334 68.9448 0.0000 18.4754 0.0000
# 4 0.0000 0.0000 0.0000 10.5949 0.0000 -4.7639
# 5 9.1926 2.0985 18.4754 0.0000 32.6648 0.0000
# 6 0.0000 0.0000 0.0000 -4.7639 0.0000 32.9112
#
#
#
# Elastic Compliance Matrix: (Units=1/GPa)
#
#
# Indices 1 2 3 4 5 6 
#
# 1 0.013674 -0.002021 -0.007764 0.000000 0.000673 0.000000
# 2 -0.002021 0.007462 -0.001516 0.000000 0.000947 0.000000
# 3 -0.007764 -0.001516 0.022494 0.000000 -0.010440 0.000000
# 4 0.000000 0.000000 0.000000 0.100956 0.000000 0.014613
# 5 0.000673 0.000947 -0.010440 0.000000 0.036269 0.000000
# 6 0.000000 0.000000 0.000000 0.014613 0.000000 0.032500
#
#
# Mechanical properties :
#
#
# Convention : Reuss Voigt Hill
#
# Bulk Modulus (GPa) = 47.55353 57.42866 52.49110
# Shear Modulus (GPa) = 20.57909 29.82689 25.20299
#
# Velocity S-wave (km/s) = 2.97447 3.58097 3.29172
# Velocity P-wave (km/s) = 5.67812 6.46435 6.08395
#
# Compressibility (1/GPa) = 0.02102893
#
# Stress axis : x y z
#
# Youngs Moduli (GPa) = 73.13133 134.01080 44.45674
#
# Poissons Ratio (x) = 0.27081 0.34516
# Poissons Ratio (y) = 0.14778 0.06738
# Poissons Ratio (z) = 0.56779 0.20312
#
# Static dielectric constant tensor:
#      x y z
#    x 1.908170 0.000000 -0.039700 
#    y 0.000000 1.920830 0.000000 
#    z -0.039700 0.000000 1.929440 
# 
# From -- ./inp_files/39737.got.cif
#   From: 2010.05.17/outbox.cif.g08.bks.cpg/sg11_20_cif.got.tgz:39737.got - 2010.06.03 12:22:45.
