data_PCOD9160148
_publ_section_title
;
Structure prediction by ZEFSAII (Michael W. Deem and Ramdas Pophale) SiO2 
 PCOD9160148
Probable space group: P 21/M
;
_chemical_formula_sum "Si O2"
_cell_formula_units_Z 32
_cell_length_a 8.565024
_cell_length_b 16.369425
_cell_length_c 13.915847
_cell_angle_alpha 90.000000
_cell_angle_beta 46.891976
_cell_angle_gamma 90.000000
_cell_volume 1424.407076
_symmetry_space_group_name_H-M "P 21/M"
_symmetry_group_IT_number 11
_symmetry_cell_setting 'monoclinic'
loop_
_space_group_symop_operation_xyz
x,y,z
-x,1/2+y,-z
-x,-y,-z
x,1/2-y,z
loop_
_atom_site_type_symbol
_atom_site_label
_atom_site_fract_x
_atom_site_fract_y
_atom_site_fract_z
Si Si1 0.045856 0.905052 0.369859
Si Si2 0.533201 0.155534 0.240389
Si Si3 0.576510 0.584605 0.513896
Si Si4 0.608541 0.340852 0.892547
Si Si5 0.902624 0.152419 0.940745
Si Si6 0.874810 0.588481 0.657936
Si Si7 0.702363 0.158888 0.512212
Si Si8 0.371780 0.350441 0.811322
O O1 0.829945 0.909055 0.400295
O O2 0.965180 0.895188 0.512136
O O3 0.201281 0.837142 0.265869
O O4 0.159543 0.992859 0.314453
O O5 0.509544 0.250000 0.280418
O O6 0.492097 0.095808 0.346840
O O7 0.344571 0.136772 0.242512
O O8 0.761920 0.144138 0.096023
O O9 0.500000 0.500000 0.500000
O O10 0.471011 0.656610 0.498482
O O11 0.540399 0.250000 0.952610
O O12 0.742805 0.381139 0.923986
O O13 0.420185 0.375656 0.902257
O O14 0.923526 0.250000 0.910134
O O15 0.143701 0.122745 0.862183
O O16 0.090062 0.615107 0.620591
O O17 0.768869 0.250000 0.510146
O O18 0.566895 0.122265 0.658952
O O19 0.372254 0.250000 0.810781
#
# Coordination Sequence:
#
# PCOD9160148 Si02
#       8
#     4   4   4   4   4   4   4   4
#     4  10  20  35  57  83 119 159 191 242 306 368
#     4  10  22  40  61  85 121 160 200 246 299 368
#     4  11  22  37  57  86 121 158 193 236 311 370
#     4  10  19  34  60  89 116 156 211 260 304 356
#     4   9  19  38  58  85 120 160 205 256 309 354
#     4  10  20  35  56  84 120 158 187 240 312 364
#     4  11  20  34  58  90 117 146 202 257 299 358
#     4   9  18  32  55  86 119 149 194 260 307 347
#
# _framework density 22.465489000000002
#
# number of rings (size 3 to 8) (size 9 to 14) (size 15 to 20)
#    0.000    2.000    2.500    1.500    0.000    3.500 
#    2.250    0.625    0.000    5.250    0.000    0.000 
#    0.000    0.000    0.000    0.000    0.000    0.000 
#
# Total GULP energy -178258.413208 kJ/mol
# GULP energy per Si atom -5570.575413 kJ/mol
# Density = 2.241436 g / cm^3
# Si number density = 22.465489 Si / 1000 Ang^3
#
#
#
# Elastic Constant Matrix: (Units=GPa)
#
#
# Indices 1 2 3 4 5 6 
#
# 1 114.3918 -5.2495 19.2102 0.0000 -2.9119 0.0000
# 2 -5.2495 53.9126 13.8872 0.0000 -2.3750 0.0000
# 3 19.2102 13.8872 48.5643 0.0000 -18.8250 0.0000
# 4 0.0000 0.0000 0.0000 7.3893 0.0000 -7.1650
# 5 -2.9119 -2.3750 -18.8250 0.0000 25.8820 0.0000
# 6 0.0000 0.0000 0.0000 -7.1650 0.0000 20.1956
#
#
#
# Elastic Compliance Matrix: (Units=1/GPa)
#
#
# Indices 1 2 3 4 5 6 
#
# 1 0.009707 0.002253 -0.005543 0.000000 -0.002733 0.000000
# 2 0.002253 0.020743 -0.008337 0.000000 -0.003907 0.000000
# 3 -0.005543 -0.008337 0.034300 0.000000 0.023559 0.000000
# 4 0.000000 0.000000 0.000000 0.206300 0.000000 0.073192
# 5 -0.002733 -0.003907 0.023559 0.000000 0.055106 0.000000
# 6 0.000000 0.000000 0.000000 0.073192 0.000000 0.075483
#
#
# Mechanical properties :
#
#
# Convention : Reuss Voigt Hill
#
# Bulk Modulus (GPa) = 24.09944 30.28496 27.19220
# Shear Modulus (GPa) = 11.39661 23.29477 17.34569
#
# Velocity S-wave (km/s) = 2.25476 3.22361 2.78169
# Velocity P-wave (km/s) = 4.18679 5.23120 4.73786
#
# Compressibility (1/GPa) = 0.04149474
#
# Stress axis : x y z
#
# Youngs Moduli (GPa) = 103.02324 48.20826 29.15433
#
# Poissons Ratio (x) = -0.10859 0.16160
# Poissons Ratio (y) = -0.23207 0.24307
# Poissons Ratio (z) = 0.57106 0.40192
#
# Static dielectric constant tensor:
#      x y z
#    x 1.999340 0.000000 0.029780 
#    y 0.000000 1.851250 0.000000 
#    z 0.029780 0.000000 1.812140 
# 
# From -- ./inp_files/48225.got.cif
#   From: 2010.05.17/outbox.cif.g08.bks.cpg/sg11_25_cif.got.tgz:48225.got - 2010.06.03 12:22:45.
