data_PCOD9160966
_publ_section_title
;
Structure prediction by ZEFSAII (Michael W. Deem and Ramdas Pophale) SiO2 
 PCOD9160966
Probable space group: P 21/M
;
_chemical_formula_sum "Si O2"
_cell_formula_units_Z 32
_cell_length_a 31.656089
_cell_length_b 8.697089
_cell_length_c 23.719235
_cell_angle_alpha 90.000000
_cell_angle_beta 162.382313
_cell_angle_gamma 90.000000
_cell_volume 1976.481685
_symmetry_space_group_name_H-M "P 21/M"
_symmetry_group_IT_number 11
_symmetry_cell_setting 'monoclinic'
loop_
_space_group_symop_operation_xyz
x,y,z
-x,1/2+y,-z
-x,-y,-z
x,1/2-y,z
loop_
_atom_site_type_symbol
_atom_site_label
_atom_site_fract_x
_atom_site_fract_y
_atom_site_fract_z
Si Si1 0.833332 0.569692 0.456049
Si Si2 0.855549 0.434230 0.792524
Si Si3 0.606089 0.935685 0.087721
Si Si4 0.038024 0.563389 0.806328
Si Si5 0.640946 0.933968 0.608338
Si Si6 0.183950 0.565940 0.387456
Si Si7 0.322920 0.564601 0.223210
Si Si8 0.402654 0.070491 0.745402
O O1 0.859692 0.750000 0.479076
O O2 0.758025 0.510143 0.303653
O O3 0.714641 0.559289 0.354019
O O4 0.970383 0.505480 0.661405
O O5 0.861024 0.250000 0.801309
O O6 0.731121 0.492957 0.673670
O O7 0.833336 0.481577 0.699332
O O8 0.000000 0.500000 0.000000
O O9 0.602204 0.750000 0.083704
O O10 0.500000 0.000000 0.000000
O O11 0.542956 0.996014 0.948937
O O12 0.030410 0.750000 0.796093
O O13 0.938912 0.505498 0.730681
O O14 0.196141 0.518715 0.021316
O O15 0.651909 0.750000 0.619780
O O16 0.477096 0.977675 0.397634
O O17 0.695009 0.991317 0.737921
O O18 0.175548 0.750000 0.380526
O O19 0.330010 0.510749 0.600196
O O20 0.319721 0.750000 0.225344
O O21 0.424362 0.250000 0.761858
#
# Coordination Sequence:
#
# PCOD9160966 Si02
#       8
#     4   4   4   4   4   4   4   4
#     4   7  12  21  34  54  79 108 140 172 207 251
#     4  11  23  36  50  68  91 119 150 186 227 270
#     4   9  14  21  34  53  79 111 146 180 214 256
#     4   9  16  28  45  64  88 117 148 180 218 263
#     4  10  20  33  49  69  91 117 151 187 224 268
#     4  10  20  31  43  63  88 114 148 186 222 264
#     4   9  18  32  50  69  90 118 150 186 225 264
#     4   9  16  26  39  55  78 112 148 179 217 261
#
# _framework density 16.190384999999999
#
# number of rings (size 3 to 8) (size 9 to 14) (size 15 to 20)
#    0.000    2.750    0.000    4.125    0.000    5.000 
#    0.000    0.625    0.000    0.000    0.000    0.000 
#    0.000    1.000    0.000    2.000    0.000    4.250 
#
# Total GULP energy -178160.755452 kJ/mol
# GULP energy per Si atom -5567.523608 kJ/mol
# Density = 1.615354 g / cm^3
# Si number density = 16.190385 Si / 1000 Ang^3
#
#
#
# Elastic Constant Matrix: (Units=GPa)
#
#
# Indices 1 2 3 4 5 6 
#
# 1 47.4922 13.3249 44.8411 0.0000 -16.8502 0.0000
# 2 13.3249 25.9253 24.4746 0.0000 -9.1895 0.0000
# 3 44.8411 24.4746 140.6966 0.0000 -39.9309 0.0000
# 4 0.0000 0.0000 0.0000 22.5368 0.0000 -3.9669
# 5 -16.8502 -9.1895 -39.9309 0.0000 27.0173 0.0000
# 6 0.0000 0.0000 0.0000 -3.9669 0.0000 19.4337
#
#
#
# Elastic Compliance Matrix: (Units=1/GPa)
#
#
# Indices 1 2 3 4 5 6 
#
# 1 0.032283 -0.007463 -0.006885 0.000000 0.007421 0.000000
# 2 -0.007463 0.048570 -0.004656 0.000000 0.004985 0.000000
# 3 -0.006885 -0.004656 0.014544 0.000000 0.015619 0.000000
# 4 0.000000 0.000000 0.000000 0.046026 0.000000 0.009395
# 5 0.007421 0.004985 0.015619 0.000000 0.066421 0.000000
# 6 0.000000 0.000000 0.000000 0.009395 0.000000 0.053375
#
#
# Mechanical properties :
#
#
# Convention : Reuss Voigt Hill
#
# Bulk Modulus (GPa) = 17.42430 42.15504 29.78967
# Shear Modulus (GPa) = 15.70569 22.56246 19.13408
#
# Velocity S-wave (km/s) = 3.11796 3.73711 3.44149
# Velocity P-wave (km/s) = 4.87317 6.68692 5.85075
#
# Compressibility (1/GPa) = 0.05739112
#
# Stress axis : x y z
#
# Youngs Moduli (GPa) = 30.97594 20.58874 68.75544
#
# Poissons Ratio (x) = 0.15365 0.47336
# Poissons Ratio (y) = 0.23117 0.32011
# Poissons Ratio (z) = 0.21326 0.09586
#
# Static dielectric constant tensor:
#      x y z
#    x 1.524570 0.000000 -0.037010 
#    y 0.000000 1.549630 0.000000 
#    z -0.037010 0.000000 1.590480 
# 
# From -- ./inp_files/67143.got.cif
#   From: 2010.05.17/outbox.cif.g08.bks.cpg/sg11_34_cif.got.tgz:67143.got - 2010.06.03 12:22:45.
