data_PCOD9160731
_publ_section_title
;
Structure prediction by ZEFSAII (Michael W. Deem and Ramdas Pophale) SiO2 
 PCOD9160731
Probable space group: P 21/M
;
_chemical_formula_sum "Si O2"
_cell_formula_units_Z 28
_cell_length_a 7.265158
_cell_length_b 18.579472
_cell_length_c 13.894339
_cell_angle_alpha 90.000000
_cell_angle_beta 39.548104
_cell_angle_gamma 90.000000
_cell_volume 1194.177245
_symmetry_space_group_name_H-M "P 21/M"
_symmetry_group_IT_number 11
_symmetry_cell_setting 'monoclinic'
loop_
_space_group_symop_operation_xyz
x,y,z
-x,1/2+y,-z
-x,-y,-z
x,1/2-y,z
loop_
_atom_site_type_symbol
_atom_site_label
_atom_site_fract_x
_atom_site_fract_y
_atom_site_fract_z
Si Si1 0.322222 0.406401 0.287876
Si Si2 0.814573 0.442253 0.973186
Si Si3 0.991636 0.165003 0.593933
Si Si4 0.502175 0.403033 0.904511
Si Si5 0.894324 0.671826 0.803070
Si Si6 0.545494 0.109108 0.463873
Si Si7 0.532688 0.974572 0.325586
O O1 0.158200 0.355014 0.427984
O O2 0.185127 0.392488 0.238952
O O3 0.318520 0.484905 0.338599
O O4 0.663047 0.398811 0.122152
O O5 0.718674 0.409640 0.909220
O O6 0.157812 0.450297 0.840150
O O7 0.660437 0.520670 0.037738
O O8 0.948508 0.250000 0.617709
O O9 0.221567 0.136066 0.579529
O O10 0.690009 0.125145 0.739281
O O11 0.260893 0.346171 0.035205
O O12 0.794858 0.750000 0.807636
O O13 0.237379 0.668245 0.664063
O O14 0.593250 0.087203 0.555275
O O15 0.598149 0.039423 0.375395
#
# Coordination Sequence:
#
# PCOD9160731 Si02
#       7
#     4   4   4   4   4   4   4
#     4  10  24  35  60  86 118 156 184 242 309 340
#     4  10  19  37  59  90 123 145 195 252 301 351
#     4  11  22  40  58  84 118 158 202 238 286 361
#     4  10  21  35  63  88 113 154 199 246 296 339
#     4  11  22  40  58  84 118 158 202 238 286 361
#     4  10  21  35  63  88 113 154 199 246 296 339
#     4  10  19  37  59  90 123 145 195 252 301 351
#
# _framework density 23.447105000000001
#
# number of rings (size 3 to 8) (size 9 to 14) (size 15 to 20)
#    0.000    1.714    2.857    1.714    0.000    2.286 
#    0.000    0.000    0.000    0.000    0.000    0.000 
#    0.000    0.000    0.000    0.000    0.000    0.000 
#
# Total GULP energy -156354.853351 kJ/mol
# GULP energy per Si atom -5584.101905 kJ/mol
# Density = 2.339374 g / cm^3
# Si number density = 23.447105 Si / 1000 Ang^3
#
#
#
# Elastic Constant Matrix: (Units=GPa)
#
#
# Indices 1 2 3 4 5 6 
#
# 1 29.9278 -2.0355 14.3242 0.0000 2.8104 0.0000
# 2 -2.0355 59.4344 54.9780 0.0000 1.3349 0.0000
# 3 14.3242 54.9780 190.2056 0.0000 -8.3888 0.0000
# 4 0.0000 0.0000 0.0000 20.9277 0.0000 0.3281
# 5 2.8104 1.3349 -8.3888 0.0000 42.5690 0.0000
# 6 0.0000 0.0000 0.0000 0.3281 0.0000 10.6149
#
#
#
# Elastic Compliance Matrix: (Units=1/GPa)
#
#
# Indices 1 2 3 4 5 6 
#
# 1 0.036237 0.005437 -0.004452 0.000000 -0.003440 0.000000
# 2 0.005437 0.023959 -0.007448 0.000000 -0.002578 0.000000
# 3 -0.004452 -0.007448 0.007837 0.000000 0.002072 0.000000
# 4 0.000000 0.000000 0.000000 0.047807 0.000000 -0.001477
# 5 -0.003440 -0.002578 0.002072 0.000000 0.024208 0.000000
# 6 0.000000 0.000000 0.000000 -0.001477 0.000000 0.094253
#
#
# Mechanical properties :
#
#
# Convention : Reuss Voigt Hill
#
# Bulk Modulus (GPa) = 18.14684 46.01123 32.07904
# Shear Modulus (GPa) = 18.82547 28.97572 23.90059
#
# Velocity S-wave (km/s) = 2.83661 3.51920 3.19618
# Velocity P-wave (km/s) = 4.29939 6.01490 5.22799
#
# Compressibility (1/GPa) = 0.05510600
#
# Stress axis : x y z
#
# Youngs Moduli (GPa) = 27.59574 41.73731 127.59846
#
# Poissons Ratio (x) = -0.22691 0.56809
# Poissons Ratio (y) = -0.15003 0.95041
# Poissons Ratio (z) = 0.12286 0.31088
#
# Static dielectric constant tensor:
#      x y z
#    x 1.939810 0.000000 0.037890 
#    y 0.000000 1.853890 0.000000 
#    z 0.037890 0.000000 1.920050 
# 
# From -- ./inp_files/23233.got.cif
#   From: 2010.05.17/outbox.cif.g08.bks.cpg/sg11_12_cif.got.tgz:23233.got - 2010.06.03 12:22:45.
