data_PCOD9160772
_publ_section_title
;
Structure prediction by ZEFSAII (Michael W. Deem and Ramdas Pophale) SiO2 
 PCOD9160772
Probable space group: P 21/M
;
_chemical_formula_sum "Si O2"
_cell_formula_units_Z 32
_cell_length_a 31.181513
_cell_length_b 8.670498
_cell_length_c 13.274947
_cell_angle_alpha 90.000000
_cell_angle_beta 27.669628
_cell_angle_gamma 90.000000
_cell_volume 1666.635574
_symmetry_space_group_name_H-M "P 21/M"
_symmetry_group_IT_number 11
_symmetry_cell_setting 'monoclinic'
loop_
_space_group_symop_operation_xyz
x,y,z
-x,1/2+y,-z
-x,-y,-z
x,1/2-y,z
loop_
_atom_site_type_symbol
_atom_site_label
_atom_site_fract_x
_atom_site_fract_y
_atom_site_fract_z
Si Si1 0.212282 0.563917 0.958988
Si Si2 0.890293 0.436772 0.412308
Si Si3 0.231598 0.938016 0.143751
Si Si4 0.555601 0.065894 0.289094
Si Si5 0.406894 0.565452 0.459333
Si Si6 0.102830 0.063988 0.998564
Si Si7 0.598635 0.066044 0.763609
Si Si8 0.211353 0.434788 0.571760
O O1 0.207888 0.750000 0.964044
O O2 0.317184 0.519771 0.710618
O O3 0.144747 0.498229 0.015069
O O4 0.195227 0.513825 0.109334
O O5 0.887435 0.250000 0.413780
O O6 0.831138 0.487705 0.632510
O O7 0.845561 0.501627 0.404033
O O8 0.996875 0.483781 0.202689
O O9 0.231737 0.750000 0.143647
O O10 0.338220 0.987749 0.933431
O O11 0.556630 0.250000 0.295210
O O12 0.500000 0.000000 0.500000
O O13 0.498081 0.015063 0.311298
O O14 0.418457 0.750000 0.445310
O O15 0.388025 0.529559 0.382379
O O16 0.105546 0.250000 0.996167
O O17 0.163683 0.013281 0.775874
O O18 0.599378 0.250000 0.774327
O O19 0.683825 0.994339 0.646793
O O20 0.500000 0.000000 0.000000
O O21 0.210585 0.250000 0.571224
#
# Coordination Sequence:
#
# PCOD9160772 Si02
#       8
#     4   4   4   4   4   4   4   4
#     4  10  19  37  62  85 116 155 196 240 291 355
#     4  10  22  41  62  85 117 158 197 245 304 356
#     4   9  20  38  58  84 117 154 194 236 292 355
#     4  11  21  35  57  84 115 154 196 238 284 346
#     4  10  21  38  58  84 116 153 197 240 287 351
#     4  10  22  39  61  89 118 149 197 251 300 354
#     4  11  24  41  61  88 121 158 195 239 296 355
#     4  11  23  40  61  89 121 155 199 248 293 352
#
# _framework density 19.200358999999999
#
# number of rings (size 3 to 8) (size 9 to 14) (size 15 to 20)
#    0.000    1.750    2.500    1.500    1.750    3.000 
#    0.000    1.250    0.000    0.000    0.000    0.000 
#    0.000    0.000    0.000    0.000    0.000    0.000 
#
# Total GULP energy -178788.840495 kJ/mol
# GULP energy per Si atom -5587.151265 kJ/mol
# Density = 1.915666 g / cm^3
# Si number density = 19.200359 Si / 1000 Ang^3
#
#
#
# Elastic Constant Matrix: (Units=GPa)
#
#
# Indices 1 2 3 4 5 6 
#
# 1 168.9894 32.3660 65.0323 0.0000 -19.0771 0.0000
# 2 32.3660 14.4376 20.0140 0.0000 -2.0837 0.0000
# 3 65.0323 20.0140 105.9821 0.0000 -20.7283 0.0000
# 4 0.0000 0.0000 0.0000 20.2155 0.0000 -2.3373
# 5 -19.0771 -2.0837 -20.7283 0.0000 30.5120 0.0000
# 6 0.0000 0.0000 0.0000 -2.3373 0.0000 37.4721
#
#
#
# Elastic Compliance Matrix: (Units=1/GPa)
#
#
# Indices 1 2 3 4 5 6 
#
# 1 0.011421 -0.022260 -0.001967 0.000000 0.004285 0.000000
# 2 -0.022260 0.138336 -0.015383 0.000000 -0.014921 0.000000
# 3 -0.001967 -0.015383 0.015109 0.000000 0.007984 0.000000
# 4 0.000000 0.000000 0.000000 0.049826 0.000000 0.003108
# 5 0.004285 -0.014921 0.007984 0.000000 0.039858 0.000000
# 6 0.000000 0.000000 0.000000 0.003108 0.000000 0.026880
#
#
# Mechanical properties :
#
#
# Convention : Reuss Voigt Hill
#
# Bulk Modulus (GPa) = 11.67579 58.24819 34.96199
# Shear Modulus (GPa) = 12.84688 29.10638 20.97663
#
# Velocity S-wave (km/s) = 2.58949 3.89772 3.30890
# Velocity P-wave (km/s) = 3.87748 7.11752 5.73123
#
# Compressibility (1/GPa) = 0.08564731
#
# Stress axis : x y z
#
# Youngs Moduli (GPa) = 87.55487 7.22877 66.18590
#
# Poissons Ratio (x) = 0.16091 0.13017
# Poissons Ratio (y) = 1.94893 1.01816
# Poissons Ratio (z) = 0.17220 0.11120
#
# Static dielectric constant tensor:
#      x y z
#    x 1.648820 0.000000 0.011360 
#    y 0.000000 1.652350 0.000000 
#    z 0.011360 0.000000 1.660110 
# 
# From -- ./inp_files/38228.got.cif
#   From: 2010.05.17/outbox.cif.g08.bks.cpg/sg11_20_cif.got.tgz:38228.got - 2010.06.03 12:22:45.
