data_PCOD9160250
_publ_section_title
;
Structure prediction by ZEFSAII (Michael W. Deem and Ramdas Pophale) SiO2 
 PCOD9160250
Probable space group: P 21/M
;
_chemical_formula_sum "Si O2"
_cell_formula_units_Z 28
_cell_length_a 11.929232
_cell_length_b 9.055893
_cell_length_c 15.258843
_cell_angle_alpha 90.000000
_cell_angle_beta 61.988890
_cell_angle_gamma 90.000000
_cell_volume 1455.309994
_symmetry_space_group_name_H-M "P 21/M"
_symmetry_group_IT_number 11
_symmetry_cell_setting 'monoclinic'
loop_
_space_group_symop_operation_xyz
x,y,z
-x,1/2+y,-z
-x,-y,-z
x,1/2-y,z
loop_
_atom_site_type_symbol
_atom_site_label
_atom_site_fract_x
_atom_site_fract_y
_atom_site_fract_z
Si Si1 0.749880 0.582330 0.682577
Si Si2 0.417860 0.426391 0.609631
Si Si3 0.864531 0.929725 0.821812
Si Si4 0.377113 0.928970 0.995878
Si Si5 0.882488 0.417438 0.500622
Si Si6 0.461704 0.919717 0.776622
Si Si7 0.853303 0.421346 0.303900
O O1 0.790682 0.750000 0.649670
O O2 0.833486 0.526521 0.732449
O O3 0.762312 0.492969 0.589061
O O4 0.604168 0.581899 0.762763
O O5 0.500000 0.500000 0.500000
O O6 0.428564 0.250000 0.597617
O O7 0.459544 0.481956 0.690741
O O8 0.270706 0.479292 0.661678
O O9 0.852279 0.750000 0.830508
O O10 0.011582 0.966167 0.788693
O O11 0.753885 0.006629 0.917519
O O12 0.383373 0.750000 0.002554
O O13 0.379863 0.964910 0.890782
O O14 0.500000 0.000000 0.000000
O O15 0.886816 0.250000 0.527610
O O16 0.880013 0.422861 0.397956
O O17 0.000000 0.500000 0.500000
O O18 0.430826 0.750000 0.762896
O O19 0.826161 0.250000 0.289152
#
# Coordination Sequence:
#
# PCOD9160250 Si02
#       7
#     4   4   4   4   4   4   4
#     4  10  19  35  56  84 120 157 197 244 304 364
#     4  12  26  44  67  93 123 161 211 260 307 369
#     4  10  20  38  60  88 125 162 200 249 310 369
#     4  11  22  38  62  94 129 166 208 257 311 370
#     4  11  21  33  52  82 117 154 196 242 299 366
#     4  10  22  41  64  89 123 163 206 256 308 363
#     4  10  22  41  62  85 122 166 206 253 311 368
#
# _framework density 19.239888000000001
#
# number of rings (size 3 to 8) (size 9 to 14) (size 15 to 20)
#    0.000    1.429    2.857    3.000    0.000    6.286 
#    0.000    0.714    0.000    0.000    0.000    0.000 
#    0.000    0.000    0.000    0.000    0.000    0.000 
#
# Total GULP energy -156188.590748 kJ/mol
# GULP energy per Si atom -5578.163955 kJ/mol
# Density = 1.919610 g / cm^3
# Si number density = 19.239888 Si / 1000 Ang^3
#
#
#
# Elastic Constant Matrix: (Units=GPa)
#
#
# Indices 1 2 3 4 5 6 
#
# 1 91.4327 38.5301 40.2747 0.0000 -15.2740 0.0000
# 2 38.5301 88.8517 56.0522 0.0000 -5.1480 0.0000
# 3 40.2747 56.0522 129.8304 0.0000 -21.8464 0.0000
# 4 0.0000 0.0000 0.0000 34.0371 0.0000 -3.5740
# 5 -15.2740 -5.1480 -21.8464 0.0000 30.8106 0.0000
# 6 0.0000 0.0000 0.0000 -3.5740 0.0000 29.3673
#
#
#
# Elastic Compliance Matrix: (Units=1/GPa)
#
#
# Indices 1 2 3 4 5 6 
#
# 1 0.014625 -0.005140 -0.001411 0.000000 0.005391 0.000000
# 2 -0.005140 0.017437 -0.006668 0.000000 -0.004362 0.000000
# 3 -0.001411 -0.006668 0.012165 0.000000 0.006812 0.000000
# 4 0.000000 0.000000 0.000000 0.029760 0.000000 0.003622
# 5 0.005391 -0.004362 0.006812 0.000000 0.039230 0.000000
# 6 0.000000 0.000000 0.000000 0.003622 0.000000 0.034492
#
#
# Mechanical properties :
#
#
# Convention : Reuss Voigt Hill
#
# Bulk Modulus (GPa) = 56.20961 64.42543 60.31752
# Shear Modulus (GPa) = 27.76599 30.52685 29.14642
#
# Velocity S-wave (km/s) = 3.80300 3.98759 3.89639
# Velocity P-wave (km/s) = 6.96867 7.39995 7.18754
#
# Compressibility (1/GPa) = 0.01779055
#
# Stress axis : x y z
#
# Youngs Moduli (GPa) = 68.37668 57.34856 82.20321
#
# Poissons Ratio (x) = 0.29476 0.11596
# Poissons Ratio (y) = 0.35144 0.54812
# Poissons Ratio (z) = 0.09645 0.38239
#
# Static dielectric constant tensor:
#      x y z
#    x 1.707770 0.000000 -0.046990 
#    y 0.000000 1.668160 0.000000 
#    z -0.046990 0.000000 1.697130 
# 
# From -- ./inp_files/49185.got.cif
#   From: 2010.05.17/outbox.cif.g08.bks.cpg/sg11_25_cif.got.tgz:49185.got - 2010.06.03 12:22:45.
