data_PCOD9160028
_publ_section_title
;
Structure prediction by ZEFSAII (Michael W. Deem and Ramdas Pophale) SiO2 
 PCOD9160028
Probable space group: P 21/M
;
_chemical_formula_sum "Si O2"
_cell_formula_units_Z 28
_cell_length_a 16.003632
_cell_length_b 8.856045
_cell_length_c 17.774210
_cell_angle_alpha 90.000000
_cell_angle_beta 144.691635
_cell_angle_gamma 90.000000
_cell_volume 1455.992249
_symmetry_space_group_name_H-M "P 21/M"
_symmetry_group_IT_number 11
_symmetry_cell_setting 'monoclinic'
loop_
_space_group_symop_operation_xyz
x,y,z
-x,1/2+y,-z
-x,-y,-z
x,1/2-y,z
loop_
_atom_site_type_symbol
_atom_site_label
_atom_site_fract_x
_atom_site_fract_y
_atom_site_fract_z
Si Si1 0.153973 0.569303 0.087995
Si Si2 0.366468 0.073891 0.944239
Si Si3 0.815650 0.932559 0.052844
Si Si4 0.821551 0.082106 0.308672
Si Si5 0.834829 0.920753 0.465434
Si Si6 0.341396 0.568993 0.372819
Si Si7 0.879806 0.932149 0.669436
O O1 0.137960 0.750000 0.068403
O O2 0.271833 0.539393 0.239571
O O3 0.196758 0.497029 0.039981
O O4 0.000000 0.500000 0.000000
O O5 0.393103 0.250000 0.969980
O O6 0.315700 0.018855 0.988963
O O7 0.233465 0.038568 0.791259
O O8 0.500000 0.000000 0.000000
O O9 0.822701 0.750000 0.056507
O O10 0.964734 0.996000 0.197633
O O11 0.766051 0.250000 0.250000
O O12 0.994218 0.088299 0.427880
O O13 0.774841 0.031335 0.357674
O O14 0.775644 0.750000 0.414441
O O15 0.827136 0.969999 0.546246
O O16 0.500000 0.500000 0.500000
O O17 0.345299 0.750000 0.386032
O O18 0.233564 0.494318 0.353731
O O19 0.891995 0.750000 0.682349
#
# Coordination Sequence:
#
# PCOD9160028 Si02
#       7
#     4   4   4   4   4   4   4
#     4  11  23  40  67  99 130 167 213 262 316 381
#     4  11  24  41  61  85 120 163 208 260 316 373
#     4  11  23  39  63  94 124 160 211 263 314 375
#     4  10  19  34  57  84 115 152 195 243 299 356
#     4   9  19  34  55  86 117 151 194 242 295 353
#     4  11  25  44  65  93 128 167 209 258 319 381
#     4  11  21  37  64  92 122 161 204 254 311 372
#
# _framework density 19.230871
#
# number of rings (size 3 to 8) (size 9 to 14) (size 15 to 20)
#    0.000    1.429    2.857    2.571    0.000    5.143 
#    2.571    0.000    0.000    0.000    0.000    0.000 
#    0.000    0.000    0.000    0.000    0.000    0.000 
#
# Total GULP energy -156348.557593 kJ/mol
# GULP energy per Si atom -5583.877057 kJ/mol
# Density = 1.918710 g / cm^3
# Si number density = 19.230871 Si / 1000 Ang^3
#
#
#
# Elastic Constant Matrix: (Units=GPa)
#
#
# Indices 1 2 3 4 5 6 
#
# 1 178.0184 58.2945 50.3539 0.0000 -20.1335 0.0000
# 2 58.2945 52.3750 27.1799 0.0000 -1.9329 0.0000
# 3 50.3539 27.1799 55.1511 0.0000 -5.2412 0.0000
# 4 0.0000 0.0000 0.0000 30.9380 0.0000 -1.4527
# 5 -20.1335 -1.9329 -5.2412 0.0000 35.6093 0.0000
# 6 0.0000 0.0000 0.0000 -1.4527 0.0000 31.5078
#
#
#
# Elastic Compliance Matrix: (Units=1/GPa)
#
#
# Indices 1 2 3 4 5 6 
#
# 1 0.010408 -0.009018 -0.004610 0.000000 0.004717 0.000000
# 2 -0.009018 0.033475 -0.008698 0.000000 -0.004562 0.000000
# 3 -0.004610 -0.008698 0.026709 0.000000 0.000852 0.000000
# 4 0.000000 0.000000 0.000000 0.032393 0.000000 0.001494
# 5 0.004717 -0.004562 0.000852 0.000000 0.030627 0.000000
# 6 0.000000 0.000000 0.000000 0.001494 0.000000 0.031807
#
#
# Mechanical properties :
#
#
# Convention : Reuss Voigt Hill
#
# Bulk Modulus (GPa) = 38.54959 61.91124 50.23042
# Shear Modulus (GPa) = 22.86064 29.59209 26.22637
#
# Velocity S-wave (km/s) = 3.45156 3.92698 3.69692
# Velocity P-wave (km/s) = 5.99780 7.26809 6.66329
#
# Compressibility (1/GPa) = 0.02594061
#
# Stress axis : x y z
#
# Youngs Moduli (GPa) = 96.08203 29.87288 37.44108
#
# Poissons Ratio (x) = 0.26938 0.17261
# Poissons Ratio (y) = 0.86643 0.32565
# Poissons Ratio (z) = 0.44295 0.25983
#
# Static dielectric constant tensor:
#      x y z
#    x 1.668120 0.000000 -0.001880 
#    y 0.000000 1.677600 0.000000 
#    z -0.001880 0.000000 1.683010 
# 
# From -- ./inp_files/60143.got.cif
#   From: 2010.05.17/outbox.cif.g08.bks.cpg/sg11_31_cif.got.tgz:60143.got - 2010.06.03 12:22:45.
