data_PCOD9160382
_publ_section_title
;
Structure prediction by ZEFSAII (Michael W. Deem and Ramdas Pophale) SiO2 
 PCOD9160382
Probable space group: P 21/M
;
_chemical_formula_sum "Si O2"
_cell_formula_units_Z 32
_cell_length_a 11.590231
_cell_length_b 12.556255
_cell_length_c 9.739563
_cell_angle_alpha 90.000000
_cell_angle_beta 72.764810
_cell_angle_gamma 90.000000
_cell_volume 1353.751567
_symmetry_space_group_name_H-M "P 21/M"
_symmetry_group_IT_number 11
_symmetry_cell_setting 'monoclinic'
loop_
_space_group_symop_operation_xyz
x,y,z
-x,1/2+y,-z
-x,-y,-z
x,1/2-y,z
loop_
_atom_site_type_symbol
_atom_site_label
_atom_site_fract_x
_atom_site_fract_y
_atom_site_fract_z
Si Si1 0.122295 0.085030 0.293779
Si Si2 0.608522 0.636449 0.394380
Si Si3 0.010170 0.128208 0.042938
Si Si4 0.597558 0.869664 0.815537
Si Si5 0.269522 0.861801 0.869567
Si Si6 0.666329 0.089442 0.462579
Si Si7 0.405886 0.450144 0.885736
Si Si8 0.898096 0.135037 0.569504
O O1 0.084888 0.122847 0.156662
O O2 0.261341 0.116053 0.267019
O O3 0.022060 0.126496 0.438042
O O4 0.109856 0.958244 0.317610
O O5 0.650928 0.750000 0.429860
O O6 0.462836 0.631835 0.443433
O O7 0.658546 0.538592 0.462849
O O8 0.642617 0.616461 0.224593
O O9 0.044189 0.250000 0.966783
O O10 0.869206 0.141497 0.116301
O O11 0.000000 0.000000 0.000000
O O12 0.562672 0.750000 0.780871
O O13 0.519180 0.974192 0.799899
O O14 0.575726 0.879538 0.987824
O O15 0.305587 0.750000 0.921445
O O16 0.327406 0.876811 0.698955
O O17 0.306268 0.959575 0.951600
O O18 0.783303 0.123573 0.506793
O O19 0.892212 0.250000 0.638742
#
# Coordination Sequence:
#
# PCOD9160382 Si02
#       8
#     4   4   4   4   4   4   4   4
#     4  11  24  40  64  95 126 168 217 257 321 385
#     4  10  20  36  57  86 121 154 196 255 315 367
#     4  11  23  41  65  92 124 166 212 261 315 374
#     4  11  22  39  59  84 121 160 202 256 313 372
#     4  10  19  35  59  83 113 153 201 250 301 368
#     4  10  20  35  59  89 117 158 206 247 307 379
#     4  10  22  37  58  87 116 154 205 250 309 372
#     4  11  22  41  65  90 127 168 210 264 316 379
#
# _framework density 23.638014999999999
#
# number of rings (size 3 to 8) (size 9 to 14) (size 15 to 20)
#    0.000    1.500    1.250    4.500    0.000    0.500 
#    0.000   13.750    0.000    0.000    0.000    0.000 
#    0.000    0.000    0.000    0.000    0.000    0.000 
#
# Total GULP energy -178498.677362 kJ/mol
# GULP energy per Si atom -5578.083668 kJ/mol
# Density = 2.358421 g / cm^3
# Si number density = 23.638015 Si / 1000 Ang^3
#
#
#
# Elastic Constant Matrix: (Units=GPa)
#
#
# Indices 1 2 3 4 5 6 
#
# 1 98.8415 8.5586 0.8441 0.0000 -17.9876 0.0000
# 2 8.5586 203.9898 21.1267 0.0000 -3.5633 0.0000
# 3 0.8441 21.1267 35.2314 0.0000 -1.2814 0.0000
# 4 0.0000 0.0000 0.0000 0.3462 0.0000 -7.5238
# 5 -17.9876 -3.5633 -1.2814 0.0000 30.5369 0.0000
# 6 0.0000 0.0000 0.0000 -7.5238 0.0000 -17.4693
#
#
#
# Elastic Compliance Matrix: (Units=1/GPa)
#
#
# Indices 1 2 3 4 5 6 
#
# 1 0.011360 -0.000381 0.000198 0.000000 0.006655 0.000000
# 2 -0.000381 0.005247 -0.003128 0.000000 0.000257 0.000000
# 3 0.000198 -0.003128 0.030292 0.000000 0.001023 0.000000
# 4 0.000000 0.000000 0.000000 0.278821 0.000000 -0.120084
# 5 0.006655 0.000257 0.001023 0.000000 0.036740 0.000000
# 6 0.000000 0.000000 0.000000 -0.120084 0.000000 -0.005525
#
#
# Mechanical properties :
#
#
# Convention : Reuss Voigt Hill
#
# Bulk Modulus (GPa) = 24.82778 44.34685 34.58731
# Shear Modulus (GPa) = 13.26328 23.18497 18.22413
#
# Velocity S-wave (km/s) = 2.37132 3.13522 2.77964
# Velocity P-wave (km/s) = 4.24543 5.64869 4.99657
#
# Compressibility (1/GPa) = 0.04027746
#
# Stress axis : x y z
#
# Youngs Moduli (GPa) = 88.03105 190.59967 33.01222
#
# Poissons Ratio (x) = 0.07260 -0.00655
# Poissons Ratio (y) = 0.03353 0.10325
# Poissons Ratio (z) = -0.01746 0.59614
#
# Static dielectric constant tensor:
#      x y z
#    x 1.851880 0.000000 -0.059100 
#    y 0.000000 2.017450 0.000000 
#    z -0.059100 0.000000 1.820620 
# 
# From -- ./inp_files/35030.got.cif
#   From: 2010.05.17/outbox.cif.g08.bks.cpg/sg11_18_cif.got.tgz:35030.got - 2010.06.03 12:22:45.
