data_PCOD9160211
_publ_section_title
;
Structure prediction by ZEFSAII (Michael W. Deem and Ramdas Pophale) SiO2 
 PCOD9160211
Probable space group: P 21/M
;
_chemical_formula_sum "Si O2"
_cell_formula_units_Z 28
_cell_length_a 5.612067
_cell_length_b 13.845719
_cell_length_c 16.772388
_cell_angle_alpha 90.000000
_cell_angle_beta 79.578646
_cell_angle_gamma 90.000000
_cell_volume 1281.768062
_symmetry_space_group_name_H-M "P 21/M"
_symmetry_group_IT_number 11
_symmetry_cell_setting 'monoclinic'
loop_
_space_group_symop_operation_xyz
x,y,z
-x,1/2+y,-z
-x,-y,-z
x,1/2-y,z
loop_
_atom_site_type_symbol
_atom_site_label
_atom_site_fract_x
_atom_site_fract_y
_atom_site_fract_z
Si Si1 0.727342 0.641353 0.648878
Si Si2 0.653230 0.505031 0.069827
Si Si3 0.846347 0.043111 0.436795
Si Si4 0.410167 0.353532 0.526883
Si Si5 0.058787 0.634199 0.225735
Si Si6 0.468531 0.471504 0.747389
Si Si7 0.950307 0.139571 0.957717
O O1 0.713516 0.750000 0.682968
O O2 0.702282 0.650559 0.554815
O O3 0.528861 0.565301 0.690419
O O4 0.988011 0.589469 0.641160
O O5 0.543506 0.486738 0.161912
O O6 0.768306 0.611692 0.065571
O O7 0.500000 0.500000 0.000000
O O8 0.853522 0.424449 0.036353
O O9 0.687193 0.125591 0.488166
O O10 0.685664 0.949267 0.424044
O O11 0.000000 0.000000 0.500000
O O12 0.371665 0.250000 0.569330
O O13 0.031838 0.750000 0.237959
O O14 0.791947 0.582776 0.250267
O O15 0.285010 0.595305 0.265959
O O16 0.136296 0.617112 0.127706
O O17 0.902306 0.250000 0.976250
#
# Coordination Sequence:
#
# PCOD9160211 Si02
#       7
#     4   4   4   4   4   4   4
#     4  10  22  38  59  87 121 164 202 241 303 371
#     4  10  19  35  55  83 117 152 198 260 304 356
#     4   9  18  35  60  86 117 154 198 246 290 351
#     4   9  18  35  61  90 118 156 200 245 296 358
#     4  10  21  40  62  85 112 157 208 257 311 368
#     4  11  23  38  63  88 126 161 205 255 308 370
#     4   9  19  34  56  80 108 150 200 250 309 364
#
# _framework density 21.844825
#
# number of rings (size 3 to 8) (size 9 to 14) (size 15 to 20)
#    0.000    2.286    1.429    0.857    2.000    2.286 
#    0.000    1.429    0.000    2.571    0.000    0.000 
#    0.000    0.000    0.000    0.000    0.000    0.000 
#
# Total GULP energy -155927.169908 kJ/mol
# GULP energy per Si atom -5568.827497 kJ/mol
# Density = 2.179511 g / cm^3
# Si number density = 21.844825 Si / 1000 Ang^3
#
#
#
# Elastic Constant Matrix: (Units=GPa)
#
#
# Indices 1 2 3 4 5 6 
#
# 1 77.6675 39.5790 5.1110 0.0000 -19.2525 0.0000
# 2 39.5790 159.3379 45.1093 0.0000 -24.2118 0.0000
# 3 5.1110 45.1093 68.4365 0.0000 -16.1520 0.0000
# 4 0.0000 0.0000 0.0000 21.6267 0.0000 7.1256
# 5 -19.2525 -24.2118 -16.1520 0.0000 23.4388 0.0000
# 6 0.0000 0.0000 0.0000 7.1256 0.0000 10.7359
#
#
#
# Elastic Compliance Matrix: (Units=1/GPa)
#
#
# Indices 1 2 3 4 5 6 
#
# 1 0.017855 -0.003525 0.004290 0.000000 0.013981 0.000000
# 2 -0.003525 0.009013 -0.004973 0.000000 0.002989 0.000000
# 3 0.004290 -0.004973 0.020527 0.000000 0.012533 0.000000
# 4 0.000000 0.000000 0.000000 0.059181 0.000000 -0.039279
# 5 0.013981 0.002989 0.012533 0.000000 0.065872 0.000000
# 6 0.000000 0.000000 0.000000 -0.039279 0.000000 0.119215
#
#
# Mechanical properties :
#
#
# Convention : Reuss Voigt Hill
#
# Bulk Modulus (GPa) = 25.65420 53.89341 39.77380
# Shear Modulus (GPa) = 15.97073 25.53645 20.75359
#
# Velocity S-wave (km/s) = 2.70682 3.42276 3.08563
# Velocity P-wave (km/s) = 4.64096 6.35177 5.56253
#
# Compressibility (1/GPa) = 0.03897997
#
# Stress axis : x y z
#
# Youngs Moduli (GPa) = 56.00630 110.94483 48.71575
#
# Poissons Ratio (x) = 0.39110 -0.20898
# Poissons Ratio (y) = 0.19743 0.24224
# Poissons Ratio (z) = -0.24026 0.55168
#
# Static dielectric constant tensor:
#      x y z
#    x 1.998940 0.000000 0.000660 
#    y 0.000000 1.845010 0.000000 
#    z 0.000660 0.000000 1.867400 
# 
# From -- ./inp_files/56920.got.cif
#   From: 2010.05.17/outbox.cif.g08.bks.cpg/sg11_29_cif.got.tgz:56920.got - 2010.06.03 12:22:45.
