data_PCOD9160201
_publ_section_title
;
Structure prediction by ZEFSAII (Michael W. Deem and Ramdas Pophale) SiO2 
 PCOD9160201
Probable space group: P 21/M
;
_chemical_formula_sum "Si O2"
_cell_formula_units_Z 28
_cell_length_a 9.316228
_cell_length_b 14.156554
_cell_length_c 19.652619
_cell_angle_alpha 90.000000
_cell_angle_beta 145.038073
_cell_angle_gamma 90.000000
_cell_volume 1485.241091
_symmetry_space_group_name_H-M "P 21/M"
_symmetry_group_IT_number 11
_symmetry_cell_setting 'monoclinic'
loop_
_space_group_symop_operation_xyz
x,y,z
-x,1/2+y,-z
-x,-y,-z
x,1/2-y,z
loop_
_atom_site_type_symbol
_atom_site_label
_atom_site_fract_x
_atom_site_fract_y
_atom_site_fract_z
Si Si1 0.054228 0.853357 0.337707
Si Si2 0.901762 0.147187 0.348327
Si Si3 0.703109 0.642239 0.720842
Si Si4 0.174067 0.916265 0.539063
Si Si5 0.332935 0.507953 0.842824
Si Si6 0.594311 0.605606 0.525859
Si Si7 0.278969 0.864707 0.955695
O O1 0.931099 0.750000 0.285557
O O2 0.091491 0.880665 0.432194
O O3 0.329243 0.845489 0.412155
O O4 0.904350 0.937270 0.243608
O O5 0.861689 0.250000 0.300491
O O6 0.861801 0.153929 0.412510
O O7 0.718942 0.069448 0.244540
O O8 0.188124 0.116703 0.444135
O O9 0.633983 0.750000 0.713532
O O10 0.475979 0.572332 0.651542
O O11 0.713107 0.639994 0.642726
O O12 0.982633 0.622836 0.854500
O O13 0.000000 0.000000 0.500000
O O14 0.339318 0.584590 0.906354
O O15 0.560682 0.433023 0.932305
O O16 0.500000 0.500000 0.500000
O O17 0.328689 0.750000 0.975556
#
# Coordination Sequence:
#
# PCOD9160201 Si02
#       7
#     4   4   4   4   4   4   4
#     4  11  21  36  55  82 117 152 185 223 281 345
#     4  12  21  34  55  84 116 148 185 232 283 332
#     4  10  19  35  55  79 107 148 191 225 270 336
#     4  11  21  36  55  83 117 147 184 230 278 336
#     4  11  21  35  57  85 112 143 189 238 283 324
#     4  11  18  32  53  82 113 144 182 232 278 336
#     4  10  21  38  59  83 112 148 193 238 279 328
#
# _framework density 18.852157999999999
#
# number of rings (size 3 to 8) (size 9 to 14) (size 15 to 20)
#    0.000    1.143    4.286    5.143    0.000    0.000 
#    0.000    0.714    0.000    0.000    0.000    4.000 
#    0.000    0.000    0.000    0.000    0.000    0.000 
#
# Total GULP energy -155918.393687 kJ/mol
# GULP energy per Si atom -5568.514060 kJ/mol
# Density = 1.880925 g / cm^3
# Si number density = 18.852158 Si / 1000 Ang^3
#
#
#
# Elastic Constant Matrix: (Units=GPa)
#
#
# Indices 1 2 3 4 5 6 
#
# 1 72.1328 3.6427 15.4476 0.0000 15.7317 0.0000
# 2 3.6427 145.7229 41.6105 0.0000 6.1626 0.0000
# 3 15.4476 41.6105 94.0251 0.0000 19.6126 0.0000
# 4 0.0000 0.0000 0.0000 55.0929 0.0000 -24.2269
# 5 15.7317 6.1626 19.6126 0.0000 22.2463 0.0000
# 6 0.0000 0.0000 0.0000 -24.2269 0.0000 44.8422
#
#
#
# Elastic Compliance Matrix: (Units=1/GPa)
#
#
# Indices 1 2 3 4 5 6 
#
# 1 0.016405 0.000189 -0.000426 0.000000 -0.011277 0.000000
# 2 0.000189 0.007879 -0.003718 0.000000 0.000962 0.000000
# 3 -0.000426 -0.003718 0.014794 0.000000 -0.011711 0.000000
# 4 0.000000 0.000000 0.000000 0.023807 0.000000 0.012862
# 5 -0.011277 0.000962 -0.011711 0.000000 0.062984 0.000000
# 6 0.000000 0.000000 0.000000 0.012862 0.000000 0.029250
#
#
# Mechanical properties :
#
#
# Convention : Reuss Voigt Hill
#
# Bulk Modulus (GPa) = 32.08749 48.14248 40.11499
# Shear Modulus (GPa) = 28.83199 41.18163 35.00681
#
# Velocity S-wave (km/s) = 3.91496 4.67888 4.31387
# Velocity P-wave (km/s) = 6.12319 7.40146 6.79246
#
# Compressibility (1/GPa) = 0.03116479
#
# Stress axis : x y z
#
# Youngs Moduli (GPa) = 60.95872 126.92442 67.59572
#
# Poissons Ratio (x) = -0.02393 0.02882
# Poissons Ratio (y) = -0.01149 0.25135
# Poissons Ratio (z) = 0.02599 0.47196
#
# Static dielectric constant tensor:
#      x y z
#    x 1.657380 0.000000 0.011180 
#    y 0.000000 1.804990 0.000000 
#    z 0.011180 0.000000 1.697850 
# 
# From -- ./inp_files/26916.got.cif
#   From: 2010.05.17/outbox.cif.g08.bks.cpg/sg11_14_cif.got.tgz:26916.got - 2010.06.03 12:22:45.
