data_PCOD9160360
_publ_section_title
;
Structure prediction by ZEFSAII (Michael W. Deem and Ramdas Pophale) SiO2 
 PCOD9160360
Probable space group: P 21/M
;
_chemical_formula_sum "Si O2"
_cell_formula_units_Z 20
_cell_length_a 26.725607
_cell_length_b 8.551050
_cell_length_c 9.278334
_cell_angle_alpha 90.000000
_cell_angle_beta 149.765118
_cell_angle_gamma 90.000000
_cell_volume 1067.717107
_symmetry_space_group_name_H-M "P 21/M"
_symmetry_group_IT_number 11
_symmetry_cell_setting 'monoclinic'
loop_
_space_group_symop_operation_xyz
x,y,z
-x,1/2+y,-z
-x,-y,-z
x,1/2-y,z
loop_
_atom_site_type_symbol
_atom_site_label
_atom_site_fract_x
_atom_site_fract_y
_atom_site_fract_z
Si Si1 0.593791 0.936253 0.822161
Si Si2 0.994186 0.561980 0.649618
Si Si3 0.788248 0.060164 0.803257
Si Si4 0.784735 0.062419 0.131242
Si Si5 0.594511 0.061803 0.147852
O O1 0.588924 0.750000 0.814313
O O2 0.500000 0.000000 0.500000
O O3 0.694597 0.990630 0.995337
O O4 0.590842 0.002610 0.975958
O O5 0.987261 0.750000 0.632417
O O6 0.892593 0.491174 0.457227
O O7 0.000000 0.500000 0.500000
O O8 0.102014 0.515031 0.980364
O O9 0.786793 0.250000 0.800496
O O10 0.695824 0.006734 0.478360
O O11 0.777406 0.012517 0.944176
O O12 0.779063 0.250000 0.121738
O O13 0.593495 0.250000 0.146718
O O14 0.500000 0.000000 0.000000
#
# Coordination Sequence:
#
# PCOD9160360 Si02
#       5
#     4   4   4   4   4
#     4  12  25  41  59  83 112 147 188 234 285 342
#     4   9  16  30  52  81 113 149 189 231 275 328
#     4   8  17  33  56  82 112 146 185 229 276 327
#     4  10  19  35  58  86 115 147 186 233 282 335
#     4  11  22  39  60  84 113 149 189 235 285 338
#
# _framework density 18.731553000000002
#
# number of rings (size 3 to 8) (size 9 to 14) (size 15 to 20)
#    0.000    2.000    0.000    6.000    0.000    1.600 
#    0.000   12.000    0.000    0.000    0.000    0.000 
#    0.000    0.000    0.000    0.000    0.000    0.000 
#
# Total GULP energy -111634.328463 kJ/mol
# GULP energy per Si atom -5581.716423 kJ/mol
# Density = 1.868892 g / cm^3
# Si number density = 18.731553 Si / 1000 Ang^3
#
#
#
# Elastic Constant Matrix: (Units=GPa)
#
#
# Indices 1 2 3 4 5 6 
#
# 1 124.1323 37.2103 95.8250 0.0000 18.7417 0.0000
# 2 37.2103 87.9362 48.3647 0.0000 6.8048 0.0000
# 3 95.8250 48.3647 204.1148 0.0000 21.1459 0.0000
# 4 0.0000 0.0000 0.0000 30.1576 0.0000 6.3743
# 5 18.7417 6.8048 21.1459 0.0000 34.0526 0.0000
# 6 0.0000 0.0000 0.0000 6.3743 0.0000 32.4636
#
#
#
# Elastic Compliance Matrix: (Units=1/GPa)
#
#
# Indices 1 2 3 4 5 6 
#
# 1 0.013488 -0.002474 -0.005374 0.000000 -0.003592 0.000000
# 2 -0.002474 0.013547 -0.002040 0.000000 -0.000078 0.000000
# 3 -0.005374 -0.002040 0.008076 0.000000 -0.001650 0.000000
# 4 0.000000 0.000000 0.000000 0.034595 0.000000 -0.006793
# 5 -0.003592 -0.000078 -0.001650 0.000000 0.032384 0.000000
# 6 0.000000 0.000000 0.000000 -0.006793 0.000000 0.032138
#
#
# Mechanical properties :
#
#
# Convention : Reuss Voigt Hill
#
# Bulk Modulus (GPa) = 65.20930 86.55368 75.88149
# Shear Modulus (GPa) = 31.42354 34.98696 33.20525
#
# Velocity S-wave (km/s) = 4.10026 4.32650 4.21490
# Velocity P-wave (km/s) = 7.56996 8.44191 8.01780
#
# Compressibility (1/GPa) = 0.01533524
#
# Stress axis : x y z
#
# Youngs Moduli (GPa) = 74.13789 73.81698 123.81603
#
# Poissons Ratio (x) = 0.18262 0.66539
# Poissons Ratio (y) = 0.18341 0.25263
# Poissons Ratio (z) = 0.39842 0.15061
#
# Static dielectric constant tensor:
#      x y z
#    x 1.604340 0.000000 0.010090 
#    y 0.000000 1.636690 0.000000 
#    z 0.010090 0.000000 1.670080 
# 
# From -- ./inp_files/24184.got.cif
#   From: 2010.05.17/outbox.cif.g08.bks.cpg/sg11_13_cif.got.tgz:24184.got - 2010.06.03 12:22:45.
