data_PCOD9160995
_publ_section_title
;
Structure prediction by ZEFSAII (Michael W. Deem and Ramdas Pophale) SiO2 
 PCOD9160995
Probable space group: P 21/M
;
_chemical_formula_sum "Si O2"
_cell_formula_units_Z 32
_cell_length_a 31.409448
_cell_length_b 7.862662
_cell_length_c 11.993444
_cell_angle_alpha 90.000000
_cell_angle_beta 151.669542
_cell_angle_gamma 90.000000
_cell_volume 1405.599103
_symmetry_space_group_name_H-M "P 21/M"
_symmetry_group_IT_number 11
_symmetry_cell_setting 'monoclinic'
loop_
_space_group_symop_operation_xyz
x,y,z
-x,1/2+y,-z
-x,-y,-z
x,1/2-y,z
loop_
_atom_site_type_symbol
_atom_site_label
_atom_site_fract_x
_atom_site_fract_y
_atom_site_fract_z
Si Si1 0.302697 0.550508 0.030279
Si Si2 0.883976 0.049406 0.275842
Si Si3 0.013050 0.457340 0.759838
Si Si4 0.378098 0.548772 0.437282
Si Si5 0.090043 0.443322 0.268219
Si Si6 0.466345 0.455735 0.045324
Si Si7 0.287446 0.047334 0.741470
Si Si8 0.199331 0.059548 0.139042
O O1 0.325028 0.750000 0.071957
O O2 0.355975 0.479281 0.262086
O O3 0.198955 0.538837 0.828378
O O4 0.312523 0.475584 0.929804
O O5 0.888218 0.250000 0.252812
O O6 0.972509 0.996723 0.546113
O O7 0.851178 0.938943 0.096896
O O8 0.010658 0.250000 0.763389
O O9 0.942743 0.538386 0.681142
O O10 0.116200 0.512710 0.019516
O O11 0.390227 0.750000 0.449639
O O12 0.463914 0.479466 0.700124
O O13 0.292338 0.528062 0.322271
O O14 0.101768 0.250000 0.260002
O O15 0.188442 0.526197 0.487104
O O16 0.000000 0.500000 0.000000
O O17 0.465805 0.250000 0.051371
O O18 0.500000 0.500000 0.000000
O O19 0.367035 0.519174 0.846828
O O20 0.282747 0.250000 0.713123
O O21 0.219335 0.250000 0.224704
#
# Coordination Sequence:
#
# PCOD9160995 Si02
#       8
#     4   4   4   4   4   4   4   4
#     4   9  17  32  58  88 119 156 193 232 285 354
#     4   9  17  31  51  77 115 156 191 230 278 339
#     4  10  20  35  53  77 112 154 195 235 282 336
#     4   9  20  39  59  84 121 160 196 239 296 354
#     4  11  24  40  59  84 115 152 193 241 292 346
#     4  10  23  44  66  87 116 152 194 243 294 352
#     4  10  22  40  62  89 118 149 189 245 301 344
#     4  10  20  31  51  83 117 152 191 237 282 329
#
# _framework density 22.766093999999999
#
# number of rings (size 3 to 8) (size 9 to 14) (size 15 to 20)
#    0.000    2.250    1.250    1.875    0.000    6.500 
#    0.000    3.750    0.000    0.000    0.000    0.000 
#    0.000    0.000    0.000    0.000    0.000    0.000 
#
# Total GULP energy -178442.656455 kJ/mol
# GULP energy per Si atom -5576.333014 kJ/mol
# Density = 2.271428 g / cm^3
# Si number density = 22.766094 Si / 1000 Ang^3
#
#
#
# Elastic Constant Matrix: (Units=GPa)
#
#
# Indices 1 2 3 4 5 6 
#
# 1 83.6473 9.6145 72.3361 0.0000 28.0783 0.0000
# 2 9.6145 20.7044 12.9689 0.0000 1.3885 0.0000
# 3 72.3361 12.9689 154.1946 0.0000 9.7557 0.0000
# 4 0.0000 0.0000 0.0000 15.8488 0.0000 -4.8205
# 5 28.0783 1.3885 9.7557 0.0000 30.5672 0.0000
# 6 0.0000 0.0000 0.0000 -4.8205 0.0000 24.9194
#
#
#
# Elastic Compliance Matrix: (Units=1/GPa)
#
#
# Indices 1 2 3 4 5 6 
#
# 1 0.032483 -0.005112 -0.013202 0.000000 -0.025392 0.000000
# 2 -0.005112 0.051817 -0.002152 0.000000 0.003028 0.000000
# 3 -0.013202 -0.002152 0.012335 0.000000 0.008288 0.000000
# 4 0.000000 0.000000 0.000000 0.067041 0.000000 0.012969
# 5 -0.025392 0.003028 0.008288 0.000000 0.053257 0.000000
# 6 0.000000 0.000000 0.000000 0.012969 0.000000 0.042638
#
#
# Mechanical properties :
#
#
# Convention : Reuss Voigt Hill
#
# Bulk Modulus (GPa) = 17.95183 49.82058 33.88621
# Shear Modulus (GPa) = 15.67057 25.17556 20.42306
#
# Velocity S-wave (km/s) = 2.62645 3.32902 2.99838
# Velocity P-wave (km/s) = 4.13523 6.05869 5.18690
#
# Compressibility (1/GPa) = 0.05570463
#
# Stress axis : x y z
#
# Youngs Moduli (GPa) = 30.78567 19.29854 81.06854
#
# Poissons Ratio (x) = 0.09865 1.07026
# Poissons Ratio (y) = 0.15736 0.17445
# Poissons Ratio (z) = 0.40643 0.04153
#
# Static dielectric constant tensor:
#      x y z
#    x 2.121440 0.000000 0.027430 
#    y 0.000000 1.838360 0.000000 
#    z 0.027430 0.000000 1.903780 
# 
# From -- ./inp_files/45376.got.cif
#   From: 2010.05.17/outbox.cif.g08.bks.cpg/sg11_23_cif.got.tgz:45376.got - 2010.06.03 12:22:45.
