data_PCOD9160477
_publ_section_title
;
Structure prediction by ZEFSAII (Michael W. Deem and Ramdas Pophale) SiO2 
 PCOD9160477
Probable space group: P 21/M
;
_chemical_formula_sum "Si O2"
_cell_formula_units_Z 32
_cell_length_a 31.908885
_cell_length_b 9.111133
_cell_length_c 12.802060
_cell_angle_alpha 90.000000
_cell_angle_beta 153.342697
_cell_angle_gamma 90.000000
_cell_volume 1669.838908
_symmetry_space_group_name_H-M "P 21/M"
_symmetry_group_IT_number 11
_symmetry_cell_setting 'monoclinic'
loop_
_space_group_symop_operation_xyz
x,y,z
-x,1/2+y,-z
-x,-y,-z
x,1/2-y,z
loop_
_atom_site_type_symbol
_atom_site_label
_atom_site_fract_x
_atom_site_fract_y
_atom_site_fract_z
Si Si1 0.923770 0.077559 0.563382
Si Si2 0.868896 0.575991 0.054098
Si Si3 0.400476 0.422796 0.268065
Si Si4 0.413369 0.577356 0.861322
Si Si5 0.864106 0.919542 0.631987
Si Si6 0.352111 0.085088 0.917925
Si Si7 0.796131 0.074008 0.682557
Si Si8 0.217939 0.926599 0.936369
O O1 0.912809 0.250000 0.564885
O O2 0.923596 0.988092 0.670635
O O3 0.840278 0.035876 0.298546
O O4 0.020204 0.058713 0.716184
O O5 0.848395 0.750000 0.013555
O O6 0.822243 0.503164 0.848612
O O7 0.833996 0.495601 0.080111
O O8 0.500000 0.500000 0.500000
O O9 0.404976 0.250000 0.304961
O O10 0.320786 0.505032 0.156115
O O11 0.370762 0.435018 0.080797
O O12 0.424941 0.750000 0.878503
O O13 0.405294 0.528623 0.963504
O O14 0.312274 0.539226 0.586276
O O15 0.500000 0.500000 0.000000
O O16 0.888827 0.750000 0.707107
O O17 0.757838 0.925439 0.351154
O O18 0.859083 0.010202 0.728163
O O19 0.382212 0.250000 0.954781
O O20 0.806374 0.250000 0.711297
O O21 0.221375 0.750000 0.952231
#
# Coordination Sequence:
#
# PCOD9160477 Si02
#       8
#     4   4   4   4   4   4   4   4
#     4  10  22  39  62  91 121 157 204 251 303 364
#     4  11  24  41  61  88 123 163 204 251 304 364
#     4  11  23  40  61  90 122 157 199 248 302 360
#     4  10  21  36  59  86 113 149 194 241 293 354
#     4  10  19  35  62  90 116 153 197 246 299 355
#     4   9  19  36  57  82 114 148 189 240 291 346
#     4  10  22  40  59  85 121 158 198 248 304 361
#     4  11  23  41  64  89 121 161 203 253 306 362
#
# _framework density 19.163525
#
# number of rings (size 3 to 8) (size 9 to 14) (size 15 to 20)
#    0.000    1.750    1.250    2.625    0.000    6.000 
#    0.000    1.250    0.000    0.000    0.000    0.000 
#    0.000    0.000    0.000    0.000    0.000    0.000 
#
# Total GULP energy -178809.012752 kJ/mol
# GULP energy per Si atom -5587.781649 kJ/mol
# Density = 1.911991 g / cm^3
# Si number density = 19.163525 Si / 1000 Ang^3
#
#
#
# Elastic Constant Matrix: (Units=GPa)
#
#
# Indices 1 2 3 4 5 6 
#
# 1 103.4956 60.4329 24.9460 0.0000 11.2553 0.0000
# 2 60.4329 89.4377 45.8927 0.0000 7.1732 0.0000
# 3 24.9460 45.8927 55.9541 0.0000 4.5302 0.0000
# 4 0.0000 0.0000 0.0000 26.7122 0.0000 0.3904
# 5 11.2553 7.1732 4.5302 0.0000 23.2281 0.0000
# 6 0.0000 0.0000 0.0000 0.3904 0.0000 43.4304
#
#
#
# Elastic Compliance Matrix: (Units=1/GPa)
#
#
# Indices 1 2 3 4 5 6 
#
# 1 0.016773 -0.012619 0.003266 0.000000 -0.004867 0.000000
# 2 -0.012619 0.028997 -0.018214 0.000000 0.000712 0.000000
# 3 0.003266 -0.018214 0.031525 0.000000 -0.002106 0.000000
# 4 0.000000 0.000000 0.000000 0.037441 0.000000 -0.000337
# 5 -0.004867 0.000712 -0.002106 0.000000 0.045601 0.000000
# 6 0.000000 0.000000 0.000000 -0.000337 0.000000 0.023028
#
#
# Mechanical properties :
#
#
# Convention : Reuss Voigt Hill
#
# Bulk Modulus (GPa) = 45.12555 56.82562 50.97558
# Shear Modulus (GPa) = 20.33465 26.51519 23.42492
#
# Velocity S-wave (km/s) = 3.26101 3.72375 3.50003
# Velocity P-wave (km/s) = 6.14635 6.94304 6.55681
#
# Compressibility (1/GPa) = 0.02216039
#
# Stress axis : x y z
#
# Youngs Moduli (GPa) = 59.62068 34.48681 31.72052
#
# Poissons Ratio (x) = 0.43518 -0.10360
# Poissons Ratio (y) = 0.75234 0.57777
# Poissons Ratio (z) = -0.19473 0.62816
#
# Static dielectric constant tensor:
#      x y z
#    x 1.635720 0.000000 0.008050 
#    y 0.000000 1.643470 0.000000 
#    z 0.008050 0.000000 1.668250 
# 
# From -- ./inp_files/45067.got.cif
#   From: 2010.05.17/outbox.cif.g08.bks.cpg/sg11_23_cif.got.tgz:45067.got - 2010.06.03 12:22:45.
