data_PCOD9160650
_publ_section_title
;
Structure prediction by ZEFSAII (Michael W. Deem and Ramdas Pophale) SiO2 
 PCOD9160650
Probable space group: P 21/M
;
_chemical_formula_sum "Si O2"
_cell_formula_units_Z 16
_cell_length_a 7.427836
_cell_length_b 5.531072
_cell_length_c 16.972627
_cell_angle_alpha 90.000000
_cell_angle_beta 115.953314
_cell_angle_gamma 90.000000
_cell_volume 626.979425
_symmetry_space_group_name_H-M "P 21/M"
_symmetry_group_IT_number 11
_symmetry_cell_setting 'monoclinic'
loop_
_space_group_symop_operation_xyz
x,y,z
-x,1/2+y,-z
-x,-y,-z
x,1/2-y,z
loop_
_atom_site_type_symbol
_atom_site_label
_atom_site_fract_x
_atom_site_fract_y
_atom_site_fract_z
Si Si1 0.902172 0.250000 0.417135
Si Si2 0.379038 0.750000 0.484855
Si Si3 0.090672 0.750000 0.984856
Si Si4 0.567903 0.750000 0.082865
Si Si5 0.484611 0.750000 0.885301
Si Si6 0.214010 0.250000 0.614699
Si Si7 0.199218 0.250000 0.198014
Si Si8 0.303187 0.750000 0.301985
O O1 0.733903 0.250000 0.454069
O O2 0.863258 0.497855 0.364865
O O3 0.109111 0.250000 0.506371
O O4 0.500000 0.500000 0.500000
O O5 0.243544 0.750000 0.381671
O O6 0.019798 0.750000 0.881672
O O7 0.325765 0.750000 0.045931
O O8 0.000000 0.500000 0.000000
O O9 0.633530 0.502145 0.135136
O O10 0.596368 0.750000 0.993629
O O11 0.639497 0.750000 0.843186
O O12 0.453126 0.250000 0.656814
O O13 0.233076 0.500000 0.250000
#
# Coordination Sequence:
#
# PCOD9160650 Si02
#       8
#     2   2   2   2   2   2   2   2
#     4  10  19  36  61  87 108 143 204 247 278 326
#     4  12  21  38  62  88 116 155 202 248 286 350
#     4  12  21  38  62  88 116 155 202 248 286 350
#     4  10  19  36  61  87 108 143 204 247 278 326
#     4  10  20  36  59  85 113 147 194 245 284 348
#     4  10  20  36  59  85 113 147 194 245 284 348
#     4  12  24  38  56  88 125 159 190 240 312 358
#     4  12  24  38  56  88 125 159 190 240 312 358
#
# _framework density 25.519179999999999
#
# number of rings (size 3 to 8) (size 9 to 14) (size 15 to 20)
#    0.000    1.000    5.000    3.000    0.000    0.000 
#    0.000    2.500    0.000    0.000    0.000    0.000 
#    0.000    0.000    0.000    0.000    0.000    0.000 
#
# Total GULP energy -89583.506365 kJ/mol
# GULP energy per Si atom -5598.969148 kJ/mol
# Density = 2.546110 g / cm^3
# Si number density = 25.519180 Si / 1000 Ang^3
#
#
#
# Elastic Constant Matrix: (Units=GPa)
#
#
# Indices 1 2 3 4 5 6 
#
# 1 102.2256 55.9455 15.5840 0.0000 0.0000 0.0000
# 2 55.9455 308.4238 59.7941 0.0000 -0.0003 0.0000
# 3 15.5840 59.7941 82.4846 0.0000 -0.0003 0.0000
# 4 0.0000 0.0000 0.0000 50.1572 0.0000 -0.0001
# 5 0.0000 -0.0003 -0.0003 0.0000 48.0652 0.0000
# 6 0.0000 0.0000 0.0000 -0.0001 0.0000 59.3763
#
#
#
# Elastic Compliance Matrix: (Units=1/GPa)
#
#
# Indices 1 2 3 4 5 6 
#
# 1 0.010898 -0.001836 -0.000728 0.000000 0.000000 0.000000
# 2 -0.001836 0.004082 -0.002612 0.000000 0.000000 0.000000
# 3 -0.000728 -0.002612 0.014155 0.000000 0.000000 0.000000
# 4 0.000000 0.000000 0.000000 0.019937 0.000000 0.000000
# 5 0.000000 0.000000 0.000000 0.000000 0.020805 0.000000
# 6 0.000000 0.000000 0.000000 0.000000 0.000000 0.016842
#
#
# Mechanical properties :
#
#
# Convention : Reuss Voigt Hill
#
# Bulk Modulus (GPa) = 53.24188 83.97570 68.60879
# Shear Modulus (GPa) = 48.38827 55.64045 52.01436
#
# Velocity S-wave (km/s) = 4.35921 4.67448 4.51959
# Velocity P-wave (km/s) = 6.80042 7.88116 7.36065
#
# Compressibility (1/GPa) = 0.01878221
#
# Stress axis : x y z
#
# Youngs Moduli (GPa) = 91.76095 244.99927 70.64857
#
# Poissons Ratio (x) = 0.44972 0.05146
# Poissons Ratio (y) = 0.16843 0.18454
# Poissons Ratio (z) = 0.06683 0.63995
#
# Static dielectric constant tensor:
#      x y z
#    x 2.045060 0.000000 0.000000 
#    y 0.000000 1.964820 0.000000 
#    z 0.000000 0.000000 1.999140 
# 
# From -- ./inp_files/57277.got.cif
#   From: 2010.05.17/outbox.cif.g08.bks.cpg/sg11_29_cif.got.tgz:57277.got - 2010.06.03 12:22:45.
