data_PCOD9160793
_publ_section_title
;
Structure prediction by ZEFSAII (Michael W. Deem and Ramdas Pophale) SiO2 
 PCOD9160793
Probable space group: P 21/M
;
_chemical_formula_sum "Si O2"
_cell_formula_units_Z 28
_cell_length_a 9.920664
_cell_length_b 18.953105
_cell_length_c 15.370911
_cell_angle_alpha 90.000000
_cell_angle_beta 154.228809
_cell_angle_gamma 90.000000
_cell_volume 1256.575624
_symmetry_space_group_name_H-M "P 21/M"
_symmetry_group_IT_number 11
_symmetry_cell_setting 'monoclinic'
loop_
_space_group_symop_operation_xyz
x,y,z
-x,1/2+y,-z
-x,-y,-z
x,1/2-y,z
loop_
_atom_site_type_symbol
_atom_site_label
_atom_site_fract_x
_atom_site_fract_y
_atom_site_fract_z
Si Si1 0.200237 0.563034 0.538000
Si Si2 0.130466 0.172289 0.352077
Si Si3 0.178278 0.040584 0.994804
Si Si4 0.765092 0.670056 0.382606
Si Si5 0.528631 0.174656 0.432294
Si Si6 0.079832 0.617722 0.004606
Si Si7 0.844838 0.514845 0.653232
O O1 0.473624 0.550297 0.766866
O O2 0.068572 0.393886 0.571083
O O3 0.296386 0.613794 0.514387
O O4 0.161547 0.494343 0.455262
O O5 0.994205 0.250000 0.248277
O O6 0.136795 0.170991 0.459267
O O7 0.465879 0.171647 0.498520
O O8 0.023882 0.094896 0.259538
O O9 0.066359 0.962621 0.960300
O O10 0.987968 0.101604 0.933528
O O11 0.090724 0.036942 0.842992
O O12 0.825617 0.750000 0.383913
O O13 0.403075 0.652963 0.173061
O O14 0.665016 0.250000 0.489544
O O15 0.188161 0.165289 0.191861
O O16 0.500000 0.500000 0.500000
#
# Coordination Sequence:
#
# PCOD9160793 Si02
#       7
#     4   4   4   4   4   4   4
#     4  11  24  40  64  94 128 170 212 269 327 388
#     4  10  21  37  60  88 121 164 210 255 317 385
#     4  10  21  38  62  96 126 160 215 269 320 381
#     4  11  24  42  62  91 133 172 211 270 333 387
#     4  10  19  37  63  89 120 166 217 264 315 381
#     4  10  19  37  62  92 122 163 213 263 318 386
#     4  12  20  39  67  95 126 164 214 271 317 375
#
# _framework density 22.282781
#
# number of rings (size 3 to 8) (size 9 to 14) (size 15 to 20)
#    0.000    1.429    2.857    4.286    0.000    2.286 
#    2.571    1.429    0.000    2.571    0.000    0.000 
#    0.000    0.000    0.000    0.000    0.000    0.000 
#
# Total GULP energy -155934.904101 kJ/mol
# GULP energy per Si atom -5569.103718 kJ/mol
# Density = 2.223206 g / cm^3
# Si number density = 22.282781 Si / 1000 Ang^3
#
#
#
# Elastic Constant Matrix: (Units=GPa)
#
#
# Indices 1 2 3 4 5 6 
#
# 1 87.8149 29.2482 26.6600 0.0000 -7.1776 0.0000
# 2 29.2482 101.7709 16.0770 0.0000 -3.4723 0.0000
# 3 26.6600 16.0770 70.1034 0.0000 -18.1513 0.0000
# 4 0.0000 0.0000 0.0000 6.2934 0.0000 -5.1765
# 5 -7.1776 -3.4723 -18.1513 0.0000 17.0311 0.0000
# 6 0.0000 0.0000 0.0000 -5.1765 0.0000 15.2836
#
#
#
# Elastic Compliance Matrix: (Units=1/GPa)
#
#
# Indices 1 2 3 4 5 6 
#
# 1 0.013850 -0.003270 -0.004390 0.000000 0.000492 0.000000
# 2 -0.003270 0.010971 -0.001450 0.000000 -0.000687 0.000000
# 3 -0.004390 -0.001450 0.021699 0.000000 0.020980 0.000000
# 4 0.000000 0.000000 0.000000 0.220260 0.000000 0.074602
# 5 0.000492 -0.000687 0.020980 0.000000 0.081143 0.000000
# 6 0.000000 0.000000 0.000000 0.074602 0.000000 0.090697
#
#
# Mechanical properties :
#
#
# Convention : Reuss Voigt Hill
#
# Bulk Modulus (GPa) = 35.33622 44.85109 40.09365
# Shear Modulus (GPa) = 10.72330 20.23521 15.47925
#
# Velocity S-wave (km/s) = 2.19609 3.01675 2.63852
# Velocity P-wave (km/s) = 4.72472 5.68386 5.22634
#
# Compressibility (1/GPa) = 0.02829957
#
# Stress axis : x y z
#
# Youngs Moduli (GPa) = 72.20424 91.14551 46.08526
#
# Poissons Ratio (x) = 0.29805 0.20230
# Poissons Ratio (y) = 0.23611 0.06684
# Poissons Ratio (z) = 0.31696 0.13220
#
# Static dielectric constant tensor:
#      x y z
#    x 1.885340 0.000000 -0.023950 
#    y 0.000000 2.003790 0.000000 
#    z -0.023950 0.000000 1.832530 
# 
# From -- ./inp_files/65829.got.cif
#   From: 2010.05.17/outbox.cif.g08.bks.cpg/sg11_33_cif.got.tgz:65829.got - 2010.06.03 12:22:45.
