data_PCOD9160597
_publ_section_title
;
Structure prediction by ZEFSAII (Michael W. Deem and Ramdas Pophale) SiO2 
 PCOD9160597
Probable space group: P 21/M
;
_chemical_formula_sum "Si O2"
_cell_formula_units_Z 28
_cell_length_a 5.593094
_cell_length_b 13.949598
_cell_length_c 16.994359
_cell_angle_alpha 90.000000
_cell_angle_beta 49.309454
_cell_angle_gamma 90.000000
_cell_volume 1005.371090
_symmetry_space_group_name_H-M "P 21/M"
_symmetry_group_IT_number 11
_symmetry_cell_setting 'monoclinic'
loop_
_space_group_symop_operation_xyz
x,y,z
-x,1/2+y,-z
-x,-y,-z
x,1/2-y,z
loop_
_atom_site_type_symbol
_atom_site_label
_atom_site_fract_x
_atom_site_fract_y
_atom_site_fract_z
Si Si1 0.468359 0.047661 0.093397
Si Si2 0.407157 0.636567 0.282345
Si Si3 0.223537 0.250000 0.994203
Si Si4 0.915302 0.863283 0.277093
Si Si5 0.455058 0.865683 0.517555
Si Si6 0.739198 0.250000 0.987330
Si Si7 0.850833 0.423683 0.155384
Si Si8 0.245710 0.066072 0.381410
O O1 0.583258 0.157063 0.059066
O O2 0.712153 0.016257 0.109937
O O3 0.083999 0.046997 0.179182
O O4 0.500000 0.000000 0.000000
O O5 0.333643 0.750000 0.318277
O O6 0.770385 0.616984 0.223614
O O7 0.253658 0.550021 0.366611
O O8 0.267569 0.616980 0.226898
O O9 0.106544 0.250000 0.929821
O O10 0.058675 0.340168 0.071254
O O11 0.594417 0.250000 0.931422
O O12 0.880849 0.750000 0.291642
O O13 0.683059 0.897626 0.396507
O O14 0.455037 0.750000 0.522486
O O15 0.618300 0.904010 0.562473
O O16 0.096903 0.896802 0.572777
O O17 0.518170 0.393932 0.264881
#
# Coordination Sequence:
#
# PCOD9160597 Si02
#       8
#     4   4   2   4   4   2   4   4
#     4  10  19  36  60  79 112 143 176 226 265 318
#     4  10  21  38  60  79 106 152 202 247 284 330
#     4   8  16  30  50  70 106 140 164 208 248 322
#     4   9  19  37  57  80 110 146 195 247 290 337
#     4  11  24  38  55  86 121 149 185 239 298 351
#     4   8  16  30  50  82 100 130 176 200 250 318
#     4  10  21  35  53  85 110 143 184 216 274 331
#     4  12  24  37  57  84 118 155 192 233 285 360
#
# _framework density 27.850411000000001
#
# number of rings (size 3 to 8) (size 9 to 14) (size 15 to 20)
#    0.000    2.000    0.000    3.429    2.000    5.714 
#    2.571    0.000    3.143    0.000    0.000    0.000 
#    0.000    0.000    0.000    0.000    0.000    0.000 
#
# Total GULP energy -156305.687094 kJ/mol
# GULP energy per Si atom -5582.345968 kJ/mol
# Density = 2.778702 g / cm^3
# Si number density = 27.850411 Si / 1000 Ang^3
#
#
#
# Elastic Constant Matrix: (Units=GPa)
#
#
# Indices 1 2 3 4 5 6 
#
# 1 351.9149 51.0418 39.4821 0.0000 43.7549 0.0000
# 2 51.0418 156.8010 4.3870 0.0000 12.1618 0.0000
# 3 39.4821 4.3870 98.7156 0.0000 17.9496 0.0000
# 4 0.0000 0.0000 0.0000 40.6537 0.0000 2.1676
# 5 43.7549 12.1618 17.9496 0.0000 48.7399 0.0000
# 6 0.0000 0.0000 0.0000 2.1676 0.0000 54.1155
#
#
#
# Elastic Compliance Matrix: (Units=1/GPa)
#
#
# Indices 1 2 3 4 5 6 
#
# 1 0.003376 -0.000881 -0.000857 0.000000 -0.002495 0.000000
# 2 -0.000881 0.006734 0.000230 0.000000 -0.000974 0.000000
# 3 -0.000857 0.000230 0.011075 0.000000 -0.003366 0.000000
# 4 0.000000 0.000000 0.000000 0.024651 0.000000 -0.000987
# 5 -0.002495 -0.000974 -0.003366 0.000000 0.024240 0.000000
# 6 0.000000 0.000000 0.000000 -0.000987 0.000000 0.018519
#
#
# Mechanical properties :
#
#
# Convention : Reuss Voigt Hill
#
# Bulk Modulus (GPa) = 55.04377 88.58368 71.81372
# Shear Modulus (GPa) = 51.19512 62.86987 57.03250
#
# Velocity S-wave (km/s) = 4.29210 4.75638 4.53019
# Velocity P-wave (km/s) = 6.66106 7.87656 7.29417
#
# Compressibility (1/GPa) = 0.01816736
#
# Stress axis : x y z
#
# Youngs Moduli (GPa) = 296.22417 148.51109 90.29429
#
# Poissons Ratio (x) = 0.13090 0.07742
# Poissons Ratio (y) = 0.26109 -0.02080
# Poissons Ratio (z) = 0.25397 -0.03421
#
# Static dielectric constant tensor:
#      x y z
#    x 2.278300 0.000000 0.026220 
#    y 0.000000 2.842920 0.000000 
#    z 0.026220 0.000000 2.162140 
# 
# From -- ./inp_files/57018.got.cif
#   From: 2010.05.17/outbox.cif.g08.bks.cpg/sg11_29_cif.got.tgz:57018.got - 2010.06.03 12:22:45.
