data_PCOD9160569
_publ_section_title
;
Structure prediction by ZEFSAII (Michael W. Deem and Ramdas Pophale) SiO2 
 PCOD9160569
Probable space group: P 21/M
;
_chemical_formula_sum "Si O2"
_cell_formula_units_Z 32
_cell_length_a 25.216164
_cell_length_b 7.614633
_cell_length_c 16.334419
_cell_angle_alpha 90.000000
_cell_angle_beta 152.273912
_cell_angle_gamma 90.000000
_cell_volume 1459.195663
_symmetry_space_group_name_H-M "P 21/M"
_symmetry_group_IT_number 11
_symmetry_cell_setting 'monoclinic'
loop_
_space_group_symop_operation_xyz
x,y,z
-x,1/2+y,-z
-x,-y,-z
x,1/2-y,z
loop_
_atom_site_type_symbol
_atom_site_label
_atom_site_fract_x
_atom_site_fract_y
_atom_site_fract_z
Si Si1 0.997881 0.536934 0.733633
Si Si2 0.577613 0.445824 0.683923
Si Si3 0.359008 0.533772 0.050239
Si Si4 0.097584 0.539515 0.698993
Si Si5 0.133820 0.461097 0.190720
Si Si6 0.789768 0.954144 0.874583
Si Si7 0.478720 0.460815 0.875860
Si Si8 0.226889 0.035179 0.491979
O O1 0.001586 0.750000 0.740712
O O2 0.868465 0.482697 0.572610
O O3 0.050538 0.473070 0.721160
O O4 0.081183 0.470612 0.918086
O O5 0.500000 0.500000 0.500000
O O6 0.537640 0.250000 0.646500
O O7 0.588334 0.528003 0.789894
O O8 0.705266 0.451330 0.821377
O O9 0.358879 0.750000 0.052216
O O10 0.430944 0.477136 0.069033
O O11 0.226820 0.476657 0.861254
O O12 0.105614 0.750000 0.715465
O O13 0.000000 0.500000 0.500000
O O14 0.144098 0.250000 0.202998
O O15 0.206306 0.526073 0.212093
O O16 0.182729 0.523927 0.343296
O O17 0.000000 0.500000 0.000000
O O18 0.755111 0.750000 0.827380
O O19 0.477933 0.250000 0.867078
O O20 0.352891 0.527399 0.682308
O O21 0.500000 0.500000 0.000000
O O22 0.228825 0.250000 0.493962
#
# Coordination Sequence:
#
# PCOD9160569 Si02
#       8
#     4   4   4   4   4   4   4   4
#     4  10  19  36  59  82 114 153 195 236 291 358
#     4  11  23  41  63  87 118 159 202 246 296 356
#     4   9  20  40  63  84 115 156 196 235 291 360
#     4  10  21  37  58  86 112 147 190 237 295 350
#     4  10  20  34  55  84 116 153 193 233 281 348
#     4  11  22  35  56  88 121 153 194 242 294 350
#     4  10  22  41  63  84 111 152 198 244 292 348
#     4   9  19  35  58  82 110 153 195 231 284 349
#
# _framework density 21.92989
#
# number of rings (size 3 to 8) (size 9 to 14) (size 15 to 20)
#    0.000    2.000    2.500    0.750    3.500    1.000 
#    0.000    2.500    0.000    0.000    0.000    0.000 
#    0.000    0.000    0.000    0.000    0.000    0.000 
#
# Total GULP energy -178630.085990 kJ/mol
# GULP energy per Si atom -5582.190187 kJ/mol
# Density = 2.187998 g / cm^3
# Si number density = 21.929890 Si / 1000 Ang^3
#
#
#
# Elastic Constant Matrix: (Units=GPa)
#
#
# Indices 1 2 3 4 5 6 
#
# 1 195.7876 4.5624 98.3474 0.0000 5.7724 0.0000
# 2 4.5624 43.6988 1.3941 0.0000 0.5935 0.0000
# 3 98.3474 1.3941 172.6540 0.0000 -3.9064 0.0000
# 4 0.0000 0.0000 0.0000 24.6093 0.0000 -5.0578
# 5 5.7724 0.5935 -3.9064 0.0000 29.0909 0.0000
# 6 0.0000 0.0000 0.0000 -5.0578 0.0000 4.9629
#
#
#
# Elastic Compliance Matrix: (Units=1/GPa)
#
#
# Indices 1 2 3 4 5 6 
#
# 1 0.007285 -0.000600 -0.004190 0.000000 -0.001996 0.000000
# 2 -0.000600 0.022946 0.000149 0.000000 -0.000329 0.000000
# 3 -0.004190 0.000149 0.008221 0.000000 0.001932 0.000000
# 4 0.000000 0.000000 0.000000 0.051401 0.000000 0.052385
# 5 -0.001996 -0.000329 0.001932 0.000000 0.035037 0.000000
# 6 0.000000 0.000000 0.000000 0.052385 0.000000 0.254883
#
#
# Mechanical properties :
#
#
# Convention : Reuss Voigt Hill
#
# Bulk Modulus (GPa) = 34.28100 68.97202 51.62651
# Shear Modulus (GPa) = 12.53823 32.25504 22.39664
#
# Velocity S-wave (km/s) = 2.39371 3.83930 3.19922
# Velocity P-wave (km/s) = 4.82761 7.15353 6.10241
#
# Compressibility (1/GPa) = 0.02917068
#
# Stress axis : x y z
#
# Youngs Moduli (GPa) = 137.26536 43.58010 121.63647
#
# Poissons Ratio (x) = 0.02614 0.50967
# Poissons Ratio (y) = 0.08234 -0.01812
# Poissons Ratio (z) = 0.57516 -0.00649
#
# Static dielectric constant tensor:
#      x y z
#    x 1.806250 0.000000 -0.024400 
#    y 0.000000 1.858420 0.000000 
#    z -0.024400 0.000000 1.795500 
# 
# From -- ./inp_files/55763.got.cif
#   From: 2010.05.17/outbox.cif.g08.bks.cpg/sg11_28_cif.got.tgz:55763.got - 2010.06.03 12:22:45.
