data_PCOD9160315
_publ_section_title
;
Structure prediction by ZEFSAII (Michael W. Deem and Ramdas Pophale) SiO2 
 PCOD9160315
Probable space group: P 21/M
;
_chemical_formula_sum "Si O2"
_cell_formula_units_Z 32
_cell_length_a 24.665634
_cell_length_b 7.639266
_cell_length_c 24.361602
_cell_angle_alpha 90.000000
_cell_angle_beta 161.009400
_cell_angle_gamma 90.000000
_cell_volume 1493.773307
_symmetry_space_group_name_H-M "P 21/M"
_symmetry_group_IT_number 11
_symmetry_cell_setting 'monoclinic'
loop_
_space_group_symop_operation_xyz
x,y,z
-x,1/2+y,-z
-x,-y,-z
x,1/2-y,z
loop_
_atom_site_type_symbol
_atom_site_label
_atom_site_fract_x
_atom_site_fract_y
_atom_site_fract_z
Si Si1 0.456528 0.042789 0.395709
Si Si2 0.190124 0.043731 0.616435
Si Si3 0.366697 0.455192 0.543560
Si Si4 0.457675 0.535553 0.088198
Si Si5 0.994645 0.533882 0.817070
Si Si6 0.075736 0.549402 0.014118
Si Si7 0.657566 0.464272 0.901318
Si Si8 0.181969 0.962723 0.736335
O O1 0.451852 0.250000 0.385293
O O2 0.500000 0.000000 0.500000
O O3 0.586198 0.971414 0.475411
O O4 0.274175 0.971020 0.206941
O O5 0.184597 0.250000 0.598282
O O6 0.354828 0.972639 0.744681
O O7 0.004433 0.974841 0.425819
O O8 0.213495 0.021857 0.704245
O O9 0.359229 0.250000 0.550023
O O10 0.517867 0.527495 0.724489
O O11 0.181861 0.526424 0.375680
O O12 0.460584 0.750000 0.089725
O O13 0.392926 0.483152 0.085931
O O14 0.326859 0.480140 0.916188
O O15 0.993884 0.750000 0.816120
O O16 0.011096 0.467588 0.895679
O O17 0.158993 0.479597 0.941696
O O18 0.031264 0.750000 0.965643
O O19 0.000000 0.500000 0.000000
O O20 0.659438 0.250000 0.901556
O O21 0.179454 0.750000 0.733537
#
# Coordination Sequence:
#
# PCOD9160315 Si02
#       8
#     4   4   4   4   4   4   4   4
#     4  12  24  38  57  82 111 143 180 225 277 333
#     4   9  17  29  46  71 101 134 173 217 262 311
#     4  10  19  35  58  80 106 139 175 217 269 327
#     4   9  17  28  46  73 104 134 172 217 262 310
#     4   9  18  32  53  79 105 135 171 212 263 320
#     4  11  21  36  56  83 116 145 179 223 271 329
#     4   9  17  31  51  78 107 136 172 221 268 316
#     4   9  17  29  46  70 101 135 171 216 263 311
#
# _framework density 21.422260000000001
#
# number of rings (size 3 to 8) (size 9 to 14) (size 15 to 20)
#    0.000    2.250    1.250    2.625    0.000    2.000 
#    0.000    5.625    0.000    1.500    0.000    1.750 
#    0.000    0.000    0.000    0.000    0.000    0.000 
#
# Total GULP energy -178673.288220 kJ/mol
# GULP energy per Si atom -5583.540257 kJ/mol
# Density = 2.137350 g / cm^3
# Si number density = 21.422260 Si / 1000 Ang^3
#
#
#
# Elastic Constant Matrix: (Units=GPa)
#
#
# Indices 1 2 3 4 5 6 
#
# 1 99.8168 -13.5287 27.1196 0.0000 44.7022 0.0000
# 2 -13.5287 39.2032 -3.3092 0.0000 4.6308 0.0000
# 3 27.1196 -3.3092 130.7148 0.0000 41.9757 0.0000
# 4 0.0000 0.0000 0.0000 4.6731 0.0000 -2.0996
# 5 44.7022 4.6308 41.9757 0.0000 33.5520 0.0000
# 6 0.0000 0.0000 0.0000 -2.0996 0.0000 12.5660
#
#
#
# Elastic Compliance Matrix: (Units=1/GPa)
#
#
# Indices 1 2 3 4 5 6 
#
# 1 0.064600 0.039705 0.028417 0.000000 -0.127100 0.000000
# 2 0.039705 0.051067 0.020570 0.000000 -0.085682 0.000000
# 3 0.028417 0.020570 0.025650 0.000000 -0.072790 0.000000
# 4 0.000000 0.000000 0.000000 0.231359 0.000000 0.038657
# 5 -0.127100 -0.085682 -0.072790 0.000000 0.302033 0.000000
# 6 0.000000 0.000000 0.000000 0.038657 0.000000 0.086039
#
#
# Mechanical properties :
#
#
# Convention : Reuss Voigt Hill
#
# Bulk Modulus (GPa) = 3.13774 32.25534 17.69654
# Shear Modulus (GPa) = 7.25061 27.45509 17.35285
#
# Velocity S-wave (km/s) = 1.84173 3.58385 2.84920
# Velocity P-wave (km/s) = 2.44755 5.67582 4.37066
#
# Compressibility (1/GPa) = 0.31870106
#
# Stress axis : x y z
#
# Youngs Moduli (GPa) = 15.47998 19.58198 38.98675
#
# Poissons Ratio (x) = -0.77750 -1.10790
# Poissons Ratio (y) = -0.61463 -0.80195
# Poissons Ratio (z) = -0.43990 -0.40280
#
# Static dielectric constant tensor:
#      x y z
#    x 1.747710 0.000000 0.001820 
#    y 0.000000 1.804510 0.000000 
#    z 0.001820 0.000000 1.771090 
# 
# From -- ./inp_files/70036.got.cif
#   From: 2010.05.17/outbox.cif.g08.bks.cpg/sg11_36_cif.got.tgz:70036.got - 2010.06.03 12:22:45.
