data_PCOD9160589
_publ_section_title
;
Structure prediction by ZEFSAII (Michael W. Deem and Ramdas Pophale) SiO2 
 PCOD9160589
Probable space group: P 21/M
;
_chemical_formula_sum "Si O2"
_cell_formula_units_Z 32
_cell_length_a 12.073239
_cell_length_b 17.457406
_cell_length_c 12.553778
_cell_angle_alpha 90.000000
_cell_angle_beta 143.520722
_cell_angle_gamma 90.000000
_cell_volume 1573.088672
_symmetry_space_group_name_H-M "P 21/M"
_symmetry_group_IT_number 11
_symmetry_cell_setting 'monoclinic'
loop_
_space_group_symop_operation_xyz
x,y,z
-x,1/2+y,-z
-x,-y,-z
x,1/2-y,z
loop_
_atom_site_type_symbol
_atom_site_label
_atom_site_fract_x
_atom_site_fract_y
_atom_site_fract_z
Si Si1 0.308748 0.614049 0.710579
Si Si2 0.022720 0.942183 0.668240
Si Si3 0.100558 0.602611 0.174557
Si Si4 0.918832 0.584137 0.813867
Si Si5 0.020094 0.374052 0.691575
Si Si6 0.593051 0.947785 0.278967
Si Si7 0.584163 0.668228 0.089939
Si Si8 0.503679 0.916694 0.447236
O O1 0.166132 0.587610 0.692967
O O2 0.173709 0.647746 0.515821
O O3 0.410969 0.538404 0.744581
O O4 0.461897 0.663236 0.888832
O O5 0.035600 0.905693 0.795554
O O6 0.811387 0.928334 0.466076
O O7 0.041186 0.033933 0.691475
O O8 0.094047 0.509165 0.183819
O O9 0.997273 0.638200 0.195804
O O10 0.318046 0.624988 0.342454
O O11 0.008379 0.617344 0.989325
O O12 0.708687 0.614322 0.633114
O O13 0.200748 0.338528 0.777669
O O14 0.531270 0.900468 0.128486
O O15 0.491450 0.927969 0.310301
O O16 0.552552 0.750000 0.119574
O O17 0.500000 0.000000 0.500000
#
# Coordination Sequence:
#
# PCOD9160589 Si02
#       8
#     4   4   4   4   4   4   4   4
#     4  11  20  35  59  85 112 147 193 236 291 340
#     4   9  16  32  57  86 114 142 180 230 293 339
#     4   9  17  28  48  76 109 148 173 213 285 332
#     4   8  16  26  43  80 118 138 167 220 277 341
#     4  10  20  37  56  80 116 147 184 237 282 339
#     4  10  19  36  59  87 120 150 186 246 295 343
#     4  12  26  38  53  83 115 155 196 234 293 351
#     4   9  17  29  49  84 120 141 173 229 286 341
#
# _framework density 20.342147000000001
#
# number of rings (size 3 to 8) (size 9 to 14) (size 15 to 20)
#    0.000    2.250    2.500    3.375    1.750    4.500 
#    0.000    0.000    0.000    0.750    0.000    7.000 
#    0.000    0.000    0.000    0.000    0.000    0.000 
#
# Total GULP energy -178575.156937 kJ/mol
# GULP energy per Si atom -5580.473654 kJ/mol
# Density = 2.029585 g / cm^3
# Si number density = 20.342147 Si / 1000 Ang^3
#
#
#
# Elastic Constant Matrix: (Units=GPa)
#
#
# Indices 1 2 3 4 5 6 
#
# 1 67.0063 -0.7663 7.4614 0.0000 -17.4069 0.0000
# 2 -0.7663 15.8948 15.7802 0.0000 0.5490 0.0000
# 3 7.4614 15.7802 81.7225 0.0000 -24.7057 0.0000
# 4 0.0000 0.0000 0.0000 -13.9165 0.0000 3.8180
# 5 -17.4069 0.5490 -24.7057 0.0000 31.3331 0.0000
# 6 0.0000 0.0000 0.0000 3.8180 0.0000 -1.2490
#
#
#
# Elastic Compliance Matrix: (Units=1/GPa)
#
#
# Indices 1 2 3 4 5 6 
#
# 1 0.017672 -0.001773 0.002240 0.000000 0.011615 0.000000
# 2 -0.001773 0.085927 -0.022561 0.000000 -0.020280 0.000000
# 3 0.002240 -0.022561 0.022168 0.000000 0.019119 0.000000
# 4 0.000000 0.000000 0.000000 -0.445360 0.000000 -1.361424
# 5 0.011615 -0.020280 0.019119 0.000000 0.053798 0.000000
# 6 0.000000 0.000000 0.000000 -1.361424 0.000000 -4.962415
#
#
# Mechanical properties :
#
#
# Convention : Reuss Voigt Hill
#
# Bulk Modulus (GPa) = 12.25809 23.28602 17.77206
# Shear Modulus (GPa) = -0.96959 12.71006 5.87024
#
# Velocity S-wave (km/s) = -0.69114 2.50234 1.70059
# Velocity P-wave (km/s) = 2.32425 4.45207 3.55128
#
# Compressibility (1/GPa) = 0.08157875
#
# Stress axis : x y z
#
# Youngs Moduli (GPa) = 56.58817 11.63783 45.10924
#
# Poissons Ratio (x) = 0.02064 -0.10106
# Poissons Ratio (y) = 0.10035 1.01770
# Poissons Ratio (z) = -0.12677 0.26256
#
# Static dielectric constant tensor:
#      x y z
#    x 1.705580 0.000000 0.001700 
#    y 0.000000 1.615680 0.000000 
#    z 0.001700 0.000000 1.749100 
# 
# From -- ./inp_files/36361.got.cif
#   From: 2010.05.17/outbox.cif.g08.bks.cpg/sg11_19_cif.got.tgz:36361.got - 2010.06.03 12:22:45.
