data_PCOD9160576
_publ_section_title
;
Structure prediction by ZEFSAII (Michael W. Deem and Ramdas Pophale) SiO2 
 PCOD9160576
Probable space group: P 21/M
;
_chemical_formula_sum "Si O2"
_cell_formula_units_Z 32
_cell_length_a 22.691215
_cell_length_b 8.097338
_cell_length_c 29.312562
_cell_angle_alpha 90.000000
_cell_angle_beta 162.281773
_cell_angle_gamma 90.000000
_cell_volume 1639.106901
_symmetry_space_group_name_H-M "P 21/M"
_symmetry_group_IT_number 11
_symmetry_cell_setting 'monoclinic'
loop_
_space_group_symop_operation_xyz
x,y,z
-x,1/2+y,-z
-x,-y,-z
x,1/2-y,z
loop_
_atom_site_type_symbol
_atom_site_label
_atom_site_fract_x
_atom_site_fract_y
_atom_site_fract_z
Si Si1 0.305060 0.448697 0.218278
Si Si2 0.222041 0.050876 0.666575
Si Si3 0.459703 0.053098 0.752952
Si Si4 0.303910 0.549639 0.541229
Si Si5 0.893660 0.945788 0.087022
Si Si6 0.513016 0.447008 0.957315
Si Si7 0.911704 0.949880 0.203492
Si Si8 0.954042 0.050707 0.894056
O O1 0.304364 0.250000 0.216208
O O2 0.515708 0.504802 0.357349
O O3 0.233333 0.500922 0.215255
O O4 0.140627 0.507867 0.061171
O O5 0.227627 0.250000 0.670885
O O6 0.340923 0.995137 0.709652
O O7 0.334944 0.990190 0.794825
O O8 0.000000 0.000000 0.500000
O O9 0.487054 0.250000 0.776453
O O10 0.345774 0.011714 0.622921
O O11 0.670773 0.971387 0.908310
O O12 0.304232 0.750000 0.542462
O O13 0.099349 0.494246 0.370049
O O14 0.931452 0.750000 0.117778
O O15 0.919319 0.013475 0.156954
O O16 0.023711 0.011530 0.141227
O O17 0.506178 0.250000 0.951226
O O18 0.712906 0.500777 0.081163
O O19 0.500000 0.500000 0.000000
O O20 0.915885 0.750000 0.205189
O O21 0.962618 0.250000 0.899415
#
# Coordination Sequence:
#
# PCOD9160576 Si02
#       8
#     4   4   4   4   4   4   4   4
#     4   9  17  31  50  76 111 147 183 230 282 329
#     4  10  24  42  60  86 117 148 185 233 281 331
#     4  11  22  37  58  86 114 145 189 237 283 328
#     4  10  21  38  57  83 116 150 190 234 281 338
#     4  10  19  36  59  84 111 148 191 232 280 336
#     4  11  24  43  62  85 118 152 189 231 279 337
#     4  10  22  39  62  86 112 151 192 230 282 339
#     4   9  17  30  51  78 109 145 186 230 279 332
#
# _framework density 19.522825999999998
#
# number of rings (size 3 to 8) (size 9 to 14) (size 15 to 20)
#    0.000    2.000    2.500    0.750    1.750    3.500 
#    0.000    0.625    0.000    0.000    0.000    0.000 
#    0.000    0.000    0.000    0.000    0.000    0.000 
#
# Total GULP energy -178654.697418 kJ/mol
# GULP energy per Si atom -5582.959294 kJ/mol
# Density = 1.947839 g / cm^3
# Si number density = 19.522826 Si / 1000 Ang^3
#
#
#
# Elastic Constant Matrix: (Units=GPa)
#
#
# Indices 1 2 3 4 5 6 
#
# 1 182.6571 9.8116 65.9174 0.0000 -13.8807 0.0000
# 2 9.8116 9.8543 2.4163 0.0000 -0.1724 0.0000
# 3 65.9174 2.4163 110.1637 0.0000 -13.8165 0.0000
# 4 0.0000 0.0000 0.0000 15.7015 0.0000 3.5169
# 5 -13.8807 -0.1724 -13.8165 0.0000 29.6719 0.0000
# 6 0.0000 0.0000 0.0000 3.5169 0.0000 28.0347
#
#
#
# Elastic Compliance Matrix: (Units=1/GPa)
#
#
# Indices 1 2 3 4 5 6 
#
# 1 0.007413 -0.006347 -0.004106 0.000000 0.001519 0.000000
# 2 -0.006347 0.107469 0.001218 0.000000 -0.001778 0.000000
# 3 -0.004106 0.001218 0.011966 0.000000 0.003658 0.000000
# 4 0.000000 0.000000 0.000000 0.065529 0.000000 -0.008221
# 5 0.001519 -0.001778 0.003658 0.000000 0.036106 0.000000
# 6 0.000000 0.000000 0.000000 -0.008221 0.000000 0.036701
#
#
# Mechanical properties :
#
#
# Convention : Reuss Voigt Hill
#
# Bulk Modulus (GPa) = 9.22699 50.99619 30.11159
# Shear Modulus (GPa) = 15.63569 29.65030 22.64299
#
# Velocity S-wave (km/s) = 2.83308 3.90134 3.40931
# Velocity P-wave (km/s) = 3.92916 6.81704 5.56373
#
# Compressibility (1/GPa) = 0.10837767
#
# Stress axis : x y z
#
# Youngs Moduli (GPa) = 134.90102 9.30499 83.56839
#
# Poissons Ratio (x) = 0.05906 0.34312
# Poissons Ratio (y) = 0.85628 -0.10178
# Poissons Ratio (z) = 0.55388 -0.01133
#
# Static dielectric constant tensor:
#      x y z
#    x 1.866910 0.000000 -0.108590 
#    y 0.000000 1.697820 0.000000 
#    z -0.108590 0.000000 1.711380 
# 
# From -- ./inp_files/72137.got.cif
#   From: 2010.05.17/outbox.cif.g08.bks.cpg/sg11_37_cif.got.tgz:72137.got - 2010.06.03 12:22:45.
