data_PCOD9160122
_publ_section_title
;
Structure prediction by ZEFSAII (Michael W. Deem and Ramdas Pophale) SiO2 
 PCOD9160122
Probable space group: P 21/M
;
_chemical_formula_sum "Si O2"
_cell_formula_units_Z 20
_cell_length_a 7.210668
_cell_length_b 16.556834
_cell_length_c 9.358801
_cell_angle_alpha 90.000000
_cell_angle_beta 132.807400
_cell_angle_gamma 90.000000
_cell_volume 819.704380
_symmetry_space_group_name_H-M "P 21/M"
_symmetry_group_IT_number 11
_symmetry_cell_setting 'monoclinic'
loop_
_space_group_symop_operation_xyz
x,y,z
-x,1/2+y,-z
-x,-y,-z
x,1/2-y,z
loop_
_atom_site_type_symbol
_atom_site_label
_atom_site_fract_x
_atom_site_fract_y
_atom_site_fract_z
Si Si1 0.998182 0.841435 0.616609
Si Si2 0.635417 0.984386 0.723134
Si Si3 0.203463 0.979297 0.912198
Si Si4 0.083691 0.156640 0.766356
Si Si5 0.480573 0.840616 0.524747
O O1 0.086009 0.750000 0.698090
O O2 0.963836 0.847534 0.428934
O O3 0.715343 0.849127 0.538391
O O4 0.174043 0.911506 0.775579
O O5 0.528053 0.894993 0.687780
O O6 0.500000 0.000000 0.500000
O O7 0.612078 0.034510 0.855579
O O8 0.924927 0.975409 0.834093
O O9 0.229874 0.073754 0.881455
O O10 0.169047 0.250000 0.843023
O O11 0.800145 0.146074 0.686162
O O12 0.479898 0.750000 0.574992
#
# Coordination Sequence:
#
# PCOD9160122 Si02
#       5
#     4   4   4   4   4
#     4   9  19  35  57  85 119 151 190 239 285 346
#     4  10  19  35  56  84 115 144 198 242 279 348
#     4  10  20  34  58  86 113 155 192 237 294 338
#     4  10  19  34  59  87 116 151 191 236 286 346
#     4   9  18  34  57  79 110 156 189 230 292 336
#
# _framework density 24.399042000000001
#
# number of rings (size 3 to 8) (size 9 to 14) (size 15 to 20)
#    0.000    2.400    2.000    0.600    0.000    0.800 
#    0.000    5.000    0.000    0.000    0.000    0.000 
#    0.000    0.000    0.000    0.000    0.000    0.000 
#
# Total GULP energy -111378.926022 kJ/mol
# GULP energy per Si atom -5568.946301 kJ/mol
# Density = 2.434351 g / cm^3
# Si number density = 24.399042 Si / 1000 Ang^3
#
#
#
# Elastic Constant Matrix: (Units=GPa)
#
#
# Indices 1 2 3 4 5 6 
#
# 1 93.2757 2.5251 16.5441 0.0000 1.9657 0.0000
# 2 2.5251 155.6868 69.1181 0.0000 -17.2045 0.0000
# 3 16.5441 69.1181 121.0447 0.0000 -12.5295 0.0000
# 4 0.0000 0.0000 0.0000 14.6473 0.0000 -16.0169
# 5 1.9657 -17.2045 -12.5295 0.0000 15.8584 0.0000
# 6 0.0000 0.0000 0.0000 -16.0169 0.0000 17.7145
#
#
#
# Elastic Compliance Matrix: (Units=1/GPa)
#
#
# Indices 1 2 3 4 5 6 
#
# 1 0.011122 0.000446 -0.002034 0.000000 -0.002502 0.000000
# 2 0.000446 0.009168 -0.004653 0.000000 0.006215 0.000000
# 3 -0.002034 -0.004653 0.011653 0.000000 0.004411 0.000000
# 4 0.000000 0.000000 0.000000 6.046034 0.000000 5.466631
# 5 -0.002502 0.006215 0.004411 0.000000 0.073596 0.000000
# 6 0.000000 0.000000 0.000000 5.466631 0.000000 4.999205
#
#
# Mechanical properties :
#
#
# Convention : Reuss Voigt Hill
#
# Bulk Modulus (GPa) = 51.38153 60.70911 56.04532
# Shear Modulus (GPa) = 0.44764 28.43203 14.43984
#
# Velocity S-wave (km/s) = 0.42879 3.41734 2.43537
# Velocity P-wave (km/s) = 4.62057 6.36449 5.56131
#
# Compressibility (1/GPa) = 0.01946225
#
# Stress axis : x y z
#
# Youngs Moduli (GPa) = 89.90964 109.06981 85.81583
#
# Poissons Ratio (x) = -0.04866 0.17454
# Poissons Ratio (y) = -0.04011 0.39929
# Poissons Ratio (z) = 0.18286 0.50749
#
# Static dielectric constant tensor:
#      x y z
#    x 2.027590 0.000000 -0.032050 
#    y 0.000000 2.302220 0.000000 
#    z -0.032050 0.000000 1.969710 
# 
# From -- ./inp_files/13616.got.cif
#   From: 2010.05.17/outbox.cif.g08.bks.cpg/sg11_7_cif.got.tgz:13616.got - 2010.06.03 12:22:45.
