data_PCOD9160664
_publ_section_title
;
Structure prediction by ZEFSAII (Michael W. Deem and Ramdas Pophale) SiO2 
 PCOD9160664
Probable space group: P 21/M
;
_chemical_formula_sum "Si O2"
_cell_formula_units_Z 32
_cell_length_a 5.238027
_cell_length_b 32.243784
_cell_length_c 10.329072
_cell_angle_alpha 90.000000
_cell_angle_beta 89.428608
_cell_angle_gamma 90.000000
_cell_volume 1744.429587
_symmetry_space_group_name_H-M "P 21/M"
_symmetry_group_IT_number 11
_symmetry_cell_setting 'monoclinic'
loop_
_space_group_symop_operation_xyz
x,y,z
-x,1/2+y,-z
-x,-y,-z
x,1/2-y,z
loop_
_atom_site_type_symbol
_atom_site_label
_atom_site_fract_x
_atom_site_fract_y
_atom_site_fract_z
Si Si1 0.536322 0.296350 0.414973
Si Si2 0.463820 0.107406 0.885988
Si Si3 0.962665 0.465371 0.246062
Si Si4 0.958135 0.114692 0.055520
Si Si5 0.531931 0.011052 0.847834
Si Si6 0.468239 0.624825 0.394715
Si Si7 0.040290 0.171962 0.289340
Si Si8 0.035275 0.092463 0.480812
O O1 0.515889 0.250000 0.469334
O O2 0.529164 0.332601 0.522706
O O3 0.302230 0.304990 0.319152
O O4 0.799085 0.301599 0.335893
O O5 0.684509 0.117299 0.988213
O O6 0.509043 0.060214 0.840312
O O7 0.493412 0.133917 0.756083
O O8 0.186818 0.110667 0.951978
O O9 0.696208 0.488817 0.228100
O O10 0.000610 0.447479 0.390178
O O11 0.197712 0.494318 0.203581
O O12 0.961185 0.426235 0.146786
O O13 0.009987 0.154187 0.146099
O O14 0.500000 0.000000 0.000000
O O15 0.203924 0.601193 0.425196
O O16 0.700404 0.596156 0.444156
O O17 0.038604 0.131082 0.380628
#
# Coordination Sequence:
#
# PCOD9160664 Si02
#       8
#     4   4   4   4   4   4   4   4
#     4  10  19  36  62  85 106 134 170 219 264 315
#     4  12  23  34  54  77 113 152 184 224 271 323
#     4  11  20  35  55  77 102 140 190 241 287 304
#     4  11  20  35  55  80 107 142 177 225 275 320
#     4  12  21  34  50  79 109 139 196 239 273 326
#     4  10  21  38  53  81 109 141 184 215 260 340
#     4   9  19  33  57  87 107 130 175 220 266 320
#     4   9  19  36  56  73 107 143 180 231 272 312
#
# _framework density 18.344104999999999
#
# number of rings (size 3 to 8) (size 9 to 14) (size 15 to 20)
#    0.000    1.500    2.500    3.750    0.000    4.000 
#    0.000    3.750    0.000    4.500    0.000    0.000 
#    0.000    0.000    0.000    0.000    0.000    0.000 
#
# Total GULP energy -178769.960538 kJ/mol
# GULP energy per Si atom -5586.561267 kJ/mol
# Density = 1.830235 g / cm^3
# Si number density = 18.344105 Si / 1000 Ang^3
#
#
#
# Elastic Constant Matrix: (Units=GPa)
#
#
# Indices 1 2 3 4 5 6 
#
# 1 48.3085 -3.7339 -21.7422 0.0000 9.2865 0.0000
# 2 -3.7339 52.1672 8.7349 0.0000 6.1522 0.0000
# 3 -21.7422 8.7349 36.1319 0.0000 -3.0750 0.0000
# 4 0.0000 0.0000 0.0000 81.7464 0.0000 166.5814
# 5 9.2865 6.1522 -3.0750 0.0000 10.2584 0.0000
# 6 0.0000 0.0000 0.0000 166.5814 0.0000 426.7183
#
#
#
# Elastic Compliance Matrix: (Units=1/GPa)
#
#
# Indices 1 2 3 4 5 6 
#
# 1 0.034006 0.002708 0.017497 0.000000 -0.027164 0.000000
# 2 0.002708 0.022291 -0.005239 0.000000 -0.017390 0.000000
# 3 0.017497 -0.005239 0.039396 0.000000 -0.000888 0.000000
# 4 0.000000 0.000000 0.000000 0.059821 0.000000 -0.023353
# 5 -0.027164 -0.017390 -0.000888 0.000000 0.132234 0.000000
# 6 0.000000 0.000000 0.000000 -0.023353 0.000000 0.011460
#
#
# Mechanical properties :
#
#
# Convention : Reuss Voigt Hill
#
# Bulk Modulus (GPa) = 7.96031 11.45836 9.70934
# Shear Modulus (GPa) = 16.06930 113.96786 65.01858
#
# Velocity S-wave (km/s) = 2.96293 7.89067 5.95993
# Velocity P-wave (km/s) = 4.00676 9.44864 7.25710
#
# Compressibility (1/GPa) = 0.12562319
#
# Stress axis : x y z
#
# Youngs Moduli (GPa) = 29.40646 44.86102 25.38331
#
# Poissons Ratio (x) = -0.12147 -0.44412
# Poissons Ratio (y) = -0.07963 0.13299
# Poissons Ratio (z) = -0.51452 0.23505
#
# Static dielectric constant tensor:
#      x y z
#    x 1.614850 0.000000 0.006450 
#    y 0.000000 1.627000 0.000000 
#    z 0.006450 0.000000 1.645450 
# 
# From -- ./inp_files/10849.got.cif
#   From: 2010.05.17/outbox.cif.g08.bks.cpg/sg11_6_cif.got.tgz:10849.got - 2010.06.03 12:22:45.
