data_PCOD9160052
_publ_section_title
;
Structure prediction by ZEFSAII (Michael W. Deem and Ramdas Pophale) SiO2 
 PCOD9160052
Probable space group: P 21/M
;
_chemical_formula_sum "Si O2"
_cell_formula_units_Z 32
_cell_length_a 20.639284
_cell_length_b 8.674566
_cell_length_c 26.636241
_cell_angle_alpha 90.000000
_cell_angle_beta 158.911914
_cell_angle_gamma 90.000000
_cell_volume 1715.852142
_symmetry_space_group_name_H-M "P 21/M"
_symmetry_group_IT_number 11
_symmetry_cell_setting 'monoclinic'
loop_
_space_group_symop_operation_xyz
x,y,z
-x,1/2+y,-z
-x,-y,-z
x,1/2-y,z
loop_
_atom_site_type_symbol
_atom_site_label
_atom_site_fract_x
_atom_site_fract_y
_atom_site_fract_z
Si Si1 0.313808 0.434159 0.843555
Si Si2 0.801365 0.435495 0.346971
Si Si3 0.546057 0.065327 0.611052
Si Si4 0.499140 0.935580 0.790214
Si Si5 0.207696 0.432323 0.293096
Si Si6 0.983248 0.434816 0.295896
Si Si7 0.879183 0.566324 0.112734
Si Si8 0.399605 0.064136 0.611402
O O1 0.322551 0.250000 0.848238
O O2 0.276487 0.500287 0.761330
O O3 0.151332 0.487158 0.762122
O O4 0.500000 0.500000 0.000000
O O5 0.806949 0.250000 0.348557
O O6 0.669386 0.481664 0.296969
O O7 0.000000 0.500000 0.500000
O O8 0.575158 0.250000 0.631243
O O9 0.363863 0.035947 0.447322
O O10 0.508519 0.013630 0.640627
O O11 0.707589 0.983946 0.698448
O O12 0.498914 0.750000 0.786529
O O13 0.479817 0.003486 0.720997
O O14 0.684157 0.981502 0.951148
O O15 0.171964 0.250000 0.267750
O O16 0.031240 0.522905 0.182259
O O17 0.971975 0.250000 0.292980
O O18 0.927219 0.482539 0.199329
O O19 0.190175 0.482903 0.454846
O O20 0.877767 0.750000 0.120419
O O21 0.401836 0.250000 0.612979
#
# Coordination Sequence:
#
# PCOD9160052 Si02
#       8
#     4   4   4   4   4   4   4   4
#     4  12  25  41  61  89 120 156 199 248 305 364
#     4  11  23  42  64  88 120 159 203 253 302 361
#     4   9  18  35  56  85 120 151 190 241 293 347
#     4  10  24  41  58  83 118 155 197 242 288 349
#     4  10  19  34  57  87 119 152 194 242 293 349
#     4  11  22  39  62  90 119 150 194 248 298 356
#     4  11  22  38  59  86 120 160 199 242 296 351
#     4  10  21  38  60  87 118 151 191 241 294 346
#
# _framework density 18.649625
#
# number of rings (size 3 to 8) (size 9 to 14) (size 15 to 20)
#    0.000    1.500    1.250    4.125    0.000    7.000 
#    0.000    0.625    0.000    0.000    0.000    0.000 
#    0.000    0.000    0.000    0.000    0.000    0.000 
#
# Total GULP energy -178893.694487 kJ/mol
# GULP energy per Si atom -5590.427953 kJ/mol
# Density = 1.860718 g / cm^3
# Si number density = 18.649625 Si / 1000 Ang^3
#
#
#
# Elastic Constant Matrix: (Units=GPa)
#
#
# Indices 1 2 3 4 5 6 
#
# 1 100.6086 11.6507 4.5210 0.0000 -3.8806 0.0000
# 2 11.6507 43.1199 7.6943 0.0000 -1.3719 0.0000
# 3 4.5210 7.6943 35.3016 0.0000 -17.5298 0.0000
# 4 0.0000 0.0000 0.0000 27.4829 0.0000 -2.8978
# 5 -3.8806 -1.3719 -17.5298 0.0000 27.9631 0.0000
# 6 0.0000 0.0000 0.0000 -2.8978 0.0000 36.3011
#
#
#
# Elastic Compliance Matrix: (Units=1/GPa)
#
#
# Indices 1 2 3 4 5 6 
#
# 1 0.010308 -0.002725 -0.000119 0.000000 0.001222 0.000000
# 2 -0.002725 0.025033 -0.006803 0.000000 -0.003415 0.000000
# 3 -0.000119 -0.006803 0.043054 0.000000 0.026640 0.000000
# 4 0.000000 0.000000 0.000000 0.036695 0.000000 0.002929
# 5 0.001222 -0.003415 0.026640 0.000000 0.052464 0.000000
# 6 0.000000 0.000000 0.000000 0.002929 0.000000 0.027781
#
#
# Mechanical properties :
#
#
# Convention : Reuss Voigt Hill
#
# Bulk Modulus (GPa) = 16.92039 25.19578 21.05808
# Shear Modulus (GPa) = 21.33762 28.69370 25.01566
#
# Velocity S-wave (km/s) = 3.38617 3.92671 3.66642
# Velocity P-wave (km/s) = 4.93768 5.83936 5.40735
#
# Compressibility (1/GPa) = 0.05910028
#
# Stress axis : x y z
#
# Youngs Moduli (GPa) = 97.01632 39.94790 23.22672
#
# Poissons Ratio (x) = 0.10885 0.00277
# Poissons Ratio (y) = 0.26436 0.15800
# Poissons Ratio (z) = 0.01158 0.27175
#
# Static dielectric constant tensor:
#      x y z
#    x 1.628000 0.000000 0.008170 
#    y 0.000000 1.627710 0.000000 
#    z 0.008170 0.000000 1.616090 
# 
# From -- ./inp_files/72174.got.cif
#   From: 2010.05.17/outbox.cif.g08.bks.cpg/sg11_37_cif.got.tgz:72174.got - 2010.06.03 12:22:45.
