data_PCOD9160175
_publ_section_title
;
Structure prediction by ZEFSAII (Michael W. Deem and Ramdas Pophale) SiO2 
 PCOD9160175
Probable space group: P 21/M
;
_chemical_formula_sum "Si O2"
_cell_formula_units_Z 22
_cell_length_a 14.722907
_cell_length_b 8.402211
_cell_length_c 6.903592
_cell_angle_alpha 90.000000
_cell_angle_beta 80.033688
_cell_angle_gamma 90.000000
_cell_volume 841.121387
_symmetry_space_group_name_H-M "P 21/M"
_symmetry_group_IT_number 11
_symmetry_cell_setting 'monoclinic'
loop_
_space_group_symop_operation_xyz
x,y,z
-x,1/2+y,-z
-x,-y,-z
x,1/2-y,z
loop_
_atom_site_type_symbol
_atom_site_label
_atom_site_fract_x
_atom_site_fract_y
_atom_site_fract_z
Si Si1 0.561551 0.750000 0.496193
Si Si2 0.928600 0.941039 0.752341
Si Si3 0.322145 0.476146 0.808780
Si Si4 0.268894 0.433982 0.269769
Si Si5 0.880655 0.058335 0.203286
Si Si6 0.609633 0.250000 0.688262
Si Si7 0.542138 0.250000 0.112234
O O1 0.615128 0.609639 0.372789
O O2 0.454007 0.750000 0.475557
O O3 0.550772 0.750000 0.731647
O O4 0.929238 0.750000 0.733643
O O5 0.836906 0.996716 0.675434
O O6 0.034756 0.998656 0.690112
O O7 0.905947 0.988670 0.982968
O O8 0.226701 0.515441 0.733605
O O9 0.392826 0.606040 0.858194
O O10 0.289700 0.411962 0.031033
O O11 0.269435 0.250000 0.352085
O O12 0.331897 0.586630 0.310025
O O13 0.884288 0.250000 0.194671
O O14 0.531662 0.250000 0.886729
#
# Coordination Sequence:
#
# PCOD9160175 Si02
#       7
#     2   4   4   4   4   2   2
#     4  12  24  40  57  87 117 149 208 252 295 358
#     4   8  15  24  44  76 112 145 184 233 287 349
#     4  10  19  35  53  79 116 150 190 245 298 343
#     4   9  17  34  54  83 122 155 193 249 295 352
#     4   9  15  26  45  75 111 149 184 228 293 356
#     4  10  24  40  63  87 117 165 200 246 309 350
#     4  10  22  40  62  80 110 158 198 252 300 350
#
# _framework density 26.155557999999999
#
# number of rings (size 3 to 8) (size 9 to 14) (size 15 to 20)
#    0.000    2.545    1.818    0.545    5.091    2.909 
#    1.636    0.000    0.000    0.000    0.000    1.273 
#    0.000   12.000    0.000    0.545    0.000    0.000 
#
# Total GULP energy -122771.067294 kJ/mol
# GULP energy per Si atom -5580.503059 kJ/mol
# Density = 2.609603 g / cm^3
# Si number density = 26.155558 Si / 1000 Ang^3
#
#
#
# Elastic Constant Matrix: (Units=GPa)
#
#
# Indices 1 2 3 4 5 6 
#
# 1 224.8304 57.6269 30.2417 0.0000 -1.9602 0.0000
# 2 57.6269 124.4884 14.1872 0.0000 0.8697 0.0000
# 3 30.2417 14.1872 101.2777 0.0000 -15.8556 0.0000
# 4 0.0000 0.0000 0.0000 9.4715 0.0000 2.0379
# 5 -1.9602 0.8697 -15.8556 0.0000 52.0983 0.0000
# 6 0.0000 0.0000 0.0000 2.0379 0.0000 33.4504
#
#
#
# Elastic Compliance Matrix: (Units=1/GPa)
#
#
# Indices 1 2 3 4 5 6 
#
# 1 0.005195 -0.002260 -0.001258 0.000000 -0.000150 0.000000
# 2 -0.002260 0.009160 -0.000678 0.000000 -0.000444 0.000000
# 3 -0.001258 -0.000678 0.010856 0.000000 0.003268 0.000000
# 4 0.000000 0.000000 0.000000 0.106982 0.000000 -0.006518
# 5 -0.000150 -0.000444 0.003268 0.000000 0.020191 0.000000
# 6 0.000000 0.000000 0.000000 -0.006518 0.000000 0.030292
#
#
# Mechanical properties :
#
#
# Convention : Reuss Voigt Hill
#
# Bulk Modulus (GPa) = 59.45867 72.74535 66.10201
# Shear Modulus (GPa) = 25.42281 42.24010 33.83146
#
# Velocity S-wave (km/s) = 3.12105 4.02301 3.60039
# Velocity P-wave (km/s) = 5.98080 7.03224 6.52773
#
# Compressibility (1/GPa) = 0.01681841
#
# Stress axis : x y z
#
# Youngs Moduli (GPa) = 192.48945 109.17518 92.11467
#
# Poissons Ratio (x) = 0.24678 0.11588
# Poissons Ratio (y) = 0.43511 0.06242
# Poissons Ratio (z) = 0.24216 0.07398
#
# Static dielectric constant tensor:
#      x y z
#    x 2.061630 0.000000 0.043580 
#    y 0.000000 2.081250 0.000000 
#    z 0.043580 0.000000 2.091040 
# 
# From -- ./inp_files/20429.got.cif
#   From: 2010.05.17/outbox.cif.g08.bks.cpg/sg11_11_cif.got.tgz:20429.got - 2010.06.03 12:22:45.
