data_PCOD9160549
_publ_section_title
;
Structure prediction by ZEFSAII (Michael W. Deem and Ramdas Pophale) SiO2 
 PCOD9160549
Probable space group: P 21/M
;
_chemical_formula_sum "Si O2"
_cell_formula_units_Z 32
_cell_length_a 31.708474
_cell_length_b 7.745011
_cell_length_c 12.534922
_cell_angle_alpha 90.000000
_cell_angle_beta 151.115345
_cell_angle_gamma 90.000000
_cell_volume 1486.993990
_symmetry_space_group_name_H-M "P 21/M"
_symmetry_group_IT_number 11
_symmetry_cell_setting 'monoclinic'
loop_
_space_group_symop_operation_xyz
x,y,z
-x,1/2+y,-z
-x,-y,-z
x,1/2-y,z
loop_
_atom_site_type_symbol
_atom_site_label
_atom_site_fract_x
_atom_site_fract_y
_atom_site_fract_z
Si Si1 0.974359 0.452086 0.128496
Si Si2 0.214462 0.048195 0.331130
Si Si3 0.326395 0.461670 0.378388
Si Si4 0.305758 0.550985 0.745604
Si Si5 0.082025 0.550284 0.752010
Si Si6 0.164064 0.449631 0.596316
Si Si7 0.243819 0.444113 0.990591
Si Si8 0.495653 0.957767 0.115336
O O1 0.977028 0.250000 0.103473
O O2 0.946225 0.470325 0.189323
O O3 0.073361 0.523756 0.347464
O O4 0.889701 0.529565 0.882945
O O5 0.236484 0.250000 0.386792
O O6 0.250802 0.986500 0.296187
O O7 0.267203 0.955845 0.541069
O O8 0.325206 0.250000 0.370650
O O9 0.312694 0.524323 0.226368
O O10 0.417981 0.517737 0.632221
O O11 0.308251 0.750000 0.787002
O O12 0.238512 0.455132 0.672934
O O13 0.403753 0.478757 0.958935
O O14 0.105854 0.750000 0.787393
O O15 0.000000 0.500000 0.500000
O O16 0.161064 0.436546 0.886285
O O17 0.141053 0.250000 0.573261
O O18 0.205494 0.525864 0.797097
O O19 0.273822 0.250000 0.028090
O O20 0.494027 0.750000 0.119917
O O21 0.500000 0.000000 0.000000
#
# Coordination Sequence:
#
# PCOD9160549 Si02
#       8
#     4   4   4   4   4   4   4   4
#     4  10  21  36  54  82 118 152 191 239 286 333
#     4  11  21  35  60  88 115 149 189 234 289 349
#     4   9  18  33  58  90 118 143 179 230 290 346
#     4  11  24  40  59  83 116 152 191 239 288 339
#     4  11  20  31  51  80 114 149 190 237 281 331
#     4  10  22  40  59  78 112 160 201 233 274 339
#     4  10  19  36  58  84 115 150 192 236 285 335
#     4  10  20  37  61  89 116 145 182 233 290 346
#
# _framework density 21.519925000000001
#
# number of rings (size 3 to 8) (size 9 to 14) (size 15 to 20)
#    0.000    1.750    3.750    1.125    0.000    2.500 
#    0.000    1.250    0.000    0.000    0.000    0.000 
#    0.000    0.000    0.000    0.000    0.000    0.000 
#
# Total GULP energy -178527.804254 kJ/mol
# GULP energy per Si atom -5578.993883 kJ/mol
# Density = 2.147094 g / cm^3
# Si number density = 21.519925 Si / 1000 Ang^3
#
#
#
# Elastic Constant Matrix: (Units=GPa)
#
#
# Indices 1 2 3 4 5 6 
#
# 1 59.8510 2.2151 29.3517 0.0000 19.6686 0.0000
# 2 2.2151 32.4268 -6.4573 0.0000 4.2751 0.0000
# 3 29.3517 -6.4573 153.8455 0.0000 19.5182 0.0000
# 4 0.0000 0.0000 0.0000 2.8929 0.0000 -1.7545
# 5 19.6686 4.2751 19.5182 0.0000 29.1164 0.0000
# 6 0.0000 0.0000 0.0000 -1.7545 0.0000 15.5039
#
#
#
# Elastic Compliance Matrix: (Units=1/GPa)
#
#
# Indices 1 2 3 4 5 6 
#
# 1 0.022370 -0.000286 -0.002588 0.000000 -0.013334 0.000000
# 2 -0.000286 0.032074 0.002157 0.000000 -0.005963 0.000000
# 3 -0.002588 0.002157 0.007544 0.000000 -0.003626 0.000000
# 4 0.000000 0.000000 0.000000 0.371142 0.000000 0.042000
# 5 -0.013334 -0.005963 -0.003626 0.000000 0.046658 0.000000
# 6 0.000000 0.000000 0.000000 0.042000 0.000000 0.069253
#
#
# Mechanical properties :
#
#
# Convention : Reuss Voigt Hill
#
# Bulk Modulus (GPa) = 16.51386 32.92691 24.72039
# Shear Modulus (GPa) = 8.76180 24.23692 16.49936
#
# Velocity S-wave (km/s) = 2.01998 3.35961 2.77194
# Velocity P-wave (km/s) = 3.62365 5.51210 4.66444
#
# Compressibility (1/GPa) = 0.06055518
#
# Stress axis : x y z
#
# Youngs Moduli (GPa) = 44.70270 31.17801 132.54946
#
# Poissons Ratio (x) = 0.00890 0.34306
# Poissons Ratio (y) = 0.01276 -0.28593
# Poissons Ratio (z) = 0.11570 -0.06726
#
# Static dielectric constant tensor:
#      x y z
#    x 1.738160 0.000000 -0.014310 
#    y 0.000000 1.812130 0.000000 
#    z -0.014310 0.000000 1.842730 
# 
# From -- ./inp_files/45276.got.cif
#   From: 2010.05.17/outbox.cif.g08.bks.cpg/sg11_23_cif.got.tgz:45276.got - 2010.06.03 12:22:45.
