data_PCOD9160049
_publ_section_title
;
Structure prediction by ZEFSAII (Michael W. Deem and Ramdas Pophale) SiO2 
 PCOD9160049
Probable space group: P 21/M
;
_chemical_formula_sum "Si O2"
_cell_formula_units_Z 28
_cell_length_a 29.760347
_cell_length_b 8.588293
_cell_length_c 9.223334
_cell_angle_alpha 90.000000
_cell_angle_beta 140.896104
_cell_angle_gamma 90.000000
_cell_volume 1486.877832
_symmetry_space_group_name_H-M "P 21/M"
_symmetry_group_IT_number 11
_symmetry_cell_setting 'monoclinic'
loop_
_space_group_symop_operation_xyz
x,y,z
-x,1/2+y,-z
-x,-y,-z
x,1/2-y,z
loop_
_atom_site_type_symbol
_atom_site_label
_atom_site_fract_x
_atom_site_fract_y
_atom_site_fract_z
Si Si1 0.068785 0.437839 0.588894
Si Si2 0.499226 0.437244 0.334152
Si Si3 0.655187 0.437592 0.722748
Si Si4 0.069649 0.062720 0.255288
Si Si5 0.343163 0.437665 0.943261
Si Si6 0.207363 0.564373 0.433466
Si Si7 0.789434 0.562835 0.883768
O O1 0.066654 0.250000 0.585961
O O2 0.068805 0.487499 0.421303
O O3 0.000000 0.500000 0.500000
O O4 0.141222 0.487070 0.850595
O O5 0.500000 0.500000 0.500000
O O6 0.498721 0.250000 0.336634
O O7 0.576352 0.484038 0.465711
O O8 0.421854 0.484824 0.080701
O O9 0.658768 0.250000 0.737996
O O10 0.718499 0.501812 0.783837
O O11 0.661982 0.503682 0.903320
O O12 0.069661 0.250000 0.250581
O O13 0.140158 0.001157 0.353532
O O14 0.000000 0.000000 0.000000
O O15 0.337918 0.250000 0.929648
O O16 0.279579 0.508042 0.691339
O O17 0.204468 0.750000 0.425204
O O18 0.205015 0.501176 0.264331
O O19 0.787871 0.750000 0.876328
#
# Coordination Sequence:
#
# PCOD9160049 Si02
#       7
#     4   4   4   4   4   4   4
#     4  10  23  40  61  86 114 146 185 228 274 329
#     4   8  16  30  52  81 113 146 186 234 285 339
#     4  10  19  34  57  87 117 148 189 239 288 342
#     4  11  23  41  63  90 120 152 189 232 282 343
#     4  10  19  35  58  84 114 152 193 236 287 347
#     4  12  25  40  58  84 115 151 194 244 294 343
#     4  11  23  40  59  82 113 153 194 237 289 347
#
# _framework density 18.831405
#
# number of rings (size 3 to 8) (size 9 to 14) (size 15 to 20)
#    0.000    1.714    0.000    4.714    0.000    6.857 
#    0.000    0.714    0.000    0.000    0.000    0.000 
#    0.000    0.000    0.000    0.000    0.000    0.000 
#
# Total GULP energy -156376.877844 kJ/mol
# GULP energy per Si atom -5584.888494 kJ/mol
# Density = 1.878854 g / cm^3
# Si number density = 18.831405 Si / 1000 Ang^3
#
#
#
# Elastic Constant Matrix: (Units=GPa)
#
#
# Indices 1 2 3 4 5 6 
#
# 1 176.8802 45.8924 117.1666 0.0000 19.4639 0.0000
# 2 45.8924 65.7179 48.6697 0.0000 5.6716 0.0000
# 3 117.1666 48.6697 190.0654 0.0000 23.4698 0.0000
# 4 0.0000 0.0000 0.0000 31.2469 0.0000 0.7909
# 5 19.4639 5.6716 23.4698 0.0000 38.8547 0.0000
# 6 0.0000 0.0000 0.0000 0.7909 0.0000 30.8741
#
#
#
# Elastic Compliance Matrix: (Units=1/GPa)
#
#
# Indices 1 2 3 4 5 6 
#
# 1 0.010082 -0.003017 -0.005266 0.000000 -0.001429 0.000000
# 2 -0.003017 0.019682 -0.003255 0.000000 0.000604 0.000000
# 3 -0.005266 -0.003255 0.009678 0.000000 -0.002733 0.000000
# 4 0.000000 0.000000 0.000000 0.032024 0.000000 -0.000820
# 5 -0.001429 0.000604 -0.002733 0.000000 0.028016 0.000000
# 6 0.000000 0.000000 0.000000 -0.000820 0.000000 0.032411
#
#
# Mechanical properties :
#
#
# Convention : Reuss Voigt Hill
#
# Bulk Modulus (GPa) = 61.09987 95.12454 78.11220
# Shear Modulus (GPa) = 31.16767 34.92411 33.04589
#
# Velocity S-wave (km/s) = 4.07269 4.31114 4.19361
# Velocity P-wave (km/s) = 7.39134 8.68359 8.06339
#
# Compressibility (1/GPa) = 0.01636665
#
# Stress axis : x y z
#
# Youngs Moduli (GPa) = 99.18887 50.80886 103.32292
#
# Poissons Ratio (x) = 0.15330 0.54408
# Poissons Ratio (y) = 0.29927 0.33627
# Poissons Ratio (z) = 0.52232 0.16536
#
# Static dielectric constant tensor:
#      x y z
#    x 1.624020 0.000000 0.022290 
#    y 0.000000 1.632220 0.000000 
#    z 0.022290 0.000000 1.652180 
# 
# From -- ./inp_files/28532.got.cif
#   From: 2010.05.17/outbox.cif.g08.bks.cpg/sg11_15_cif.got.tgz:28532.got - 2010.06.03 12:22:45.
