data_PCOD9160808
_publ_section_title
;
Structure prediction by ZEFSAII (Michael W. Deem and Ramdas Pophale) SiO2 
 PCOD9160808
Probable space group: P 21/M
;
_chemical_formula_sum "Si O2"
_cell_formula_units_Z 32
_cell_length_a 21.584604
_cell_length_b 8.311079
_cell_length_c 27.832936
_cell_angle_alpha 90.000000
_cell_angle_beta 162.992706
_cell_angle_gamma 90.000000
_cell_volume 1460.416238
_symmetry_space_group_name_H-M "P 21/M"
_symmetry_group_IT_number 11
_symmetry_cell_setting 'monoclinic'
loop_
_space_group_symop_operation_xyz
x,y,z
-x,1/2+y,-z
-x,-y,-z
x,1/2-y,z
loop_
_atom_site_type_symbol
_atom_site_label
_atom_site_fract_x
_atom_site_fract_y
_atom_site_fract_z
Si Si1 0.203822 0.941258 0.120072
Si Si2 0.459474 0.060250 0.395008
Si Si3 0.898186 0.558704 0.617672
Si Si4 0.519822 0.068742 0.867770
Si Si5 0.055288 0.074938 0.824452
Si Si6 0.376073 0.059664 0.954610
Si Si7 0.501972 0.946013 0.256853
Si Si8 0.174296 0.428124 0.269926
O O1 0.182095 0.750000 0.100870
O O2 0.293853 0.995776 0.134095
O O3 0.399485 0.990620 0.299472
O O4 0.000000 0.000000 0.000000
O O5 0.522297 0.250000 0.441317
O O6 0.244839 0.054770 0.268037
O O7 0.617077 0.949106 0.542349
O O8 0.879775 0.750000 0.612275
O O9 0.879905 0.462058 0.654315
O O10 0.715178 0.512620 0.444478
O O11 0.139182 0.517328 0.779994
O O12 0.435784 0.250000 0.808183
O O13 0.471837 0.996745 0.779189
O O14 0.491952 0.983510 0.898712
O O15 0.774848 0.064217 0.054973
O O16 0.148747 0.250000 0.884310
O O17 0.970232 0.063073 0.814672
O O18 0.349892 0.250000 0.932705
O O19 0.500000 0.000000 0.000000
O O20 0.490328 0.750000 0.245085
O O21 0.084843 0.250000 0.210503
#
# Coordination Sequence:
#
# PCOD9160808 Si02
#       8
#     4   4   4   4   4   4   4   4
#     4  11  23  39  56  79 112 157 206 255 306 364
#     4  10  21  36  52  74 101 134 182 240 303 366
#     4  10  19  37  63  91 119 160 204 246 301 362
#     4  10  20  38  61  88 119 159 199 244 298 353
#     4  11  21  33  52  82 113 146 194 246 293 353
#     4  11  22  40  65  98 131 162 196 239 287 353
#     4   9  21  39  61  85 118 158 205 253 304 366
#     4  10  20  34  53  74 101 138 180 238 302 361
#
# _framework density 21.911560999999999
#
# number of rings (size 3 to 8) (size 9 to 14) (size 15 to 20)
#    0.000    1.750    0.000    6.375    1.750    2.500 
#    0.000    6.875    0.000    0.000    0.000    0.000 
#    0.000    0.000    0.000    0.000    0.000    0.000 
#
# Total GULP energy -178373.500773 kJ/mol
# GULP energy per Si atom -5574.171899 kJ/mol
# Density = 2.186169 g / cm^3
# Si number density = 21.911561 Si / 1000 Ang^3
#
#
#
# Elastic Constant Matrix: (Units=GPa)
#
#
# Indices 1 2 3 4 5 6 
#
# 1 156.2952 33.7350 45.1961 0.0000 -20.3484 0.0000
# 2 33.7350 71.5172 6.2848 0.0000 -3.2233 0.0000
# 3 45.1961 6.2848 79.8461 0.0000 -26.8713 0.0000
# 4 0.0000 0.0000 0.0000 17.3845 0.0000 -0.1337
# 5 -20.3484 -3.2233 -26.8713 0.0000 43.3541 0.0000
# 6 0.0000 0.0000 0.0000 -0.1337 0.0000 24.4606
#
#
#
# Elastic Compliance Matrix: (Units=1/GPa)
#
#
# Indices 1 2 3 4 5 6 
#
# 1 0.008528 -0.003606 -0.004153 0.000000 0.001161 0.000000
# 2 -0.003606 0.015612 0.000800 0.000000 -0.000036 0.000000
# 3 -0.004153 0.000800 0.017912 0.000000 0.009212 0.000000
# 4 0.000000 0.000000 0.000000 0.057525 0.000000 0.000315
# 5 0.001161 -0.000036 0.009212 0.000000 0.029318 0.000000
# 6 0.000000 0.000000 0.000000 0.000315 0.000000 0.040884
#
#
# Mechanical properties :
#
#
# Convention : Reuss Voigt Hill
#
# Bulk Modulus (GPa) = 35.54278 53.12115 44.33197
# Shear Modulus (GPa) = 25.89678 31.86936 28.88307
#
# Velocity S-wave (km/s) = 3.44157 3.81787 3.63459
# Velocity P-wave (km/s) = 5.66117 6.61293 6.15547
#
# Compressibility (1/GPa) = 0.02813511
#
# Stress axis : x y z
#
# Youngs Moduli (GPa) = 117.25478 64.05529 55.82779
#
# Poissons Ratio (x) = 0.23096 0.23185
# Poissons Ratio (y) = 0.42278 -0.04467
# Poissons Ratio (z) = 0.48696 -0.05125
#
# Static dielectric constant tensor:
#      x y z
#    x 1.880010 0.000000 0.000530 
#    y 0.000000 1.864590 0.000000 
#    z 0.000530 0.000000 1.868720 
# 
# From -- ./inp_files/72113.got.cif
#   From: 2010.05.17/outbox.cif.g08.bks.cpg/sg11_37_cif.got.tgz:72113.got - 2010.06.03 12:22:45.
