data_PCOD9160724
_publ_section_title
;
Structure prediction by ZEFSAII (Michael W. Deem and Ramdas Pophale) SiO2 
 PCOD9160724
Probable space group: P 21/M
;
_chemical_formula_sum "Si O2"
_cell_formula_units_Z 20
_cell_length_a 15.759549
_cell_length_b 10.183798
_cell_length_c 8.735013
_cell_angle_alpha 90.000000
_cell_angle_beta 135.944159
_cell_angle_gamma 90.000000
_cell_volume 974.824126
_symmetry_space_group_name_H-M "P 21/M"
_symmetry_group_IT_number 11
_symmetry_cell_setting 'monoclinic'
loop_
_space_group_symop_operation_xyz
x,y,z
-x,1/2+y,-z
-x,-y,-z
x,1/2-y,z
loop_
_atom_site_type_symbol
_atom_site_label
_atom_site_fract_x
_atom_site_fract_y
_atom_site_fract_z
Si Si1 0.818229 0.899310 0.741950
Si Si2 0.354193 0.402433 0.946823
Si Si3 0.855925 0.111196 0.295159
Si Si4 0.558968 0.901419 0.296324
Si Si5 0.988557 0.972214 0.226670
O O1 0.823764 0.750000 0.690257
O O2 0.676313 0.936002 0.552006
O O3 0.899916 0.989948 0.738840
O O4 0.883547 0.905665 0.990381
O O5 0.345085 0.250000 0.983223
O O6 0.454285 0.489081 0.167279
O O7 0.230125 0.485078 0.799314
O O8 0.393340 0.402713 0.818383
O O9 0.787634 0.250000 0.215933
O O10 0.926699 0.096943 0.227573
O O11 0.954149 0.106501 0.558590
O O12 0.520910 0.750000 0.279891
#
# Coordination Sequence:
#
# PCOD9160724 Si02
#       5
#     4   4   4   4   4
#     4  10  19  37  59  84 115 150 188 235 287 339
#     4  10  20  35  57  84 114 148 191 239 283 336
#     4  11  22  37  58  86 119 155 191 233 281 340
#     4   9  18  35  58  83 112 147 187 236 287 338
#     4  10  22  36  56  86 117 153 191 231 281 342
#
# _framework density 20.516522999999999
#
# number of rings (size 3 to 8) (size 9 to 14) (size 15 to 20)
#    0.000    2.000    2.000    1.800    0.000    4.800 
#    0.000    3.000    0.000    0.000    0.000    0.000 
#    0.000    0.000    0.000    0.000    0.000    0.000 
#
# Total GULP energy -111569.305722 kJ/mol
# GULP energy per Si atom -5578.465286 kJ/mol
# Density = 2.046983 g / cm^3
# Si number density = 20.516523 Si / 1000 Ang^3
#
#
#
# Elastic Constant Matrix: (Units=GPa)
#
#
# Indices 1 2 3 4 5 6 
#
# 1 29.0910 30.4598 29.7346 0.0000 10.5322 0.0000
# 2 30.4598 144.1058 47.4394 0.0000 25.2112 0.0000
# 3 29.7346 47.4394 123.1357 0.0000 38.2380 0.0000
# 4 0.0000 0.0000 0.0000 11.0639 0.0000 8.5930
# 5 10.5322 25.2112 38.2380 0.0000 30.1315 0.0000
# 6 0.0000 0.0000 0.0000 8.5930 0.0000 14.3870
#
#
#
# Elastic Compliance Matrix: (Units=1/GPa)
#
#
# Indices 1 2 3 4 5 6 
#
# 1 0.052533 -0.008006 -0.009868 0.000000 0.000859 0.000000
# 2 -0.008006 0.009566 -0.000224 0.000000 -0.004922 0.000000
# 3 -0.009868 -0.000224 0.015614 0.000000 -0.016178 0.000000
# 4 0.000000 0.000000 0.000000 0.168592 0.000000 -0.100696
# 5 0.000859 -0.004922 -0.016178 0.000000 0.057537 0.000000
# 6 0.000000 0.000000 0.000000 -0.100696 0.000000 0.129650
#
#
# Mechanical properties :
#
#
# Convention : Reuss Voigt Hill
#
# Bulk Modulus (GPa) = 24.08589 56.84447 40.46518
# Shear Modulus (GPa) = 10.34070 23.69640 17.01855
#
# Velocity S-wave (km/s) = 2.24747 3.40220 2.88324
# Velocity P-wave (km/s) = 4.30117 6.57268 5.55429
#
# Compressibility (1/GPa) = 0.04151808
#
# Stress axis : x y z
#
# Youngs Moduli (GPa) = 19.03581 104.53388 64.04390
#
# Poissons Ratio (x) = 0.83686 0.63198
# Poissons Ratio (y) = 0.15239 0.01435
# Poissons Ratio (z) = 0.18784 0.02342
#
# Static dielectric constant tensor:
#      x y z
#    x 1.714870 0.000000 0.009730 
#    y 0.000000 1.780760 0.000000 
#    z 0.009730 0.000000 1.734940 
# 
# From -- ./inp_files/26004.got.cif
#   From: 2010.05.17/outbox.cif.g08.bks.cpg/sg11_14_cif.got.tgz:26004.got - 2010.06.03 12:22:45.
