data_PCOD9160365
_publ_section_title
;
Structure prediction by ZEFSAII (Michael W. Deem and Ramdas Pophale) SiO2 
 PCOD9160365
Probable space group: P 21/M
;
_chemical_formula_sum "Si O2"
_cell_formula_units_Z 28
_cell_length_a 9.752981
_cell_length_b 8.991549
_cell_length_c 27.697862
_cell_angle_alpha 90.000000
_cell_angle_beta 140.458363
_cell_angle_gamma 90.000000
_cell_volume 1546.362252
_symmetry_space_group_name_H-M "P 21/M"
_symmetry_group_IT_number 11
_symmetry_cell_setting 'monoclinic'
loop_
_space_group_symop_operation_xyz
x,y,z
-x,1/2+y,-z
-x,-y,-z
x,1/2-y,z
loop_
_atom_site_type_symbol
_atom_site_label
_atom_site_fract_x
_atom_site_fract_y
_atom_site_fract_z
Si Si1 0.833857 0.929521 0.493008
Si Si2 0.222965 0.920711 0.051576
Si Si3 0.001601 0.427036 0.799719
Si Si4 0.315307 0.071896 0.794930
Si Si5 0.948174 0.928048 0.634317
Si Si6 0.276524 0.578829 0.951347
Si Si7 0.363702 0.071037 0.362449
O O1 0.831936 0.750000 0.487970
O O2 0.900929 0.968218 0.566301
O O3 0.595441 0.995446 0.421134
O O4 0.000000 0.000000 0.500000
O O5 0.204077 0.750000 0.062563
O O6 0.439829 0.984130 0.134913
O O7 0.257494 0.921878 0.003597
O O8 0.000000 0.000000 0.000000
O O9 0.965901 0.250000 0.792646
O O10 0.192609 0.454445 0.812457
O O11 0.085136 0.492560 0.872577
O O12 0.794213 0.509751 0.721991
O O13 0.320226 0.250000 0.789719
O O14 0.166015 0.000104 0.713769
O O15 0.968367 0.750000 0.642620
O O16 0.755245 0.969736 0.619065
O O17 0.278680 0.750000 0.935164
O O18 0.500000 0.500000 0.000000
O O19 0.381235 0.250000 0.364882
#
# Coordination Sequence:
#
# PCOD9160365 Si02
#       7
#     4   4   4   4   4   4   4
#     4  11  23  40  59  84 118 154 189 230 281 338
#     4  10  22  39  55  80 114 151 192 236 282 336
#     4  10  19  35  58  87 117 147 187 236 285 334
#     4   9  18  35  57  82 114 146 186 235 281 332
#     4   9  20  37  60  88 113 143 188 234 281 336
#     4  11  21  36  58  84 115 150 192 238 285 335
#     4  10  20  37  61  89 116 146 187 234 283 338
#
# _framework density 18.107011
#
# number of rings (size 3 to 8) (size 9 to 14) (size 15 to 20)
#    0.000    2.000    1.429    2.143    0.000    4.000 
#    2.571    0.000    0.000    0.000    0.000    0.000 
#    0.000    0.000    0.000    0.000    0.000    0.000 
#
# Total GULP energy -156285.987029 kJ/mol
# GULP energy per Si atom -5581.642394 kJ/mol
# Density = 1.806580 g / cm^3
# Si number density = 18.107011 Si / 1000 Ang^3
#
#
#
# Elastic Constant Matrix: (Units=GPa)
#
#
# Indices 1 2 3 4 5 6 
#
# 1 69.0347 38.3805 64.0431 0.0000 26.8438 0.0000
# 2 38.3805 63.4983 51.5021 0.0000 12.8108 0.0000
# 3 64.0431 51.5021 157.4930 0.0000 26.3865 0.0000
# 4 0.0000 0.0000 0.0000 37.5146 0.0000 2.4247
# 5 26.8438 12.8108 26.3865 0.0000 29.2478 0.0000
# 6 0.0000 0.0000 0.0000 2.4247 0.0000 27.5585
#
#
#
# Elastic Compliance Matrix: (Units=1/GPa)
#
#
# Indices 1 2 3 4 5 6 
#
# 1 0.035951 -0.011519 -0.007268 0.000000 -0.021393 0.000000
# 2 -0.011519 0.025452 -0.004174 0.000000 0.003189 0.000000
# 3 -0.007268 -0.004174 0.010892 0.000000 -0.001328 0.000000
# 4 0.000000 0.000000 0.000000 0.026809 0.000000 -0.002359
# 5 -0.021393 0.003189 -0.001328 0.000000 0.053627 0.000000
# 6 0.000000 0.000000 0.000000 -0.002359 0.000000 0.036494
#
#
# Mechanical properties :
#
#
# Convention : Reuss Voigt Hill
#
# Bulk Modulus (GPa) = 37.91486 66.43080 52.17283
# Shear Modulus (GPa) = 20.49708 27.93754 24.21731
#
# Velocity S-wave (km/s) = 3.36817 3.93225 3.66109
# Velocity P-wave (km/s) = 6.00923 7.57525 6.83722
#
# Compressibility (1/GPa) = 0.02637488
#
# Stress axis : x y z
#
# Youngs Moduli (GPa) = 27.81594 39.28888 91.80859
#
# Poissons Ratio (x) = 0.45256 0.66726
# Poissons Ratio (y) = 0.32040 0.38317
# Poissons Ratio (z) = 0.20217 0.16397
#
# Static dielectric constant tensor:
#      x y z
#    x 1.593590 0.000000 -0.011300 
#    y 0.000000 1.613280 0.000000 
#    z -0.011300 0.000000 1.605390 
# 
# From -- ./inp_files/28135.got.cif
#   From: 2010.05.17/outbox.cif.g08.bks.cpg/sg11_15_cif.got.tgz:28135.got - 2010.06.03 12:22:45.
