data_PCOD9160896
_publ_section_title
;
Structure prediction by ZEFSAII (Michael W. Deem and Ramdas Pophale) SiO2 
 PCOD9160896
Probable space group: P 21/M
;
_chemical_formula_sum "Si O2"
_cell_formula_units_Z 32
_cell_length_a 9.583038
_cell_length_b 22.820120
_cell_length_c 14.327630
_cell_angle_alpha 90.000000
_cell_angle_beta 30.909959
_cell_angle_gamma 90.000000
_cell_volume 1609.522061
_symmetry_space_group_name_H-M "P 21/M"
_symmetry_group_IT_number 11
_symmetry_cell_setting 'monoclinic'
loop_
_space_group_symop_operation_xyz
x,y,z
-x,1/2+y,-z
-x,-y,-z
x,1/2-y,z
loop_
_atom_site_type_symbol
_atom_site_label
_atom_site_fract_x
_atom_site_fract_y
_atom_site_fract_z
Si Si1 0.583851 0.182978 0.912061
Si Si2 0.314475 0.475970 0.521683
Si Si3 0.943092 0.937847 0.625194
Si Si4 0.556129 0.406381 0.764097
Si Si5 0.583094 0.816695 0.320961
Si Si6 0.037904 0.616421 0.164797
Si Si7 0.993743 0.813181 0.680781
Si Si8 0.608475 0.028465 0.151877
O O1 0.683044 0.250000 0.842905
O O2 0.627198 0.137411 0.805121
O O3 0.722394 0.152352 0.921859
O O4 0.256863 0.186431 0.105984
O O5 0.500000 0.500000 0.500000
O O6 0.500933 0.465360 0.321293
O O7 0.088491 0.524551 0.622336
O O8 0.143813 0.420534 0.657050
O O9 0.642525 0.954947 0.771426
O O10 0.162973 0.941088 0.416512
O O11 0.943923 0.869228 0.647051
O O12 0.465601 0.364898 0.731080
O O13 0.340619 0.459274 0.896906
O O14 0.613601 0.750000 0.267938
O O15 0.300619 0.818075 0.541738
O O16 0.839083 0.836809 0.232071
O O17 0.153162 0.570967 0.020776
O O18 0.981832 0.750000 0.637083
#
# Coordination Sequence:
#
# PCOD9160896 Si02
#       8
#     4   4   4   4   4   4   4   4
#     4  11  22  38  64  96 123 157 215 265 305 369
#     4  11  24  40  62  92 131 163 205 256 313 375
#     4  10  19  39  60  89 127 161 201 256 311 371
#     4  10  21  37  64  91 121 165 208 252 309 373
#     4  10  22  43  63  84 123 167 207 254 317 373
#     4  12  24  41  65  95 126 166 204 262 323 364
#     4   9  19  36  60  85 116 163 207 248 301 370
#     4  11  23  40  61  96 129 162 206 255 313 379
#
# _framework density 19.881678000000001
#
# number of rings (size 3 to 8) (size 9 to 14) (size 15 to 20)
#    0.000    1.500    1.250    6.000    1.750    3.500 
#    2.250    0.000    0.000    1.500    0.000    0.000 
#    0.000    0.000    0.000    0.000    0.000    0.000 
#
# Total GULP energy -178310.181248 kJ/mol
# GULP energy per Si atom -5572.193164 kJ/mol
# Density = 1.983643 g / cm^3
# Si number density = 19.881678 Si / 1000 Ang^3
#
#
#
# Elastic Constant Matrix: (Units=GPa)
#
#
# Indices 1 2 3 4 5 6 
#
# 1 80.8422 11.4738 28.2910 0.0000 -10.9955 0.0000
# 2 11.4738 113.4086 27.3705 0.0000 2.8097 0.0000
# 3 28.2910 27.3705 52.2919 0.0000 -11.3647 0.0000
# 4 0.0000 0.0000 0.0000 -277.1772 0.0000 57.0733
# 5 -10.9955 2.8097 -11.3647 0.0000 22.4554 0.0000
# 6 0.0000 0.0000 0.0000 57.0733 0.0000 11.1441
#
#
#
# Elastic Compliance Matrix: (Units=1/GPa)
#
#
# Indices 1 2 3 4 5 6 
#
# 1 0.015541 0.000197 -0.007711 0.000000 0.003683 0.000000
# 2 0.000197 0.010502 -0.006593 0.000000 -0.004554 0.000000
# 3 -0.007711 -0.006593 0.029331 0.000000 0.011894 0.000000
# 4 0.000000 0.000000 0.000000 -0.001756 0.000000 0.008993
# 5 0.003683 -0.004554 0.011894 0.000000 0.052925 0.000000
# 6 0.000000 0.000000 0.000000 0.008993 0.000000 0.043676
#
#
# Mechanical properties :
#
#
# Convention : Reuss Voigt Hill
#
# Bulk Modulus (GPa) = 36.81877 42.31261 39.56569
# Shear Modulus (GPa) = 26.66854 -36.75504 -5.04325
#
# Velocity S-wave (km/s) = 3.66644 -4.30430 -1.59441
# Velocity P-wave (km/s) = 6.04010 1.83692 4.06869
#
# Compressibility (1/GPa) = 0.02716006
#
# Stress axis : x y z
#
# Youngs Moduli (GPa) = 64.34523 95.22154 34.09326
#
# Poissons Ratio (x) = -0.01880 0.26290
# Poissons Ratio (y) = -0.01271 0.22479
# Poissons Ratio (z) = 0.49617 0.62784
#
# Static dielectric constant tensor:
#      x y z
#    x 1.773400 0.000000 -0.009280 
#    y 0.000000 1.744480 0.000000 
#    z -0.009280 0.000000 1.797070 
# 
# From -- ./inp_files/48435.got.cif
#   From: 2010.05.17/outbox.cif.g08.bks.cpg/sg11_25_cif.got.tgz:48435.got - 2010.06.03 12:22:45.
