data_PCOD9160341
_publ_section_title
;
Structure prediction by ZEFSAII (Michael W. Deem and Ramdas Pophale) SiO2 
 PCOD9160341
Probable space group: P 21/M
;
_chemical_formula_sum "Si O2"
_cell_formula_units_Z 32
_cell_length_a 15.437046
_cell_length_b 11.841995
_cell_length_c 18.339179
_cell_angle_alpha 90.000000
_cell_angle_beta 28.246259
_cell_angle_gamma 90.000000
_cell_volume 1586.611997
_symmetry_space_group_name_H-M "P 21/M"
_symmetry_group_IT_number 11
_symmetry_cell_setting 'monoclinic'
loop_
_space_group_symop_operation_xyz
x,y,z
-x,1/2+y,-z
-x,-y,-z
x,1/2-y,z
loop_
_atom_site_type_symbol
_atom_site_label
_atom_site_fract_x
_atom_site_fract_y
_atom_site_fract_z
Si Si1 0.692714 0.442504 0.873457
Si Si2 0.200031 0.554927 0.358714
Si Si3 0.044071 0.119292 0.078918
Si Si4 0.687248 0.123867 0.569334
Si Si5 0.056892 0.117280 0.235344
Si Si6 0.479748 0.629218 0.856489
Si Si7 0.346150 0.960936 0.807232
Si Si8 0.390801 0.615121 0.611775
O O1 0.759014 0.386578 0.749364
O O2 0.827927 0.543153 0.795108
O O3 0.500000 0.500000 0.000000
O O4 0.657602 0.374486 0.973172
O O5 0.226464 0.623523 0.413476
O O6 0.360275 0.461512 0.250084
O O7 0.000000 0.500000 0.500000
O O8 0.075644 0.250000 0.032319
O O9 0.120849 0.106469 0.104647
O O10 0.825518 0.103507 0.246447
O O11 0.154120 0.028300 0.949925
O O12 0.643762 0.250000 0.578699
O O13 0.505589 0.053014 0.698387
O O14 0.847359 0.078912 0.398809
O O15 0.064365 0.250000 0.248471
O O16 0.573454 0.750000 0.784282
O O17 0.368995 0.610754 0.864012
O O18 0.388955 0.895638 0.701183
O O19 0.500000 0.500000 0.500000
O O20 0.442954 0.750000 0.554039
#
# Coordination Sequence:
#
# PCOD9160341 Si02
#       8
#     4   4   4   4   4   4   4   4
#     4  10  20  35  53  79 114 157 200 250 307 362
#     4  10  20  35  56  81 116 152 205 262 309 367
#     4  10  21  38  65  98 126 162 206 262 320 380
#     4  10  21  35  58  89 121 162 207 260 316 374
#     4  10  19  35  58  83 117 155 199 253 315 371
#     4  10  22  38  56  79 115 162 200 242 306 368
#     4  11  21  40  65  91 127 159 203 254 311 378
#     4  11  25  45  70  99 134 170 211 258 318 387
#
# _framework density 20.168762000000001
#
# number of rings (size 3 to 8) (size 9 to 14) (size 15 to 20)
#    0.000    1.750    2.500    1.875    0.000    5.000 
#    0.000    1.250    0.000    0.000    0.000    0.000 
#    0.000    0.000    0.000    0.000    0.000    0.000 
#
# Total GULP energy -178243.788081 kJ/mol
# GULP energy per Si atom -5570.118378 kJ/mol
# Density = 2.012286 g / cm^3
# Si number density = 20.168762 Si / 1000 Ang^3
#
#
#
# Elastic Constant Matrix: (Units=GPa)
#
#
# Indices 1 2 3 4 5 6 
#
# 1 95.9166 14.9972 18.9765 0.0000 14.0354 0.0000
# 2 14.9972 83.3968 33.8493 0.0000 -1.5626 0.0000
# 3 18.9765 33.8493 74.9521 0.0000 6.9665 0.0000
# 4 0.0000 0.0000 0.0000 20.0063 0.0000 -0.1645
# 5 14.0354 -1.5626 6.9665 0.0000 38.5481 0.0000
# 6 0.0000 0.0000 0.0000 -0.1645 0.0000 6.6424
#
#
#
# Elastic Compliance Matrix: (Units=1/GPa)
#
#
# Indices 1 2 3 4 5 6 
#
# 1 0.011601 -0.001366 -0.001955 0.000000 -0.003926 0.000000
# 2 -0.001366 0.014970 -0.006629 0.000000 0.002302 0.000000
# 3 -0.001955 -0.006629 0.017076 0.000000 -0.002643 0.000000
# 4 0.000000 0.000000 0.000000 0.049995 0.000000 0.001238
# 5 -0.003926 0.002302 -0.002643 0.000000 0.027942 0.000000
# 6 0.000000 0.000000 0.000000 0.001238 0.000000 0.150579
#
#
# Mechanical properties :
#
#
# Convention : Reuss Voigt Hill
#
# Bulk Modulus (GPa) = 42.11117 43.32351 42.71734
# Shear Modulus (GPa) = 16.66784 25.46884 21.06834
#
# Velocity S-wave (km/s) = 2.87787 3.55743 3.23554
# Velocity P-wave (km/s) = 5.65399 6.19684 5.93163
#
# Compressibility (1/GPa) = 0.02374667
#
# Stress axis : x y z
#
# Youngs Moduli (GPa) = 86.20226 66.79934 58.56100
#
# Poissons Ratio (x) = 0.09125 0.11450
# Poissons Ratio (y) = 0.11776 0.38819
# Poissons Ratio (z) = 0.16855 0.44280
#
# Static dielectric constant tensor:
#      x y z
#    x 1.733770 0.000000 0.054100 
#    y 0.000000 1.733090 0.000000 
#    z 0.054100 0.000000 1.725970 
# 
# From -- ./inp_files/53646.got.cif
#   From: 2010.05.17/outbox.cif.g08.bks.cpg/sg11_27_cif.got.tgz:53646.got - 2010.06.03 12:22:45.
