data_PCOD9160794
_publ_section_title
;
Structure prediction by ZEFSAII (Michael W. Deem and Ramdas Pophale) SiO2 
 PCOD9160794
Probable space group: P 21/M
;
_chemical_formula_sum "Si O2"
_cell_formula_units_Z 24
_cell_length_a 14.524389
_cell_length_b 11.149557
_cell_length_c 20.640986
_cell_angle_alpha 90.000000
_cell_angle_beta 22.052698
_cell_angle_gamma 90.000000
_cell_volume 1255.014350
_symmetry_space_group_name_H-M "P 21/M"
_symmetry_group_IT_number 11
_symmetry_cell_setting 'monoclinic'
loop_
_space_group_symop_operation_xyz
x,y,z
-x,1/2+y,-z
-x,-y,-z
x,1/2-y,z
loop_
_atom_site_type_symbol
_atom_site_label
_atom_site_fract_x
_atom_site_fract_y
_atom_site_fract_z
Si Si1 0.080555 0.968258 0.376168
Si Si2 0.405546 0.498550 0.988022
Si Si3 0.731598 0.750000 0.577525
Si Si4 0.546115 0.250000 0.377136
Si Si5 0.632114 0.250000 0.061271
Si Si6 0.425277 0.488737 0.623608
Si Si7 0.927445 0.107583 0.352372
Si Si8 0.194342 0.250000 0.735871
O O1 0.910190 0.862664 0.462857
O O2 0.366498 0.932583 0.194026
O O3 0.027492 0.074166 0.358814
O O4 0.000000 0.000000 0.500000
O O5 0.400223 0.630674 0.960690
O O6 0.500000 0.500000 0.000000
O O7 0.137942 0.439513 0.165581
O O8 0.591027 0.750000 0.601711
O O9 0.553247 0.750000 0.756652
O O10 0.680212 0.379301 0.291462
O O11 0.357845 0.250000 0.562121
O O12 0.910940 0.250000 0.903295
O O13 0.500000 0.500000 0.500000
O O14 0.672573 0.459512 0.502679
O O15 0.258530 0.370425 0.733799
O O16 0.894298 0.250000 0.367074
#
# Coordination Sequence:
#
# PCOD9160794 Si02
#       8
#     4   4   2   2   2   4   4   2
#     4  11  24  40  60  89 126 171 210 247 310 385
#     4  10  24  36  61  89 124 159 205 258 313 367
#     4  12  24  40  64  86 126 173 207 252 309 381
#     4  10  20  38  64  93 120 162 209 262 314 382
#     4  12  24  44  59  90 129 165 214 261 316 372
#     4  10  19  37  62  94 119 157 209 261 320 369
#     4  11  23  39  62  93 126 158 206 265 315 370
#     4  10  22  38  67  89 125 166 212 269 325 371
#
# _framework density 19.123287000000001
#
# number of rings (size 3 to 8) (size 9 to 14) (size 15 to 20)
#    0.000    1.333    4.167    2.000    9.333    0.000 
#    0.000    0.833    0.000    0.000    0.000    0.000 
#    0.000    0.000    0.000    0.000    0.000    0.000 
#
# Total GULP energy -133791.033759 kJ/mol
# GULP energy per Si atom -5574.626407 kJ/mol
# Density = 1.907976 g / cm^3
# Si number density = 19.123287 Si / 1000 Ang^3
#
#
#
# Elastic Constant Matrix: (Units=GPa)
#
#
# Indices 1 2 3 4 5 6 
#
# 1 73.0297 35.9118 14.3718 0.0000 -7.1486 0.0000
# 2 35.9118 152.6499 23.4023 0.0000 -3.5719 0.0000
# 3 14.3718 23.4023 76.2191 0.0000 -3.3971 0.0000
# 4 0.0000 0.0000 0.0000 23.4132 0.0000 -5.1015
# 5 -7.1486 -3.5719 -3.3971 0.0000 29.0963 0.0000
# 6 0.0000 0.0000 0.0000 -5.1015 0.0000 39.4206
#
#
#
# Elastic Compliance Matrix: (Units=1/GPa)
#
#
# Indices 1 2 3 4 5 6 
#
# 1 0.016059 -0.003420 -0.001830 0.000000 0.003312 0.000000
# 2 -0.003420 0.007613 -0.001697 0.000000 -0.000104 0.000000
# 3 -0.001830 -0.001697 0.014030 0.000000 0.000980 0.000000
# 4 0.000000 0.000000 0.000000 0.043950 0.000000 0.005688
# 5 0.003312 -0.000104 0.000980 0.000000 0.035284 0.000000
# 6 0.000000 0.000000 0.000000 0.005688 0.000000 0.026104
#
#
# Mechanical properties :
#
#
# Convention : Reuss Voigt Hill
#
# Bulk Modulus (GPa) = 42.00424 49.91895 45.96159
# Shear Modulus (GPa) = 30.32665 33.60019 31.96342
#
# Velocity S-wave (km/s) = 3.98659 4.19624 4.09276
# Velocity P-wave (km/s) = 6.57292 7.04545 6.81328
#
# Compressibility (1/GPa) = 0.02380712
#
# Stress axis : x y z
#
# Youngs Moduli (GPa) = 62.26961 131.34942 71.27555
#
# Poissons Ratio (x) = 0.44920 0.13047
# Poissons Ratio (y) = 0.21296 0.12098
# Poissons Ratio (z) = 0.11398 0.22295
#
# Static dielectric constant tensor:
#      x y z
#    x 1.669730 0.000000 -0.007160 
#    y 0.000000 1.682840 0.000000 
#    z -0.007160 0.000000 1.734480 
# 
# From -- ./inp_files/16998.got.cif
#   From: 2010.05.17/outbox.cif.g08.bks.cpg/sg11_9_cif.got.tgz:16998.got - 2010.06.03 12:22:45.
