data_PCOD9160280
_publ_section_title
;
Structure prediction by ZEFSAII (Michael W. Deem and Ramdas Pophale) SiO2 
 PCOD9160280
Probable space group: P 21/M
;
_chemical_formula_sum "Si O2"
_cell_formula_units_Z 32
_cell_length_a 13.450004
_cell_length_b 12.565786
_cell_length_c 16.979558
_cell_angle_alpha 90.000000
_cell_angle_beta 147.598787
_cell_angle_gamma 90.000000
_cell_volume 1537.720375
_symmetry_space_group_name_H-M "P 21/M"
_symmetry_group_IT_number 11
_symmetry_cell_setting 'monoclinic'
loop_
_space_group_symop_operation_xyz
x,y,z
-x,1/2+y,-z
-x,-y,-z
x,1/2-y,z
loop_
_atom_site_type_symbol
_atom_site_label
_atom_site_fract_x
_atom_site_fract_y
_atom_site_fract_z
Si Si1 0.967156 0.362486 0.173859
Si Si2 0.543746 0.423885 0.910496
Si Si3 0.719879 0.870150 0.412625
Si Si4 0.916746 0.040964 0.633428
Si Si5 0.546355 0.133940 0.450057
Si Si6 0.025377 0.630698 0.005793
Si Si7 0.416304 0.592705 0.339251
Si Si8 0.674512 0.630321 0.077525
O O1 0.030600 0.250000 0.251609
O O2 0.002765 0.362092 0.105883
O O3 0.062549 0.461356 0.278737
O O4 0.745699 0.372165 0.036202
O O5 0.414583 0.401786 0.749457
O O6 0.443955 0.380990 0.921939
O O7 0.589772 0.547540 0.958371
O O8 0.790622 0.750000 0.446743
O O9 0.592828 0.872283 0.406179
O O10 0.870638 0.962417 0.529730
O O11 0.743353 0.115742 0.538027
O O12 0.113841 0.098675 0.759898
O O13 0.471654 0.250000 0.381431
O O14 0.572701 0.124928 0.562032
O O15 0.419251 0.035995 0.339411
O O16 0.946604 0.750000 0.983329
O O17 0.236050 0.636558 0.176977
O O18 0.000000 0.500000 0.000000
O O19 0.668942 0.750000 0.044162
#
# Coordination Sequence:
#
# PCOD9160280 Si02
#       8
#     4   4   4   4   4   4   4   4
#     4  10  19  35  57  82 113 150 193 244 288 339
#     4  10  21  37  62  88 110 150 200 240 290 350
#     4  11  20  36  60  87 116 147 189 245 291 335
#     4  10  22  35  56  86 118 152 192 232 294 359
#     4  10  20  36  55  77 113 155 193 235 289 351
#     4  11  22  36  56  83 116 151 194 242 292 342
#     4  10  21  35  56  83 109 150 199 240 288 343
#     4  10  21  40  61  84 117 153 190 238 294 353
#
# _framework density 20.810025
#
# number of rings (size 3 to 8) (size 9 to 14) (size 15 to 20)
#    0.000    1.750    1.250    3.750    0.000    1.000 
#    0.000    9.375    0.000    0.000    0.000    0.000 
#    0.000    0.000    0.000    0.000    0.000    0.000 
#
# Total GULP energy -178448.225975 kJ/mol
# GULP energy per Si atom -5576.507062 kJ/mol
# Density = 2.076266 g / cm^3
# Si number density = 20.810025 Si / 1000 Ang^3
#
#
#
# Elastic Constant Matrix: (Units=GPa)
#
#
# Indices 1 2 3 4 5 6 
#
# 1 32.2773 14.6550 -6.8168 0.0000 3.7159 0.0000
# 2 14.6550 190.4691 19.8276 0.0000 3.3395 0.0000
# 3 -6.8168 19.8276 59.8353 0.0000 -8.7492 0.0000
# 4 0.0000 0.0000 0.0000 -9.7678 0.0000 -16.1272
# 5 3.7159 3.3395 -8.7492 0.0000 19.4143 0.0000
# 6 0.0000 0.0000 0.0000 -16.1272 0.0000 -6.1880
#
#
#
# Elastic Compliance Matrix: (Units=1/GPa)
#
#
# Indices 1 2 3 4 5 6 
#
# 1 0.033683 -0.002961 0.004229 0.000000 -0.004032 0.000000
# 2 -0.002961 0.005762 -0.002472 0.000000 -0.001538 0.000000
# 3 0.004229 -0.002472 0.019224 0.000000 0.008279 0.000000
# 4 0.000000 0.000000 0.000000 0.030995 0.000000 -0.080780
# 5 -0.004032 -0.001538 0.008279 0.000000 0.056276 0.000000
# 6 0.000000 0.000000 0.000000 -0.080780 0.000000 0.048926
#
#
# Mechanical properties :
#
#
# Convention : Reuss Voigt Hill
#
# Bulk Modulus (GPa) = 17.77398 37.54592 27.65995
# Shear Modulus (GPa) = 23.14515 17.68609 20.41562
#
# Velocity S-wave (km/s) = 3.33860 2.91844 3.13557
# Velocity P-wave (km/s) = 4.83955 5.42566 5.14097
#
# Compressibility (1/GPa) = 0.05626203
#
# Stress axis : x y z
#
# Youngs Moduli (GPa) = 29.68828 173.54135 52.01828
#
# Poissons Ratio (x) = 0.51389 -0.21999
# Poissons Ratio (y) = 0.08791 0.12858
# Poissons Ratio (z) = -0.12556 0.42895
#
# Static dielectric constant tensor:
#      x y z
#    x 1.717090 0.000000 0.020090 
#    y 0.000000 1.756190 0.000000 
#    z 0.020090 0.000000 1.707890 
# 
# From -- ./inp_files/21547.got.cif
#   From: 2010.05.17/outbox.cif.g08.bks.cpg/sg11_11_cif.got.tgz:21547.got - 2010.06.03 12:22:45.
