data_PCOD9160512
_publ_section_title
;
Structure prediction by ZEFSAII (Michael W. Deem and Ramdas Pophale) SiO2 
 PCOD9160512
Probable space group: P 21/M
;
_chemical_formula_sum "Si O2"
_cell_formula_units_Z 24
_cell_length_a 8.948806
_cell_length_b 14.496644
_cell_length_c 17.262021
_cell_angle_alpha 90.000000
_cell_angle_beta 145.769111
_cell_angle_gamma 90.000000
_cell_volume 1259.706206
_symmetry_space_group_name_H-M "P 21/M"
_symmetry_group_IT_number 11
_symmetry_cell_setting 'monoclinic'
loop_
_space_group_symop_operation_xyz
x,y,z
-x,1/2+y,-z
-x,-y,-z
x,1/2-y,z
loop_
_atom_site_type_symbol
_atom_site_label
_atom_site_fract_x
_atom_site_fract_y
_atom_site_fract_z
Si Si1 0.504350 0.971516 0.911773
Si Si2 0.042467 0.856705 0.139578
Si Si3 0.495610 0.968602 0.409211
Si Si4 0.024271 0.143606 0.341052
Si Si5 0.269824 0.645797 0.065423
Si Si6 0.745185 0.646857 0.736254
O O1 0.246220 0.913645 0.778512
O O2 0.534346 0.065416 0.876222
O O3 0.766210 0.909695 0.012375
O O4 0.500000 0.000000 0.000000
O O5 0.998578 0.750000 0.141538
O O6 0.233883 0.907969 0.281787
O O7 0.195371 0.860267 0.123296
O O8 0.757533 0.906989 0.511989
O O9 0.500000 0.000000 0.500000
O O10 0.458657 0.062294 0.344163
O O11 0.983493 0.250000 0.346263
O O12 0.139692 0.144860 0.302175
O O13 0.364397 0.750000 0.088393
O O14 0.995888 0.632305 0.900012
O O15 0.637339 0.750000 0.704237
#
# Coordination Sequence:
#
# PCOD9160512 Si02
#       6
#     4   4   4   4   4   4
#     4  12  21  36  58  91 117 151 194 244 294 349
#     4  11  23  38  62  88 116 153 202 244 287 350
#     4  10  19  36  56  84 112 154 197 237 286 350
#     4  10  20  34  54  82 120 152 185 239 300 344
#     4  10  21  38  60  87 119 156 195 246 296 345
#     4   9  17  33  57  82 112 153 194 237 290 344
#
# _framework density 19.052060000000001
#
# number of rings (size 3 to 8) (size 9 to 14) (size 15 to 20)
#    0.000    1.667    3.333    2.500    0.000    1.333 
#    0.000    1.667    0.000    0.000    0.000    0.000 
#    0.000    0.000    0.000    0.000    0.000    0.000 
#
# Total GULP energy -133986.378752 kJ/mol
# GULP energy per Si atom -5582.765781 kJ/mol
# Density = 1.900870 g / cm^3
# Si number density = 19.052060 Si / 1000 Ang^3
#
#
#
# Elastic Constant Matrix: (Units=GPa)
#
#
# Indices 1 2 3 4 5 6 
#
# 1 20.8736 25.9185 -3.4260 0.0000 6.7295 0.0000
# 2 25.9185 185.6300 63.9186 0.0000 23.2358 0.0000
# 3 -3.4260 63.9186 79.8463 0.0000 24.5478 0.0000
# 4 0.0000 0.0000 0.0000 28.4147 0.0000 6.4206
# 5 6.7295 23.2358 24.5478 0.0000 23.5282 0.0000
# 6 0.0000 0.0000 0.0000 6.4206 0.0000 24.1581
#
#
#
# Elastic Compliance Matrix: (Units=1/GPa)
#
#
# Indices 1 2 3 4 5 6 
#
# 1 0.086833 -0.017486 0.029518 0.000000 -0.038365 0.000000
# 2 -0.017486 0.011003 -0.011418 0.000000 0.006047 0.000000
# 3 0.029518 -0.011418 0.032477 0.000000 -0.031051 0.000000
# 4 0.000000 0.000000 0.000000 0.037442 0.000000 -0.009951
# 5 -0.038365 0.006047 -0.031051 0.000000 0.079900 0.000000
# 6 0.000000 0.000000 0.000000 -0.009951 0.000000 0.044039
#
#
# Mechanical properties :
#
#
# Convention : Reuss Voigt Hill
#
# Bulk Modulus (GPa) = 7.60209 51.01912 29.31060
# Shear Modulus (GPa) = 14.95613 28.54947 21.75280
#
# Velocity S-wave (km/s) = 2.80485 3.87524 3.38265
# Velocity P-wave (km/s) = 3.80636 6.84546 5.53844
#
# Compressibility (1/GPa) = 0.13154275
#
# Stress axis : x y z
#
# Youngs Moduli (GPa) = 11.51635 90.88396 30.79098
#
# Poissons Ratio (x) = 1.58920 -0.90890
# Poissons Ratio (y) = 0.20138 0.35156
# Poissons Ratio (z) = -0.33994 1.03768
#
# Static dielectric constant tensor:
#      x y z
#    x 1.659120 0.000000 -0.016080 
#    y 0.000000 1.700350 0.000000 
#    z -0.016080 0.000000 1.645890 
# 
# From -- ./inp_files/21988.got.cif
#   From: 2010.05.17/outbox.cif.g08.bks.cpg/sg11_11_cif.got.tgz:21988.got - 2010.06.03 12:22:45.
