data_PCOD9160756
_publ_section_title
;
Structure prediction by ZEFSAII (Michael W. Deem and Ramdas Pophale) SiO2 
 PCOD9160756
Probable space group: P 21/M
;
_chemical_formula_sum "Si O2"
_cell_formula_units_Z 32
_cell_length_a 13.500763
_cell_length_b 7.593689
_cell_length_c 14.414441
_cell_angle_alpha 90.000000
_cell_angle_beta 94.117250
_cell_angle_gamma 90.000000
_cell_volume 1473.963246
_symmetry_space_group_name_H-M "P 21/M"
_symmetry_group_IT_number 11
_symmetry_cell_setting 'monoclinic'
loop_
_space_group_symop_operation_xyz
x,y,z
-x,1/2+y,-z
-x,-y,-z
x,1/2-y,z
loop_
_atom_site_type_symbol
_atom_site_label
_atom_site_fract_x
_atom_site_fract_y
_atom_site_fract_z
Si Si1 0.274099 0.034760 0.084327
Si Si2 0.978537 0.455110 0.286655
Si Si3 0.185516 0.958391 0.394599
Si Si4 0.409828 0.954993 0.714754
Si Si5 0.595256 0.959717 0.070684
Si Si6 0.207735 0.966618 0.607741
Si Si7 0.626146 0.962727 0.721510
Si Si8 0.051627 0.461382 0.099986
O O1 0.274543 0.250000 0.083402
O O2 0.346270 0.978489 0.172370
O O3 0.164412 0.973285 0.102382
O O4 0.312571 0.977905 0.986433
O O5 0.952836 0.250000 0.272476
O O6 0.085906 0.464129 0.342821
O O7 0.993459 0.533138 0.185173
O O8 0.889614 0.528487 0.342893
O O9 0.168474 0.750000 0.396848
O O10 0.201682 0.022771 0.500433
O O11 0.283568 0.990599 0.339959
O O12 0.410706 0.750000 0.687813
O O13 0.309120 0.028144 0.663757
O O14 0.516237 0.030369 0.689868
O O15 0.407919 0.963723 0.826618
O O16 0.601402 0.750000 0.082321
O O17 0.500000 0.000000 0.000000
O O18 0.207385 0.750000 0.607545
O O19 0.621709 0.750000 0.723568
O O20 0.057955 0.250000 0.111602
O O21 0.000000 0.500000 0.000000
#
# Coordination Sequence:
#
# PCOD9160756 Si02
#       8
#     4   4   4   4   4   4   4   4
#     4   9  18  35  54  77 111 149 185 223 273 332
#     4  10  20  39  63  83 112 156 194 227 281 355
#     4  11  22  37  59  88 115 143 190 250 293 333
#     4  10  21  39  60  83 115 155 193 235 288 347
#     4  11  21  35  56  83 114 151 190 232 277 332
#     4   9  21  39  59  85 117 149 188 241 297 342
#     4  10  19  37  61  82 111 154 194 228 285 353
#     4  10  21  36  55  81 113 146 184 226 275 332
#
# _framework density 21.710173999999999
#
# number of rings (size 3 to 8) (size 9 to 14) (size 15 to 20)
#    0.000    2.000    2.500    1.125    1.750    1.500 
#    0.000    3.125    0.000    0.000    0.000    0.000 
#    0.000    0.000    0.000    0.000    0.000    0.000 
#
# Total GULP energy -178745.631018 kJ/mol
# GULP energy per Si atom -5585.800969 kJ/mol
# Density = 2.166076 g / cm^3
# Si number density = 21.710174 Si / 1000 Ang^3
#
#
#
# Elastic Constant Matrix: (Units=GPa)
#
#
# Indices 1 2 3 4 5 6 
#
# 1 138.0877 -9.3759 67.2620 0.0000 -11.7178 0.0000
# 2 -9.3759 45.5598 -19.2939 0.0000 -0.6409 0.0000
# 3 67.2620 -19.2939 110.7657 0.0000 9.0864 0.0000
# 4 0.0000 0.0000 0.0000 15.9769 0.0000 -4.8626
# 5 -11.7178 -0.6409 9.0864 0.0000 30.3293 0.0000
# 6 0.0000 0.0000 0.0000 -4.8626 0.0000 4.1505
#
#
#
# Elastic Compliance Matrix: (Units=1/GPa)
#
#
# Indices 1 2 3 4 5 6 
#
# 1 0.011494 -0.000787 -0.007668 0.000000 0.006721 0.000000
# 2 -0.000787 0.023768 0.004718 0.000000 -0.001215 0.000000
# 3 -0.007668 0.004718 0.015113 0.000000 -0.007390 0.000000
# 4 0.000000 0.000000 0.000000 0.097276 0.000000 0.113966
# 5 0.006721 -0.001215 -0.007390 0.000000 0.037757 0.000000
# 6 0.000000 0.000000 0.000000 0.113966 0.000000 0.374452
#
#
# Mechanical properties :
#
#
# Convention : Reuss Voigt Hill
#
# Bulk Modulus (GPa) = 23.31047 41.28864 32.29955
# Shear Modulus (GPa) = 8.59647 27.14607 17.87127
#
# Velocity S-wave (km/s) = 1.99205 3.53991 2.87222
# Velocity P-wave (km/s) = 4.00642 5.98058 5.09013
#
# Compressibility (1/GPa) = 0.04289918
#
# Stress axis : x y z
#
# Youngs Moduli (GPa) = 87.00397 42.07335 66.17037
#
# Poissons Ratio (x) = 0.03313 0.50740
# Poissons Ratio (y) = 0.06851 -0.31219
# Poissons Ratio (z) = 0.66715 -0.19850
#
# Static dielectric constant tensor:
#      x y z
#    x 1.794900 0.000000 -0.012230 
#    y 0.000000 1.810210 0.000000 
#    z -0.012230 0.000000 1.765250 
# 
# From -- ./inp_files/49392.got.cif
#   From: 2010.05.17/outbox.cif.g08.bks.cpg/sg11_25_cif.got.tgz:49392.got - 2010.06.03 12:22:45.
