data_PCOD9160733
_publ_section_title
;
Structure prediction by ZEFSAII (Michael W. Deem and Ramdas Pophale) SiO2 
 PCOD9160733
Probable space group: P 21/M
;
_chemical_formula_sum "Si O2"
_cell_formula_units_Z 32
_cell_length_a 17.960083
_cell_length_b 14.108300
_cell_length_c 12.266555
_cell_angle_alpha 90.000000
_cell_angle_beta 30.503130
_cell_angle_gamma 90.000000
_cell_volume 1577.664978
_symmetry_space_group_name_H-M "P 21/M"
_symmetry_group_IT_number 11
_symmetry_cell_setting 'monoclinic'
loop_
_space_group_symop_operation_xyz
x,y,z
-x,1/2+y,-z
-x,-y,-z
x,1/2-y,z
loop_
_atom_site_type_symbol
_atom_site_label
_atom_site_fract_x
_atom_site_fract_y
_atom_site_fract_z
Si Si1 0.033924 0.860392 0.302553
Si Si2 0.661817 0.043056 0.295799
Si Si3 0.144463 0.536020 0.750178
Si Si4 0.636433 0.143317 0.105962
Si Si5 0.613718 0.960390 0.704668
Si Si6 0.071436 0.046714 0.139614
Si Si7 0.160106 0.139107 0.251256
Si Si8 0.537613 0.859549 0.020451
O O1 0.008839 0.750000 0.303569
O O2 0.920321 0.892048 0.537290
O O3 0.029846 0.935711 0.210473
O O4 0.197746 0.865865 0.146645
O O5 0.738196 0.077612 0.311491
O O6 0.655744 0.122175 0.209720
O O7 0.500000 0.000000 0.500000
O O8 0.772956 0.959408 0.117621
O O9 0.247107 0.463710 0.551110
O O10 0.058425 0.594445 0.765035
O O11 0.000000 0.500000 0.000000
O O12 0.583681 0.250000 0.153736
O O13 0.525780 0.070283 0.191799
O O14 0.608119 0.889911 0.815128
O O15 0.586099 0.064677 0.790919
O O16 0.100721 0.087275 0.220969
O O17 0.126536 0.250000 0.281881
O O18 0.333025 0.130109 0.053860
O O19 0.490819 0.750000 0.074969
#
# Coordination Sequence:
#
# PCOD9160733 Si02
#       8
#     4   4   4   4   4   4   4   4
#     4   9  18  32  55  84 115 149 191 236 284 347
#     4  10  19  37  60  78 112 147 191 246 295 342
#     4  10  22  38  62  88 114 158 205 249 305 357
#     4  10  20  35  59  90 115 154 202 245 296 354
#     4  11  21  38  62  86 125 163 195 254 304 357
#     4  10  20  35  58  82 111 151 192 234 290 349
#     4  10  20  35  55  82 117 154 193 234 282 350
#     4  10  22  37  58  92 124 159 202 245 303 366
#
# _framework density 20.283138999999998
#
# number of rings (size 3 to 8) (size 9 to 14) (size 15 to 20)
#    0.000    2.000    1.250    3.000    0.000    2.000 
#    0.000    4.375    0.000    5.250    0.000    0.000 
#    0.000    0.000    0.000    0.000    0.000    0.000 
#
# Total GULP energy -178247.232064 kJ/mol
# GULP energy per Si atom -5570.226002 kJ/mol
# Density = 2.023697 g / cm^3
# Si number density = 20.283139 Si / 1000 Ang^3
#
#
#
# Elastic Constant Matrix: (Units=GPa)
#
#
# Indices 1 2 3 4 5 6 
#
# 1 119.9179 19.1814 12.0221 0.0000 -5.8388 0.0000
# 2 19.1814 60.6623 14.1181 0.0000 -1.4111 0.0000
# 3 12.0221 14.1181 74.9246 0.0000 -7.1118 0.0000
# 4 0.0000 0.0000 0.0000 13.6875 0.0000 -1.5288
# 5 -5.8388 -1.4111 -7.1118 0.0000 23.3783 0.0000
# 6 0.0000 0.0000 0.0000 -1.5288 0.0000 10.7265
#
#
#
# Elastic Compliance Matrix: (Units=1/GPa)
#
#
# Indices 1 2 3 4 5 6 
#
# 1 0.008921 -0.002600 -0.000767 0.000000 0.001838 0.000000
# 2 -0.002600 0.017998 -0.003020 0.000000 -0.000482 0.000000
# 3 -0.000767 -0.003020 0.014420 0.000000 0.004013 0.000000
# 4 0.000000 0.000000 0.000000 0.074241 0.000000 0.010581
# 5 0.001838 -0.000482 0.004013 0.000000 0.044425 0.000000
# 6 0.000000 0.000000 0.000000 0.010581 0.000000 0.094735
#
#
# Mechanical properties :
#
#
# Convention : Reuss Voigt Hill
#
# Bulk Modulus (GPa) = 35.00695 38.46090 36.73392
# Shear Modulus (GPa) = 18.04816 23.57067 20.80942
#
# Velocity S-wave (km/s) = 2.98621 3.41263 3.20651
# Velocity P-wave (km/s) = 5.40245 5.87633 5.64437
#
# Compressibility (1/GPa) = 0.02856576
#
# Stress axis : x y z
#
# Youngs Moduli (GPa) = 112.09193 55.56067 69.34908
#
# Poissons Ratio (x) = 0.14444 0.05320
# Poissons Ratio (y) = 0.29139 0.20944
# Poissons Ratio (z) = 0.08599 0.16780
#
# Static dielectric constant tensor:
#      x y z
#    x 1.732480 0.000000 -0.004510 
#    y 0.000000 1.725530 0.000000 
#    z -0.004510 0.000000 1.773970 
# 
# From -- ./inp_files/41653.got.cif
#   From: 2010.05.17/outbox.cif.g08.bks.cpg/sg11_21_cif.got.tgz:41653.got - 2010.06.03 12:22:45.
