data_PCOD9160418
_publ_section_title
;
Structure prediction by ZEFSAII (Michael W. Deem and Ramdas Pophale) SiO2 
 PCOD9160418
Probable space group: P 21/M
;
_chemical_formula_sum "Si O2"
_cell_formula_units_Z 30
_cell_length_a 12.754173
_cell_length_b 7.674902
_cell_length_c 23.774107
_cell_angle_alpha 90.000000
_cell_angle_beta 38.914847
_cell_angle_gamma 90.000000
_cell_volume 1461.850242
_symmetry_space_group_name_H-M "P 21/M"
_symmetry_group_IT_number 11
_symmetry_cell_setting 'monoclinic'
loop_
_space_group_symop_operation_xyz
x,y,z
-x,1/2+y,-z
-x,-y,-z
x,1/2-y,z
loop_
_atom_site_type_symbol
_atom_site_label
_atom_site_fract_x
_atom_site_fract_y
_atom_site_fract_z
Si Si1 0.624756 0.455805 0.626727
Si Si2 0.137952 0.064550 0.783051
Si Si3 0.548347 0.459862 0.892485
Si Si4 0.108626 0.460955 0.579380
Si Si5 0.681118 0.051338 0.400760
Si Si6 0.769956 0.957665 0.905674
Si Si7 0.340559 0.750000 0.731724
Si Si8 0.266189 0.538728 0.292725
O O1 0.574629 0.250000 0.646937
O O2 0.775807 0.478538 0.520070
O O3 0.483755 0.593961 0.669206
O O4 0.685798 0.505051 0.663892
O O5 0.158075 0.250000 0.803417
O O6 0.251631 0.057967 0.679176
O O7 0.195870 0.902506 0.794909
O O8 0.948029 0.041970 0.841794
O O9 0.537988 0.250000 0.895336
O O10 0.693709 0.506069 0.876013
O O11 0.601089 0.523142 0.809017
O O12 0.373280 0.522234 0.991338
O O13 0.114443 0.250000 0.580862
O O14 0.188853 0.535784 0.602722
O O15 0.919195 0.517824 0.647467
O O16 0.673013 0.250000 0.381583
O O17 0.500000 0.000000 0.500000
O O18 0.788701 0.750000 0.903732
O O19 0.263535 0.750000 0.291556
#
# Coordination Sequence:
#
# PCOD9160418 Si02
#       8
#     4   4   4   4   4   4   2   4
#     4  11  23  42  64  87 121 164 211 263 314 364
#     4  12  24  41  64  90 125 166 207 255 311 375
#     4   9  18  35  62  94 133 167 201 249 309 373
#     4  11  21  37  59  90 131 167 208 256 303 369
#     4  12  24  39  56  88 128 163 209 251 301 365
#     4  10  19  35  59  97 135 166 202 248 306 378
#     4  12  24  44  62  90 116 158 216 264 308 366
#     4   9  20  38  62  91 120 166 209 254 313 369
#
# _framework density 20.521937999999999
#
# number of rings (size 3 to 8) (size 9 to 14) (size 15 to 20)
#    0.000    1.333    2.000    4.400    0.000    1.600 
#    3.600    0.000    0.000    0.800    0.000    0.000 
#    0.000    0.000    0.000    0.000    0.000    0.000 
#
# Total GULP energy -167227.402583 kJ/mol
# GULP energy per Si atom -5574.246753 kJ/mol
# Density = 2.047523 g / cm^3
# Si number density = 20.521938 Si / 1000 Ang^3
#
#
#
# Elastic Constant Matrix: (Units=GPa)
#
#
# Indices 1 2 3 4 5 6 
#
# 1 20.5897 2.4409 109.8816 0.0000 21.0232 0.0000
# 2 2.4409 124.7043 34.9337 0.0000 -4.9148 0.0000
# 3 109.8816 34.9337 -89.0439 0.0000 -61.2898 0.0000
# 4 0.0000 0.0000 0.0000 14.7535 0.0000 -1.0636
# 5 21.0232 -4.9148 -61.2898 0.0000 18.0487 0.0000
# 6 0.0000 0.0000 0.0000 -1.0636 0.0000 24.1689
#
#
#
# Elastic Compliance Matrix: (Units=1/GPa)
#
#
# Indices 1 2 3 4 5 6 
#
# 1 0.009645 -0.001495 0.005791 0.000000 0.008025 0.000000
# 2 -0.001495 0.008265 -0.000404 0.000000 0.002618 0.000000
# 3 0.005791 -0.000404 0.000143 0.000000 -0.006371 0.000000
# 4 0.000000 0.000000 0.000000 0.067996 0.000000 0.002992
# 5 0.008025 0.002618 -0.006371 0.000000 0.025136 0.000000
# 6 0.000000 0.000000 0.000000 0.002992 0.000000 0.041507
#
#
# Mechanical properties :
#
#
# Convention : Reuss Voigt Hill
#
# Bulk Modulus (GPa) = 38.70559 38.97363 38.83961
# Shear Modulus (GPa) = 32.56919 5.32715 18.94817
#
# Velocity S-wave (km/s) = 3.98809 1.61291 3.04190
# Velocity P-wave (km/s) = 6.33309 4.74353 5.59505
#
# Compressibility (1/GPa) = 0.02583606
#
# Stress axis : x y z
#
# Youngs Moduli (GPa) = 103.68574 120.99624 7004.85136
#
# Poissons Ratio (x) = 0.18087 -40.56722
# Poissons Ratio (y) = 0.15499 2.83307
# Poissons Ratio (z) = -0.60048 0.04894
#
# Static dielectric constant tensor:
#      x y z
#    x 1.867260 0.000000 0.049140 
#    y 0.000000 1.772120 0.000000 
#    z 0.049140 0.000000 1.728470 
# 
# From -- ./inp_files/68419.got.cif
#   From: 2010.05.17/outbox.cif.g08.bks.cpg/sg11_35_cif.got.tgz:68419.got - 2010.06.03 12:22:45.
