data_PCOD9160412
_publ_section_title
;
Structure prediction by ZEFSAII (Michael W. Deem and Ramdas Pophale) SiO2 
 PCOD9160412
Probable space group: P 21/M
;
_chemical_formula_sum "Si O2"
_cell_formula_units_Z 32
_cell_length_a 9.450846
_cell_length_b 18.606252
_cell_length_c 12.155602
_cell_angle_alpha 90.000000
_cell_angle_beta 51.102237
_cell_angle_gamma 90.000000
_cell_volume 1663.546881
_symmetry_space_group_name_H-M "P 21/M"
_symmetry_group_IT_number 11
_symmetry_cell_setting 'monoclinic'
loop_
_space_group_symop_operation_xyz
x,y,z
-x,1/2+y,-z
-x,-y,-z
x,1/2-y,z
loop_
_atom_site_type_symbol
_atom_site_label
_atom_site_fract_x
_atom_site_fract_y
_atom_site_fract_z
Si Si1 0.015268 0.952910 0.214472
Si Si2 0.340629 0.055300 0.044995
Si Si3 0.086571 0.922378 0.430694
Si Si4 0.536007 0.668433 0.609978
Si Si5 0.348042 0.971735 0.657831
Si Si6 0.218526 0.335152 0.297141
Si Si7 0.484712 0.411086 0.748635
Si Si8 0.226197 0.331523 0.720120
O O1 0.938279 0.886682 0.181058
O O2 0.071057 0.920535 0.305610
O O3 0.841938 0.005951 0.301969
O O4 0.176627 0.002145 0.092850
O O5 0.272570 0.109670 0.173371
O O6 0.416508 0.099374 0.905246
O O7 0.500000 0.000000 0.000000
O O8 0.297823 0.917149 0.360951
O O9 0.965262 0.863807 0.553912
O O10 0.000000 0.000000 0.500000
O O11 0.473213 0.750000 0.628593
O O12 0.379947 0.611464 0.662757
O O13 0.626427 0.658381 0.684627
O O14 0.695243 0.657049 0.441527
O O15 0.500000 0.000000 0.500000
O O16 0.394658 0.015592 0.745713
O O17 0.204726 0.250000 0.273997
O O18 0.396064 0.350880 0.714621
O O19 0.169121 0.250000 0.760886
#
# Coordination Sequence:
#
# PCOD9160412 Si02
#       8
#     4   4   4   4   4   4   4   4
#     4  11  22  36  67  92 124 169 220 265 322 392
#     4  12  24  43  64  96 135 176 221 267 329 403
#     4  12  20  37  66  97 124 166 220 276 326 389
#     4  10  19  35  59  88 125 165 209 267 332 386
#     4  11  19  36  60  94 125 161 216 275 321 378
#     4  11  24  40  65  99 133 168 219 286 340 386
#     4  11  24  38  65  93 131 171 213 265 329 399
#     4  10  22  39  59  90 127 164 213 270 325 388
#
# _framework density 19.236007000000001
#
# number of rings (size 3 to 8) (size 9 to 14) (size 15 to 20)
#    0.000    1.000    6.250    2.250    0.000    3.000 
#    0.000    2.500    0.000    3.750    0.000    0.000 
#    0.000    0.000    0.000    0.000    0.000    0.000 
#
# Total GULP energy -178610.517385 kJ/mol
# GULP energy per Si atom -5581.578668 kJ/mol
# Density = 1.919222 g / cm^3
# Si number density = 19.236007 Si / 1000 Ang^3
#
#
#
# Elastic Constant Matrix: (Units=GPa)
#
#
# Indices 1 2 3 4 5 6 
#
# 1 92.3437 30.9016 24.8167 0.0000 -16.5971 0.0000
# 2 30.9016 123.3991 23.7983 0.0000 -10.6744 0.0000
# 3 24.8167 23.7983 73.3681 0.0000 -2.8755 0.0000
# 4 0.0000 0.0000 0.0000 17.9476 0.0000 -3.1266
# 5 -16.5971 -10.6744 -2.8755 0.0000 34.0386 0.0000
# 6 0.0000 0.0000 0.0000 -3.1266 0.0000 26.8277
#
#
#
# Elastic Compliance Matrix: (Units=1/GPa)
#
#
# Indices 1 2 3 4 5 6 
#
# 1 0.013556 -0.002206 -0.003650 0.000000 0.005610 0.000000
# 2 -0.002206 0.009218 -0.002180 0.000000 0.001631 0.000000
# 3 -0.003650 -0.002180 0.015527 0.000000 -0.001152 0.000000
# 4 0.000000 0.000000 0.000000 0.056873 0.000000 0.006628
# 5 0.005610 0.001631 -0.001152 0.000000 0.032528 0.000000
# 6 0.000000 0.000000 0.000000 0.006628 0.000000 0.038047
#
#
# Mechanical properties :
#
#
# Convention : Reuss Voigt Hill
#
# Bulk Modulus (GPa) = 44.98580 49.79378 47.38979
# Shear Modulus (GPa) = 26.42294 29.73573 28.07934
#
# Velocity S-wave (km/s) = 3.71026 3.93598 3.82478
# Velocity P-wave (km/s) = 6.46465 6.82626 6.64791
#
# Compressibility (1/GPa) = 0.02222924
#
# Stress axis : x y z
#
# Youngs Moduli (GPa) = 73.76583 108.48798 64.40593
#
# Poissons Ratio (x) = 0.23928 0.23509
# Poissons Ratio (y) = 0.16269 0.14040
# Poissons Ratio (z) = 0.26926 0.23650
#
# Static dielectric constant tensor:
#      x y z
#    x 1.691970 0.000000 0.029970 
#    y 0.000000 1.690670 0.000000 
#    z 0.029970 0.000000 1.693970 
# 
# From -- ./inp_files/32804.got.cif
#   From: 2010.05.17/outbox.cif.g08.bks.cpg/sg11_17_cif.got.tgz:32804.got - 2010.06.03 12:22:45.
