data_PCOD9160301
_publ_section_title
;
Structure prediction by ZEFSAII (Michael W. Deem and Ramdas Pophale) SiO2 
 PCOD9160301
Probable space group: P 21/M
;
_chemical_formula_sum "Si O2"
_cell_formula_units_Z 32
_cell_length_a 15.288314
_cell_length_b 8.568202
_cell_length_c 10.864731
_cell_angle_alpha 90.000000
_cell_angle_beta 85.500376
_cell_angle_gamma 90.000000
_cell_volume 1418.821106
_symmetry_space_group_name_H-M "P 21/M"
_symmetry_group_IT_number 11
_symmetry_cell_setting 'monoclinic'
loop_
_space_group_symop_operation_xyz
x,y,z
-x,1/2+y,-z
-x,-y,-z
x,1/2-y,z
loop_
_atom_site_type_symbol
_atom_site_label
_atom_site_fract_x
_atom_site_fract_y
_atom_site_fract_z
Si Si1 0.912114 0.062108 0.443059
Si Si2 0.823770 0.436780 0.205322
Si Si3 0.623226 0.064715 0.222327
Si Si4 0.553207 0.063149 0.694516
Si Si5 0.272911 0.574037 0.437424
Si Si6 0.617056 0.928247 0.948704
Si Si7 0.778191 0.079673 0.839877
Si Si8 0.089200 0.430814 0.038131
O O1 0.911551 0.250000 0.462284
O O2 0.898713 0.032882 0.298954
O O3 0.816273 0.000064 0.499672
O O4 0.000000 0.000000 0.500000
O O5 0.825806 0.250000 0.180189
O O6 0.722709 0.474220 0.253039
O O7 0.845082 0.532745 0.081510
O O8 0.614167 0.250000 0.224359
O O9 0.545762 0.993572 0.313292
O O10 0.608801 0.006710 0.082956
O O11 0.557721 0.250000 0.689881
O O12 0.629188 0.003893 0.591847
O O13 0.575517 0.010606 0.833057
O O14 0.281796 0.750000 0.492125
O O15 0.245796 0.590709 0.298177
O O16 0.587197 0.750000 0.958430
O O17 0.719294 0.944905 0.904443
O O18 0.758530 0.250000 0.899315
O O19 0.877116 0.031441 0.851049
O O20 0.082781 0.250000 0.068053
O O21 0.000000 0.500000 0.000000
#
# Coordination Sequence:
#
# PCOD9160301 Si02
#       8
#     4   4   4   4   4   4   4   4
#     4  10  22  43  67  92 116 153 202 251 306 362
#     4  10  23  42  63  87 123 161 201 249 305 367
#     4  11  21  35  55  81 118 161 198 247 302 360
#     4  10  20  35  56  83 116 159 202 249 298 358
#     4   8  18  37  61  85 117 155 196 245 300 355
#     4  11  20  32  52  82 118 160 201 242 289 352
#     4  10  19  35  57  85 119 157 195 240 300 358
#     4  12  25  39  59  86 121 159 200 246 302 365
#
# _framework density 22.553937000000001
#
# number of rings (size 3 to 8) (size 9 to 14) (size 15 to 20)
#    0.000    1.750    1.250    4.500    1.750    1.000 
#    0.000    3.750    0.000    0.000    0.000    0.000 
#    0.000    0.000    0.000    0.000    0.000    0.000 
#
# Total GULP energy -178497.394259 kJ/mol
# GULP energy per Si atom -5578.043571 kJ/mol
# Density = 2.250260 g / cm^3
# Si number density = 22.553937 Si / 1000 Ang^3
#
#
#
# Elastic Constant Matrix: (Units=GPa)
#
#
# Indices 1 2 3 4 5 6 
#
# 1 100.8907 15.5142 14.7200 0.0000 2.6527 0.0000
# 2 15.5142 63.7946 6.0202 0.0000 2.8822 0.0000
# 3 14.7200 6.0202 48.4113 0.0000 10.1270 0.0000
# 4 0.0000 0.0000 0.0000 12.8441 0.0000 -0.1072
# 5 2.6527 2.8822 10.1270 0.0000 27.2980 0.0000
# 6 0.0000 0.0000 0.0000 -0.1072 0.0000 35.1405
#
#
#
# Elastic Compliance Matrix: (Units=1/GPa)
#
#
# Indices 1 2 3 4 5 6 
#
# 1 0.010704 -0.002332 -0.003034 0.000000 0.000332 0.000000
# 2 -0.002332 0.016396 -0.001101 0.000000 -0.001096 0.000000
# 3 -0.003034 -0.001101 0.023450 0.000000 -0.008288 0.000000
# 4 0.000000 0.000000 0.000000 0.077859 0.000000 0.000237
# 5 0.000332 -0.001096 -0.008288 0.000000 0.039791 0.000000
# 6 0.000000 0.000000 0.000000 0.000237 0.000000 0.028458
#
#
# Mechanical properties :
#
#
# Convention : Reuss Voigt Hill
#
# Bulk Modulus (GPa) = 26.58408 31.73396 29.15902
# Shear Modulus (GPa) = 22.50940 26.84599 24.67770
#
# Velocity S-wave (km/s) = 3.16258 3.45382 3.31140
# Velocity P-wave (km/s) = 5.01482 5.47777 5.25140
#
# Compressibility (1/GPa) = 0.03761650
#
# Stress axis : x y z
#
# Youngs Moduli (GPa) = 93.42083 60.99135 42.64469
#
# Poissons Ratio (x) = 0.14222 0.12939
# Poissons Ratio (y) = 0.21784 0.04693
# Poissons Ratio (z) = 0.28345 0.06713
#
# Static dielectric constant tensor:
#      x y z
#    x 1.828280 0.000000 -0.032030 
#    y 0.000000 1.794020 0.000000 
#    z -0.032030 0.000000 1.869870 
# 
# From -- ./inp_files/38202.got.cif
#   From: 2010.05.17/outbox.cif.g08.bks.cpg/sg11_20_cif.got.tgz:38202.got - 2010.06.03 12:22:45.
