data_PCOD9160121
_publ_section_title
;
Structure prediction by ZEFSAII (Michael W. Deem and Ramdas Pophale) SiO2 
 PCOD9160121
Probable space group: P 21/M
;
_chemical_formula_sum "Si O2"
_cell_formula_units_Z 32
_cell_length_a 21.342192
_cell_length_b 10.462108
_cell_length_c 20.437091
_cell_angle_alpha 90.000000
_cell_angle_beta 158.659025
_cell_angle_gamma 90.000000
_cell_volume 1660.657852
_symmetry_space_group_name_H-M "P 21/M"
_symmetry_group_IT_number 11
_symmetry_cell_setting 'monoclinic'
loop_
_space_group_symop_operation_xyz
x,y,z
-x,1/2+y,-z
-x,-y,-z
x,1/2-y,z
loop_
_atom_site_type_symbol
_atom_site_label
_atom_site_fract_x
_atom_site_fract_y
_atom_site_fract_z
Si Si1 0.484933 0.100539 0.324132
Si Si2 0.987179 0.884977 0.924046
Si Si3 0.056528 0.897164 0.501193
Si Si4 0.115580 0.899721 0.274074
Si Si5 0.689871 0.990814 0.718264
Si Si6 0.584207 0.896641 0.884834
Si Si7 0.535617 0.397024 0.090919
Si Si8 0.991525 0.896072 0.292639
O O1 0.436910 0.250000 0.271605
O O2 0.680271 0.094629 0.539408
O O3 0.359866 0.040674 0.255574
O O4 0.478405 0.044665 0.244340
O O5 0.983487 0.750000 0.884533
O O6 0.816741 0.892525 0.804117
O O7 0.974289 0.005698 0.863630
O O8 0.168400 0.895027 0.139509
O O9 0.985530 0.750000 0.439373
O O10 0.260554 0.886609 0.704619
O O11 0.014742 0.949379 0.387810
O O12 0.000000 0.000000 0.500000
O O13 0.060762 0.750000 0.215830
O O14 0.082726 0.946399 0.316459
O O15 0.500000 0.000000 0.500000
O O16 0.516762 0.750000 0.820841
O O17 0.533336 0.948092 0.906281
O O18 0.789694 0.894258 0.081270
O O19 0.468152 0.250000 0.014089
O O20 0.500000 0.500000 0.000000
O O21 0.056676 0.750000 0.362254
#
# Coordination Sequence:
#
# PCOD9160121 Si02
#       8
#     4   4   4   4   4   4   4   4
#     4  10  19  34  59  87 114 149 196 246 291 342
#     4  11  25  41  62  92 126 158 197 250 304 357
#     4  10  20  34  53  80 111 146 187 234 288 343
#     4  10  20  37  61  88 117 153 197 242 291 352
#     4  11  23  42  61  87 118 164 204 244 294 365
#     4   9  17  30  52  82 111 142 185 238 287 331
#     4  10  20  34  54  81 112 145 183 230 282 342
#     4   9  17  31  54  81 111 147 190 238 285 340
#
# _framework density 19.269470999999999
#
# number of rings (size 3 to 8) (size 9 to 14) (size 15 to 20)
#    0.000    2.000    1.250    2.625    0.000    9.000 
#    0.000    0.625    0.000    6.750    0.000    0.000 
#    0.000    0.000    0.000    0.000    0.000    0.000 
#
# Total GULP energy -178168.622269 kJ/mol
# GULP energy per Si atom -5567.769446 kJ/mol
# Density = 1.922561 g / cm^3
# Si number density = 19.269471 Si / 1000 Ang^3
#
#
#
# Elastic Constant Matrix: (Units=GPa)
#
#
# Indices 1 2 3 4 5 6 
#
# 1 139.7888 42.0801 35.4293 0.0000 1.2293 0.0000
# 2 42.0801 71.5325 28.0044 0.0000 -8.2410 0.0000
# 3 35.4293 28.0044 107.7191 0.0000 2.1430 0.0000
# 4 0.0000 0.0000 0.0000 9.8295 0.0000 -5.3940
# 5 1.2293 -8.2410 2.1430 0.0000 37.9571 0.0000
# 6 0.0000 0.0000 0.0000 -5.3940 0.0000 18.9547
#
#
#
# Elastic Compliance Matrix: (Units=1/GPa)
#
#
# Indices 1 2 3 4 5 6 
#
# 1 0.009039 -0.004793 -0.001702 0.000000 -0.001237 0.000000
# 2 -0.004793 0.018617 -0.003351 0.000000 0.004386 0.000000
# 3 -0.001702 -0.003351 0.010740 0.000000 -0.001279 0.000000
# 4 0.000000 0.000000 0.000000 0.120561 0.000000 0.034308
# 5 -0.001237 0.004386 -0.001279 0.000000 0.027410 0.000000
# 6 0.000000 0.000000 0.000000 0.034308 0.000000 0.062520
#
#
# Mechanical properties :
#
#
# Convention : Reuss Voigt Hill
#
# Bulk Modulus (GPa) = 53.46756 58.89644 56.18200
# Shear Modulus (GPa) = 18.19416 27.58337 22.88877
#
# Velocity S-wave (km/s) = 3.07611 3.78756 3.45022
# Velocity P-wave (km/s) = 6.35800 7.05397 6.71501
#
# Compressibility (1/GPa) = 0.01870293
#
# Stress axis : x y z
#
# Youngs Moduli (GPa) = 110.63310 53.71574 93.11209
#
# Poissons Ratio (x) = 0.25748 0.15849
# Poissons Ratio (y) = 0.53031 0.31197
# Poissons Ratio (z) = 0.18831 0.17998
#
# Static dielectric constant tensor:
#      x y z
#    x 1.725550 0.000000 -0.026330 
#    y 0.000000 1.668860 0.000000 
#    z -0.026330 0.000000 1.706880 
# 
# From -- ./inp_files/66560.got.cif
#   From: 2010.05.17/outbox.cif.g08.bks.cpg/sg11_34_cif.got.tgz:66560.got - 2010.06.03 12:22:45.
