data_PCOD9160098
_publ_section_title
;
Structure prediction by ZEFSAII (Michael W. Deem and Ramdas Pophale) SiO2 
 PCOD9160098
Probable space group: P 21/M
;
_chemical_formula_sum "Si O2"
_cell_formula_units_Z 28
_cell_length_a 30.413653
_cell_length_b 8.664650
_cell_length_c 10.323909
_cell_angle_alpha 90.000000
_cell_angle_beta 33.837856
_cell_angle_gamma 90.000000
_cell_volume 1514.948052
_symmetry_space_group_name_H-M "P 21/M"
_symmetry_group_IT_number 11
_symmetry_cell_setting 'monoclinic'
loop_
_space_group_symop_operation_xyz
x,y,z
-x,1/2+y,-z
-x,-y,-z
x,1/2-y,z
loop_
_atom_site_type_symbol
_atom_site_label
_atom_site_fract_x
_atom_site_fract_y
_atom_site_fract_z
Si Si1 0.240644 0.568443 0.931754
Si Si2 0.162702 0.433225 0.378740
Si Si3 0.001026 0.435135 0.143335
Si Si4 0.827002 0.566313 0.163838
Si Si5 0.418476 0.564885 0.846293
Si Si6 0.737742 0.065789 0.625349
Si Si7 0.597571 0.566897 0.400854
O O1 0.233391 0.750000 0.972690
O O2 0.196471 0.519221 0.909752
O O3 0.332588 0.521730 0.698814
O O4 0.204460 0.479644 0.143225
O O5 0.165411 0.250000 0.391037
O O6 0.207950 0.514027 0.387077
O O7 0.072857 0.491849 0.601564
O O8 0.992904 0.250000 0.158905
O O9 0.084548 0.472631 0.005147
O O10 0.000000 0.500000 0.000000
O O11 0.822853 0.750000 0.153480
O O12 0.768374 0.517473 0.422475
O O13 0.414673 0.750000 0.830694
O O14 0.508563 0.528107 0.663372
O O15 0.399660 0.479619 0.757694
O O16 0.351954 0.527702 0.114073
O O17 0.744307 0.250000 0.592524
O O18 0.609596 0.750000 0.384302
#
# Coordination Sequence:
#
# PCOD9160098 Si02
#       7
#     4   4   4   4   4   4   4
#     4  12  25  42  62  88 123 163 204 251 311 367
#     4  12  24  39  63  92 122 160 205 251 301 360
#     4  11  23  40  64  92 124 158 201 252 305 360
#     4  11  25  43  63  89 122 161 203 249 306 366
#     4   9  19  34  57  90 123 158 201 249 298 355
#     4  11  21  37  62  92 124 159 203 249 299 359
#     4  10  19  34  58  88 123 159 200 250 302 357
#
# _framework density 18.482482000000001
#
# number of rings (size 3 to 8) (size 9 to 14) (size 15 to 20)
#    0.000    1.143    2.857    4.286    0.000    3.429 
#    0.000    0.714    0.000    0.000    0.000    0.000 
#    0.000    0.000    0.000    0.000    0.000    0.000 
#
# Total GULP energy -156550.538028 kJ/mol
# GULP energy per Si atom -5591.090644 kJ/mol
# Density = 1.844042 g / cm^3
# Si number density = 18.482482 Si / 1000 Ang^3
#
#
#
# Elastic Constant Matrix: (Units=GPa)
#
#
# Indices 1 2 3 4 5 6 
#
# 1 64.1643 9.3999 6.8081 0.0000 -10.6491 0.0000
# 2 9.3999 36.3004 7.2351 0.0000 -18.1673 0.0000
# 3 6.8081 7.2351 77.4940 0.0000 -19.4881 0.0000
# 4 0.0000 0.0000 0.0000 33.1883 0.0000 0.0121
# 5 -10.6491 -18.1673 -19.4881 0.0000 29.1181 0.0000
# 6 0.0000 0.0000 0.0000 0.0121 0.0000 31.9957
#
#
#
# Elastic Compliance Matrix: (Units=1/GPa)
#
#
# Indices 1 2 3 4 5 6 
#
# 1 0.016676 -0.001852 -0.000059 0.000000 0.004904 0.000000
# 2 -0.001852 0.040874 0.003113 0.000000 0.026908 0.000000
# 3 -0.000059 0.003113 0.015753 0.000000 0.012464 0.000000
# 4 0.000000 0.000000 0.000000 0.030131 0.000000 -0.000011
# 5 0.004904 0.026908 0.012464 0.000000 0.061267 0.000000
# 6 0.000000 0.000000 0.000000 -0.000011 0.000000 0.031254
#
#
# Mechanical properties :
#
#
# Convention : Reuss Voigt Hill
#
# Bulk Modulus (GPa) = 13.20869 24.98276 19.09572
# Shear Modulus (GPa) = 22.85324 29.16145 26.00735
#
# Velocity S-wave (km/s) = 3.52018 3.97645 3.75525
# Velocity P-wave (km/s) = 4.86665 5.88466 5.39970
#
# Compressibility (1/GPa) = 0.07570775
#
# Stress axis : x y z
#
# Youngs Moduli (GPa) = 59.96471 24.46552 63.47915
#
# Poissons Ratio (x) = 0.04532 0.00374
# Poissons Ratio (y) = 0.11108 -0.19764
# Poissons Ratio (z) = 0.00353 -0.07617
#
# Static dielectric constant tensor:
#      x y z
#    x 1.606290 0.000000 -0.026730 
#    y 0.000000 1.617650 0.000000 
#    z -0.026730 0.000000 1.639200 
# 
# From -- ./inp_files/28276.got.cif
#   From: 2010.05.17/outbox.cif.g08.bks.cpg/sg11_15_cif.got.tgz:28276.got - 2010.06.03 12:22:45.
