data_PCOD9160168
_publ_section_title
;
Structure prediction by ZEFSAII (Michael W. Deem and Ramdas Pophale) SiO2 
 PCOD9160168
Probable space group: P 21/M
;
_chemical_formula_sum "Si O2"
_cell_formula_units_Z 30
_cell_length_a 7.061251
_cell_length_b 9.595977
_cell_length_c 23.034437
_cell_angle_alpha 90.000000
_cell_angle_beta 113.642596
_cell_angle_gamma 90.000000
_cell_volume 1429.797931
_symmetry_space_group_name_H-M "P 21/M"
_symmetry_group_IT_number 11
_symmetry_cell_setting 'monoclinic'
loop_
_space_group_symop_operation_xyz
x,y,z
-x,1/2+y,-z
-x,-y,-z
x,1/2-y,z
loop_
_atom_site_type_symbol
_atom_site_label
_atom_site_fract_x
_atom_site_fract_y
_atom_site_fract_z
Si Si1 0.667987 0.414460 0.846303
Si Si2 0.811500 0.028073 0.411513
Si Si3 0.420734 0.405519 0.438707
Si Si4 0.489932 0.415387 0.939798
Si Si5 0.151377 0.412260 0.301959
Si Si6 0.434321 0.911347 0.727064
Si Si7 0.928735 0.586188 0.181943
Si Si8 0.111751 0.250000 0.504352
O O1 0.618932 0.250000 0.836196
O O2 0.666331 0.450426 0.914094
O O3 0.494635 0.499146 0.790143
O O4 0.884188 0.437556 0.840657
O O5 0.619126 0.101392 0.421343
O O6 0.747800 0.031934 0.336309
O O7 0.004935 0.124816 0.450766
O O8 0.826971 0.874307 0.440202
O O9 0.500000 0.500000 0.500000
O O10 0.372210 0.250000 0.458035
O O11 0.237534 0.461040 0.375266
O O12 0.496089 0.250000 0.952905
O O13 0.279763 0.445267 0.878340
O O14 0.500000 0.500000 0.000000
O O15 0.095553 0.250000 0.301797
O O16 0.356577 0.417166 0.286551
O O17 0.982180 0.497494 0.245683
O O18 0.396117 0.750000 0.736487
O O19 0.927943 0.750000 0.197257
#
# Coordination Sequence:
#
# PCOD9160168 Si02
#       8
#     4   4   4   4   4   4   4   2
#     4   9  19  35  57  83 110 144 187 226 271 328
#     4  10  19  35  51  75 100 142 187 232 283 342
#     4  10  20  34  52  74 106 141 186 237 282 339
#     4  10  22  39  58  84 119 149 179 225 274 327
#     4   8  16  32  53  76 101 138 182 230 278 323
#     4   9  16  31  54  77 102 134 184 235 274 325
#     4   9  18  35  58  82 111 145 184 228 270 327
#     4  10  20  32  52  68 104 140 178 228 286 336
#
# _framework density 20.981985000000002
#
# number of rings (size 3 to 8) (size 9 to 14) (size 15 to 20)
#    0.000    2.667    1.333    0.800    1.867    2.133 
#    2.400    2.667    2.933    0.000    0.000    0.000 
#    0.000    0.000    0.000    0.000    0.000    0.000 
#
# Total GULP energy -167072.504062 kJ/mol
# GULP energy per Si atom -5569.083469 kJ/mol
# Density = 2.093423 g / cm^3
# Si number density = 20.981985 Si / 1000 Ang^3
#
#
#
# Elastic Constant Matrix: (Units=GPa)
#
#
# Indices 1 2 3 4 5 6 
#
# 1 75.0743 48.3797 38.9761 0.0000 -20.6927 0.0000
# 2 48.3797 159.7524 91.1742 0.0000 -37.8159 0.0000
# 3 38.9761 91.1742 149.8340 0.0000 -37.4139 0.0000
# 4 0.0000 0.0000 0.0000 39.8517 0.0000 0.0793
# 5 -20.6927 -37.8159 -37.4139 0.0000 47.7596 0.0000
# 6 0.0000 0.0000 0.0000 0.0793 0.0000 30.8688
#
#
#
# Elastic Compliance Matrix: (Units=1/GPa)
#
#
# Indices 1 2 3 4 5 6 
#
# 1 0.017364 -0.003595 -0.001444 0.000000 0.003545 0.000000
# 2 -0.003595 0.010909 -0.004892 0.000000 0.003248 0.000000
# 3 -0.001444 -0.004892 0.011068 0.000000 0.004171 0.000000
# 4 0.000000 0.000000 0.000000 0.025093 0.000000 -0.000064
# 5 0.003545 0.003248 0.004171 0.000000 0.028314 0.000000
# 6 0.000000 0.000000 0.000000 -0.000064 0.000000 0.032395
#
#
# Mechanical properties :
#
#
# Convention : Reuss Voigt Hill
#
# Bulk Modulus (GPa) = 51.33753 82.41340 66.87546
# Shear Modulus (GPa) = 33.00357 37.43807 35.22082
#
# Velocity S-wave (km/s) = 3.97034 4.22868 4.10154
# Velocity P-wave (km/s) = 6.74824 7.95020 7.37375
#
# Compressibility (1/GPa) = 0.01947893
#
# Stress axis : x y z
#
# Youngs Moduli (GPa) = 57.59111 91.66467 90.34969
#
# Poissons Ratio (x) = 0.32955 0.13045
# Poissons Ratio (y) = 0.20705 0.44200
# Poissons Ratio (z) = 0.08315 0.44843
#
# Static dielectric constant tensor:
#      x y z
#    x 1.935310 0.000000 -0.058070 
#    y 0.000000 1.708640 0.000000 
#    z -0.058070 0.000000 1.730540 
# 
# From -- ./inp_files/67874.got.cif
#   From: 2010.05.17/outbox.cif.g08.bks.cpg/sg11_34_cif.got.tgz:67874.got - 2010.06.03 12:22:45.
