data_PCOD9160860
_publ_section_title
;
Structure prediction by ZEFSAII (Michael W. Deem and Ramdas Pophale) SiO2 
 PCOD9160860
Probable space group: P 21/M
;
_chemical_formula_sum "Si O2"
_cell_formula_units_Z 32
_cell_length_a 13.740622
_cell_length_b 17.719043
_cell_length_c 11.397554
_cell_angle_alpha 90.000000
_cell_angle_beta 149.760942
_cell_angle_gamma 90.000000
_cell_volume 1397.499927
_symmetry_space_group_name_H-M "P 21/M"
_symmetry_group_IT_number 11
_symmetry_cell_setting 'monoclinic'
loop_
_space_group_symop_operation_xyz
x,y,z
-x,1/2+y,-z
-x,-y,-z
x,1/2-y,z
loop_
_atom_site_type_symbol
_atom_site_label
_atom_site_fract_x
_atom_site_fract_y
_atom_site_fract_z
Si Si1 0.588724 0.337155 0.924652
Si Si2 0.665295 0.840689 0.036246
Si Si3 0.887006 0.573913 0.738162
Si Si4 0.221090 0.924663 0.264639
Si Si5 0.783420 0.576790 0.377371
Si Si6 0.532486 0.836228 0.460446
Si Si7 0.744589 0.400896 0.307652
Si Si8 0.017826 0.339366 0.794752
O O1 0.532138 0.250000 0.893248
O O2 0.420868 0.396516 0.780637
O O3 0.600196 0.339241 0.796249
O O4 0.750638 0.360449 0.187105
O O5 0.639729 0.750000 0.012760
O O6 0.802333 0.868372 0.286167
O O7 0.765960 0.862741 0.018460
O O8 0.465641 0.882219 0.855617
O O9 0.763377 0.498941 0.639783
O O10 0.917172 0.583155 0.631061
O O11 0.748370 0.638982 0.646833
O O12 0.090640 0.560496 0.013802
O O13 0.424111 0.888953 0.440323
O O14 0.081417 0.870197 0.193119
O O15 0.776008 0.490346 0.328403
O O16 0.536750 0.750000 0.506748
O O17 0.887297 0.367721 0.551989
O O18 0.016854 0.250000 0.797704
#
# Coordination Sequence:
#
# PCOD9160860 Si02
#       8
#     4   4   4   4   4   4   4   4
#     4   9  18  34  58  90 120 150 197 250 299 361
#     4  10  22  39  61  91 125 160 197 248 307 363
#     4  10  23  43  62  91 122 160 205 260 307 353
#     4  11  23  44  61  87 125 165 209 255 304 360
#     4  10  19  38  62  92 118 158 201 244 305 362
#     4  10  22  40  66  92 118 159 206 256 310 362
#     4  11  20  38  60  89 122 160 194 244 308 361
#     4  11  24  40  59  88 124 161 206 247 293 367
#
# _framework density 22.898033999999999
#
# number of rings (size 3 to 8) (size 9 to 14) (size 15 to 20)
#    0.000    1.750    1.250    4.500    0.000    4.000 
#   13.500    2.500    0.000    0.000    0.000    0.000 
#    0.000    0.000    0.000    0.000    0.000    0.000 
#
# Total GULP energy -178704.531575 kJ/mol
# GULP energy per Si atom -5584.516612 kJ/mol
# Density = 2.284592 g / cm^3
# Si number density = 22.898034 Si / 1000 Ang^3
#
#
#
# Elastic Constant Matrix: (Units=GPa)
#
#
# Indices 1 2 3 4 5 6 
#
# 1 53.0919 14.6339 -0.6658 0.0000 9.0727 0.0000
# 2 14.6339 62.7675 -6.3524 0.0000 9.2032 0.0000
# 3 -0.6658 -6.3524 54.5282 0.0000 -2.8556 0.0000
# 4 0.0000 0.0000 0.0000 5.8087 0.0000 -15.8457
# 5 9.0727 9.2032 -2.8556 0.0000 21.4289 0.0000
# 6 0.0000 0.0000 0.0000 -15.8457 0.0000 27.9297
#
#
#
# Elastic Compliance Matrix: (Units=1/GPa)
#
#
# Indices 1 2 3 4 5 6 
#
# 1 0.021164 -0.003915 -0.000583 0.000000 -0.007357 0.000000
# 2 -0.003915 0.017868 0.001731 0.000000 -0.005786 0.000000
# 3 -0.000583 0.001731 0.018638 0.000000 0.001987 0.000000
# 4 0.000000 0.000000 0.000000 -0.314350 0.000000 -0.178344
# 5 -0.007357 -0.005786 0.001987 0.000000 0.052530 0.000000
# 6 0.000000 0.000000 0.000000 -0.178344 0.000000 -0.065378
#
#
# Mechanical properties :
#
#
# Convention : Reuss Voigt Hill
#
# Bulk Modulus (GPa) = 19.18045 20.62432 19.90239
# Shear Modulus (GPa) = -20.27453 21.88495 0.80521
#
# Velocity S-wave (km/s) = -2.97884 3.09489 0.59364
# Velocity P-wave (km/s) = 1.85383 4.66880 3.02993
#
# Compressibility (1/GPa) = 0.05213642
#
# Stress axis : x y z
#
# Youngs Moduli (GPa) = 47.24971 55.96608 53.65469
#
# Poissons Ratio (x) = 0.21908 0.03127
# Poissons Ratio (y) = 0.18496 -0.09286
# Poissons Ratio (z) = 0.02754 -0.09686
#
# Static dielectric constant tensor:
#      x y z
#    x 1.913770 0.000000 0.011500 
#    y 0.000000 1.853750 0.000000 
#    z 0.011500 0.000000 1.937920 
# 
# From -- ./inp_files/40014.got.cif
#   From: 2010.05.17/outbox.cif.g08.bks.cpg/sg11_21_cif.got.tgz:40014.got - 2010.06.03 12:22:45.
