data_PCOD9160596
_publ_section_title
;
Structure prediction by ZEFSAII (Michael W. Deem and Ramdas Pophale) SiO2 
 PCOD9160596
Probable space group: P 21/M
;
_chemical_formula_sum "Si O2"
_cell_formula_units_Z 28
_cell_length_a 13.927810
_cell_length_b 16.469371
_cell_length_c 7.181361
_cell_angle_alpha 90.000000
_cell_angle_beta 61.468078
_cell_angle_gamma 90.000000
_cell_volume 1447.216972
_symmetry_space_group_name_H-M "P 21/M"
_symmetry_group_IT_number 11
_symmetry_cell_setting 'monoclinic'
loop_
_space_group_symop_operation_xyz
x,y,z
-x,1/2+y,-z
-x,-y,-z
x,1/2-y,z
loop_
_atom_site_type_symbol
_atom_site_label
_atom_site_fract_x
_atom_site_fract_y
_atom_site_fract_z
Si Si1 0.701283 0.847127 0.925501
Si Si2 0.143214 0.429940 0.508425
Si Si3 0.319175 0.838983 0.138088
Si Si4 0.424905 0.582561 0.707303
Si Si5 0.791191 0.528458 0.134796
Si Si6 0.900269 0.422833 0.731597
Si Si7 0.475954 0.923274 0.251796
O O1 0.700785 0.750000 0.937693
O O2 0.765141 0.878463 0.683712
O O3 0.763693 0.891720 0.038782
O O4 0.578551 0.882766 0.052911
O O5 0.175463 0.449194 0.689046
O O6 0.123318 0.513494 0.413123
O O7 0.022730 0.389902 0.613350
O O8 0.333547 0.750000 0.205580
O O9 0.194635 0.856952 0.201320
O O10 0.367606 0.903958 0.237335
O O11 0.388447 0.849858 0.885360
O O12 0.318008 0.526998 0.764957
O O13 0.505435 0.519013 0.734272
O O14 0.469871 0.610954 0.467974
O O15 0.879340 0.475139 0.938824
#
# Coordination Sequence:
#
# PCOD9160596 Si02
#       7
#     4   4   4   4   4   4   4
#     4  10  22  35  50  81 114 139 176 220 267 329
#     4  10  19  36  60  79 103 144 184 225 270 315
#     4  11  22  35  54  82 115 145 173 218 281 335
#     4   9  20  36  57  81 105 139 187 230 268 317
#     4   9  18  35  58  80 103 137 182 230 272 312
#     4   9  20  36  56  82 107 135 185 230 261 319
#     4  10  20  37  58  78 107 146 185 226 264 316
#
# _framework density 19.347479
#
# number of rings (size 3 to 8) (size 9 to 14) (size 15 to 20)
#    0.000    2.286    0.000    3.000    0.000    5.714 
#    0.000    0.000    0.000    0.000    0.000    0.000 
#    0.000    0.000    0.000    0.000    0.000    0.000 
#
# Total GULP energy -156313.083822 kJ/mol
# GULP energy per Si atom -5582.610137 kJ/mol
# Density = 1.930344 g / cm^3
# Si number density = 19.347479 Si / 1000 Ang^3
#
#
#
# Elastic Constant Matrix: (Units=GPa)
#
#
# Indices 1 2 3 4 5 6 
#
# 1 75.3909 25.7925 51.5733 0.0000 -0.3278 0.0000
# 2 25.7925 27.9594 21.3835 0.0000 4.7049 0.0000
# 3 51.5733 21.3835 115.6608 0.0000 6.7914 0.0000
# 4 0.0000 0.0000 0.0000 1.4247 0.0000 1.4844
# 5 -0.3278 4.7049 6.7914 0.0000 30.5871 0.0000
# 6 0.0000 0.0000 0.0000 1.4844 0.0000 6.3180
#
#
#
# Elastic Compliance Matrix: (Units=1/GPa)
#
#
# Indices 1 2 3 4 5 6 
#
# 1 0.024818 -0.017491 -0.008112 0.000000 0.004758 0.000000
# 2 -0.017491 0.054679 -0.001829 0.000000 -0.008192 0.000000
# 3 -0.008112 -0.001829 0.012756 0.000000 -0.002638 0.000000
# 4 0.000000 0.000000 0.000000 0.929435 0.000000 -0.218371
# 5 0.004758 -0.008192 -0.002638 0.000000 0.034590 0.000000
# 6 0.000000 0.000000 0.000000 -0.218371 0.000000 0.209584
#
#
# Mechanical properties :
#
#
# Convention : Reuss Voigt Hill
#
# Bulk Modulus (GPa) = 26.74559 46.27884 36.51221
# Shear Modulus (GPa) = 3.75041 15.68342 9.71691
#
# Velocity S-wave (km/s) = 1.39379 2.85022 2.24348
# Velocity P-wave (km/s) = 4.05512 5.89945 5.06199
#
# Compressibility (1/GPa) = 0.03738935
#
# Stress axis : x y z
#
# Youngs Moduli (GPa) = 40.29308 18.28859 78.39377
#
# Poissons Ratio (x) = 0.31989 0.63593
# Poissons Ratio (y) = 0.70477 0.14336
# Poissons Ratio (z) = 0.32686 0.03344
#
# Static dielectric constant tensor:
#      x y z
#    x 1.691580 0.000000 -0.028530 
#    y 0.000000 1.662980 0.000000 
#    z -0.028530 0.000000 1.696420 
# 
# From -- ./inp_files/6656.got.cif
#   From: 2010.05.17/outbox.cif.g08.bks.cpg/sg11_4_cif.got.tgz:6656.got - 2010.06.03 12:22:45.
