data_PCOD9160815
_publ_section_title
;
Structure prediction by ZEFSAII (Michael W. Deem and Ramdas Pophale) SiO2 
 PCOD9160815
Probable space group: P 21/M
;
_chemical_formula_sum "Si O2"
_cell_formula_units_Z 32
_cell_length_a 9.109955
_cell_length_b 12.838611
_cell_length_c 14.278475
_cell_angle_alpha 90.000000
_cell_angle_beta 90.745190
_cell_angle_gamma 90.000000
_cell_volume 1669.857319
_symmetry_space_group_name_H-M "P 21/M"
_symmetry_group_IT_number 11
_symmetry_cell_setting 'monoclinic'
loop_
_space_group_symop_operation_xyz
x,y,z
-x,1/2+y,-z
-x,-y,-z
x,1/2-y,z
loop_
_atom_site_type_symbol
_atom_site_label
_atom_site_fract_x
_atom_site_fract_y
_atom_site_fract_z
Si Si1 0.990612 0.125935 0.271419
Si Si2 0.762019 0.467256 0.732625
Si Si3 0.880237 0.044656 0.071136
Si Si4 0.192627 0.010678 0.579436
Si Si5 0.325565 0.631106 0.079214
Si Si6 0.347509 0.366666 0.882576
Si Si7 0.095659 0.866311 0.423329
Si Si8 0.459092 0.371672 0.670315
O O1 0.987650 0.250000 0.287032
O O2 0.945493 0.097558 0.164464
O O3 0.879010 0.064420 0.340650
O O4 0.153380 0.075313 0.285498
O O5 0.738461 0.444660 0.841755
O O6 0.870603 0.383719 0.685451
O O7 0.606326 0.439275 0.684730
O O8 0.778404 0.948225 0.099853
O O9 0.772627 0.120695 0.012989
O O10 0.000000 0.000000 0.000000
O O11 0.195224 0.942695 0.485699
O O12 0.343397 0.065825 0.606769
O O13 0.070989 0.099714 0.561555
O O14 0.321599 0.750000 0.116154
O O15 0.497685 0.607848 0.065720
O O16 0.302676 0.250000 0.909973
O O17 0.387185 0.366802 0.773132
O O18 0.122930 0.750000 0.452668
O O19 0.487199 0.250000 0.642639
#
# Coordination Sequence:
#
# PCOD9160815 Si02
#       8
#     4   4   4   4   4   4   4   4
#     4  11  23  41  57  79 120 160 193 237 289 342
#     4  10  21  39  59  85 116 148 191 243 286 337
#     4  12  22  37  56  86 114 149 196 241 283 347
#     4  10  21  37  60  86 118 152 194 235 281 347
#     4  10  20  37  59  83 114 152 188 235 291 340
#     4   9  20  37  58  83 114 150 190 236 285 339
#     4  10  20  36  59  88 116 151 192 235 285 338
#     4  10  19  37  64  90 116 150 189 237 291 339
#
# _framework density 19.163312000000001
#
# number of rings (size 3 to 8) (size 9 to 14) (size 15 to 20)
#    0.000    1.750    2.500    3.375    0.000    1.500 
#    0.000    1.875    0.000    0.000    0.000    0.000 
#    0.000    0.000    0.000    0.000    0.000    0.000 
#
# Total GULP energy -178510.594966 kJ/mol
# GULP energy per Si atom -5578.456093 kJ/mol
# Density = 1.911970 g / cm^3
# Si number density = 19.163312 Si / 1000 Ang^3
#
#
#
# Elastic Constant Matrix: (Units=GPa)
#
#
# Indices 1 2 3 4 5 6 
#
# 1 78.6163 52.6822 22.8740 0.0000 14.0011 0.0000
# 2 52.6822 91.4404 11.3333 0.0000 4.5887 0.0000
# 3 22.8740 11.3333 46.3911 0.0000 5.5504 0.0000
# 4 0.0000 0.0000 0.0000 16.3295 0.0000 4.8023
# 5 14.0011 4.5887 5.5504 0.0000 34.2711 0.0000
# 6 0.0000 0.0000 0.0000 4.8023 0.0000 10.6742
#
#
#
# Elastic Compliance Matrix: (Units=1/GPa)
#
#
# Indices 1 2 3 4 5 6 
#
# 1 0.025250 -0.013148 -0.008377 0.000000 -0.007199 0.000000
# 2 -0.013148 0.018164 0.001727 0.000000 0.002660 0.000000
# 3 -0.008377 0.001727 0.025374 0.000000 -0.000919 0.000000
# 4 0.000000 0.000000 0.000000 0.070577 0.000000 -0.031753
# 5 -0.007199 0.002660 -0.000919 0.000000 0.031913 0.000000
# 6 0.000000 0.000000 0.000000 -0.031753 0.000000 0.107970
#
#
# Mechanical properties :
#
#
# Convention : Reuss Voigt Hill
#
# Bulk Modulus (GPa) = 34.25493 43.35853 38.80673
# Shear Modulus (GPa) = 15.21735 20.89217 18.05476
#
# Velocity S-wave (km/s) = 2.82101 3.30543 3.07278
# Velocity P-wave (km/s) = 5.34087 6.10268 5.73444
#
# Compressibility (1/GPa) = 0.02919287
#
# Stress axis : x y z
#
# Youngs Moduli (GPa) = 39.60405 55.05528 39.41034
#
# Poissons Ratio (x) = 0.72386 0.33013
# Poissons Ratio (y) = 0.52071 -0.06807
# Poissons Ratio (z) = 0.33175 -0.09510
#
# Static dielectric constant tensor:
#      x y z
#    x 1.677290 0.000000 0.004330 
#    y 0.000000 1.666300 0.000000 
#    z 0.004330 0.000000 1.684590 
# 
# From -- ./inp_files/47193.got.cif
#   From: 2010.05.17/outbox.cif.g08.bks.cpg/sg11_24_cif.got.tgz:47193.got - 2010.06.03 12:22:45.
