data_PCOD9160171
_publ_section_title
;
Structure prediction by ZEFSAII (Michael W. Deem and Ramdas Pophale) SiO2 
 PCOD9160171
Probable space group: P 21/M
;
_chemical_formula_sum "Si O2"
_cell_formula_units_Z 32
_cell_length_a 12.876088
_cell_length_b 13.623801
_cell_length_c 16.230223
_cell_angle_alpha 90.000000
_cell_angle_beta 140.858906
_cell_angle_gamma 90.000000
_cell_volume 1797.197851
_symmetry_space_group_name_H-M "P 21/M"
_symmetry_group_IT_number 11
_symmetry_cell_setting 'monoclinic'
loop_
_space_group_symop_operation_xyz
x,y,z
-x,1/2+y,-z
-x,-y,-z
x,1/2-y,z
loop_
_atom_site_type_symbol
_atom_site_label
_atom_site_fract_x
_atom_site_fract_y
_atom_site_fract_z
Si Si1 0.159916 0.011824 0.041395
Si Si2 0.965331 0.134282 0.157097
Si Si3 0.857366 0.137422 0.531236
Si Si4 0.730499 0.864199 0.031252
Si Si5 0.352080 0.638258 0.431463
Si Si6 0.349332 0.864734 0.758886
Si Si7 0.865349 0.006491 0.250110
Si Si8 0.306410 0.447468 0.296206
O O1 0.151416 0.099006 0.969703
O O2 0.298950 0.036580 0.193479
O O3 0.000000 0.000000 0.000000
O O4 0.164729 0.915683 0.986539
O O5 0.943182 0.250000 0.150008
O O6 0.144469 0.108386 0.229676
O O7 0.945900 0.080773 0.233038
O O8 0.919389 0.250000 0.559616
O O9 0.771691 0.131163 0.567704
O O10 0.723872 0.120758 0.377417
O O11 0.998514 0.055902 0.617099
O O12 0.754957 0.750000 0.062828
O O13 0.544191 0.881664 0.886169
O O14 0.766963 0.928368 0.133746
O O15 0.348392 0.750000 0.397782
O O16 0.308258 0.555103 0.338618
O O17 0.533008 0.611253 0.576728
O O18 0.321520 0.750000 0.763272
O O19 0.251729 0.933655 0.761462
#
# Coordination Sequence:
#
# PCOD9160171 Si02
#       8
#     4   4   4   4   4   4   4   4
#     4   9  20  34  52  80 107 137 176 220 270 320
#     4  10  20  34  52  75 106 143 180 219 272 334
#     4  10  20  35  55  81 108 139 182 228 278 322
#     4  10  21  37  58  82 109 142 184 226 272 327
#     4  10  20  33  54  79 108 143 182 229 269 324
#     4  10  21  36  57  82 107 143 183 223 274 330
#     4  11  20  36  54  82 109 143 177 233 276 322
#     4  10  19  35  52  77 108 143 183 219 275 329
#
# _framework density 17.805495000000001
#
# number of rings (size 3 to 8) (size 9 to 14) (size 15 to 20)
#    0.000    2.000    1.250    2.625    0.000    4.000 
#    0.000    0.000    0.000    0.750    0.000    0.000 
#    0.000    0.000    0.000    0.000    0.000    0.000 
#
# Total GULP energy -178517.180164 kJ/mol
# GULP energy per Si atom -5578.661880 kJ/mol
# Density = 1.776497 g / cm^3
# Si number density = 17.805495 Si / 1000 Ang^3
#
#
#
# Elastic Constant Matrix: (Units=GPa)
#
#
# Indices 1 2 3 4 5 6 
#
# 1 38.8933 12.2362 -15.7668 0.0000 2.3303 0.0000
# 2 12.2362 98.0293 13.6162 0.0000 3.8712 0.0000
# 3 -15.7668 13.6162 43.0709 0.0000 -2.8340 0.0000
# 4 0.0000 0.0000 0.0000 14.3387 0.0000 4.3200
# 5 2.3303 3.8712 -2.8340 0.0000 19.2316 0.0000
# 6 0.0000 0.0000 0.0000 4.3200 0.0000 26.2006
#
#
#
# Elastic Compliance Matrix: (Units=1/GPa)
#
#
# Indices 1 2 3 4 5 6 
#
# 1 0.033391 -0.006097 0.014102 0.000000 -0.000741 0.000000
# 2 -0.006097 0.011921 -0.006170 0.000000 -0.002570 0.000000
# 3 0.014102 -0.006170 0.030596 0.000000 0.004042 0.000000
# 4 0.000000 0.000000 0.000000 0.073387 0.000000 -0.012100
# 5 -0.000741 -0.002570 0.004042 0.000000 0.053200 0.000000
# 6 0.000000 0.000000 0.000000 -0.012100 0.000000 0.040162
#
#
# Mechanical properties :
#
#
# Convention : Reuss Voigt Hill
#
# Bulk Modulus (GPa) = 12.56632 22.24052 17.40342
# Shear Modulus (GPa) = 18.83148 23.28138 21.05643
#
# Velocity S-wave (km/s) = 3.25564 3.61991 3.44260
# Velocity P-wave (km/s) = 4.60490 5.47628 5.05938
#
# Compressibility (1/GPa) = 0.07957781
#
# Stress axis : x y z
#
# Youngs Moduli (GPa) = 29.94828 83.88861 32.68379
#
# Poissons Ratio (x) = 0.51151 -0.46091
# Poissons Ratio (y) = 0.18261 0.20165
# Poissons Ratio (z) = -0.42234 0.51756
#
# Static dielectric constant tensor:
#      x y z
#    x 1.589570 0.000000 0.015510 
#    y 0.000000 1.592590 0.000000 
#    z 0.015510 0.000000 1.627560 
# 
# From -- ./inp_files/52311.got.cif
#   From: 2010.05.17/outbox.cif.g08.bks.cpg/sg11_27_cif.got.tgz:52311.got - 2010.06.03 12:22:45.
