data_PCOD9160643
_publ_section_title
;
Structure prediction by ZEFSAII (Michael W. Deem and Ramdas Pophale) SiO2 
 PCOD9160643
Probable space group: P 21/M
;
_chemical_formula_sum "Si O2"
_cell_formula_units_Z 32
_cell_length_a 13.094144
_cell_length_b 8.570177
_cell_length_c 32.649802
_cell_angle_alpha 90.000000
_cell_angle_beta 153.331107
_cell_angle_gamma 90.000000
_cell_volume 1644.497096
_symmetry_space_group_name_H-M "P 21/M"
_symmetry_group_IT_number 11
_symmetry_cell_setting 'monoclinic'
loop_
_space_group_symop_operation_xyz
x,y,z
-x,1/2+y,-z
-x,-y,-z
x,1/2-y,z
loop_
_atom_site_type_symbol
_atom_site_label
_atom_site_fract_x
_atom_site_fract_y
_atom_site_fract_z
Si Si1 0.120429 0.563435 0.861225
Si Si2 0.938150 0.936043 0.073562
Si Si3 0.659858 0.937134 0.592857
Si Si4 0.588794 0.438463 0.884136
Si Si5 0.756839 0.437343 0.399477
Si Si6 0.572002 0.438372 0.782915
Si Si7 0.165943 0.436625 0.789922
Si Si8 0.598334 0.938865 0.660701
O O1 0.139508 0.750000 0.866619
O O2 0.179298 0.505695 0.927748
O O3 0.226925 0.496227 0.857662
O O4 0.855321 0.513863 0.762495
O O5 0.941720 0.750000 0.078986
O O6 0.198714 0.990988 0.158904
O O7 0.795079 0.985354 0.982715
O O8 0.668802 0.750000 0.594220
O O9 0.549742 0.985175 0.596858
O O10 0.500000 0.000000 0.500000
O O11 0.919901 0.997431 0.688036
O O12 0.612132 0.250000 0.894217
O O13 0.584124 0.484699 0.834884
O O14 0.358733 0.480589 0.826210
O O15 0.760788 0.250000 0.400679
O O16 0.651811 0.496487 0.319315
O O17 0.579381 0.496530 0.370163
O O18 0.000000 0.500000 0.500000
O O19 0.566328 0.250000 0.779303
O O20 0.150625 0.250000 0.786007
O O21 0.595891 0.750000 0.661414
#
# Coordination Sequence:
#
# PCOD9160643 Si02
#       8
#     4   4   4   4   4   4   4   4
#     4  10  19  36  61  85 113 152 192 236 293 352
#     4  11  22  36  61  92 118 149 200 252 292 346
#     4  10  20  36  58  84 112 150 194 240 293 351
#     4  10  23  41  60  83 121 164 196 236 299 360
#     4  11  22  38  59  86 116 152 194 241 296 352
#     4  10  22  41  61  86 118 155 198 247 295 348
#     4  10  21  38  58  84 116 153 196 244 294 347
#     4   8  17  34  55  77 106 145 186 228 284 345
#
# _framework density 19.458836000000002
#
# number of rings (size 3 to 8) (size 9 to 14) (size 15 to 20)
#    0.000    2.000    1.250    3.000    0.000    3.500 
#    0.000    6.875    0.000    0.000    0.000    0.000 
#    0.000    0.000    0.000    0.000    0.000    0.000 
#
# Total GULP energy -178635.168988 kJ/mol
# GULP energy per Si atom -5582.349031 kJ/mol
# Density = 1.941455 g / cm^3
# Si number density = 19.458836 Si / 1000 Ang^3
#
#
#
# Elastic Constant Matrix: (Units=GPa)
#
#
# Indices 1 2 3 4 5 6 
#
# 1 100.2339 25.4096 39.3031 0.0000 -16.4305 0.0000
# 2 25.4096 40.9157 25.1015 0.0000 -4.8015 0.0000
# 3 39.3031 25.1015 105.0807 0.0000 -20.4046 0.0000
# 4 0.0000 0.0000 0.0000 34.3068 0.0000 -6.8324
# 5 -16.4305 -4.8015 -20.4046 0.0000 35.5607 0.0000
# 6 0.0000 0.0000 0.0000 -6.8324 0.0000 23.0092
#
#
#
# Elastic Compliance Matrix: (Units=1/GPa)
#
#
# Indices 1 2 3 4 5 6 
#
# 1 0.013208 -0.006067 -0.002774 0.000000 0.003692 0.000000
# 2 -0.006067 0.031425 -0.005579 0.000000 -0.001762 0.000000
# 3 -0.002774 -0.005579 0.012933 0.000000 0.005386 0.000000
# 4 0.000000 0.000000 0.000000 0.030981 0.000000 0.009200
# 5 0.003692 -0.001762 0.005386 0.000000 0.032679 0.000000
# 6 0.000000 0.000000 0.000000 0.009200 0.000000 0.046193
#
#
# Mechanical properties :
#
#
# Convention : Reuss Voigt Hill
#
# Bulk Modulus (GPa) = 34.81446 47.31763 41.06604
# Shear Modulus (GPa) = 24.29159 29.00310 26.64734
#
# Velocity S-wave (km/s) = 3.53704 3.86487 3.70458
# Velocity P-wave (km/s) = 5.88312 6.65476 6.28080
#
# Compressibility (1/GPa) = 0.02872370
#
# Stress axis : x y z
#
# Youngs Moduli (GPa) = 75.71447 31.82225 77.32414
#
# Poissons Ratio (x) = 0.19307 0.21448
# Poissons Ratio (y) = 0.45938 0.43142
# Poissons Ratio (z) = 0.21002 0.17755
#
# Static dielectric constant tensor:
#      x y z
#    x 1.699760 0.000000 -0.002030 
#    y 0.000000 1.663190 0.000000 
#    z -0.002030 0.000000 1.670120 
# 
# From -- ./inp_files/54372.got.cif
#   From: 2010.05.17/outbox.cif.g08.bks.cpg/sg11_28_cif.got.tgz:54372.got - 2010.06.03 12:22:45.
