data_PCOD9160156
_publ_section_title
;
Structure prediction by ZEFSAII (Michael W. Deem and Ramdas Pophale) SiO2 
 PCOD9160156
Probable space group: P 21/M
;
_chemical_formula_sum "Si O2"
_cell_formula_units_Z 20
_cell_length_a 21.619886
_cell_length_b 8.579496
_cell_length_c 15.686241
_cell_angle_alpha 90.000000
_cell_angle_beta 158.553415
_cell_angle_gamma 90.000000
_cell_volume 1063.849613
_symmetry_space_group_name_H-M "P 21/M"
_symmetry_group_IT_number 11
_symmetry_cell_setting 'monoclinic'
loop_
_space_group_symop_operation_xyz
x,y,z
-x,1/2+y,-z
-x,-y,-z
x,1/2-y,z
loop_
_atom_site_type_symbol
_atom_site_label
_atom_site_fract_x
_atom_site_fract_y
_atom_site_fract_z
Si Si1 0.463768 0.750000 0.629264
Si Si2 0.847320 0.750000 0.177736
Si Si3 0.635158 0.250000 0.299352
Si Si4 0.895326 0.001516 0.562787
Si Si5 0.716105 0.930371 0.647728
Si Si6 0.748950 0.750000 0.248290
Si Si7 0.019479 0.578311 0.903742
O O1 0.389491 0.750000 0.630585
O O2 0.405324 0.582856 0.513515
O O3 0.665830 0.750000 0.899297
O O4 0.820207 0.750000 0.244188
O O5 0.958924 0.603965 0.292650
O O6 0.745100 0.104642 0.409424
O O7 0.452667 0.250000 0.021190
O O8 0.815183 0.894207 0.388115
O O9 0.978062 0.922714 0.751550
O O10 0.649004 0.750000 0.560598
O O11 0.847183 0.946398 0.736358
O O12 0.839737 0.954728 0.887485
O O13 0.082641 0.750000 0.011172
#
# Coordination Sequence:
#
# PCOD9160156 Si02
#       7
#     2   2   2   4   4   2   4
#     4  11  20  43  58  88 132 162 196 255 297 354
#     4  10  26  40  60  81 124 165 199 242 311 358
#     4  10  22  36  64  90 121 150 194 258 313 348
#     4  11  21  39  62  88 116 158 205 244 300 368
#     4  10  21  34  62  96 125 155 200 245 309 358
#     4  11  22  41  62  87 117 155 203 257 303 358
#     4  10  19  34  60  94 119 155 197 254 299 359
#
# _framework density 18.799648999999999
#
# number of rings (size 3 to 8) (size 9 to 14) (size 15 to 20)
#    0.000    1.600    4.000    1.200    4.200    0.000 
#    1.800    1.000    4.400    0.000    0.000    0.000 
#    0.000    0.000    0.000    0.000    0.000    0.000 
#
# Total GULP energy -111517.418788 kJ/mol
# GULP energy per Si atom -5575.870939 kJ/mol
# Density = 1.875686 g / cm^3
# Si number density = 18.799649 Si / 1000 Ang^3
#
#
#
# Elastic Constant Matrix: (Units=GPa)
#
#
# Indices 1 2 3 4 5 6 
#
# 1 53.0045 17.9048 40.8334 0.0000 -3.1360 0.0000
# 2 17.9048 129.7857 63.4969 0.0000 1.3708 0.0000
# 3 40.8334 63.4969 104.5058 0.0000 -4.6395 0.0000
# 4 0.0000 0.0000 0.0000 51.8972 0.0000 -11.9960
# 5 -3.1360 1.3708 -4.6395 0.0000 30.6206 0.0000
# 6 0.0000 0.0000 0.0000 -11.9960 0.0000 -2.0222
#
#
#
# Elastic Compliance Matrix: (Units=1/GPa)
#
#
# Indices 1 2 3 4 5 6 
#
# 1 0.027402 0.002033 -0.011901 0.000000 0.000912 0.000000
# 2 0.002033 0.011185 -0.007655 0.000000 -0.001452 0.000000
# 3 -0.011901 -0.007655 0.018959 0.000000 0.001996 0.000000
# 4 0.000000 0.000000 0.000000 0.008126 0.000000 -0.048206
# 5 0.000912 -0.001452 0.001996 0.000000 0.033119 0.000000
# 6 0.000000 0.000000 0.000000 -0.048206 0.000000 -0.208549
#
#
# Mechanical properties :
#
#
# Convention : Reuss Voigt Hill
#
# Bulk Modulus (GPa) = 44.44612 59.08515 51.76563
# Shear Modulus (GPa) = -74.39116 27.10318 -23.64399
#
# Velocity S-wave (km/s) = -6.29733 3.80107 -3.55023
# Velocity P-wave (km/s) = 5.40203 7.12470 3.28477
#
# Compressibility (1/GPa) = 0.02249915
#
# Stress axis : x y z
#
# Youngs Moduli (GPa) = 36.49341 89.40645 52.74663
#
# Poissons Ratio (x) = -0.18174 0.62776
# Poissons Ratio (y) = -0.07418 0.40375
# Poissons Ratio (z) = 0.43432 0.68437
#
# Static dielectric constant tensor:
#      x y z
#    x 1.618000 0.000000 -0.005980 
#    y 0.000000 1.682490 0.000000 
#    z -0.005980 0.000000 1.618130 
# 
# From -- ./inp_files/16044.got.cif
#   From: 2010.05.17/outbox.cif.g08.bks.cpg/sg11_9_cif.got.tgz:16044.got - 2010.06.03 12:22:45.
