data_PCOD9160675
_publ_section_title
;
Structure prediction by ZEFSAII (Michael W. Deem and Ramdas Pophale) SiO2 
 PCOD9160675
Probable space group: P 21/M
;
_chemical_formula_sum "Si O2"
_cell_formula_units_Z 32
_cell_length_a 11.515969
_cell_length_b 15.896786
_cell_length_c 14.579274
_cell_angle_alpha 90.000000
_cell_angle_beta 31.943138
_cell_angle_gamma 90.000000
_cell_volume 1412.098214
_symmetry_space_group_name_H-M "P 21/M"
_symmetry_group_IT_number 11
_symmetry_cell_setting 'monoclinic'
loop_
_space_group_symop_operation_xyz
x,y,z
-x,1/2+y,-z
-x,-y,-z
x,1/2-y,z
loop_
_atom_site_type_symbol
_atom_site_label
_atom_site_fract_x
_atom_site_fract_y
_atom_site_fract_z
Si Si1 0.717619 0.156395 0.325230
Si Si2 0.794694 0.527496 0.701430
Si Si3 0.434650 0.919214 0.271096
Si Si4 0.971280 0.649738 0.198126
Si Si5 0.942223 0.154807 0.370732
Si Si6 0.102357 0.093506 0.948197
Si Si7 0.466758 0.655305 0.832779
Si Si8 0.623395 0.576930 0.553607
O O1 0.616854 0.250000 0.391697
O O2 0.827642 0.144903 0.349664
O O3 0.545304 0.083793 0.417085
O O4 0.911078 0.148283 0.121634
O O5 0.624517 0.451032 0.792591
O O6 0.655687 0.604343 0.754736
O O7 0.000000 0.500000 0.500000
O O8 0.900324 0.573939 0.718122
O O9 0.254391 0.851303 0.422313
O O10 0.687324 0.901553 0.125736
O O11 0.387665 0.995244 0.375868
O O12 0.966482 0.750000 0.216954
O O13 0.846927 0.629401 0.186471
O O14 0.858819 0.601027 0.356882
O O15 0.222611 0.621103 0.014123
O O16 0.039064 0.250000 0.310284
O O17 0.000000 0.000000 0.000000
O O18 0.466579 0.750000 0.864651
O O19 0.527670 0.648437 0.685381
#
# Coordination Sequence:
#
# PCOD9160675 Si02
#       8
#     4   4   4   4   4   4   4   4
#     4  11  22  37  59  89 128 166 208 257 309 375
#     4   9  19  40  63  85 115 156 211 259 308 363
#     4  10  22  38  62  90 123 158 209 263 306 375
#     4  11  23  36  60  94 129 166 207 254 316 383
#     4  10  22  39  62  87 117 164 208 254 319 373
#     4  12  22  37  58  88 127 170 207 246 319 374
#     4  10  19  36  62  91 124 162 204 257 311 367
#     4  11  21  38  61  93 129 161 201 255 309 376
#
# _framework density 22.661314000000001
#
# number of rings (size 3 to 8) (size 9 to 14) (size 15 to 20)
#    0.000    1.500    2.500    3.375    1.750    3.000 
#    0.000    0.625   11.000    0.000    0.000    0.000 
#    0.000    0.000    0.000    0.000    0.000    0.000 
#
# Total GULP energy -178524.718919 kJ/mol
# GULP energy per Si atom -5578.897466 kJ/mol
# Density = 2.260974 g / cm^3
# Si number density = 22.661314 Si / 1000 Ang^3
#
#
#
# Elastic Constant Matrix: (Units=GPa)
#
#
# Indices 1 2 3 4 5 6 
#
# 1 67.9342 13.6699 4.6931 0.0000 -21.0816 0.0000
# 2 13.6699 63.1954 6.1019 0.0000 2.2003 0.0000
# 3 4.6931 6.1019 85.7586 0.0000 -11.6900 0.0000
# 4 0.0000 0.0000 0.0000 28.1014 0.0000 -4.1666
# 5 -21.0816 2.2003 -11.6900 0.0000 32.4722 0.0000
# 6 0.0000 0.0000 0.0000 -4.1666 0.0000 27.3859
#
#
#
# Elastic Compliance Matrix: (Units=1/GPa)
#
#
# Indices 1 2 3 4 5 6 
#
# 1 0.019851 -0.004876 0.001117 0.000000 0.013620 0.000000
# 2 -0.004876 0.017207 -0.001628 0.000000 -0.004918 0.000000
# 3 0.001117 -0.001628 0.012440 0.000000 0.005314 0.000000
# 4 0.000000 0.000000 0.000000 0.036407 0.000000 0.005539
# 5 0.013620 -0.004918 0.005314 0.000000 0.041884 0.000000
# 6 0.000000 0.000000 0.000000 0.005539 0.000000 0.037358
#
#
# Mechanical properties :
#
#
# Convention : Reuss Voigt Hill
#
# Bulk Modulus (GPa) = 25.82363 29.53532 27.67948
# Shear Modulus (GPa) = 26.47916 30.42012 28.44964
#
# Velocity S-wave (km/s) = 3.42200 3.66783 3.54705
# Velocity P-wave (km/s) = 5.19939 5.56767 5.38668
#
# Compressibility (1/GPa) = 0.03872423
#
# Stress axis : x y z
#
# Youngs Moduli (GPa) = 50.37588 58.11565 80.38793
#
# Poissons Ratio (x) = 0.28338 -0.08981
# Poissons Ratio (y) = 0.24564 0.13086
# Poissons Ratio (z) = -0.05628 0.09460
#
# Static dielectric constant tensor:
#      x y z
#    x 1.921460 0.000000 -0.021300 
#    y 0.000000 1.882230 0.000000 
#    z -0.021300 0.000000 1.862750 
# 
# From -- ./inp_files/50679.got.cif
#   From: 2010.05.17/outbox.cif.g08.bks.cpg/sg11_26_cif.got.tgz:50679.got - 2010.06.03 12:22:45.
