data_PCOD9160362
_publ_section_title
;
Structure prediction by ZEFSAII (Michael W. Deem and Ramdas Pophale) SiO2 
 PCOD9160362
Probable space group: P 21/M
;
_chemical_formula_sum "Si O2"
_cell_formula_units_Z 24
_cell_length_a 14.651304
_cell_length_b 8.109182
_cell_length_c 18.199590
_cell_angle_alpha 90.000000
_cell_angle_beta 154.386379
_cell_angle_gamma 90.000000
_cell_volume 934.760384
_symmetry_space_group_name_H-M "P 21/M"
_symmetry_group_IT_number 11
_symmetry_cell_setting 'monoclinic'
loop_
_space_group_symop_operation_xyz
x,y,z
-x,1/2+y,-z
-x,-y,-z
x,1/2-y,z
loop_
_atom_site_type_symbol
_atom_site_label
_atom_site_fract_x
_atom_site_fract_y
_atom_site_fract_z
Si Si1 0.753556 0.051016 0.313175
Si Si2 0.695339 0.566813 0.796296
Si Si3 0.283996 0.057224 0.555711
Si Si4 0.167651 0.941881 0.947905
Si Si5 0.210891 0.950261 0.820491
Si Si6 0.260951 0.562835 0.321866
O O1 0.737255 0.250000 0.304500
O O2 0.688426 0.992204 0.183765
O O3 0.654849 0.973390 0.314395
O O4 0.000000 0.000000 0.500000
O O5 0.745898 0.750000 0.808055
O O6 0.443454 0.542757 0.621205
O O7 0.783982 0.447563 0.798557
O O8 0.772199 0.534860 0.934398
O O9 0.308853 0.250000 0.557491
O O10 0.039385 0.012250 0.370072
O O11 0.224478 0.750000 0.996355
O O12 0.260100 0.011179 0.938321
O O13 0.912332 0.956140 0.761321
O O14 0.229751 0.750000 0.835486
O O15 0.500000 0.500000 0.500000
O O16 0.242555 0.750000 0.333062
#
# Coordination Sequence:
#
# PCOD9160362 Si02
#       6
#     4   4   4   4   4   4
#     4   9  16  30  52  82 115 150 191 240 290 342
#     4  12  25  41  59  85 118 155 194 239 292 350
#     4  10  19  35  58  86 115 150 194 244 295 348
#     4  11  22  40  62  86 117 156 195 239 291 347
#     4   8  17  33  57  84 113 147 190 238 287 339
#     4  12  25  43  65  91 118 150 191 238 286 342
#
# _framework density 25.675031000000001
#
# number of rings (size 3 to 8) (size 9 to 14) (size 15 to 20)
#    0.000    1.667    0.000    7.000    0.000    1.333 
#    0.000   10.000    0.000    0.000    0.000    0.000 
#    0.000    0.000    0.000    0.000    0.000    0.000 
#
# Total GULP energy -134383.940927 kJ/mol
# GULP energy per Si atom -5599.330872 kJ/mol
# Density = 2.561659 g / cm^3
# Si number density = 25.675031 Si / 1000 Ang^3
#
#
#
# Elastic Constant Matrix: (Units=GPa)
#
#
# Indices 1 2 3 4 5 6 
#
# 1 160.9331 -1.2849 16.0251 0.0000 -13.5795 0.0000
# 2 -1.2849 81.2564 -0.4427 0.0000 3.2483 0.0000
# 3 16.0251 -0.4427 72.5593 0.0000 -18.2533 0.0000
# 4 0.0000 0.0000 0.0000 28.1736 0.0000 -2.1381
# 5 -13.5795 3.2483 -18.2533 0.0000 51.7453 0.0000
# 6 0.0000 0.0000 0.0000 -2.1381 0.0000 33.4536
#
#
#
# Elastic Compliance Matrix: (Units=1/GPa)
#
#
# Indices 1 2 3 4 5 6 
#
# 1 0.006433 0.000044 -0.001093 0.000000 0.001300 0.000000
# 2 0.000044 0.012339 -0.000139 0.000000 -0.000812 0.000000
# 3 -0.001093 -0.000139 0.015311 0.000000 0.005123 0.000000
# 4 0.000000 0.000000 0.000000 0.035667 0.000000 0.002280
# 5 0.001300 -0.000812 0.005123 0.000000 0.021525 0.000000
# 6 0.000000 0.000000 0.000000 0.002280 0.000000 0.030038
#
#
# Mechanical properties :
#
#
# Convention : Reuss Voigt Hill
#
# Bulk Modulus (GPa) = 31.53943 38.14930 34.84437
# Shear Modulus (GPa) = 37.24172 42.70458 39.97315
#
# Velocity S-wave (km/s) = 3.81268 4.08275 3.95002
# Velocity P-wave (km/s) = 5.62963 6.09228 5.86552
#
# Compressibility (1/GPa) = 0.03170634
#
# Stress axis : x y z
#
# Youngs Moduli (GPa) = 155.45675 81.04302 65.31166
#
# Poissons Ratio (x) = -0.00355 0.07142
# Poissons Ratio (y) = -0.00681 0.00906
# Poissons Ratio (z) = 0.16999 0.01124
#
# Static dielectric constant tensor:
#      x y z
#    x 2.082640 0.000000 0.072330 
#    y 0.000000 1.885490 0.000000 
#    z 0.072330 0.000000 2.294820 
# 
# From -- ./inp_files/60195.got.cif
#   From: 2010.05.17/outbox.cif.g08.bks.cpg/sg11_31_cif.got.tgz:60195.got - 2010.06.03 12:22:45.
