data_PCOD9160198
_publ_section_title
;
Structure prediction by ZEFSAII (Michael W. Deem and Ramdas Pophale) SiO2 
 PCOD9160198
Probable space group: P 21/M
;
_chemical_formula_sum "Si O2"
_cell_formula_units_Z 28
_cell_length_a 9.937586
_cell_length_b 7.496843
_cell_length_c 28.370714
_cell_angle_alpha 90.000000
_cell_angle_beta 147.066851
_cell_angle_gamma 90.000000
_cell_volume 1149.097991
_symmetry_space_group_name_H-M "P 21/M"
_symmetry_group_IT_number 11
_symmetry_cell_setting 'monoclinic'
loop_
_space_group_symop_operation_xyz
x,y,z
-x,1/2+y,-z
-x,-y,-z
x,1/2-y,z
loop_
_atom_site_type_symbol
_atom_site_label
_atom_site_fract_x
_atom_site_fract_y
_atom_site_fract_z
Si Si1 0.618029 0.544491 0.645953
Si Si2 0.252685 0.542613 0.170592
Si Si3 0.957114 0.031834 0.289122
Si Si4 0.721409 0.963883 0.028620
Si Si5 0.822087 0.966945 0.546335
Si Si6 0.695702 0.045633 0.362211
Si Si7 0.606082 0.534250 0.888933
O O1 0.663704 0.750000 0.673158
O O2 0.879784 0.468193 0.707051
O O3 0.438251 0.538757 0.547881
O O4 0.458369 0.459576 0.640706
O O5 0.281514 0.750000 0.190610
O O6 0.504321 0.452585 0.262283
O O7 0.231109 0.526536 0.107631
O O8 0.001998 0.472335 0.121557
O O9 0.958848 0.250000 0.288930
O O10 0.091009 0.976846 0.376497
O O11 0.674582 0.975870 0.204343
O O12 0.740040 0.750000 0.031503
O O13 0.664210 0.028338 0.958787
O O14 0.500000 0.000000 0.000000
O O15 0.812532 0.750000 0.542820
O O16 0.041369 0.029887 0.575793
O O17 0.748806 0.250000 0.391395
O O18 0.615498 0.750000 0.891737
#
# Coordination Sequence:
#
# PCOD9160198 Si02
#       7
#     4   4   4   4   4   4   4
#     4  10  21  34  54  83 112 147 194 241 287 341
#     4  11  23  39  59  90 123 150 191 245 292 338
#     4   9  18  34  56  82 111 143 191 239 273 337
#     4  10  24  41  63  93 123 154 189 235 290 348
#     4  10  19  35  55  78 111 150 193 239 286 341
#     4  10  21  37  58  82 111 155 200 233 281 351
#     4  10  20  40  65  86 114 158 200 233 281 347
#
# _framework density 24.366938999999999
#
# number of rings (size 3 to 8) (size 9 to 14) (size 15 to 20)
#    0.000    2.000    1.429    1.714    2.000    2.857 
#    0.000    0.714    0.000    0.000    0.000    0.000 
#    0.000    0.000    0.000    0.000    0.000    0.000 
#
# Total GULP energy -156539.416585 kJ/mol
# GULP energy per Si atom -5590.693449 kJ/mol
# Density = 2.431148 g / cm^3
# Si number density = 24.366939 Si / 1000 Ang^3
#
#
#
# Elastic Constant Matrix: (Units=GPa)
#
#
# Indices 1 2 3 4 5 6 
#
# 1 135.4015 0.7849 16.0848 0.0000 35.3891 0.0000
# 2 0.7849 74.8405 -6.5446 0.0000 0.5080 0.0000
# 3 16.0848 -6.5446 55.0686 0.0000 9.7350 0.0000
# 4 0.0000 0.0000 0.0000 13.2954 0.0000 -5.0007
# 5 35.3891 0.5080 9.7350 0.0000 41.5619 0.0000
# 6 0.0000 0.0000 0.0000 -5.0007 0.0000 9.5609
#
#
#
# Elastic Compliance Matrix: (Units=1/GPa)
#
#
# Indices 1 2 3 4 5 6 
#
# 1 0.009607 -0.000174 -0.001441 0.000000 -0.007840 0.000000
# 2 -0.000174 0.013518 0.001732 0.000000 -0.000423 0.000000
# 3 -0.001441 0.001732 0.019375 0.000000 -0.003333 0.000000
# 4 0.000000 0.000000 0.000000 0.093634 0.000000 0.048974
# 5 -0.007840 -0.000423 -0.003333 0.000000 0.031522 0.000000
# 6 0.000000 0.000000 0.000000 0.048974 0.000000 0.130207
#
#
# Mechanical properties :
#
#
# Convention : Reuss Voigt Hill
#
# Bulk Modulus (GPa) = 23.39980 31.77344 27.58662
# Shear Modulus (GPa) = 16.03220 29.88268 22.95744
#
# Velocity S-wave (km/s) = 2.56783 3.50574 3.07278
# Velocity P-wave (km/s) = 4.29134 5.42723 4.89237
#
# Compressibility (1/GPa) = 0.04273540
#
# Stress axis : x y z
#
# Youngs Moduli (GPa) = 104.09298 73.97597 51.61310
#
# Poissons Ratio (x) = 0.01284 0.07435
# Poissons Ratio (y) = 0.01806 -0.08939
# Poissons Ratio (z) = 0.14996 -0.12813
#
# Static dielectric constant tensor:
#      x y z
#    x 1.965410 0.000000 -0.023450 
#    y 0.000000 1.897420 0.000000 
#    z -0.023450 0.000000 1.919630 
# 
# From -- ./inp_files/70927.got.cif
#   From: 2010.05.17/outbox.cif.g08.bks.cpg/sg11_36_cif.got.tgz:70927.got - 2010.06.03 12:22:45.
