data_PCOD9160584
_publ_section_title
;
Structure prediction by ZEFSAII (Michael W. Deem and Ramdas Pophale) SiO2 
 PCOD9160584
Probable space group: P 21/M
;
_chemical_formula_sum "Si O2"
_cell_formula_units_Z 32
_cell_length_a 15.372944
_cell_length_b 17.910642
_cell_length_c 11.519782
_cell_angle_alpha 90.000000
_cell_angle_beta 151.878692
_cell_angle_gamma 90.000000
_cell_volume 1495.018858
_symmetry_space_group_name_H-M "P 21/M"
_symmetry_group_IT_number 11
_symmetry_cell_setting 'monoclinic'
loop_
_space_group_symop_operation_xyz
x,y,z
-x,1/2+y,-z
-x,-y,-z
x,1/2-y,z
loop_
_atom_site_type_symbol
_atom_site_label
_atom_site_fract_x
_atom_site_fract_y
_atom_site_fract_z
Si Si1 0.691109 0.081882 0.303031
Si Si2 0.975519 0.412376 0.951550
Si Si3 0.373928 0.835320 0.561207
Si Si4 0.418897 0.543388 0.078309
Si Si5 0.022174 0.518003 0.662337
Si Si6 0.973470 0.164056 0.195748
Si Si7 0.527494 0.168137 0.694147
Si Si8 0.714284 0.664384 0.820712
O O1 0.665436 0.154983 0.349013
O O2 0.541532 0.023582 0.176776
O O3 0.887016 0.042673 0.557889
O O4 0.656329 0.087007 0.124586
O O5 0.768604 0.389601 0.671344
O O6 0.019906 0.366957 0.122332
O O7 0.000000 0.500000 0.000000
O O8 0.116194 0.385543 0.018072
O O9 0.340586 0.750000 0.483746
O O10 0.585350 0.853631 0.778404
O O11 0.526512 0.601158 0.285139
O O12 0.240882 0.514044 0.939192
O O13 0.000000 0.500000 0.500000
O O14 0.964511 0.600971 0.637907
O O15 0.035975 0.250000 0.286220
O O16 0.749216 0.165527 0.940387
O O17 0.479347 0.250000 0.685182
O O18 0.429461 0.160656 0.455678
O O19 0.779636 0.750000 0.908973
#
# Coordination Sequence:
#
# PCOD9160584 Si02
#       8
#     4   4   4   4   4   4   4   4
#     4  10  21  38  60  84 113 158 196 235 303 355
#     4  12  25  38  59  90 121 158 204 249 301 364
#     4  11  24  42  60  85 124 161 200 247 297 368
#     4   9  20  37  59  84 117 148 192 249 288 349
#     4   9  19  37  59  85 118 153 195 246 300 353
#     4  10  19  36  59  85 119 155 199 250 299 354
#     4   9  18  34  59  85 115 151 191 244 298 343
#     4  10  22  40  60  86 122 161 195 243 305 356
#
# _framework density 21.404413000000002
#
# number of rings (size 3 to 8) (size 9 to 14) (size 15 to 20)
#    0.000    2.000    1.250    1.875    3.500    4.000 
#    0.000    1.875    0.000    4.500    0.000    0.000 
#    0.000    0.000    0.000    0.000    0.000    0.000 
#
# Total GULP energy -178690.818420 kJ/mol
# GULP energy per Si atom -5584.088076 kJ/mol
# Density = 2.135570 g / cm^3
# Si number density = 21.404413 Si / 1000 Ang^3
#
#
#
# Elastic Constant Matrix: (Units=GPa)
#
#
# Indices 1 2 3 4 5 6 
#
# 1 82.8787 46.9946 15.1069 0.0000 16.0362 0.0000
# 2 46.9946 94.5423 17.4976 0.0000 2.2529 0.0000
# 3 15.1069 17.4976 31.0439 0.0000 6.8050 0.0000
# 4 0.0000 0.0000 0.0000 24.5929 0.0000 -3.9885
# 5 16.0362 2.2529 6.8050 0.0000 37.8126 0.0000
# 6 0.0000 0.0000 0.0000 -3.9885 0.0000 33.9666
#
#
#
# Elastic Compliance Matrix: (Units=1/GPa)
#
#
# Indices 1 2 3 4 5 6 
#
# 1 0.018846 -0.008694 -0.002740 0.000000 -0.006981 0.000000
# 2 -0.008694 0.015830 -0.005510 0.000000 0.003736 0.000000
# 3 -0.002740 -0.005510 0.037817 0.000000 -0.005315 0.000000
# 4 0.000000 0.000000 0.000000 0.041452 0.000000 0.004867
# 5 -0.006981 0.003736 -0.005315 0.000000 0.030141 0.000000
# 6 0.000000 0.000000 0.000000 0.004867 0.000000 0.030012
#
#
# Mechanical properties :
#
#
# Convention : Reuss Voigt Hill
#
# Bulk Modulus (GPa) = 25.90467 40.85146 33.37806
# Shear Modulus (GPa) = 22.63927 27.86549 25.25238
#
# Velocity S-wave (km/s) = 3.25575 3.61204 3.43851
# Velocity P-wave (km/s) = 5.12464 6.04340 5.60289
#
# Compressibility (1/GPa) = 0.03860309
#
# Stress axis : x y z
#
# Youngs Moduli (GPa) = 53.06129 63.17174 26.44319
#
# Poissons Ratio (x) = 0.54924 0.07246
# Poissons Ratio (y) = 0.46134 0.14571
# Poissons Ratio (z) = 0.14540 0.34810
#
# Static dielectric constant tensor:
#      x y z
#    x 1.804950 0.000000 0.015200 
#    y 0.000000 1.747590 0.000000 
#    z 0.015200 0.000000 1.796730 
# 
# From -- ./inp_files/40009.got.cif
#   From: 2010.05.17/outbox.cif.g08.bks.cpg/sg11_21_cif.got.tgz:40009.got - 2010.06.03 12:22:45.
