data_PCOD9160261
_publ_section_title
;
Structure prediction by ZEFSAII (Michael W. Deem and Ramdas Pophale) SiO2 
 PCOD9160261
Probable space group: P 21/M
;
_chemical_formula_sum "Si O2"
_cell_formula_units_Z 28
_cell_length_a 9.623432
_cell_length_b 8.602122
_cell_length_c 25.815357
_cell_angle_alpha 90.000000
_cell_angle_beta 139.574896
_cell_angle_gamma 90.000000
_cell_volume 1385.774472
_symmetry_space_group_name_H-M "P 21/M"
_symmetry_group_IT_number 11
_symmetry_cell_setting 'monoclinic'
loop_
_space_group_symop_operation_xyz
x,y,z
-x,1/2+y,-z
-x,-y,-z
x,1/2-y,z
loop_
_atom_site_type_symbol
_atom_site_label
_atom_site_fract_x
_atom_site_fract_y
_atom_site_fract_z
Si Si1 0.726080 0.434474 0.082139
Si Si2 0.840576 0.065051 0.828402
Si Si3 0.072506 0.566146 0.575936
Si Si4 0.653942 0.432639 0.499539
Si Si5 0.117917 0.936064 0.758597
Si Si6 0.597440 0.563560 0.253338
Si Si7 0.320174 0.567170 0.334066
O O1 0.716686 0.250000 0.078117
O O2 0.779339 0.480520 0.156638
O O3 0.926660 0.488977 0.104236
O O4 0.500000 0.500000 0.000000
O O5 0.867397 0.250000 0.841722
O O6 0.650890 0.013393 0.812764
O O7 0.748079 0.037328 0.744302
O O8 0.104793 0.750000 0.582012
O O9 0.874945 0.525032 0.557931
O O10 0.000000 0.500000 0.500000
O O11 0.278775 0.483891 0.659030
O O12 0.500000 0.500000 0.500000
O O13 0.693496 0.250000 0.517713
O O14 0.519397 0.465376 0.409030
O O15 0.083200 0.750000 0.747738
O O16 0.274794 0.986245 0.757361
O O17 0.888746 0.021489 0.691645
O O18 0.604178 0.750000 0.250342
O O19 0.370462 0.750000 0.354590
#
# Coordination Sequence:
#
# PCOD9160261 Si02
#       7
#     4   4   4   4   4   4   4
#     4  10  21  38  63  90 118 148 185 228 276 334
#     4   9  20  37  59  84 112 144 182 225 274 332
#     4  12  25  41  59  82 114 154 198 246 296 348
#     4  12  24  38  55  78 109 147 192 244 295 344
#     4  10  21  37  57  85 117 152 190 233 283 341
#     4  11  22  38  59  85 116 152 192 237 286 341
#     4  10  19  35  57  80 107 143 187 237 287 340
#
# _framework density 20.205306
#
# number of rings (size 3 to 8) (size 9 to 14) (size 15 to 20)
#    0.000    1.429    0.000    6.000    0.000    4.571 
#    0.000    0.714    0.000    0.000    0.000    0.000 
#    0.000    0.000    0.000    0.000    0.000    0.000 
#
# Total GULP energy -156607.971689 kJ/mol
# GULP energy per Si atom -5593.141846 kJ/mol
# Density = 2.015932 g / cm^3
# Si number density = 20.205306 Si / 1000 Ang^3
#
#
#
# Elastic Constant Matrix: (Units=GPa)
#
#
# Indices 1 2 3 4 5 6 
#
# 1 88.7875 -5.2278 8.7564 0.0000 22.2025 0.0000
# 2 -5.2278 27.0341 1.8276 0.0000 0.9057 0.0000
# 3 8.7564 1.8276 77.6555 0.0000 26.6376 0.0000
# 4 0.0000 0.0000 0.0000 34.0356 0.0000 2.5375
# 5 22.2025 0.9057 26.6376 0.0000 31.1280 0.0000
# 6 0.0000 0.0000 0.0000 2.5375 0.0000 30.9870
#
#
#
# Elastic Compliance Matrix: (Units=1/GPa)
#
#
# Indices 1 2 3 4 5 6 
#
# 1 0.014318 0.003012 0.002616 0.000000 -0.012538 0.000000
# 2 0.003012 0.037688 -0.000161 0.000000 -0.003107 0.000000
# 3 0.002616 -0.000161 0.018720 0.000000 -0.017880 0.000000
# 4 0.000000 0.000000 0.000000 0.029561 0.000000 -0.002421
# 5 -0.012538 -0.003107 -0.017880 0.000000 0.056459 0.000000
# 6 0.000000 0.000000 0.000000 -0.002421 0.000000 0.032470
#
#
# Mechanical properties :
#
#
# Convention : Reuss Voigt Hill
#
# Bulk Modulus (GPa) = 12.24616 22.68771 17.46694
# Shear Modulus (GPa) = 24.33072 31.77152 28.05112
#
# Velocity S-wave (km/s) = 3.47389 3.96970 3.73004
# Velocity P-wave (km/s) = 4.70792 5.68017 5.21674
#
# Compressibility (1/GPa) = 0.08165826
#
# Stress axis : x y z
#
# Youngs Moduli (GPa) = 69.84444 26.53380 53.42021
#
# Poissons Ratio (x) = -0.07992 -0.13972
# Poissons Ratio (y) = -0.21037 0.00858
# Poissons Ratio (z) = -0.18268 0.00426
#
# Static dielectric constant tensor:
#      x y z
#    x 1.769440 0.000000 -0.025380 
#    y 0.000000 1.671210 0.000000 
#    z -0.025380 0.000000 1.731670 
# 
# From -- ./inp_files/28278.got.cif
#   From: 2010.05.17/outbox.cif.g08.bks.cpg/sg11_15_cif.got.tgz:28278.got - 2010.06.03 12:22:45.
