data_PCOD9160328
_publ_section_title
;
Structure prediction by ZEFSAII (Michael W. Deem and Ramdas Pophale) SiO2 
 PCOD9160328
Probable space group: P 21/M
;
_chemical_formula_sum "Si O2"
_cell_formula_units_Z 28
_cell_length_a 9.784988
_cell_length_b 8.676657
_cell_length_c 27.489115
_cell_angle_alpha 90.000000
_cell_angle_beta 138.838298
_cell_angle_gamma 90.000000
_cell_volume 1536.110209
_symmetry_space_group_name_H-M "P 21/M"
_symmetry_group_IT_number 11
_symmetry_cell_setting 'monoclinic'
loop_
_space_group_symop_operation_xyz
x,y,z
-x,1/2+y,-z
-x,-y,-z
x,1/2-y,z
loop_
_atom_site_type_symbol
_atom_site_label
_atom_site_fract_x
_atom_site_fract_y
_atom_site_fract_z
Si Si1 0.022799 0.562262 0.259030
Si Si2 0.608193 0.569398 0.203894
Si Si3 0.853737 0.932046 0.919536
Si Si4 0.852254 0.565387 0.809740
Si Si5 0.557619 0.066065 0.568616
Si Si6 0.406080 0.425368 0.688844
Si Si7 0.222392 0.573998 0.551294
O O1 0.029255 0.750000 0.256457
O O2 0.032618 0.485085 0.208482
O O3 0.223552 0.517794 0.346534
O O4 0.804455 0.516648 0.225094
O O5 0.574127 0.750000 0.184200
O O6 0.384559 0.489419 0.139258
O O7 0.674158 0.558101 0.278079
O O8 0.849989 0.750000 0.923961
O O9 0.938113 0.964133 0.887232
O O10 0.000000 0.000000 0.000000
O O11 0.806270 0.750000 0.794926
O O12 0.649628 0.457514 0.755028
O O13 0.566243 0.250000 0.566959
O O14 0.500000 0.000000 0.500000
O O15 0.371935 0.015410 0.554547
O O16 0.363278 0.250000 0.660128
O O17 0.322147 0.554298 0.630838
O O18 0.205995 0.750000 0.531050
O O19 0.000000 0.500000 0.500000
#
# Coordination Sequence:
#
# PCOD9160328 Si02
#       7
#     4   4   4   4   4   4   4
#     4  10  21  38  60  85 118 157 197 239 291 354
#     4   9  20  37  59  87 117 152 191 236 287 343
#     4  10  21  38  61  90 120 152 191 237 286 345
#     4  10  20  35  58  86 115 150 192 235 283 342
#     4  11  24  41  60  86 119 160 203 248 304 357
#     4  10  19  35  58  82 110 147 191 239 292 347
#     4  12  25  40  58  82 113 150 198 252 303 356
#
# _framework density 18.227857
#
# number of rings (size 3 to 8) (size 9 to 14) (size 15 to 20)
#    0.000    1.714    1.429    3.000    2.000    3.429 
#    0.000    0.714    0.000    0.000    0.000    0.000 
#    0.000    0.000    0.000    0.000    0.000    0.000 
#
# Total GULP energy -156087.121020 kJ/mol
# GULP energy per Si atom -5574.540036 kJ/mol
# Density = 1.818637 g / cm^3
# Si number density = 18.227857 Si / 1000 Ang^3
#
#
#
# Elastic Constant Matrix: (Units=GPa)
#
#
# Indices 1 2 3 4 5 6 
#
# 1 158.2560 39.1705 61.0216 0.0000 -5.1874 0.0000
# 2 39.1705 52.1221 33.5369 0.0000 -9.2107 0.0000
# 3 61.0216 33.5369 98.9348 0.0000 -13.1838 0.0000
# 4 0.0000 0.0000 0.0000 30.4072 0.0000 -4.0560
# 5 -5.1874 -9.2107 -13.1838 0.0000 16.7381 0.0000
# 6 0.0000 0.0000 0.0000 -4.0560 0.0000 28.8170
#
#
#
# Elastic Compliance Matrix: (Units=1/GPa)
#
#
# Indices 1 2 3 4 5 6 
#
# 1 0.009055 -0.004479 -0.004493 0.000000 -0.003197 0.000000
# 2 -0.004479 0.027691 -0.005339 0.000000 0.009645 0.000000
# 3 -0.004493 -0.005339 0.015766 0.000000 0.008088 0.000000
# 4 0.000000 0.000000 0.000000 0.033516 0.000000 0.004717
# 5 -0.003197 0.009645 0.008088 0.000000 0.070431 0.000000
# 6 0.000000 0.000000 0.000000 0.004717 0.000000 0.035366
#
#
# Mechanical properties :
#
#
# Convention : Reuss Voigt Hill
#
# Bulk Modulus (GPa) = 41.85658 64.08568 52.97113
# Shear Modulus (GPa) = 21.89036 26.89806 24.39421
#
# Velocity S-wave (km/s) = 3.46920 3.84560 3.66224
# Velocity P-wave (km/s) = 6.24980 7.41300 6.85611
#
# Compressibility (1/GPa) = 0.02389111
#
# Stress axis : x y z
#
# Youngs Moduli (GPa) = 110.43498 36.11217 63.42646
#
# Poissons Ratio (x) = 0.16176 0.28496
# Poissons Ratio (y) = 0.49467 0.33863
# Poissons Ratio (z) = 0.49616 0.19280
#
# Static dielectric constant tensor:
#      x y z
#    x 1.639580 0.000000 -0.035460 
#    y 0.000000 0.403290 0.000000 
#    z -0.035460 0.000000 1.550370 
# 
# From -- ./inp_files/28631.got.cif
#   From: 2010.05.17/outbox.cif.g08.bks.cpg/sg11_15_cif.got.tgz:28631.got - 2010.06.03 12:22:45.
