data_PCOD9160523
_publ_section_title
;
Structure prediction by ZEFSAII (Michael W. Deem and Ramdas Pophale) SiO2 
 PCOD9160523
Probable space group: P 21/M
;
_chemical_formula_sum "Si O2"
_cell_formula_units_Z 32
_cell_length_a 11.496307
_cell_length_b 7.881652
_cell_length_c 30.432522
_cell_angle_alpha 90.000000
_cell_angle_beta 29.675902
_cell_angle_gamma 90.000000
_cell_volume 1365.213553
_symmetry_space_group_name_H-M "P 21/M"
_symmetry_group_IT_number 11
_symmetry_cell_setting 'monoclinic'
loop_
_space_group_symop_operation_xyz
x,y,z
-x,1/2+y,-z
-x,-y,-z
x,1/2-y,z
loop_
_atom_site_type_symbol
_atom_site_label
_atom_site_fract_x
_atom_site_fract_y
_atom_site_fract_z
Si Si1 0.749059 0.557529 0.566672
Si Si2 0.026731 0.546366 0.626597
Si Si3 0.920216 0.947941 0.137492
Si Si4 0.929081 0.957602 0.235985
Si Si5 0.495026 0.560137 0.434599
Si Si6 0.278408 0.954828 0.190991
Si Si7 0.423424 0.054130 0.279906
Si Si8 0.208368 0.443577 0.963571
O O1 0.749733 0.750000 0.549252
O O2 0.660875 0.433377 0.558589
O O3 0.602364 0.552503 0.659199
O O4 0.000000 0.500000 0.500000
O O5 0.045474 0.750000 0.614684
O O6 0.915847 0.505082 0.709628
O O7 0.819125 0.485253 0.661447
O O8 0.295106 0.481497 0.532301
O O9 0.981108 0.750000 0.119437
O O10 0.906368 0.011199 0.192627
O O11 0.672333 0.964429 0.192629
O O12 0.111108 0.040227 0.044988
O O13 0.904986 0.750000 0.243786
O O14 0.726905 0.021804 0.336418
O O15 0.176551 0.005184 0.176928
O O16 0.555854 0.750000 0.429992
O O17 0.290748 0.750000 0.186315
O O18 0.532239 0.025894 0.122045
O O19 0.445937 0.250000 0.257780
O O20 0.246784 0.250000 0.939039
O O21 0.000000 0.500000 0.000000
#
# Coordination Sequence:
#
# PCOD9160523 Si02
#       8
#     4   4   4   4   4   4   4   4
#     4  11  20  31  50  80 117 157 198 246 296 348
#     4  10  21  36  56  84 118 158 200 246 300 345
#     4  11  22  37  63  93 119 155 198 239 298 363
#     4   9  20  39  62  86 119 159 199 242 292 355
#     4  10  19  36  57  82 118 161 200 244 297 350
#     4  10  23  43  62  84 115 156 202 246 295 355
#     4  10  20  34  53  82 122 156 192 244 297 350
#     4  11  24  43  67  93 122 152 191 244 301 361
#
# _framework density 23.439557000000001
#
# number of rings (size 3 to 8) (size 9 to 14) (size 15 to 20)
#    0.000    1.750    2.500    1.875    0.000    5.500 
#    0.000    1.875    0.000    0.000    0.000    0.000 
#    0.000    0.000    0.000    0.000    0.000    0.000 
#
# Total GULP energy -178524.443099 kJ/mol
# GULP energy per Si atom -5578.888847 kJ/mol
# Density = 2.338621 g / cm^3
# Si number density = 23.439557 Si / 1000 Ang^3
#
#
#
# Elastic Constant Matrix: (Units=GPa)
#
#
# Indices 1 2 3 4 5 6 
#
# 1 134.1656 8.7086 58.2347 0.0000 -10.9940 0.0000
# 2 8.7086 32.0672 -6.4342 0.0000 0.1186 0.0000
# 3 58.2347 -6.4342 105.8506 0.0000 -0.6567 0.0000
# 4 0.0000 0.0000 0.0000 21.2069 0.0000 5.2098
# 5 -10.9940 0.1186 -0.6567 0.0000 18.0410 0.0000
# 6 0.0000 0.0000 0.0000 5.2098 0.0000 20.7205
#
#
#
# Elastic Compliance Matrix: (Units=1/GPa)
#
#
# Indices 1 2 3 4 5 6 
#
# 1 0.010979 -0.004261 -0.006259 0.000000 0.006490 0.000000
# 2 -0.004261 0.033224 0.004347 0.000000 -0.002657 0.000000
# 3 -0.006259 0.004347 0.013134 0.000000 -0.003364 0.000000
# 4 0.000000 0.000000 0.000000 0.050259 0.000000 -0.012637
# 5 0.006490 -0.002657 -0.003364 0.000000 0.059279 0.000000
# 6 0.000000 0.000000 0.000000 -0.012637 0.000000 0.051439
#
#
# Mechanical properties :
#
#
# Convention : Reuss Voigt Hill
#
# Bulk Modulus (GPa) = 22.22652 43.67796 32.95224
# Shear Modulus (GPa) = 20.35373 26.09864 23.22618
#
# Velocity S-wave (km/s) = 2.94997 3.34045 3.15127
# Velocity P-wave (km/s) = 4.59415 5.79249 5.22777
#
# Compressibility (1/GPa) = 0.04499130
#
# Stress axis : x y z
#
# Youngs Moduli (GPa) = 91.08708 30.09879 76.13863
#
# Poissons Ratio (x) = 0.12826 0.47653
# Poissons Ratio (y) = 0.38815 -0.33101
# Poissons Ratio (z) = 0.57009 -0.13085
#
# Static dielectric constant tensor:
#      x y z
#    x 1.923260 0.000000 -0.052500 
#    y 0.000000 1.777610 0.000000 
#    z -0.052500 0.000000 1.920090 
# 
# From -- ./inp_files/73082.got.cif
#   From: 2010.05.17/outbox.cif.g08.bks.cpg/sg11_37_cif.got.tgz:73082.got - 2010.06.03 12:22:45.
