data_PCOD9160867
_publ_section_title
;
Structure prediction by ZEFSAII (Michael W. Deem and Ramdas Pophale) SiO2 
 PCOD9160867
Probable space group: P 21/M
;
_chemical_formula_sum "Si O2"
_cell_formula_units_Z 20
_cell_length_a 11.535424
_cell_length_b 18.987140
_cell_length_c 8.541515
_cell_angle_alpha 90.000000
_cell_angle_beta 25.905120
_cell_angle_gamma 90.000000
_cell_volume 817.320412
_symmetry_space_group_name_H-M "P 21/M"
_symmetry_group_IT_number 11
_symmetry_cell_setting 'monoclinic'
loop_
_space_group_symop_operation_xyz
x,y,z
-x,1/2+y,-z
-x,-y,-z
x,1/2-y,z
loop_
_atom_site_type_symbol
_atom_site_label
_atom_site_fract_x
_atom_site_fract_y
_atom_site_fract_z
Si Si1 0.938011 0.326912 0.603387
Si Si2 0.271015 0.454003 0.694387
Si Si3 0.192890 0.047644 0.443232
Si Si4 0.667054 0.097243 0.685763
Si Si5 0.620770 0.670174 0.209448
O O1 0.920863 0.250000 0.698453
O O2 0.694687 0.343604 0.783893
O O3 0.978741 0.391812 0.671645
O O4 0.175578 0.325249 0.185132
O O5 0.500000 0.500000 0.500000
O O6 0.333617 0.437475 0.437449
O O7 0.262857 0.381420 0.800942
O O8 0.000000 0.500000 0.000000
O O9 0.118739 0.964837 0.542555
O O10 0.395664 0.056519 0.053544
O O11 0.637647 0.133054 0.553919
O O12 0.571552 0.750000 0.322469
#
# Coordination Sequence:
#
# PCOD9160867 Si02
#       5
#     4   4   4   4   4
#     4  10  21  37  61  91 125 166 213 272 328 388
#     4  12  26  44  67  96 133 175 218 268 324 394
#     4  10  22  36  63  89 126 162 216 264 327 380
#     4  10  19  38  63  92 119 164 214 270 324 385
#     4  10  22  40  63  93 127 168 217 270 329 390
#
# _framework density 24.470208
#
# number of rings (size 3 to 8) (size 9 to 14) (size 15 to 20)
#    0.000    1.600    2.000    2.400    2.800    1.600 
#    0.000    0.000    0.000    0.000    0.000    0.000 
#    0.000    0.000    0.000    0.000    0.000    0.000 
#
# Total GULP energy -111609.632201 kJ/mol
# GULP energy per Si atom -5580.481610 kJ/mol
# Density = 2.441451 g / cm^3
# Si number density = 24.470208 Si / 1000 Ang^3
#
#
#
# Elastic Constant Matrix: (Units=GPa)
#
#
# Indices 1 2 3 4 5 6 
#
# 1 156.1052 86.4563 24.8746 0.0000 -12.0293 0.0000
# 2 86.4563 232.3836 29.6578 0.0000 -9.0081 0.0000
# 3 24.8746 29.6578 34.3272 0.0000 -10.6355 0.0000
# 4 0.0000 0.0000 0.0000 16.6768 0.0000 4.1211
# 5 -12.0293 -9.0081 -10.6355 0.0000 32.7374 0.0000
# 6 0.0000 0.0000 0.0000 4.1211 0.0000 39.4434
#
#
#
# Elastic Compliance Matrix: (Units=1/GPa)
#
#
# Indices 1 2 3 4 5 6 
#
# 1 0.008546 -0.002686 -0.003478 0.000000 0.001271 0.000000
# 2 -0.002686 0.005681 -0.003095 0.000000 -0.000429 0.000000
# 3 -0.003478 -0.003095 0.037433 0.000000 0.010032 0.000000
# 4 0.000000 0.000000 0.000000 0.061553 0.000000 -0.006431
# 5 0.001271 -0.000429 0.010032 0.000000 0.034154 0.000000
# 6 0.000000 0.000000 0.000000 -0.006431 0.000000 0.026025
#
#
# Mechanical properties :
#
#
# Convention : Reuss Voigt Hill
#
# Bulk Modulus (GPa) = 30.17271 78.31040 54.24155
# Shear Modulus (GPa) = 24.63580 36.56001 30.59790
#
# Velocity S-wave (km/s) = 3.17640 3.86950 3.53996
# Velocity P-wave (km/s) = 5.08034 7.21359 6.23882
#
# Compressibility (1/GPa) = 0.03314253
#
# Stress axis : x y z
#
# Youngs Moduli (GPa) = 117.01634 176.02726 26.71415
#
# Poissons Ratio (x) = 0.47285 0.09291
# Poissons Ratio (y) = 0.31434 0.08267
# Poissons Ratio (z) = 0.40697 0.54474
#
# Static dielectric constant tensor:
#      x y z
#    x 1.954050 0.000000 -0.034820 
#    y 0.000000 1.990960 0.000000 
#    z -0.034820 0.000000 2.134140 
# 
# From -- ./inp_files/1889.got.cif
#   From: 2010.05.17/outbox.cif.g08.bks.cpg/sg11_1_cif.got.tgz:1889.got - 2010.06.03 12:22:45.
