data_PCOD9160099
_publ_section_title
;
Structure prediction by ZEFSAII (Michael W. Deem and Ramdas Pophale) SiO2 
 PCOD9160099
Probable space group: P 21/M
;
_chemical_formula_sum "Si O2"
_cell_formula_units_Z 32
_cell_length_a 14.946268
_cell_length_b 7.911310
_cell_length_c 11.140151
_cell_angle_alpha 90.000000
_cell_angle_beta 78.373665
_cell_angle_gamma 90.000000
_cell_volume 1290.235615
_symmetry_space_group_name_H-M "P 21/M"
_symmetry_group_IT_number 11
_symmetry_cell_setting 'monoclinic'
loop_
_space_group_symop_operation_xyz
x,y,z
-x,1/2+y,-z
-x,-y,-z
x,1/2-y,z
loop_
_atom_site_type_symbol
_atom_site_label
_atom_site_fract_x
_atom_site_fract_y
_atom_site_fract_z
Si Si1 0.463926 0.446483 0.687691
Si Si2 0.145752 0.944389 0.047876
Si Si3 0.192749 0.550942 0.386834
Si Si4 0.972494 0.936150 0.703387
Si Si5 0.868551 0.556723 0.196911
Si Si6 0.295009 0.455361 0.601094
Si Si7 0.370745 0.957004 0.213424
Si Si8 0.641410 0.454181 0.047237
O O1 0.479117 0.250000 0.654066
O O2 0.397157 0.518556 0.603328
O O3 0.560668 0.522012 0.702336
O O4 0.405542 0.458501 0.827183
O O5 0.144400 0.750000 0.090502
O O6 0.250825 0.992412 0.994841
O O7 0.100718 0.956674 0.928652
O O8 0.093717 0.048747 0.162633
O O9 0.180783 0.750000 0.376379
O O10 0.093944 0.473469 0.389699
O O11 0.244932 0.515414 0.495793
O O12 0.267454 0.490814 0.269052
O O13 0.011469 0.750000 0.679794
O O14 0.057864 0.050614 0.716134
O O15 0.857265 0.750000 0.161698
O O16 0.772939 0.490458 0.273777
O O17 0.296591 0.250000 0.599992
O O18 0.372436 0.750000 0.216236
O O19 0.398461 0.006511 0.071841
O O20 0.632262 0.250000 0.063639
#
# Coordination Sequence:
#
# PCOD9160099 Si02
#       8
#     4   4   4   4   4   4   4   4
#     4  10  20  37  61  88 122 158 198 244 295 351
#     4  11  21  37  62  91 125 160 197 243 296 356
#     4  11  23  42  64  86 116 159 203 248 301 355
#     4  12  25  41  63  91 121 155 198 247 300 358
#     4  11  23  41  63  89 123 160 199 244 298 357
#     4  10  23  41  60  87 119 156 201 251 298 349
#     4   9  19  37  60  88 121 158 195 243 299 352
#     4  10  19  34  58  88 124 157 195 241 294 354
#
# _framework density 24.801672
#
# number of rings (size 3 to 8) (size 9 to 14) (size 15 to 20)
#    0.000    1.500    2.500    3.000    0.000    3.000 
#    0.000    1.250    0.000    0.000    0.000    0.000 
#    0.000    0.000    0.000    0.000    0.000    0.000 
#
# Total GULP energy -179007.534338 kJ/mol
# GULP energy per Si atom -5593.985448 kJ/mol
# Density = 2.474522 g / cm^3
# Si number density = 24.801672 Si / 1000 Ang^3
#
#
#
# Elastic Constant Matrix: (Units=GPa)
#
#
# Indices 1 2 3 4 5 6 
#
# 1 116.5563 -0.1488 5.4408 0.0000 28.8369 0.0000
# 2 -0.1488 42.7343 -5.5215 0.0000 2.4206 0.0000
# 3 5.4408 -5.5215 77.8591 0.0000 28.7994 0.0000
# 4 0.0000 0.0000 0.0000 19.0975 0.0000 0.9457
# 5 28.8369 2.4206 28.7994 0.0000 47.4082 0.0000
# 6 0.0000 0.0000 0.0000 0.9457 0.0000 11.7211
#
#
#
# Elastic Compliance Matrix: (Units=1/GPa)
#
#
# Indices 1 2 3 4 5 6 
#
# 1 0.010375 0.000750 0.002163 0.000000 -0.007663 0.000000
# 2 0.000750 0.023977 0.002927 0.000000 -0.003458 0.000000
# 3 0.002163 0.002927 0.017338 0.000000 -0.011997 0.000000
# 4 0.000000 0.000000 0.000000 0.052573 0.000000 -0.004242
# 5 -0.007663 -0.003458 -0.011997 0.000000 0.033219 0.000000
# 6 0.000000 0.000000 0.000000 -0.004242 0.000000 0.085659
#
#
# Mechanical properties :
#
#
# Convention : Reuss Voigt Hill
#
# Bulk Modulus (GPa) = 15.78047 26.29895 21.03971
# Shear Modulus (GPa) = 21.49748 31.47064 26.48406
#
# Velocity S-wave (km/s) = 2.94730 3.56602 3.27132
# Velocity P-wave (km/s) = 4.23776 5.25186 4.77182
#
# Compressibility (1/GPa) = 0.06336945
#
# Stress axis : x y z
#
# Youngs Moduli (GPa) = 96.38128 41.70638 57.67726
#
# Poissons Ratio (x) = -0.03126 -0.12473
# Poissons Ratio (y) = -0.07225 -0.16884
# Poissons Ratio (z) = -0.20844 -0.12209
#
# Static dielectric constant tensor:
#      x y z
#    x 1.980970 0.000000 0.036110 
#    y 0.000000 1.858730 0.000000 
#    z 0.036110 0.000000 2.005540 
# 
# From -- ./inp_files/38081.got.cif
#   From: 2010.05.17/outbox.cif.g08.bks.cpg/sg11_20_cif.got.tgz:38081.got - 2010.06.03 12:22:45.
