data_PCOD9160417
_publ_section_title
;
Structure prediction by ZEFSAII (Michael W. Deem and Ramdas Pophale) SiO2 
 PCOD9160417
Probable space group: P 21/M
;
_chemical_formula_sum "Si O2"
_cell_formula_units_Z 30
_cell_length_a 9.767225
_cell_length_b 23.954039
_cell_length_c 7.078484
_cell_angle_alpha 90.000000
_cell_angle_beta 48.557345
_cell_angle_gamma 90.000000
_cell_volume 1241.453667
_symmetry_space_group_name_H-M "P 21/M"
_symmetry_group_IT_number 11
_symmetry_cell_setting 'monoclinic'
loop_
_space_group_symop_operation_xyz
x,y,z
-x,1/2+y,-z
-x,-y,-z
x,1/2-y,z
loop_
_atom_site_type_symbol
_atom_site_label
_atom_site_fract_x
_atom_site_fract_y
_atom_site_fract_z
Si Si1 0.995262 0.139655 0.394562
Si Si2 0.716717 0.488174 0.298061
Si Si3 0.541868 0.309874 0.511213
Si Si4 0.340767 0.077897 0.158633
Si Si5 0.754598 0.605877 0.332554
Si Si6 0.745957 0.044328 0.702831
Si Si7 0.865264 0.373007 0.078197
Si Si8 0.780765 0.250000 0.593515
O O1 0.900174 0.089650 0.599651
O O2 0.932381 0.132675 0.234432
O O3 0.923173 0.199887 0.521655
O O4 0.210225 0.126387 0.202654
O O5 0.500000 0.500000 0.500000
O O6 0.802398 0.548497 0.179200
O O7 0.768624 0.472280 0.463580
O O8 0.778152 0.434320 0.123831
O O9 0.463151 0.250000 0.522225
O O10 0.390349 0.356987 0.645395
O O11 0.701891 0.328480 0.219266
O O12 0.641291 0.297513 0.619772
O O13 0.336516 0.087732 0.387767
O O14 0.259896 0.015688 0.189280
O O15 0.548899 0.073416 0.903760
O O16 0.944654 0.636566 0.200344
#
# Coordination Sequence:
#
# PCOD9160417 Si02
#       8
#     4   4   4   4   4   4   4   2
#     4  10  20  39  62  84 119 158 203 253 298 359
#     4  10  19  35  59  92 122 150 201 253 301 361
#     4   9  20  40  57  83 121 154 202 250 302 355
#     4  10  22  39  59  91 125 160 199 239 312 380
#     4  11  22  37  60  92 119 158 195 251 308 365
#     4   9  21  39  60  88 124 165 195 242 312 369
#     4  10  21  36  62  91 117 153 201 253 306 352
#     4   8  20  40  60  86 116 154 210 260 296 352
#
# _framework density 24.165219
#
# number of rings (size 3 to 8) (size 9 to 14) (size 15 to 20)
#    0.400    1.867    1.333    0.800    1.867    1.600 
#    3.600    0.667    2.933    0.000    0.000    0.000 
#    0.000    0.000    0.000    0.000    0.000    0.000 
#
# Total GULP energy -167079.448637 kJ/mol
# GULP energy per Si atom -5569.314955 kJ/mol
# Density = 2.411022 g / cm^3
# Si number density = 24.165219 Si / 1000 Ang^3
#
#
#
# Elastic Constant Matrix: (Units=GPa)
#
#
# Indices 1 2 3 4 5 6 
#
# 1 75.1025 29.8499 8.0239 0.0000 -9.6222 0.0000
# 2 29.8499 77.4160 19.1119 0.0000 -0.0017 0.0000
# 3 8.0239 19.1119 73.6211 0.0000 -17.6618 0.0000
# 4 0.0000 0.0000 0.0000 -2.4961 0.0000 -4.8559
# 5 -9.6222 -0.0017 -17.6618 0.0000 29.2730 0.0000
# 6 0.0000 0.0000 0.0000 -4.8559 0.0000 31.4655
#
#
#
# Elastic Compliance Matrix: (Units=1/GPa)
#
#
# Indices 1 2 3 4 5 6 
#
# 1 0.016674 -0.006793 0.001474 0.000000 0.006370 0.000000
# 2 -0.006793 0.016731 -0.004839 0.000000 -0.005151 0.000000
# 3 0.001474 -0.004839 0.017299 0.000000 0.010921 0.000000
# 4 0.000000 0.000000 0.000000 -0.308117 0.000000 -0.047550
# 5 0.006370 -0.005151 0.010921 0.000000 0.042844 0.000000
# 6 0.000000 0.000000 0.000000 -0.047550 0.000000 0.024443
#
#
# Mechanical properties :
#
#
# Convention : Reuss Voigt Hill
#
# Bulk Modulus (GPa) = 32.90726 37.79012 35.34869
# Shear Modulus (GPa) = -31.31187 22.92540 -4.19324
#
# Velocity S-wave (km/s) = -3.60355 3.08343 -1.31871
# Velocity P-wave (km/s) = 1.91491 5.32437 3.51298
#
# Compressibility (1/GPa) = 0.03038844
#
# Stress axis : x y z
#
# Youngs Moduli (GPa) = 59.97522 59.76996 57.80827
#
# Poissons Ratio (x) = 0.40600 -0.08523
# Poissons Ratio (y) = 0.40740 0.27972
# Poissons Ratio (z) = -0.08842 0.28921
#
# Static dielectric constant tensor:
#      x y z
#    x 1.971040 0.000000 0.049640 
#    y 0.000000 1.939520 0.000000 
#    z 0.049640 0.000000 2.007050 
# 
# From -- ./inp_files/19706.got.cif
#   From: 2010.05.17/outbox.cif.g08.bks.cpg/sg11_10_cif.got.tgz:19706.got - 2010.06.03 12:22:45.
