data_PCOD9160562
_publ_section_title
;
Structure prediction by ZEFSAII (Michael W. Deem and Ramdas Pophale) SiO2 
 PCOD9160562
Probable space group: P 21/M
;
_chemical_formula_sum "Si O2"
_cell_formula_units_Z 32
_cell_length_a 28.227406
_cell_length_b 7.596505
_cell_length_c 22.066908
_cell_angle_alpha 90.000000
_cell_angle_beta 19.060870
_cell_angle_gamma 90.000000
_cell_volume 1545.275277
_symmetry_space_group_name_H-M "P 21/M"
_symmetry_group_IT_number 11
_symmetry_cell_setting 'monoclinic'
loop_
_space_group_symop_operation_xyz
x,y,z
-x,1/2+y,-z
-x,-y,-z
x,1/2-y,z
loop_
_atom_site_type_symbol
_atom_site_label
_atom_site_fract_x
_atom_site_fract_y
_atom_site_fract_z
Si Si1 0.560986 0.959996 0.021385
Si Si2 0.991117 0.954539 0.309542
Si Si3 0.164183 0.963758 0.628007
Si Si4 0.311490 0.046279 0.889591
Si Si5 0.658950 0.961676 0.282572
Si Si6 0.499328 0.533931 0.228493
Si Si7 0.050479 0.038985 0.006653
Si Si8 0.728010 0.962937 0.703830
O O1 0.581534 0.750000 0.999151
O O2 0.566250 0.026790 0.083544
O O3 0.400862 0.991303 0.187217
O O4 0.674364 0.028613 0.834262
O O5 0.019278 0.750000 0.288567
O O6 0.881928 0.027143 0.492629
O O7 0.903886 0.969621 0.352058
O O8 0.146400 0.041384 0.112154
O O9 0.160020 0.750000 0.630436
O O10 0.330866 0.016800 0.433676
O O11 0.065774 0.023666 0.803120
O O12 0.356207 0.250000 0.829255
O O13 0.321901 0.969492 0.809349
O O14 0.414317 0.969674 0.817228
O O15 0.674186 0.750000 0.261730
O O16 0.789907 0.027064 0.167030
O O17 0.500000 0.000000 0.500000
O O18 0.504216 0.750000 0.222162
O O19 0.053390 0.250000 0.008166
O O20 0.000000 0.000000 0.000000
O O21 0.734873 0.750000 0.697244
#
# Coordination Sequence:
#
# PCOD9160562 Si02
#       8
#     4   4   4   4   4   4   4   4
#     4   9  16  30  52  78 106 137 177 221 263 318
#     4  11  21  34  53  80 110 145 181 218 269 318
#     4  10  19  36  59  81 106 137 181 229 265 310
#     4  10  21  39  58  77 106 142 182 223 261 315
#     4  10  22  39  58  80 108 141 177 217 265 321
#     4   9  18  32  57  84 102 134 182 225 266 309
#     4  10  22  38  57  83 111 140 176 222 268 316
#     4   9  18  30  48  77 111 141 172 217 271 318
#
# _framework density 20.708283999999999
#
# number of rings (size 3 to 8) (size 9 to 14) (size 15 to 20)
#    0.000    2.250    2.500    0.375    1.750    2.000 
#    0.000    1.875    0.000    0.000    0.000    0.000 
#    0.000    0.000    0.000    0.000    0.000    0.000 
#
# Total GULP energy -178643.572120 kJ/mol
# GULP energy per Si atom -5582.611629 kJ/mol
# Density = 2.066115 g / cm^3
# Si number density = 20.708284 Si / 1000 Ang^3
#
#
#
# Elastic Constant Matrix: (Units=GPa)
#
#
# Indices 1 2 3 4 5 6 
#
# 1 137.4265 5.5860 71.1117 0.0000 -6.4693 0.0000
# 2 5.5860 43.0665 -5.8919 0.0000 3.5033 0.0000
# 3 71.1117 -5.8919 124.1761 0.0000 10.8904 0.0000
# 4 0.0000 0.0000 0.0000 -31.6555 0.0000 14.1876
# 5 -6.4693 3.5033 10.8904 0.0000 32.7466 0.0000
# 6 0.0000 0.0000 0.0000 14.1876 0.0000 6.3579
#
#
#
# Elastic Compliance Matrix: (Units=1/GPa)
#
#
# Indices 1 2 3 4 5 6 
#
# 1 0.011238 -0.002809 -0.006994 0.000000 0.004847 0.000000
# 2 -0.002809 0.024355 0.003133 0.000000 -0.004202 0.000000
# 3 -0.006994 0.003133 0.012729 0.000000 -0.005950 0.000000
# 4 0.000000 0.000000 0.000000 -0.015794 0.000000 0.035244
# 5 0.004847 -0.004202 -0.005950 0.000000 0.033923 0.000000
# 6 0.000000 0.000000 0.000000 0.035244 0.000000 0.078637
#
#
# Mechanical properties :
#
#
# Convention : Reuss Voigt Hill
#
# Bulk Modulus (GPa) = 28.58683 49.58674 39.08679
# Shear Modulus (GPa) = 29.39647 17.08070 23.23858
#
# Velocity S-wave (km/s) = 3.77178 2.87509 3.35354
# Velocity P-wave (km/s) = 5.72739 5.91768 5.82331
#
# Compressibility (1/GPa) = 0.03498114
#
# Stress axis : x y z
#
# Youngs Moduli (GPa) = 88.98401 41.06000 78.56232
#
# Poissons Ratio (x) = 0.11533 0.54946
# Poissons Ratio (y) = 0.24993 -0.24610
# Poissons Ratio (z) = 0.62235 -0.12862
#
# Static dielectric constant tensor:
#      x y z
#    x 1.730170 0.000000 0.020980 
#    y 0.000000 1.785620 0.000000 
#    z 0.020980 0.000000 1.727680 
# 
# From -- ./inp_files/66980.got.cif
#   From: 2010.05.17/outbox.cif.g08.bks.cpg/sg11_34_cif.got.tgz:66980.got - 2010.06.03 12:22:45.
