data_PCOD9160247
_publ_section_title
;
Structure prediction by ZEFSAII (Michael W. Deem and Ramdas Pophale) SiO2 
 PCOD9160247
Probable space group: P 21/M
;
_chemical_formula_sum "Si O2"
_cell_formula_units_Z 32
_cell_length_a 6.291753
_cell_length_b 20.870967
_cell_length_c 12.442269
_cell_angle_alpha 90.000000
_cell_angle_beta 104.185531
_cell_angle_gamma 90.000000
_cell_volume 1584.035431
_symmetry_space_group_name_H-M "P 21/M"
_symmetry_group_IT_number 11
_symmetry_cell_setting 'monoclinic'
loop_
_space_group_symop_operation_xyz
x,y,z
-x,1/2+y,-z
-x,-y,-z
x,1/2-y,z
loop_
_atom_site_type_symbol
_atom_site_label
_atom_site_fract_x
_atom_site_fract_y
_atom_site_fract_z
Si Si1 0.644442 0.394655 0.492830
Si Si2 0.857226 0.907148 0.914163
Si Si3 0.629234 0.632434 0.105290
Si Si4 0.249961 0.819205 0.925045
Si Si5 0.484092 0.175532 0.260153
Si Si6 0.007376 0.385404 0.697652
Si Si7 0.309403 0.537362 0.188679
Si Si8 0.327696 0.471435 0.600445
O O1 0.577898 0.353835 0.381385
O O2 0.430860 0.416872 0.535281
O O3 0.740583 0.464008 0.468211
O O4 0.828419 0.360424 0.589631
O O5 0.716244 0.866287 0.810291
O O6 0.099004 0.878961 0.935040
O O7 0.822294 0.981200 0.884327
O O8 0.763722 0.893105 0.020174
O O9 0.802232 0.654642 0.217937
O O10 0.478476 0.576263 0.135991
O O11 0.456110 0.680494 0.031268
O O12 0.134836 0.750000 0.921098
O O13 0.338924 0.826576 0.815003
O O14 0.422858 0.250000 0.267317
O O15 0.144564 0.440289 0.652525
O O16 0.857166 0.415646 0.772063
O O17 0.466056 0.507859 0.300191
#
# Coordination Sequence:
#
# PCOD9160247 Si02
#       8
#     4   4   4   4   4   4   4   4
#     4  10  19  35  56  83 116 151 194 238 283 346
#     4  11  21  36  61  84 116 154 189 238 294 343
#     4  10  22  38  55  83 121 151 191 239 286 347
#     4  10  23  40  59  83 111 153 202 238 282 345
#     4  10  22  39  59  85 117 150 190 241 289 342
#     4  10  21  34  56  83 117 153 190 231 292 349
#     4  10  20  34  56  90 120 148 188 236 296 353
#     4   9  19  34  54  85 116 151 190 234 291 342
#
# _framework density 20.201567000000001
#
# number of rings (size 3 to 8) (size 9 to 14) (size 15 to 20)
#    0.000    2.000    1.250    1.875    1.750    4.500 
#    0.000    0.625    0.000    9.750    0.000    0.000 
#    0.000    0.000    0.000    0.000    0.000    0.000 
#
# Total GULP energy -178509.864053 kJ/mol
# GULP energy per Si atom -5578.433252 kJ/mol
# Density = 2.015559 g / cm^3
# Si number density = 20.201567 Si / 1000 Ang^3
#
#
#
# Elastic Constant Matrix: (Units=GPa)
#
#
# Indices 1 2 3 4 5 6 
#
# 1 51.8910 11.9864 45.5892 0.0000 20.5060 0.0000
# 2 11.9864 41.5922 39.8365 0.0000 2.1214 0.0000
# 3 45.5892 39.8365 148.4042 0.0000 22.7838 0.0000
# 4 0.0000 0.0000 0.0000 -3.6122 0.0000 -0.4664
# 5 20.5060 2.1214 22.7838 0.0000 19.3942 0.0000
# 6 0.0000 0.0000 0.0000 -0.4664 0.0000 14.3050
#
#
#
# Elastic Compliance Matrix: (Units=1/GPa)
#
#
# Indices 1 2 3 4 5 6 
#
# 1 0.038345 -0.004031 -0.005540 0.000000 -0.033594 0.000000
# 2 -0.004031 0.033874 -0.009687 0.000000 0.011937 0.000000
# 3 -0.005540 -0.009687 0.012174 0.000000 -0.007385 0.000000
# 4 0.000000 0.000000 0.000000 -0.275678 0.000000 -0.008988
# 5 -0.033594 0.011937 -0.007385 0.000000 0.094452 0.000000
# 6 0.000000 0.000000 0.000000 -0.008988 0.000000 0.069613
#
#
# Mechanical properties :
#
#
# Convention : Reuss Voigt Hill
#
# Bulk Modulus (GPa) = 21.79741 48.52352 35.16046
# Shear Modulus (GPa) = 188.04508 15.64907 101.84707
#
# Velocity S-wave (km/s) = 9.65849 2.78627 7.10809
# Velocity P-wave (km/s) = 11.62735 5.86710 9.20919
#
# Compressibility (1/GPa) = 0.04587702
#
# Stress axis : x y z
#
# Youngs Moduli (GPa) = 26.07906 29.52102 82.14012
#
# Poissons Ratio (x) = 0.11901 0.45504
# Poissons Ratio (y) = 0.10513 0.79571
# Poissons Ratio (z) = 0.14447 0.28598
#
# Static dielectric constant tensor:
#      x y z
#    x 1.715810 0.000000 0.037610 
#    y 0.000000 1.689810 0.000000 
#    z 0.037610 0.000000 1.752730 
# 
# From -- ./inp_files/30260.got.cif
#   From: 2010.05.17/outbox.cif.g08.bks.cpg/sg11_16_cif.got.tgz:30260.got - 2010.06.03 12:22:45.
