data_PCOD9160320
_publ_section_title
;
Structure prediction by ZEFSAII (Michael W. Deem and Ramdas Pophale) SiO2 
 PCOD9160320
Probable space group: P 21/M
;
_chemical_formula_sum "Si O2"
_cell_formula_units_Z 32
_cell_length_a 31.709722
_cell_length_b 7.550721
_cell_length_c 13.317308
_cell_angle_alpha 90.000000
_cell_angle_beta 155.656522
_cell_angle_gamma 90.000000
_cell_volume 1314.351263
_symmetry_space_group_name_H-M "P 21/M"
_symmetry_group_IT_number 11
_symmetry_cell_setting 'monoclinic'
loop_
_space_group_symop_operation_xyz
x,y,z
-x,1/2+y,-z
-x,-y,-z
x,1/2-y,z
loop_
_atom_site_type_symbol
_atom_site_label
_atom_site_fract_x
_atom_site_fract_y
_atom_site_fract_z
Si Si1 0.494852 0.535734 0.167245
Si Si2 0.807548 0.468303 0.977363
Si Si3 0.291226 0.544932 0.441342
Si Si4 0.977430 0.952601 0.627507
Si Si5 0.267087 0.966890 0.608466
Si Si6 0.053289 0.539569 0.221458
Si Si7 0.450399 0.961551 0.285291
Si Si8 0.244566 0.544477 0.919241
O O1 0.500914 0.750000 0.173756
O O2 0.585891 0.464295 0.296610
O O3 0.507859 0.471963 0.310908
O O4 0.380167 0.482047 0.888478
O O5 0.806715 0.250000 0.977026
O O6 0.759765 0.532203 0.977887
O O7 0.925654 0.524699 0.222419
O O8 0.750032 0.530873 0.752566
O O9 0.259713 0.750000 0.373226
O O10 0.252438 0.469500 0.462198
O O11 0.964575 0.750000 0.569276
O O12 0.999264 0.960707 0.794020
O O13 0.868511 0.039344 0.371040
O O14 0.265885 0.750000 0.606244
O O15 0.171035 0.023183 0.466849
O O16 0.053409 0.750000 0.236287
O O17 0.000000 0.500000 0.000000
O O18 0.449050 0.750000 0.267473
O O19 0.500000 0.000000 0.500000
O O20 0.333671 0.029241 0.041901
O O21 0.272348 0.750000 0.992391
#
# Coordination Sequence:
#
# PCOD9160320 Si02
#       8
#     4   4   4   4   4   4   4   4
#     4  10  20  35  53  79 111 142 175 220 273 324
#     4   9  19  35  56  80 110 145 184 226 274 329
#     4  10  19  35  58  81 104 140 183 222 265 322
#     4  11  22  37  57  84 114 145 182 229 277 327
#     4   9  19  36  58  79 107 145 181 216 267 327
#     4  11  22  39  61  84 111 147 186 227 274 328
#     4  10  21  36  56  79 108 144 185 229 276 326
#     4  10  20  37  58  80 108 148 189 227 273 329
#
# _framework density 24.346610999999999
#
# number of rings (size 3 to 8) (size 9 to 14) (size 15 to 20)
#    0.000    2.000    0.000    3.750    0.000    6.000 
#    0.000    7.500    0.000    0.000    0.000    0.000 
#    0.000    0.000    0.000    0.000    0.000    0.000 
#
# Total GULP energy -178961.633608 kJ/mol
# GULP energy per Si atom -5592.551050 kJ/mol
# Density = 2.429120 g / cm^3
# Si number density = 24.346611 Si / 1000 Ang^3
#
#
#
# Elastic Constant Matrix: (Units=GPa)
#
#
# Indices 1 2 3 4 5 6 
#
# 1 85.2174 2.1200 -21.9294 0.0000 0.9838 0.0000
# 2 2.1200 61.7709 -9.4367 0.0000 1.2980 0.0000
# 3 -21.9294 -9.4367 53.0169 0.0000 0.2148 0.0000
# 4 0.0000 0.0000 0.0000 20.1936 0.0000 -0.0331
# 5 0.9838 1.2980 0.2148 0.0000 44.1764 0.0000
# 6 0.0000 0.0000 0.0000 -0.0331 0.0000 11.4773
#
#
#
# Elastic Compliance Matrix: (Units=1/GPa)
#
#
# Indices 1 2 3 4 5 6 
#
# 1 0.013147 0.000398 0.005510 0.000000 -0.000331 0.000000
# 2 0.000398 0.016665 0.003133 0.000000 -0.000514 0.000000
# 3 0.005510 0.003133 0.021700 0.000000 -0.000320 0.000000
# 4 0.000000 0.000000 0.000000 0.049521 0.000000 0.000143
# 5 -0.000331 -0.000514 -0.000320 0.000000 0.022661 0.000000
# 6 0.000000 0.000000 0.000000 0.000143 0.000000 0.087129
#
#
# Mechanical properties :
#
#
# Convention : Reuss Voigt Hill
#
# Bulk Modulus (GPa) = 14.36964 15.72366 15.04665
# Shear Modulus (GPa) = 23.15474 30.45287 26.80380
#
# Velocity S-wave (km/s) = 3.08725 3.54051 3.32162
# Velocity P-wave (km/s) = 4.31544 4.81517 4.57214
#
# Compressibility (1/GPa) = 0.06959118
#
# Stress axis : x y z
#
# Youngs Moduli (GPa) = 76.06577 60.00749 46.08323
#
# Poissons Ratio (x) = -0.02385 -0.25391
# Poissons Ratio (y) = -0.03024 -0.14436
# Poissons Ratio (z) = -0.41911 -0.18799
#
# Static dielectric constant tensor:
#      x y z
#    x 1.959150 0.000000 -0.027330 
#    y 0.000000 1.927040 0.000000 
#    z -0.027330 0.000000 1.948570 
# 
# From -- ./inp_files/45310.got.cif
#   From: 2010.05.17/outbox.cif.g08.bks.cpg/sg11_23_cif.got.tgz:45310.got - 2010.06.03 12:22:45.
