data_PCOD9160149
_publ_section_title
;
Structure prediction by ZEFSAII (Michael W. Deem and Ramdas Pophale) SiO2 
 PCOD9160149
Probable space group: P 21/M
;
_chemical_formula_sum "Si O2"
_cell_formula_units_Z 30
_cell_length_a 20.029320
_cell_length_b 9.456086
_cell_length_c 7.140314
_cell_angle_alpha 90.000000
_cell_angle_beta 109.151787
_cell_angle_gamma 90.000000
_cell_volume 1277.518303
_symmetry_space_group_name_H-M "P 21/M"
_symmetry_group_IT_number 11
_symmetry_cell_setting 'monoclinic'
loop_
_space_group_symop_operation_xyz
x,y,z
-x,1/2+y,-z
-x,-y,-z
x,1/2-y,z
loop_
_atom_site_type_symbol
_atom_site_label
_atom_site_fract_x
_atom_site_fract_y
_atom_site_fract_z
Si Si1 0.545346 0.028053 0.797845
Si Si2 0.051985 0.587015 0.288336
Si Si3 0.479389 0.750000 0.922321
Si Si4 0.706855 0.913798 0.267369
Si Si5 0.394188 0.410982 0.491760
Si Si6 0.814039 0.913102 0.691696
Si Si7 0.242279 0.585008 0.031114
Si Si8 0.078385 0.591833 0.758798
O O1 0.559672 0.127334 0.985589
O O2 0.475239 0.093710 0.636662
O O3 0.602920 0.009593 0.687345
O O4 0.523160 0.873914 0.849115
O O5 0.055221 0.750000 0.232484
O O6 0.112365 0.495237 0.246408
O O7 0.070052 0.580965 0.526898
O O8 0.974397 0.520945 0.199595
O O9 0.690687 0.750000 0.202373
O O10 0.649489 0.961123 0.368348
O O11 0.779440 0.915271 0.453393
O O12 0.714412 0.009354 0.093337
O O13 0.370047 0.250000 0.428301
O O14 0.822032 0.750000 0.756462
O O15 0.761166 0.994494 0.782164
O O16 0.260355 0.750000 0.075080
O O17 0.160028 0.578698 0.886819
O O18 0.053938 0.750000 0.788116
#
# Coordination Sequence:
#
# PCOD9160149 Si02
#       8
#     4   4   2   4   4   4   4   4
#     4  10  20  38  62  90 129 159 196 245 302 350
#     4  10  19  34  60  89 119 154 197 251 307 360
#     4  10  20  36  60  98 128 158 190 248 302 346
#     4  10  23  44  64  86 117 165 208 253 296 359
#     4  10  20  40  63  86 117 166 203 240 297 364
#     4  11  23  40  62  88 120 160 206 251 302 368
#     4  11  23  42  63  88 122 158 200 255 310 361
#     4   9  19  35  58  87 119 154 195 245 308 369
#
# _framework density 23.483029999999999
#
# number of rings (size 3 to 8) (size 9 to 14) (size 15 to 20)
#    0.000    1.867    2.667    1.200    0.000    2.667 
#    7.200    0.000    0.000    0.000    0.000    0.000 
#    0.000    0.000    0.000    0.000    0.000    0.000 
#
# Total GULP energy -167404.333416 kJ/mol
# GULP energy per Si atom -5580.144447 kJ/mol
# Density = 2.342958 g / cm^3
# Si number density = 23.483030 Si / 1000 Ang^3
#
#
#
# Elastic Constant Matrix: (Units=GPa)
#
#
# Indices 1 2 3 4 5 6 
#
# 1 98.4116 50.5048 28.4092 0.0000 -32.4160 0.0000
# 2 50.5048 184.3907 59.9536 0.0000 -38.6631 0.0000
# 3 28.4092 59.9536 95.9422 0.0000 -25.6879 0.0000
# 4 0.0000 0.0000 0.0000 15.2078 0.0000 -1.5576
# 5 -32.4160 -38.6631 -25.6879 0.0000 52.7739 0.0000
# 6 0.0000 0.0000 0.0000 -1.5576 0.0000 14.2814
#
#
#
# Elastic Compliance Matrix: (Units=1/GPa)
#
#
# Indices 1 2 3 4 5 6 
#
# 1 0.013608 -0.002057 -0.001046 0.000000 0.006343 0.000000
# 2 -0.002057 0.007676 -0.003473 0.000000 0.002669 0.000000
# 3 -0.001046 -0.003473 0.013855 0.000000 0.003558 0.000000
# 4 0.000000 0.000000 0.000000 0.066498 0.000000 0.007253
# 5 0.006343 0.002669 0.003558 0.000000 0.026532 0.000000
# 6 0.000000 0.000000 0.000000 0.007253 0.000000 0.070812
#
#
# Mechanical properties :
#
#
# Convention : Reuss Voigt Hill
#
# Bulk Modulus (GPa) = 45.47997 72.94218 59.21108
# Shear Modulus (GPa) = 22.78300 32.44441 27.61371
#
# Velocity S-wave (km/s) = 3.11817 3.72104 3.43286
# Velocity P-wave (km/s) = 5.68974 7.04206 6.40171
#
# Compressibility (1/GPa) = 0.02198770
#
# Stress axis : x y z
#
# Youngs Moduli (GPa) = 73.48441 130.28378 72.17575
#
# Poissons Ratio (x) = 0.26805 0.07547
# Poissons Ratio (y) = 0.15119 0.25063
# Poissons Ratio (z) = 0.07684 0.45241
#
# Static dielectric constant tensor:
#      x y z
#    x 1.902330 0.000000 0.042700 
#    y 0.000000 1.828480 0.000000 
#    z 0.042700 0.000000 1.927410 
# 
# From -- ./inp_files/25855.got.cif
#   From: 2010.05.17/outbox.cif.g08.bks.cpg/sg11_13_cif.got.tgz:25855.got - 2010.06.03 12:22:45.
