data_PCOD9160890
_publ_section_title
;
Structure prediction by ZEFSAII (Michael W. Deem and Ramdas Pophale) SiO2 
 PCOD9160890
Probable space group: P 21/M
;
_chemical_formula_sum "Si O2"
_cell_formula_units_Z 32
_cell_length_a 16.526667
_cell_length_b 21.115209
_cell_length_c 9.448077
_cell_angle_alpha 90.000000
_cell_angle_beta 147.784399
_cell_angle_gamma 90.000000
_cell_volume 1757.673469
_symmetry_space_group_name_H-M "P 21/M"
_symmetry_group_IT_number 11
_symmetry_cell_setting 'monoclinic'
loop_
_space_group_symop_operation_xyz
x,y,z
-x,1/2+y,-z
-x,-y,-z
x,1/2-y,z
loop_
_atom_site_type_symbol
_atom_site_label
_atom_site_fract_x
_atom_site_fract_y
_atom_site_fract_z
Si Si1 0.222980 0.410547 0.521482
Si Si2 0.016435 0.177502 0.015374
Si Si3 0.342434 0.325931 0.956286
Si Si4 0.590149 0.952874 0.462711
Si Si5 0.672474 0.324847 0.559082
Si Si6 0.694830 0.068417 0.796274
Si Si7 0.185438 0.125047 0.009574
Si Si8 0.993240 0.498786 0.322010
O O1 0.102191 0.371116 0.246785
O O2 0.282465 0.365044 0.733477
O O3 0.353540 0.433423 0.607505
O O4 0.144062 0.472190 0.472908
O O5 0.026283 0.250000 0.083076
O O6 0.102459 0.172749 0.992945
O O7 0.837828 0.160863 0.736815
O O8 0.329074 0.250000 0.916247
O O9 0.246421 0.346618 0.953248
O O10 0.520051 0.341763 0.247989
O O11 0.412700 0.947765 0.231097
O O12 0.643968 0.022249 0.592180
O O13 0.672821 0.905874 0.696801
O O14 0.664482 0.250000 0.569277
O O15 0.672620 0.361420 0.707597
O O16 0.864578 0.051152 0.085680
O O17 0.067378 0.067286 0.814194
O O18 0.000000 0.500000 0.500000
#
# Coordination Sequence:
#
# PCOD9160890 Si02
#       8
#     4   4   4   4   4   4   4   4
#     4  11  22  38  58  90 118 150 193 239 300 339
#     4  10  21  38  60  86 113 151 200 240 281 347
#     4  11  22  39  59  83 121 155 189 239 292 347
#     4   9  21  35  62  86 112 147 197 239 284 348
#     4  10  21  37  60  85 113 155 197 236 284 345
#     4  10  19  39  59  85 116 153 192 244 287 342
#     4  10  20  36  60  85 112 151 198 234 289 342
#     4  11  22  37  58  86 121 151 190 246 291 352
#
# _framework density 18.205883
#
# number of rings (size 3 to 8) (size 9 to 14) (size 15 to 20)
#    0.000    1.750    3.750    0.750    1.750    1.500 
#    2.250    1.875    0.000    0.000    0.000    0.000 
#    0.000    0.000    0.000    0.000    0.000    0.000 
#
# Total GULP energy -178516.701861 kJ/mol
# GULP energy per Si atom -5578.646933 kJ/mol
# Density = 1.816445 g / cm^3
# Si number density = 18.205883 Si / 1000 Ang^3
#
#
#
# Elastic Constant Matrix: (Units=GPa)
#
#
# Indices 1 2 3 4 5 6 
#
# 1 110.3471 29.5681 24.7136 0.0000 -5.0703 0.0000
# 2 29.5681 41.8202 24.9248 0.0000 3.5402 0.0000
# 3 24.7136 24.9248 52.4465 0.0000 2.7168 0.0000
# 4 0.0000 0.0000 0.0000 15.9339 0.0000 -2.1079
# 5 -5.0703 3.5402 2.7168 0.0000 19.6301 0.0000
# 6 0.0000 0.0000 0.0000 -2.1079 0.0000 25.9224
#
#
#
# Elastic Compliance Matrix: (Units=1/GPa)
#
#
# Indices 1 2 3 4 5 6 
#
# 1 0.011758 -0.007343 -0.002294 0.000000 0.004679 0.000000
# 2 -0.007343 0.038238 -0.014360 0.000000 -0.006805 0.000000
# 3 -0.002294 -0.014360 0.027063 0.000000 -0.001748 0.000000
# 4 0.000000 0.000000 0.000000 0.063442 0.000000 0.005159
# 5 0.004679 -0.006805 -0.001748 0.000000 0.053620 0.000000
# 6 0.000000 0.000000 0.000000 0.005159 0.000000 0.038996
#
#
# Mechanical properties :
#
#
# Convention : Reuss Voigt Hill
#
# Bulk Modulus (GPa) = 34.40323 40.33630 37.36977
# Shear Modulus (GPa) = 17.19408 20.65778 18.92593
#
# Velocity S-wave (km/s) = 3.07648 3.37215 3.22770
# Velocity P-wave (km/s) = 5.61760 6.11274 5.87039
#
# Compressibility (1/GPa) = 0.02906704
#
# Stress axis : x y z
#
# Youngs Moduli (GPa) = 85.04503 26.15211 36.95122
#
# Poissons Ratio (x) = 0.19203 0.08475
# Poissons Ratio (y) = 0.62446 0.53061
# Poissons Ratio (z) = 0.19506 0.37554
#
# Static dielectric constant tensor:
#      x y z
#    x 1.611680 0.000000 0.017520 
#    y 0.000000 1.647570 0.000000 
#    z 0.017520 0.000000 1.623600 
# 
# From -- ./inp_files/23391.got.cif
#   From: 2010.05.17/outbox.cif.g08.bks.cpg/sg11_12_cif.got.tgz:23391.got - 2010.06.03 12:22:45.
