data_PCOD9160056
_publ_section_title
;
Structure prediction by ZEFSAII (Michael W. Deem and Ramdas Pophale) SiO2 
 PCOD9160056
Probable space group: P 21/M
;
_chemical_formula_sum "Si O2"
_cell_formula_units_Z 32
_cell_length_a 11.301250
_cell_length_b 17.780562
_cell_length_c 7.936107
_cell_angle_alpha 90.000000
_cell_angle_beta 82.686514
_cell_angle_gamma 90.000000
_cell_volume 1581.728102
_symmetry_space_group_name_H-M "P 21/M"
_symmetry_group_IT_number 11
_symmetry_cell_setting 'monoclinic'
loop_
_space_group_symop_operation_xyz
x,y,z
-x,1/2+y,-z
-x,-y,-z
x,1/2-y,z
loop_
_atom_site_type_symbol
_atom_site_label
_atom_site_fract_x
_atom_site_fract_y
_atom_site_fract_z
Si Si1 0.239256 0.445563 0.869203
Si Si2 0.013086 0.836545 0.650578
Si Si3 0.070923 0.158500 0.704628
Si Si4 0.431657 0.550550 0.642672
Si Si5 0.684742 0.338442 0.921253
Si Si6 0.449210 0.417497 0.057588
Si Si7 0.907102 0.412150 0.025739
Si Si8 0.719726 0.336042 0.540298
O O1 0.188800 0.379689 0.760547
O O2 0.332776 0.498149 0.751634
O O3 0.131358 0.500179 0.950671
O O4 0.317273 0.412250 0.008367
O O5 0.979365 0.750000 0.698494
O O6 0.020406 0.884706 0.821312
O O7 0.148292 0.836513 0.557592
O O8 0.942566 0.860278 0.492675
O O9 0.064009 0.250000 0.720430
O O10 0.970775 0.120416 0.845414
O O11 0.500000 0.500000 0.500000
O O12 0.531379 0.584215 0.748090
O O13 0.364544 0.616494 0.561117
O O14 0.702426 0.250000 0.925303
O O15 0.719475 0.367479 0.729732
O O16 0.546973 0.359649 0.970037
O O17 0.775124 0.373619 0.039721
O O18 0.500000 0.500000 0.000000
O O19 0.678543 0.250000 0.557811
#
# Coordination Sequence:
#
# PCOD9160056 Si02
#       8
#     4   4   4   4   4   4   4   4
#     4  11  24  42  61  92 125 166 211 257 314 382
#     4  10  20  36  60  89 122 157 203 258 307 363
#     4  11  25  44  64  89 129 172 209 256 316 380
#     4  11  22  38  61  89 123 165 202 261 317 366
#     4  11  20  34  64  93 120 164 209 262 326 373
#     4  10  20  39  57  83 123 160 205 256 313 372
#     4  12  21  40  65  93 125 161 210 268 316 369
#     4  10  19  34  57  90 122 153 202 259 316 371
#
# _framework density 20.231037000000001
#
# number of rings (size 3 to 8) (size 9 to 14) (size 15 to 20)
#    0.000    1.250    5.000    3.000    0.000    2.500 
#    2.250    0.625    0.000    0.000    0.000    0.000 
#    0.000    0.000    0.000    0.000    0.000    0.000 
#
# Total GULP energy -178509.016415 kJ/mol
# GULP energy per Si atom -5578.406763 kJ/mol
# Density = 2.018499 g / cm^3
# Si number density = 20.231037 Si / 1000 Ang^3
#
#
#
# Elastic Constant Matrix: (Units=GPa)
#
#
# Indices 1 2 3 4 5 6 
#
# 1 82.3487 24.3989 41.4748 0.0000 36.4679 0.0000
# 2 24.3989 53.2176 31.9225 0.0000 24.8896 0.0000
# 3 41.4748 31.9225 114.6682 0.0000 28.3815 0.0000
# 4 0.0000 0.0000 0.0000 29.5731 0.0000 3.2429
# 5 36.4679 24.8896 28.3815 0.0000 49.2552 0.0000
# 6 0.0000 0.0000 0.0000 3.2429 0.0000 32.3431
#
#
#
# Elastic Compliance Matrix: (Units=1/GPa)
#
#
# Indices 1 2 3 4 5 6 
#
# 1 0.019628 -0.001210 -0.003869 0.000000 -0.011692 0.000000
# 2 -0.001210 0.026744 -0.004530 0.000000 -0.010008 0.000000
# 3 -0.003869 -0.004530 0.011787 0.000000 -0.001638 0.000000
# 4 0.000000 0.000000 0.000000 0.034190 0.000000 -0.003428
# 5 -0.011692 -0.010008 -0.001638 0.000000 0.034960 0.000000
# 6 0.000000 0.000000 0.000000 -0.003428 0.000000 0.031262
#
#
# Mechanical properties :
#
#
# Convention : Reuss Voigt Hill
#
# Bulk Modulus (GPa) = 25.68059 49.53630 37.60844
# Shear Modulus (GPa) = 26.20961 32.39684 29.30322
#
# Velocity S-wave (km/s) = 3.60323 4.00602 3.80995
# Velocity P-wave (km/s) = 5.48017 6.77761 6.16313
#
# Compressibility (1/GPa) = 0.03893992
#
# Stress axis : x y z
#
# Youngs Moduli (GPa) = 50.94726 37.39190 84.84095
#
# Poissons Ratio (x) = 0.04525 0.32822
# Poissons Ratio (y) = 0.06166 0.38437
# Poissons Ratio (z) = 0.19710 0.16940
#
# Static dielectric constant tensor:
#      x y z
#    x 1.711520 0.000000 0.017340 
#    y 0.000000 1.714770 0.000000 
#    z 0.017340 0.000000 1.757230 
# 
# From -- ./inp_files/18641.got.cif
#   From: 2010.05.17/outbox.cif.g08.bks.cpg/sg11_10_cif.got.tgz:18641.got - 2010.06.03 12:22:45.
