data_PCOD9160613
_publ_section_title
;
Structure prediction by ZEFSAII (Michael W. Deem and Ramdas Pophale) SiO2 
 PCOD9160613
Probable space group: P 21/M
;
_chemical_formula_sum "Si O2"
_cell_formula_units_Z 32
_cell_length_a 12.926190
_cell_length_b 11.647428
_cell_length_c 11.005845
_cell_angle_alpha 90.000000
_cell_angle_beta 103.971021
_cell_angle_gamma 90.000000
_cell_volume 1607.987943
_symmetry_space_group_name_H-M "P 21/M"
_symmetry_group_IT_number 11
_symmetry_cell_setting 'monoclinic'
loop_
_space_group_symop_operation_xyz
x,y,z
-x,1/2+y,-z
-x,-y,-z
x,1/2-y,z
loop_
_atom_site_type_symbol
_atom_site_label
_atom_site_fract_x
_atom_site_fract_y
_atom_site_fract_z
Si Si1 0.899167 0.615137 0.722504
Si Si2 0.271668 0.388030 0.132314
Si Si3 0.154310 0.385061 0.570116
Si Si4 0.512428 0.628556 0.141499
Si Si5 0.397798 0.087758 0.590631
Si Si6 0.129741 0.616426 0.725442
Si Si7 0.324851 0.957735 0.934500
Si Si8 0.477495 0.124376 0.345953
O O1 0.873656 0.750000 0.715798
O O2 0.818009 0.566789 0.799098
O O3 0.879716 0.582403 0.576917
O O4 0.024819 0.602697 0.780221
O O5 0.264083 0.250000 0.117627
O O6 0.388479 0.412856 0.223368
O O7 0.264871 0.449882 0.001862
O O8 0.117989 0.250000 0.587008
O O9 0.282481 0.378951 0.603915
O O10 0.126979 0.499103 0.642154
O O11 0.559121 0.750000 0.111121
O O12 0.514859 0.630472 0.288025
O O13 0.590123 0.526232 0.123823
O O14 0.398606 0.614982 0.046405
O O15 0.417336 0.125732 0.458892
O O16 0.419783 0.952585 0.602816
O O17 0.120992 0.750000 0.671702
O O18 0.239493 0.608603 0.830511
O O19 0.512002 0.250000 0.318734
#
# Coordination Sequence:
#
# PCOD9160613 Si02
#       8
#     4   4   4   4   4   4   4   4
#     4   9  20  39  63  88 115 152 192 247 306 351
#     4  10  19  36  60  84 115 153 202 247 287 345
#     4  11  21  38  65  92 118 151 198 245 294 354
#     4  11  22  37  54  80 116 152 193 236 283 338
#     4  11  20  34  57  87 115 149 189 237 294 345
#     4  11  24  41  61  87 121 157 195 243 304 353
#     4  11  23  37  55  84 113 159 195 236 281 347
#     4  10  20  34  55  85 120 154 191 236 291 354
#
# _framework density 19.900645999999998
#
# number of rings (size 3 to 8) (size 9 to 14) (size 15 to 20)
#    0.000    1.500    3.750    2.250    0.000    1.500 
#    0.000    0.000    0.000    3.000    0.000    0.000 
#    0.000    0.000    0.000    0.000    0.000    0.000 
#
# Total GULP energy -178207.586510 kJ/mol
# GULP energy per Si atom -5568.987078 kJ/mol
# Density = 1.985535 g / cm^3
# Si number density = 19.900646 Si / 1000 Ang^3
#
#
#
# Elastic Constant Matrix: (Units=GPa)
#
#
# Indices 1 2 3 4 5 6 
#
# 1 52.3065 21.9436 4.7600 0.0000 5.8965 0.0000
# 2 21.9436 91.1474 2.1751 0.0000 -6.6629 0.0000
# 3 4.7600 2.1751 42.5048 0.0000 -6.6587 0.0000
# 4 0.0000 0.0000 0.0000 -12.9557 0.0000 27.1511
# 5 5.8965 -6.6629 -6.6587 0.0000 25.6558 0.0000
# 6 0.0000 0.0000 0.0000 27.1511 0.0000 -16.1904
#
#
#
# Elastic Compliance Matrix: (Units=1/GPa)
#
#
# Indices 1 2 3 4 5 6 
#
# 1 0.022803 -0.005969 -0.003452 0.000000 -0.007687 0.000000
# 2 -0.005969 0.012747 0.000781 0.000000 0.004885 0.000000
# 3 -0.003452 0.000781 0.025048 0.000000 0.007497 0.000000
# 4 0.000000 0.000000 0.000000 0.030697 0.000000 0.051479
# 5 -0.007687 0.004885 0.007497 0.000000 0.043959 0.000000
# 6 0.000000 0.000000 0.000000 0.051479 0.000000 0.024564
#
#
# Mechanical properties :
#
#
# Convention : Reuss Voigt Hill
#
# Bulk Modulus (GPa) = 23.08552 27.07957 25.08255
# Shear Modulus (GPa) = 26.10454 9.77394 17.93924
#
# Velocity S-wave (km/s) = 3.62573 2.21857 3.00566
# Velocity P-wave (km/s) = 5.39939 4.49440 4.96755
#
# Compressibility (1/GPa) = 0.04331719
#
# Stress axis : x y z
#
# Youngs Moduli (GPa) = 43.85363 78.45092 39.92351
#
# Poissons Ratio (x) = 0.46830 0.13783
# Poissons Ratio (y) = 0.26178 -0.03120
# Poissons Ratio (z) = 0.15140 -0.06131
#
# Static dielectric constant tensor:
#      x y z
#    x 1.705380 0.000000 -0.007130 
#    y 0.000000 1.799020 0.000000 
#    z -0.007130 0.000000 1.732960 
# 
# From -- ./inp_files/35122.got.cif
#   From: 2010.05.17/outbox.cif.g08.bks.cpg/sg11_18_cif.got.tgz:35122.got - 2010.06.03 12:22:45.
