data_PCOD9160996
_publ_section_title
;
Structure prediction by ZEFSAII (Michael W. Deem and Ramdas Pophale) SiO2 
 PCOD9160996
Probable space group: P 21/M
;
_chemical_formula_sum "Si O2"
_cell_formula_units_Z 32
_cell_length_a 8.126774
_cell_length_b 21.712797
_cell_length_c 9.638765
_cell_angle_alpha 90.000000
_cell_angle_beta 84.643357
_cell_angle_gamma 90.000000
_cell_volume 1693.380611
_symmetry_space_group_name_H-M "P 21/M"
_symmetry_group_IT_number 11
_symmetry_cell_setting 'monoclinic'
loop_
_space_group_symop_operation_xyz
x,y,z
-x,1/2+y,-z
-x,-y,-z
x,1/2-y,z
loop_
_atom_site_type_symbol
_atom_site_label
_atom_site_fract_x
_atom_site_fract_y
_atom_site_fract_z
Si Si1 0.787408 0.628309 0.270877
Si Si2 0.599331 0.532495 0.767115
Si Si3 0.773423 0.964068 0.017514
Si Si4 0.590416 0.113560 0.701206
Si Si5 0.313444 0.577945 0.609792
Si Si6 0.833101 0.961244 0.507504
Si Si7 0.887684 0.087683 0.116223
Si Si8 0.126673 0.678428 0.134262
O O1 0.591853 0.645534 0.282866
O O2 0.834758 0.599945 0.416514
O O3 0.941354 0.670814 0.213535
O O4 0.790690 0.574073 0.156143
O O5 0.625560 0.549371 0.924532
O O6 0.570406 0.458615 0.749953
O O7 0.468279 0.574891 0.699401
O O8 0.764512 0.545500 0.665846
O O9 0.936655 0.945580 0.918448
O O10 0.769017 0.035094 0.060899
O O11 0.653688 0.112758 0.536321
O O12 0.733072 0.144042 0.784449
O O13 0.289329 0.507265 0.564266
O O14 0.162802 0.598345 0.720468
O O15 0.000000 0.000000 0.500000
O O16 0.878941 0.146138 0.016374
O O17 0.167640 0.750000 0.121664
#
# Coordination Sequence:
#
# PCOD9160996 Si02
#       8
#     4   4   4   4   4   4   4   4
#     4  11  21  39  59  88 122 153 196 242 297 355
#     4  11  19  31  52  92 130 147 179 223 292 378
#     4  10  20  31  54  90 121 157 184 227 302 362
#     4  11  21  38  60  89 120 156 189 238 297 351
#     4  11  20  33  54  91 124 148 180 229 300 365
#     4  11  19  30  52  84 128 160 178 219 292 365
#     4  10  20  36  55  81 122 153 191 238 291 352
#     4  11  26  43  61  82 109 157 212 252 285 335
#
# _framework density 18.897112
#
# number of rings (size 3 to 8) (size 9 to 14) (size 15 to 20)
#    0.000    1.250    5.000    3.000    3.500    1.500 
#    0.000    0.625    0.000    0.000    0.000    0.000 
#    0.000    0.000    0.000    0.000    0.000    0.000 
#
# Total GULP energy -178416.627189 kJ/mol
# GULP energy per Si atom -5575.519600 kJ/mol
# Density = 1.885410 g / cm^3
# Si number density = 18.897112 Si / 1000 Ang^3
#
#
#
# Elastic Constant Matrix: (Units=GPa)
#
#
# Indices 1 2 3 4 5 6 
#
# 1 63.4779 0.2060 15.5961 0.0000 -9.2984 0.0000
# 2 0.2060 52.9462 17.4437 0.0000 1.2235 0.0000
# 3 15.5961 17.4437 77.7080 0.0000 -1.6992 0.0000
# 4 0.0000 0.0000 0.0000 10.1552 0.0000 1.5906
# 5 -9.2984 1.2235 -1.6992 0.0000 38.9137 0.0000
# 6 0.0000 0.0000 0.0000 1.5906 0.0000 12.0891
#
#
#
# Elastic Compliance Matrix: (Units=1/GPa)
#
#
# Indices 1 2 3 4 5 6 
#
# 1 0.017209 0.001028 -0.003599 0.000000 0.003923 0.000000
# 2 0.001028 0.020484 -0.004818 0.000000 -0.000609 0.000000
# 3 -0.003599 -0.004818 0.014671 0.000000 -0.000068 0.000000
# 4 0.000000 0.000000 0.000000 0.100544 0.000000 -0.013229
# 5 0.003923 -0.000609 -0.000068 0.000000 0.026651 0.000000
# 6 0.000000 0.000000 0.000000 -0.013229 0.000000 0.084460
#
#
# Mechanical properties :
#
#
# Convention : Reuss Voigt Hill
#
# Bulk Modulus (GPa) = 26.60494 28.95819 27.78157
# Shear Modulus (GPa) = 17.16292 22.95736 20.06014
#
# Velocity S-wave (km/s) = 3.01695 3.48927 3.26167
# Velocity P-wave (km/s) = 5.12303 5.62056 5.37755
#
# Compressibility (1/GPa) = 0.03758700
#
# Stress axis : x y z
#
# Youngs Moduli (GPa) = 58.10914 48.81747 68.16157
#
# Poissons Ratio (x) = -0.05019 0.24531
# Poissons Ratio (y) = -0.05974 0.32840
# Poissons Ratio (z) = 0.20913 0.23520
#
# Static dielectric constant tensor:
#      x y z
#    x 1.805690 0.000000 -0.009270 
#    y 0.000000 1.617860 0.000000 
#    z -0.009270 0.000000 1.682150 
# 
# From -- ./inp_files/14804.got.cif
#   From: 2010.05.17/outbox.cif.g08.bks.cpg/sg11_8_cif.got.tgz:14804.got - 2010.06.03 12:22:45.
