data_PCOD9160611
_publ_section_title
;
Structure prediction by ZEFSAII (Michael W. Deem and Ramdas Pophale) SiO2 
 PCOD9160611
Probable space group: P 21/M
;
_chemical_formula_sum "Si O2"
_cell_formula_units_Z 32
_cell_length_a 12.059235
_cell_length_b 8.010732
_cell_length_c 29.320128
_cell_angle_alpha 90.000000
_cell_angle_beta 31.591477
_cell_angle_gamma 90.000000
_cell_volume 1483.789864
_symmetry_space_group_name_H-M "P 21/M"
_symmetry_group_IT_number 11
_symmetry_cell_setting 'monoclinic'
loop_
_space_group_symop_operation_xyz
x,y,z
-x,1/2+y,-z
-x,-y,-z
x,1/2-y,z
loop_
_atom_site_type_symbol
_atom_site_label
_atom_site_fract_x
_atom_site_fract_y
_atom_site_fract_z
Si Si1 0.955925 0.549176 0.282409
Si Si2 0.375953 0.452148 0.848203
Si Si3 0.649872 0.061378 0.907241
Si Si4 0.846305 0.951506 0.167456
Si Si5 0.597433 0.052058 0.345047
Si Si6 0.290691 0.946648 0.974643
Si Si7 0.117368 0.048263 0.505306
Si Si8 0.866622 0.453864 0.682953
O O1 0.980646 0.750000 0.274696
O O2 0.724869 0.511654 0.344333
O O3 0.129694 0.480089 0.185235
O O4 0.018475 0.489254 0.310892
O O5 0.364758 0.250000 0.854241
O O6 0.281931 0.505202 0.832633
O O7 0.251681 0.524871 0.934964
O O8 0.621078 0.504351 0.766937
O O9 0.701176 0.250000 0.901763
O O10 0.498653 0.047524 0.916138
O O11 0.500000 0.000000 0.000000
O O12 0.847489 0.750000 0.167755
O O13 0.734107 0.010244 0.252405
O O14 0.089727 0.003229 0.074739
O O15 0.583431 0.250000 0.354155
O O16 0.359191 0.985552 0.422630
O O17 0.328159 0.750000 0.969717
O O18 0.122513 0.250000 0.504955
O O19 0.988479 0.990486 0.594912
O O20 0.000000 0.000000 0.500000
O O21 0.868034 0.250000 0.682531
#
# Coordination Sequence:
#
# PCOD9160611 Si02
#       8
#     4   4   4   4   4   4   4   4
#     4  10  21  39  61  83 112 155 204 241 284 355
#     4  10  19  36  60  84 112 152 200 242 289 349
#     4  11  22  37  57  82 113 155 205 249 293 348
#     4  10  22  38  58  83 115 160 203 237 288 362
#     4  11  24  39  58  89 123 151 189 246 300 341
#     4  11  22  35  53  84 119 152 195 244 296 353
#     4  10  22  41  65  92 122 153 192 238 292 354
#     4   9  18  37  63  86 112 154 198 239 288 351
#
# _framework density 21.566396000000001
#
# number of rings (size 3 to 8) (size 9 to 14) (size 15 to 20)
#    0.000    1.750    1.250    3.000    0.000    8.000 
#    0.000    1.250    0.000    0.000    0.000    0.000 
#    0.000    0.000    0.000    0.000    0.000    0.000 
#
# Total GULP energy -178837.671259 kJ/mol
# GULP energy per Si atom -5588.677227 kJ/mol
# Density = 2.151731 g / cm^3
# Si number density = 21.566396 Si / 1000 Ang^3
#
#
#
# Elastic Constant Matrix: (Units=GPa)
#
#
# Indices 1 2 3 4 5 6 
#
# 1 102.3232 -1.8602 36.1058 0.0000 -7.5477 0.0000
# 2 -1.8602 11.7672 7.6341 0.0000 2.3022 0.0000
# 3 36.1058 7.6341 122.9458 0.0000 -2.9861 0.0000
# 4 0.0000 0.0000 0.0000 14.2978 0.0000 -0.1888
# 5 -7.5477 2.3022 -2.9861 0.0000 40.1558 0.0000
# 6 0.0000 0.0000 0.0000 -0.1888 0.0000 26.3617
#
#
#
# Elastic Compliance Matrix: (Units=1/GPa)
#
#
# Indices 1 2 3 4 5 6 
#
# 1 0.011187 0.003704 -0.003476 0.000000 0.001632 0.000000
# 2 0.003704 0.091003 -0.006861 0.000000 -0.005031 0.000000
# 3 -0.003476 -0.006861 0.009591 0.000000 0.000453 0.000000
# 4 0.000000 0.000000 0.000000 0.069947 0.000000 0.000501
# 5 0.001632 -0.005031 0.000453 0.000000 0.025532 0.000000
# 6 0.000000 0.000000 0.000000 0.000501 0.000000 0.037937
#
#
# Mechanical properties :
#
#
# Convention : Reuss Voigt Hill
#
# Bulk Modulus (GPa) = 10.15054 35.64396 22.89725
# Shear Modulus (GPa) = 17.16435 29.17351 23.16893
#
# Velocity S-wave (km/s) = 2.82420 3.68194 3.28122
# Velocity P-wave (km/s) = 3.91812 5.88549 4.99953
#
# Compressibility (1/GPa) = 0.09851691
#
# Stress axis : x y z
#
# Youngs Moduli (GPa) = 89.38865 10.98866 104.26021
#
# Poissons Ratio (x) = -0.04070 0.36238
# Poissons Ratio (y) = -0.33110 0.71529
# Poissons Ratio (z) = 0.31069 0.07539
#
# Static dielectric constant tensor:
#      x y z
#    x 1.791300 0.000000 -0.003260 
#    y 0.000000 1.783300 0.000000 
#    z -0.003260 0.000000 1.778970 
# 
# From -- ./inp_files/45176.got.cif
#   From: 2010.05.17/outbox.cif.g08.bks.cpg/sg11_23_cif.got.tgz:45176.got - 2010.06.03 12:22:45.
