data_PCOD9160059
_publ_section_title
;
Structure prediction by ZEFSAII (Michael W. Deem and Ramdas Pophale) SiO2 
 PCOD9160059
Probable space group: P 21/M
;
_chemical_formula_sum "Si O2"
_cell_formula_units_Z 32
_cell_length_a 14.096963
_cell_length_b 14.838079
_cell_length_c 8.186298
_cell_angle_alpha 90.000000
_cell_angle_beta 70.356884
_cell_angle_gamma 90.000000
_cell_volume 1612.692873
_symmetry_space_group_name_H-M "P 21/M"
_symmetry_group_IT_number 11
_symmetry_cell_setting 'monoclinic'
loop_
_space_group_symop_operation_xyz
x,y,z
-x,1/2+y,-z
-x,-y,-z
x,1/2-y,z
loop_
_atom_site_type_symbol
_atom_site_label
_atom_site_fract_x
_atom_site_fract_y
_atom_site_fract_z
Si Si1 0.516532 0.144865 0.393092
Si Si2 0.911209 0.062235 0.882878
Si Si3 0.280957 0.472677 0.037934
Si Si4 0.657689 0.526567 0.355577
Si Si5 0.440872 0.147786 0.069242
Si Si6 0.149205 0.646951 0.419674
Si Si7 0.353842 0.644234 0.155152
Si Si8 0.879834 0.470269 0.262197
O O1 0.533478 0.250000 0.434684
O O2 0.602425 0.071504 0.387703
O O3 0.497971 0.146119 0.208929
O O4 0.414311 0.100068 0.521569
O O5 0.888619 0.126616 0.742534
O O6 0.839416 0.975069 0.885787
O O7 0.878301 0.084306 0.089216
O O8 0.028489 0.039071 0.814367
O O9 0.344827 0.416310 0.129652
O O10 0.312228 0.576698 0.043190
O O11 0.323072 0.442530 0.841102
O O12 0.771241 0.515265 0.353543
O O13 0.409494 0.250000 0.051862
O O14 0.528845 0.120216 0.889243
O O15 0.131065 0.750000 0.468536
O O16 0.271008 0.631948 0.344166
O O17 0.100364 0.587133 0.587524
O O18 0.350950 0.750000 0.112823
#
# Coordination Sequence:
#
# PCOD9160059 Si02
#       8
#     4   4   4   4   4   4   4   4
#     4  10  22  38  54  83 120 153 193 239 292 359
#     4   9  21  40  62  85 116 156 200 248 296 350
#     4  10  19  34  58  82 109 152 194 241 291 349
#     4  10  22  35  59  85 113 157 194 239 300 349
#     4  10  20  34  56  81 113 156 193 236 292 353
#     4  10  21  36  59  90 119 153 194 247 304 356
#     4   9  18  31  52  83 115 147 187 236 289 346
#     4  10  21  40  62  88 116 155 201 248 297 353
#
# _framework density 19.842587999999999
#
# number of rings (size 3 to 8) (size 9 to 14) (size 15 to 20)
#    0.000    2.250    1.250    0.750    3.500    2.500 
#    0.000    3.750    0.000    4.500    0.000    0.000 
#    0.000    0.000    0.000    0.000    0.000    0.000 
#
# Total GULP energy -178182.781829 kJ/mol
# GULP energy per Si atom -5568.211932 kJ/mol
# Density = 1.979743 g / cm^3
# Si number density = 19.842588 Si / 1000 Ang^3
#
#
#
# Elastic Constant Matrix: (Units=GPa)
#
#
# Indices 1 2 3 4 5 6 
#
# 1 86.5204 17.7114 -2.8891 0.0000 -21.9693 0.0000
# 2 17.7114 39.3191 9.5832 0.0000 -9.1975 0.0000
# 3 -2.8891 9.5832 32.7264 0.0000 -10.5368 0.0000
# 4 0.0000 0.0000 0.0000 10.0808 0.0000 -5.6956
# 5 -21.9693 -9.1975 -10.5368 0.0000 33.1519 0.0000
# 6 0.0000 0.0000 0.0000 -5.6956 0.0000 2.9404
#
#
#
# Elastic Compliance Matrix: (Units=1/GPa)
#
#
# Indices 1 2 3 4 5 6 
#
# 1 0.015823 -0.006217 0.006726 0.000000 0.010898 0.000000
# 2 -0.006217 0.030806 -0.009073 0.000000 0.001543 0.000000
# 3 0.006726 -0.009073 0.038357 0.000000 0.014132 0.000000
# 4 0.000000 0.000000 0.000000 -1.050801 0.000000 -2.035421
# 5 0.010898 0.001543 0.014132 0.000000 0.042306 0.000000
# 6 0.000000 0.000000 0.000000 -2.035421 0.000000 -3.602557
#
#
# Mechanical properties :
#
#
# Convention : Reuss Voigt Hill
#
# Bulk Modulus (GPa) = 14.73678 23.04187 18.88932
# Shear Modulus (GPa) = -1.11450 18.17865 8.53207
#
# Velocity S-wave (km/s) = -0.75026 3.03007 2.07586
# Velocity P-wave (km/s) = 2.58698 4.88664 3.90971
#
# Compressibility (1/GPa) = 0.06785744
#
# Stress axis : x y z
#
# Youngs Moduli (GPa) = 63.20037 32.46144 26.07091
#
# Poissons Ratio (x) = 0.20183 -0.17536
# Poissons Ratio (y) = 0.39295 0.23654
# Poissons Ratio (z) = -0.42511 0.29452
#
# Static dielectric constant tensor:
#      x y z
#    x 1.761190 0.000000 0.009700 
#    y 0.000000 1.679970 0.000000 
#    z 0.009700 0.000000 1.740870 
# 
# From -- ./inp_files/22164.got.cif
#   From: 2010.05.17/outbox.cif.g08.bks.cpg/sg11_12_cif.got.tgz:22164.got - 2010.06.03 12:22:45.
