data_PCOD9160011
_publ_section_title
;
Structure prediction by ZEFSAII (Michael W. Deem and Ramdas Pophale) SiO2 
 PCOD9160011
Probable space group: P 21/M
;
_chemical_formula_sum "Si O2"
_cell_formula_units_Z 32
_cell_length_a 28.921015
_cell_length_b 8.600446
_cell_length_c 22.496410
_cell_angle_alpha 90.000000
_cell_angle_beta 161.280656
_cell_angle_gamma 90.000000
_cell_volume 1795.815774
_symmetry_space_group_name_H-M "P 21/M"
_symmetry_group_IT_number 11
_symmetry_cell_setting 'monoclinic'
loop_
_space_group_symop_operation_xyz
x,y,z
-x,1/2+y,-z
-x,-y,-z
x,1/2-y,z
loop_
_atom_site_type_symbol
_atom_site_label
_atom_site_fract_x
_atom_site_fract_y
_atom_site_fract_z
Si Si1 0.338491 0.562207 0.799495
Si Si2 0.456901 0.063310 0.633461
Si Si3 0.838576 0.063102 0.299929
Si Si4 0.396211 0.436690 0.072774
Si Si5 0.694323 0.436844 0.372230
Si Si6 0.584122 0.063106 0.545472
Si Si7 0.838509 0.936831 0.660604
Si Si8 0.083514 0.562211 0.044519
O O1 0.342667 0.750000 0.805132
O O2 0.245874 0.511298 0.743189
O O3 0.279522 0.511889 0.663317
O O4 0.500000 0.500000 0.000000
O O5 0.462697 0.250000 0.639555
O O6 0.297393 0.015114 0.463351
O O7 0.568113 0.000014 0.818114
O O8 0.475879 0.998647 0.590407
O O9 0.840501 0.250000 0.300620
O O10 0.000000 0.000000 0.500000
O O11 0.746823 0.001369 0.132294
O O12 0.391025 0.250000 0.067892
O O13 0.534520 0.484858 0.200478
O O14 0.697114 0.250000 0.377344
O O15 0.806423 0.499994 0.556426
O O16 0.579734 0.250000 0.539853
O O17 0.751241 0.011295 0.753924
O O18 0.500000 0.000000 0.500000
O O19 0.836648 0.750000 0.656421
O O20 0.988068 0.988119 0.871866
O O21 0.082263 0.750000 0.044730
O O22 0.000000 0.500000 0.000000
#
# Coordination Sequence:
#
# PCOD9160011 Si02
#       8
#     4   4   4   4   4   4   4   4
#     4  10  20  35  56  82 110 142 183 231 281 333
#     4  10  19  34  57  83 113 145 185 232 280 338
#     4  11  23  38  57  82 115 153 193 235 284 337
#     4  10  19  34  57  83 113 145 185 232 280 338
#     4   9  18  32  52  81 112 141 177 226 279 331
#     4  11  23  38  57  82 115 153 193 235 284 337
#     4   9  18  32  52  81 112 141 177 226 279 331
#     4  10  20  35  56  82 110 142 183 231 281 333
#
# _framework density 17.819201
#
# number of rings (size 3 to 8) (size 9 to 14) (size 15 to 20)
#    0.000    2.000    2.500    1.500    0.000    3.000 
#    0.000    1.250    0.000    3.000    0.000    0.000 
#    0.000    0.000    0.000    0.000    0.000    0.000 
#
# Total GULP energy -178596.197964 kJ/mol
# GULP energy per Si atom -5581.131186 kJ/mol
# Density = 1.777864 g / cm^3
# Si number density = 17.819201 Si / 1000 Ang^3
#
#
#
# Elastic Constant Matrix: (Units=GPa)
#
#
# Indices 1 2 3 4 5 6 
#
# 1 145.5249 34.7848 86.6316 0.0000 -20.0010 0.0000
# 2 34.7848 31.5729 35.5689 0.0000 -5.1503 0.0000
# 3 86.6316 35.5689 151.6553 0.0000 -20.5471 0.0000
# 4 0.0000 0.0000 0.0000 27.3220 0.0000 -6.6552
# 5 -20.0010 -5.1503 -20.5471 0.0000 34.5640 0.0000
# 6 0.0000 0.0000 0.0000 -6.6552 0.0000 26.3135
#
#
#
# Elastic Compliance Matrix: (Units=1/GPa)
#
#
# Indices 1 2 3 4 5 6 
#
# 1 0.011767 -0.007285 -0.004609 0.000000 0.002984 0.000000
# 2 -0.007285 0.047563 -0.007183 0.000000 -0.001398 0.000000
# 3 -0.004609 -0.007183 0.011316 0.000000 0.002990 0.000000
# 4 0.000000 0.000000 0.000000 0.039003 0.000000 0.009865
# 5 0.002984 -0.001398 0.002990 0.000000 0.032227 0.000000
# 6 0.000000 0.000000 0.000000 0.009865 0.000000 0.040498
#
#
# Mechanical properties :
#
#
# Convention : Reuss Voigt Hill
#
# Bulk Modulus (GPa) = 30.77668 71.41373 51.09521
# Shear Modulus (GPa) = 21.61132 29.09109 25.35121
#
# Velocity S-wave (km/s) = 3.48632 4.04489 3.77595
# Velocity P-wave (km/s) = 5.78922 7.87266 6.90991
#
# Compressibility (1/GPa) = 0.03249213
#
# Stress axis : x y z
#
# Youngs Moduli (GPa) = 84.98572 21.02472 88.36668
#
# Poissons Ratio (x) = 0.15316 0.40726
# Poissons Ratio (y) = 0.61911 0.63477
# Poissons Ratio (z) = 0.39168 0.15103
#
# Static dielectric constant tensor:
#      x y z
#    x 1.599840 0.000000 -0.012590 
#    y 0.000000 1.597000 0.000000 
#    z -0.012590 0.000000 1.601760 
# 
# From -- ./inp_files/67298.got.cif
#   From: 2010.05.17/outbox.cif.g08.bks.cpg/sg11_34_cif.got.tgz:67298.got - 2010.06.03 12:22:45.
