data_PCOD9160887
_publ_section_title
;
Structure prediction by ZEFSAII (Michael W. Deem and Ramdas Pophale) SiO2 
 PCOD9160887
Probable space group: P 21/M
;
_chemical_formula_sum "Si O2"
_cell_formula_units_Z 24
_cell_length_a 8.449822
_cell_length_b 18.093558
_cell_length_c 14.066246
_cell_angle_alpha 90.000000
_cell_angle_beta 32.299409
_cell_angle_gamma 90.000000
_cell_volume 1149.133228
_symmetry_space_group_name_H-M "P 21/M"
_symmetry_group_IT_number 11
_symmetry_cell_setting 'monoclinic'
loop_
_space_group_symop_operation_xyz
x,y,z
-x,1/2+y,-z
-x,-y,-z
x,1/2-y,z
loop_
_atom_site_type_symbol
_atom_site_label
_atom_site_fract_x
_atom_site_fract_y
_atom_site_fract_z
Si Si1 0.300781 0.475027 0.293928
Si Si2 0.629234 0.614605 0.065653
Si Si3 0.896503 0.250000 0.910043
Si Si4 0.207882 0.750000 0.265830
Si Si5 0.456688 0.250000 0.385513
Si Si6 0.555875 0.250000 0.557072
Si Si7 0.880942 0.665355 0.734966
Si Si8 0.208581 0.623530 0.891725
O O1 0.434291 0.540115 0.160633
O O2 0.220509 0.399912 0.280411
O O3 0.586115 0.448744 0.209781
O O4 0.000000 0.500000 0.500000
O O5 0.394039 0.679446 0.202762
O O6 0.796686 0.638889 0.883707
O O7 0.880414 0.609202 0.018942
O O8 0.836947 0.250000 0.826871
O O9 0.243714 0.250000 0.765128
O O10 0.793234 0.172628 0.010178
O O11 0.881881 0.750000 0.476102
O O12 0.468821 0.250000 0.491454
O O13 0.629580 0.179225 0.261762
O O14 0.770784 0.180021 0.460803
O O15 0.758904 0.750000 0.783724
#
# Coordination Sequence:
#
# PCOD9160887 Si02
#       8
#     4   4   2   2   2   2   4   4
#     4  12  28  44  65 104 141 178 226 283 340 392
#     4  12  23  44  69  95 137 178 224 275 338 409
#     4  10  23  36  73  99 130 168 227 275 337 396
#     4  11  21  40  68  99 125 173 226 264 335 401
#     4  10  19  38  67  95 128 170 223 279 315 406
#     4   9  19  40  66 103 123 171 232 280 323 401
#     4  10  22  44  70  95 132 180 230 272 338 403
#     4  11  23  43  63 100 135 175 220 274 343 390
#
# _framework density 20.885306
#
# number of rings (size 3 to 8) (size 9 to 14) (size 15 to 20)
#    0.500    0.667    2.500    4.000    4.667    0.000 
#    4.500    0.833    0.000    0.000    0.000    0.000 
#    0.000    0.000    0.000    0.000    0.000    0.000 
#
# Total GULP energy -133910.160571 kJ/mol
# GULP energy per Si atom -5579.590024 kJ/mol
# Density = 2.083777 g / cm^3
# Si number density = 20.885306 Si / 1000 Ang^3
#
#
#
# Elastic Constant Matrix: (Units=GPa)
#
#
# Indices 1 2 3 4 5 6 
#
# 1 72.7165 50.3194 26.5160 0.0000 -23.3966 0.0000
# 2 50.3194 145.8704 58.6250 0.0000 -15.3918 0.0000
# 3 26.5160 58.6250 102.0151 0.0000 -33.3770 0.0000
# 4 0.0000 0.0000 0.0000 26.2555 0.0000 -49.9629
# 5 -23.3966 -15.3918 -33.3770 0.0000 40.2489 0.0000
# 6 0.0000 0.0000 0.0000 -49.9629 0.0000 -19.9519
#
#
#
# Elastic Compliance Matrix: (Units=1/GPa)
#
#
# Indices 1 2 3 4 5 6 
#
# 1 0.021650 -0.007169 0.002351 0.000000 0.011793 0.000000
# 2 -0.007169 0.011327 -0.006302 0.000000 -0.005062 0.000000
# 3 0.002351 -0.006302 0.017115 0.000000 0.013150 0.000000
# 4 0.000000 0.000000 0.000000 0.006606 0.000000 -0.016543
# 5 0.011793 -0.005062 0.013150 0.000000 0.040670 0.000000
# 6 0.000000 0.000000 0.000000 -0.016543 0.000000 -0.008693
#
#
# Mechanical properties :
#
#
# Convention : Reuss Voigt Hill
#
# Bulk Modulus (GPa) = 35.90363 65.72476 50.81420
# Shear Modulus (GPa) = 41.59768 21.65327 31.62548
#
# Velocity S-wave (km/s) = 4.46771 3.22339 3.89555
# Velocity P-wave (km/s) = 6.62134 6.73731 6.67957
#
# Compressibility (1/GPa) = 0.02785234
#
# Stress axis : x y z
#
# Youngs Moduli (GPa) = 46.18925 88.28439 58.42731
#
# Poissons Ratio (x) = 0.63289 -0.13735
# Poissons Ratio (y) = 0.33112 0.36821
# Poissons Ratio (z) = -0.10858 0.55637
#
# Static dielectric constant tensor:
#      x y z
#    x 1.804670 0.000000 -0.030600 
#    y 0.000000 1.743550 0.000000 
#    z -0.030600 0.000000 1.793410 
# 
# From -- ./inp_files/47971.got.cif
#   From: 2010.05.17/outbox.cif.g08.bks.cpg/sg11_24_cif.got.tgz:47971.got - 2010.06.03 12:22:45.
