data_PCOD9160725
_publ_section_title
;
Structure prediction by ZEFSAII (Michael W. Deem and Ramdas Pophale) SiO2 
 PCOD9160725
Probable space group: P 21/M
;
_chemical_formula_sum "Si O2"
_cell_formula_units_Z 32
_cell_length_a 5.482455
_cell_length_b 15.649264
_cell_length_c 18.681334
_cell_angle_alpha 90.000000
_cell_angle_beta 88.154977
_cell_angle_gamma 90.000000
_cell_volume 1601.960000
_symmetry_space_group_name_H-M "P 21/M"
_symmetry_group_IT_number 11
_symmetry_cell_setting 'monoclinic'
loop_
_space_group_symop_operation_xyz
x,y,z
-x,1/2+y,-z
-x,-y,-z
x,1/2-y,z
loop_
_atom_site_type_symbol
_atom_site_label
_atom_site_fract_x
_atom_site_fract_y
_atom_site_fract_z
Si Si1 0.248146 0.945811 0.511018
Si Si2 0.522128 0.102641 0.993156
Si Si3 0.042994 0.655813 0.387953
Si Si4 0.000045 0.996087 0.812688
Si Si5 0.013092 0.151808 0.073135
Si Si6 0.300173 0.344972 0.852682
Si Si7 0.263532 0.994689 0.657544
Si Si8 0.375373 0.592396 0.268070
O O1 0.215789 0.870927 0.453168
O O2 0.500000 0.000000 0.500000
O O3 0.243886 0.924523 0.595964
O O4 0.000000 0.000000 0.500000
O O5 0.778981 0.130142 0.025532
O O6 0.276086 0.138468 0.033168
O O7 0.496975 0.138535 0.913014
O O8 0.500000 0.000000 0.000000
O O9 0.939886 0.750000 0.400522
O O10 0.193215 0.652125 0.312479
O O11 0.848112 0.581203 0.375914
O O12 0.994763 0.912951 0.860544
O O13 0.123767 0.073437 0.855580
O O14 0.135072 0.979498 0.735202
O O15 0.742424 0.034595 0.792233
O O16 0.991854 0.250000 0.095430
O O17 0.193258 0.250000 0.862950
O O18 0.417804 0.353337 0.772730
O O19 0.534628 0.022807 0.675231
#
# Coordination Sequence:
#
# PCOD9160725 Si02
#       8
#     4   4   4   4   4   4   4   4
#     4  10  19  37  59  84 115 159 199 243 297 363
#     4  12  25  46  69  95 127 168 215 274 330 390
#     4  10  20  34  57  89 122 156 200 255 306 369
#     4  10  23  39  61  89 122 170 212 260 319 378
#     4  12  26  46  69  97 129 171 222 272 328 385
#     4  11  23  37  57  89 125 161 206 260 319 383
#     4   9  20  37  57  85 119 160 206 248 307 373
#     4  10  20  36  57  85 121 164 205 245 314 376
#
# _framework density 19.975529999999999
#
# number of rings (size 3 to 8) (size 9 to 14) (size 15 to 20)
#    0.000    1.500    2.500    2.625    3.500    5.500 
#    0.000    0.625    0.000    0.750    0.000    0.000 
#    0.000    0.000    0.000    0.000    0.000    0.000 
#
# Total GULP energy -178418.966167 kJ/mol
# GULP energy per Si atom -5575.592693 kJ/mol
# Density = 1.993006 g / cm^3
# Si number density = 19.975530 Si / 1000 Ang^3
#
#
#
# Elastic Constant Matrix: (Units=GPa)
#
#
# Indices 1 2 3 4 5 6 
#
# 1 75.6589 15.8132 18.4778 0.0000 11.7794 0.0000
# 2 15.8132 116.6148 38.3010 0.0000 5.7583 0.0000
# 3 18.4778 38.3010 107.7187 0.0000 16.4903 0.0000
# 4 0.0000 0.0000 0.0000 15.0690 0.0000 -3.5529
# 5 11.7794 5.7583 16.4903 0.0000 31.5368 0.0000
# 6 0.0000 0.0000 0.0000 -3.5529 0.0000 12.8415
#
#
#
# Elastic Compliance Matrix: (Units=1/GPa)
#
#
# Indices 1 2 3 4 5 6 
#
# 1 0.014515 -0.001307 -0.001339 0.000000 -0.004483 0.000000
# 2 -0.001307 0.009827 -0.003337 0.000000 0.000439 0.000000
# 3 -0.001339 -0.003337 0.011446 0.000000 -0.004876 0.000000
# 4 0.000000 0.000000 0.000000 0.070993 0.000000 0.019642
# 5 -0.004483 0.000439 -0.004876 0.000000 0.035853 0.000000
# 6 0.000000 0.000000 0.000000 0.019642 0.000000 0.083307
#
#
# Mechanical properties :
#
#
# Convention : Reuss Voigt Hill
#
# Bulk Modulus (GPa) = 41.97796 49.46404 45.72100
# Shear Modulus (GPa) = 20.33782 27.04947 23.69365
#
# Velocity S-wave (km/s) = 3.19429 3.68384 3.44777
# Velocity P-wave (km/s) = 5.88769 6.55060 6.22797
#
# Compressibility (1/GPa) = 0.02382202
#
# Stress axis : x y z
#
# Youngs Moduli (GPa) = 68.89254 101.76204 87.36656
#
# Poissons Ratio (x) = 0.13302 0.11697
# Poissons Ratio (y) = 0.09006 0.29155
# Poissons Ratio (z) = 0.09224 0.33958
#
# Static dielectric constant tensor:
#      x y z
#    x 1.783310 0.000000 -0.018650 
#    y 0.000000 1.714150 0.000000 
#    z -0.018650 0.000000 1.764290 
# 
# From -- ./inp_files/57060.got.cif
#   From: 2010.05.17/outbox.cif.g08.bks.cpg/sg11_29_cif.got.tgz:57060.got - 2010.06.03 12:22:45.
