data_PCOD9160685
_publ_section_title
;
Structure prediction by ZEFSAII (Michael W. Deem and Ramdas Pophale) SiO2 
 PCOD9160685
Probable space group: P 21/M
;
_chemical_formula_sum "Si O2"
_cell_formula_units_Z 24
_cell_length_a 11.407374
_cell_length_b 15.088373
_cell_length_c 13.648476
_cell_angle_alpha 90.000000
_cell_angle_beta 146.699583
_cell_angle_gamma 90.000000
_cell_volume 1289.755709
_symmetry_space_group_name_H-M "P 21/M"
_symmetry_group_IT_number 11
_symmetry_cell_setting 'monoclinic'
loop_
_space_group_symop_operation_xyz
x,y,z
-x,1/2+y,-z
-x,-y,-z
x,1/2-y,z
loop_
_atom_site_type_symbol
_atom_site_label
_atom_site_fract_x
_atom_site_fract_y
_atom_site_fract_z
Si Si1 0.362824 0.980870 0.500004
Si Si2 0.716462 0.393758 0.207857
Si Si3 0.970219 0.649459 0.212466
Si Si4 0.300758 0.393757 0.792150
Si Si5 0.545295 0.850541 0.787540
Si Si6 0.801921 0.651831 0.499995
O O1 0.495607 0.922348 0.670714
O O2 0.154183 0.922348 0.329294
O O3 0.500000 0.000000 0.500000
O O4 0.290514 0.072365 0.500006
O O5 0.728489 0.500001 0.228491
O O6 0.637578 0.356813 0.256860
O O7 0.942787 0.358865 0.331029
O O8 0.530127 0.373510 0.000004
O O9 0.045992 0.750000 0.248275
O O10 0.876137 0.643188 0.256858
O O11 0.768003 0.632281 0.000003
O O12 0.280747 0.358863 0.668984
O O13 0.549451 0.750000 0.751732
O O14 0.748667 0.750000 0.499998
#
# Coordination Sequence:
#
# PCOD9160685 Si02
#       6
#     4   4   4   4   4   4
#     4  12  26  42  60  81 117 163 209 249 286 331
#     4  10  19  36  63  92 122 152 185 234 302 366
#     4  10  21  39  65  93 118 150 193 242 299 358
#     4  10  19  36  63  92 122 152 185 234 302 366
#     4  10  21  39  65  93 118 150 193 242 299 358
#     4  12  24  37  57  88 123 158 195 238 296 354
#
# _framework density 18.608174999999999
#
# number of rings (size 3 to 8) (size 9 to 14) (size 15 to 20)
#    0.000    1.333    3.333    3.000    0.000    4.000 
#    0.000    0.000    0.000    0.000    0.000    0.000 
#    0.000    0.000    0.000    0.000    0.000    0.000 
#
# Total GULP energy -134187.148683 kJ/mol
# GULP energy per Si atom -5591.131195 kJ/mol
# Density = 1.856582 g / cm^3
# Si number density = 18.608175 Si / 1000 Ang^3
#
#
#
# Elastic Constant Matrix: (Units=GPa)
#
#
# Indices 1 2 3 4 5 6 
#
# 1 126.9418 79.3833 61.7079 0.0000 3.2806 0.0000
# 2 79.3833 159.6017 67.5817 0.0000 0.7585 0.0000
# 3 61.7079 67.5817 84.2827 0.0000 -0.5337 0.0000
# 4 0.0000 0.0000 0.0000 -55.5569 0.0000 3.3962
# 5 3.2806 0.7585 -0.5337 0.0000 7.4443 0.0000
# 6 0.0000 0.0000 0.0000 3.3962 0.0000 -3.0168
#
#
#
# Elastic Compliance Matrix: (Units=1/GPa)
#
#
# Indices 1 2 3 4 5 6 
#
# 1 0.013931 -0.003882 -0.007127 0.000000 -0.006255 0.000000
# 2 -0.003882 0.010585 -0.005644 0.000000 0.000227 0.000000
# 3 -0.007127 -0.005644 0.021642 0.000000 0.005267 0.000000
# 4 0.000000 0.000000 0.000000 -0.019330 0.000000 -0.021761
# 5 -0.006255 0.000227 0.005267 0.000000 0.137443 0.000000
# 6 0.000000 0.000000 0.000000 -0.021761 0.000000 -0.355974
#
#
# Mechanical properties :
#
#
# Convention : Reuss Voigt Hill
#
# Bulk Modulus (GPa) = 77.80448 87.57467 82.68958
# Shear Modulus (GPa) = -32.44365 0.58433 -15.92966
#
# Velocity S-wave (km/s) = -4.18007 0.56098 -2.92902
# Velocity P-wave (km/s) = 4.31340 6.89813 5.75281
#
# Compressibility (1/GPa) = 0.01285273
#
# Stress axis : x y z
#
# Youngs Moduli (GPa) = 71.78195 94.47169 46.20634
#
# Poissons Ratio (x) = 0.36670 0.32931
# Poissons Ratio (y) = 0.27863 0.26080
# Poissons Ratio (z) = 0.51158 0.53323
#
# Static dielectric constant tensor:
#      x y z
#    x 1.587020 0.000000 -0.007800 
#    y 0.000000 1.665810 0.000000 
#    z -0.007800 0.000000 1.707700 
# 
# From -- ./inp_files/39556.got.cif
#   From: 2010.05.17/outbox.cif.g08.bks.cpg/sg11_20_cif.got.tgz:39556.got - 2010.06.03 12:22:45.
