data_PCOD9160658
_publ_section_title
;
Structure prediction by ZEFSAII (Michael W. Deem and Ramdas Pophale) SiO2 
 PCOD9160658
Probable space group: P 21/M
;
_chemical_formula_sum "Si O2"
_cell_formula_units_Z 28
_cell_length_a 21.528542
_cell_length_b 9.273721
_cell_length_c 15.177553
_cell_angle_alpha 90.000000
_cell_angle_beta 155.540113
_cell_angle_gamma 90.000000
_cell_volume 1254.670140
_symmetry_space_group_name_H-M "P 21/M"
_symmetry_group_IT_number 11
_symmetry_cell_setting 'monoclinic'
loop_
_space_group_symop_operation_xyz
x,y,z
-x,1/2+y,-z
-x,-y,-z
x,1/2-y,z
loop_
_atom_site_type_symbol
_atom_site_label
_atom_site_fract_x
_atom_site_fract_y
_atom_site_fract_z
Si Si1 0.538324 0.417916 0.866642
Si Si2 0.933079 0.083609 0.495416
Si Si3 0.086943 0.416473 0.255123
Si Si4 0.679915 0.913336 0.585322
Si Si5 0.270432 0.583126 0.183446
Si Si6 0.250144 0.083351 0.980201
Si Si7 0.296904 0.576995 0.661694
O O1 0.564411 0.250000 0.920381
O O2 0.430444 0.425537 0.640608
O O3 0.448056 0.496423 0.827845
O O4 0.683823 0.499951 0.018969
O O5 0.912900 0.250000 0.444261
O O6 0.780952 0.033914 0.346512
O O7 0.069731 0.077552 0.742112
O O8 0.000000 0.000000 0.500000
O O9 0.126287 0.250000 0.332508
O O10 0.156776 0.435131 0.248240
O O11 0.174757 0.526464 0.431208
O O12 0.909016 0.429255 0.031294
O O13 0.671406 0.750000 0.608693
O O14 0.653676 0.021051 0.631116
O O15 0.307839 0.750000 0.217023
O O16 0.301561 0.493447 0.135745
O O17 0.297174 0.250000 0.037954
O O18 0.315240 0.750000 0.683950
#
# Coordination Sequence:
#
# PCOD9160658 Si02
#       7
#     4   4   4   4   4   4   4
#     4  10  22  40  60  86 118 158 202 241 287 344
#     4  10  23  41  65  95 121 147 187 235 290 352
#     4   9  18  32  51  79 114 153 197 243 289 341
#     4   9  19  34  51  76 114 155 198 246 289 337
#     4  11  21  32  52  82 115 154 201 246 293 341
#     4  11  23  41  61  86 118 155 194 240 295 349
#     4  10  19  36  61  89 118 153 192 236 290 348
#
# _framework density 22.316623
#
# number of rings (size 3 to 8) (size 9 to 14) (size 15 to 20)
#    0.000    2.000    1.429    3.000    0.000    6.286 
#    0.000    0.714    0.000    0.000    0.000    0.000 
#    0.000    0.000    0.000    0.000    0.000    0.000 
#
# Total GULP energy -156563.811861 kJ/mol
# GULP energy per Si atom -5591.564709 kJ/mol
# Density = 2.226583 g / cm^3
# Si number density = 22.316623 Si / 1000 Ang^3
#
#
#
# Elastic Constant Matrix: (Units=GPa)
#
#
# Indices 1 2 3 4 5 6 
#
# 1 161.3348 85.2127 31.2161 0.0000 20.6718 0.0000
# 2 85.2127 121.1199 30.8332 0.0000 4.6434 0.0000
# 3 31.2161 30.8332 67.7965 0.0000 12.8335 0.0000
# 4 0.0000 0.0000 0.0000 19.4813 0.0000 0.6211
# 5 20.6718 4.6434 12.8335 0.0000 41.3819 0.0000
# 6 0.0000 0.0000 0.0000 0.6211 0.0000 40.0481
#
#
#
# Elastic Compliance Matrix: (Units=1/GPa)
#
#
# Indices 1 2 3 4 5 6 
#
# 1 0.010677 -0.007127 -0.000867 0.000000 -0.004265 0.000000
# 2 -0.007127 0.014098 -0.003723 0.000000 0.003133 0.000000
# 3 -0.000867 -0.003723 0.017722 0.000000 -0.004645 0.000000
# 4 0.000000 0.000000 0.000000 0.051357 0.000000 -0.000796
# 5 -0.004265 0.003133 -0.004645 0.000000 0.027385 0.000000
# 6 0.000000 0.000000 0.000000 -0.000796 0.000000 0.024982
#
#
# Mechanical properties :
#
#
# Convention : Reuss Voigt Hill
#
# Bulk Modulus (GPa) = 52.46172 71.64170 62.05171
# Shear Modulus (GPa) = 28.40736 33.71488 31.06112
#
# Velocity S-wave (km/s) = 3.57168 3.89106 3.73478
# Velocity P-wave (km/s) = 6.36931 7.23596 6.81642
#
# Compressibility (1/GPa) = 0.01906152
#
# Stress axis : x y z
#
# Youngs Moduli (GPa) = 93.65841 70.92999 56.42742
#
# Poissons Ratio (x) = 0.50555 0.04894
# Poissons Ratio (y) = 0.66755 0.21009
# Poissons Ratio (z) = 0.08123 0.26408
#
# Static dielectric constant tensor:
#      x y z
#    x 1.815100 0.000000 0.015700 
#    y 0.000000 1.742740 0.000000 
#    z 0.015700 0.000000 1.881730 
# 
# From -- ./inp_files/54588.got.cif
#   From: 2010.05.17/outbox.cif.g08.bks.cpg/sg11_28_cif.got.tgz:54588.got - 2010.06.03 12:22:45.
