data_PCOD9160545
_publ_section_title
;
Structure prediction by ZEFSAII (Michael W. Deem and Ramdas Pophale) SiO2 
 PCOD9160545
Probable space group: P 21/M
;
_chemical_formula_sum "Si O2"
_cell_formula_units_Z 32
_cell_length_a 21.537249
_cell_length_b 7.771560
_cell_length_c 27.521913
_cell_angle_alpha 90.000000
_cell_angle_beta 160.225472
_cell_angle_gamma 90.000000
_cell_volume 1558.490677
_symmetry_space_group_name_H-M "P 21/M"
_symmetry_group_IT_number 11
_symmetry_cell_setting 'monoclinic'
loop_
_space_group_symop_operation_xyz
x,y,z
-x,1/2+y,-z
-x,-y,-z
x,1/2-y,z
loop_
_atom_site_type_symbol
_atom_site_label
_atom_site_fract_x
_atom_site_fract_y
_atom_site_fract_z
Si Si1 0.907169 0.455374 0.200790
Si Si2 0.707644 0.041401 0.772111
Si Si3 0.008285 0.044259 0.449615
Si Si4 0.286581 0.543089 0.844017
Si Si5 0.636519 0.048537 0.349603
Si Si6 0.258501 0.458232 0.022625
Si Si7 0.311564 0.449317 0.502542
Si Si8 0.965945 0.543739 0.052653
O O1 0.927733 0.250000 0.222895
O O2 0.812064 0.523199 0.179682
O O3 0.112773 0.527384 0.344549
O O4 0.785025 0.484982 0.063619
O O5 0.702386 0.250000 0.766477
O O6 0.499485 0.975037 0.619190
O O7 0.842528 0.978583 0.828645
O O8 0.809386 0.994458 0.897318
O O9 0.018654 0.250000 0.452750
O O10 0.829169 0.983197 0.287931
O O11 0.187628 0.971148 0.555196
O O12 0.000000 0.000000 0.500000
O O13 0.275012 0.750000 0.836188
O O14 0.500000 0.500000 0.000000
O O15 0.609205 0.250000 0.340999
O O16 0.455178 0.985061 0.188262
O O17 0.667876 0.956255 0.423910
O O18 0.259073 0.250000 0.023193
O O19 0.103579 0.520147 0.946592
O O20 0.307307 0.250000 0.483680
O O21 0.981498 0.750000 0.067493
#
# Coordination Sequence:
#
# PCOD9160545 Si02
#       8
#     4   4   4   4   4   4   4   4
#     4  10  22  40  58  79 111 149 189 229 276 331
#     4   9  17  29  54  82 107 145 187 228 282 335
#     4  11  24  43  63  88 119 147 184 233 281 331
#     4  10  23  42  61  83 113 148 184 227 275 331
#     4  11  22  37  59  86 114 148 189 232 281 332
#     4  10  22  37  54  81 117 151 186 232 281 329
#     4  10  19  36  58  83 111 145 190 237 280 330
#     4   9  17  32  50  78 116 146 180 231 282 331
#
# _framework density 20.532686000000002
#
# number of rings (size 3 to 8) (size 9 to 14) (size 15 to 20)
#    0.000    2.000    2.500    0.750    1.750    3.500 
#    0.000    0.625    0.000    0.000    0.000    0.000 
#    0.000    0.000    0.000    0.000    0.000    0.000 
#
# Total GULP energy -178674.514588 kJ/mol
# GULP energy per Si atom -5583.578581 kJ/mol
# Density = 2.048595 g / cm^3
# Si number density = 20.532686 Si / 1000 Ang^3
#
#
#
# Elastic Constant Matrix: (Units=GPa)
#
#
# Indices 1 2 3 4 5 6 
#
# 1 83.6932 -3.0235 43.0325 0.0000 3.3533 0.0000
# 2 -3.0235 30.7501 -5.3145 0.0000 1.7948 0.0000
# 3 43.0325 -5.3145 113.5039 0.0000 9.8658 0.0000
# 4 0.0000 0.0000 0.0000 21.6926 0.0000 -1.5800
# 5 3.3533 1.7948 9.8658 0.0000 37.5706 0.0000
# 6 0.0000 0.0000 0.0000 -1.5800 0.0000 10.9565
#
#
#
# Elastic Compliance Matrix: (Units=1/GPa)
#
#
# Indices 1 2 3 4 5 6 
#
# 1 0.014849 0.000482 -0.005618 0.000000 0.000127 0.000000
# 2 0.000482 0.032951 0.001536 0.000000 -0.002020 0.000000
# 3 -0.005618 0.001536 0.011231 0.000000 -0.002521 0.000000
# 4 0.000000 0.000000 0.000000 0.046588 0.000000 0.006718
# 5 0.000127 -0.002020 -0.002521 0.000000 0.027364 0.000000
# 6 0.000000 0.000000 0.000000 0.006718 0.000000 0.092238
#
#
# Mechanical properties :
#
#
# Convention : Reuss Voigt Hill
#
# Bulk Modulus (GPa) = 19.29378 33.03735 26.16556
# Shear Modulus (GPa) = 20.02398 26.92746 23.47572
#
# Velocity S-wave (km/s) = 3.12625 3.62531 3.38499
# Velocity P-wave (km/s) = 4.73796 5.80077 5.29609
#
# Compressibility (1/GPa) = 0.05183018
#
# Stress axis : x y z
#
# Youngs Moduli (GPa) = 67.34238 30.34812 89.03617
#
# Poissons Ratio (x) = -0.01462 0.50024
# Poissons Ratio (y) = -0.03244 -0.13674
# Poissons Ratio (z) = 0.37835 -0.04661
#
# Static dielectric constant tensor:
#      x y z
#    x 1.706610 0.000000 0.035570 
#    y 0.000000 1.770680 0.000000 
#    z 0.035570 0.000000 1.722840 
# 
# From -- ./inp_files/72148.got.cif
#   From: 2010.05.17/outbox.cif.g08.bks.cpg/sg11_37_cif.got.tgz:72148.got - 2010.06.03 12:22:45.
