data_PCOD9160438
_publ_section_title
;
Structure prediction by ZEFSAII (Michael W. Deem and Ramdas Pophale) SiO2 
 PCOD9160438
Probable space group: P 21/M
;
_chemical_formula_sum "Si O2"
_cell_formula_units_Z 24
_cell_length_a 15.064877
_cell_length_b 12.175971
_cell_length_c 15.228090
_cell_angle_alpha 90.000000
_cell_angle_beta 26.569683
_cell_angle_gamma 90.000000
_cell_volume 1249.395214
_symmetry_space_group_name_H-M "P 21/M"
_symmetry_group_IT_number 11
_symmetry_cell_setting 'monoclinic'
loop_
_space_group_symop_operation_xyz
x,y,z
-x,1/2+y,-z
-x,-y,-z
x,1/2-y,z
loop_
_atom_site_type_symbol
_atom_site_label
_atom_site_fract_x
_atom_site_fract_y
_atom_site_fract_z
Si Si1 0.411808 0.750000 0.169827
Si Si2 0.783930 0.979210 0.111320
Si Si3 0.862994 0.750000 0.772080
Si Si4 0.839136 0.619037 0.241674
Si Si5 0.387990 0.750000 0.404306
Si Si6 0.135469 0.935240 0.447255
Si Si7 0.342229 0.991265 0.439158
Si Si8 0.156599 0.250000 0.001476
O O1 0.405923 0.750000 0.282276
O O2 0.290482 0.859547 0.256162
O O3 0.636518 0.750000 0.939943
O O4 0.734479 0.950390 0.256078
O O5 0.582509 0.994303 0.233848
O O6 0.908308 0.869683 0.973233
O O7 0.931140 0.081166 0.969658
O O8 0.985043 0.854079 0.630882
O O9 0.852738 0.750000 0.885878
O O10 0.817555 0.750000 0.249978
O O11 0.752091 0.577863 0.411120
O O12 0.292556 0.865447 0.513230
O O13 0.614144 0.750000 0.234795
O O14 0.256547 0.999818 0.416082
O O15 0.000000 0.000000 0.500000
#
# Coordination Sequence:
#
# PCOD9160438 Si02
#       8
#     2   4   2   4   2   4   4   2
#     4   8  17  35  56  82 113 143 191 246 288 330
#     4  10  21  38  59  85 117 151 193 244 289 335
#     4  10  19  35  60  88 110 146 195 246 296 339
#     4  11  23  38  54  86 120 155 195 233 282 362
#     4   7  15  31  57  88 102 133 195 239 279 330
#     4  10  21  37  59  88 119 148 197 247 287 344
#     4  10  20  38  61  84 115 156 189 236 301 344
#     4   9  15  33  63  82 107 140 191 247 279 325
#
# _framework density 19.209295000000001
#
# number of rings (size 3 to 8) (size 9 to 14) (size 15 to 20)
#    0.000    2.333    0.833    3.000    0.000    2.000 
#    4.500    0.000    0.000    0.000    0.000    0.000 
#    0.000    0.000    0.000    0.000    0.000    0.000 
#
# Total GULP energy -133734.078456 kJ/mol
# GULP energy per Si atom -5572.253269 kJ/mol
# Density = 1.916557 g / cm^3
# Si number density = 19.209295 Si / 1000 Ang^3
#
#
#
# Elastic Constant Matrix: (Units=GPa)
#
#
# Indices 1 2 3 4 5 6 
#
# 1 117.1254 24.7035 29.6138 0.0000 -19.7081 0.0000
# 2 24.7035 65.1627 19.6007 0.0000 -2.5745 0.0000
# 3 29.6138 19.6007 73.5723 0.0000 -19.4599 0.0000
# 4 0.0000 0.0000 0.0000 16.0209 0.0000 -5.6886
# 5 -19.7081 -2.5745 -19.4599 0.0000 30.9823 0.0000
# 6 0.0000 0.0000 0.0000 -5.6886 0.0000 31.3296
#
#
#
# Elastic Compliance Matrix: (Units=1/GPa)
#
#
# Indices 1 2 3 4 5 6 
#
# 1 0.010603 -0.003201 -0.002041 0.000000 0.005197 0.000000
# 2 -0.003201 0.017723 -0.004296 0.000000 -0.003262 0.000000
# 3 -0.002041 -0.004296 0.018133 0.000000 0.009734 0.000000
# 4 0.000000 0.000000 0.000000 0.066720 0.000000 0.012115
# 5 0.005197 -0.003262 0.009734 0.000000 0.041425 0.000000
# 6 0.000000 0.000000 0.000000 0.012115 0.000000 0.034118
#
#
# Mechanical properties :
#
#
# Convention : Reuss Voigt Hill
#
# Bulk Modulus (GPa) = 36.51726 44.85516 40.68621
# Shear Modulus (GPa) = 23.04935 27.79603 25.42269
#
# Velocity S-wave (km/s) = 3.46772 3.80808 3.64188
# Velocity P-wave (km/s) = 5.92326 6.53734 6.23786
#
# Compressibility (1/GPa) = 0.02738431
#
# Stress axis : x y z
#
# Youngs Moduli (GPa) = 94.30946 56.42399 55.14925
#
# Poissons Ratio (x) = 0.18059 0.11254
# Poissons Ratio (y) = 0.30185 0.23692
# Poissons Ratio (z) = 0.19245 0.24240
#
# Static dielectric constant tensor:
#      x y z
#    x 1.711480 0.000000 -0.030400 
#    y 0.000000 1.711220 0.000000 
#    z -0.030400 0.000000 1.688690 
# 
# From -- ./inp_files/52247.got.cif
#   From: 2010.05.17/outbox.cif.g08.bks.cpg/sg11_27_cif.got.tgz:52247.got - 2010.06.03 12:22:45.
