data_PCOD9160565
_publ_section_title
;
Structure prediction by ZEFSAII (Michael W. Deem and Ramdas Pophale) SiO2 
 PCOD9160565
Probable space group: P 21/M
;
_chemical_formula_sum "Si O2"
_cell_formula_units_Z 28
_cell_length_a 9.269006
_cell_length_b 8.410221
_cell_length_c 29.878075
_cell_angle_alpha 90.000000
_cell_angle_beta 39.159494
_cell_angle_gamma 90.000000
_cell_volume 1470.800167
_symmetry_space_group_name_H-M "P 21/M"
_symmetry_group_IT_number 11
_symmetry_cell_setting 'monoclinic'
loop_
_space_group_symop_operation_xyz
x,y,z
-x,1/2+y,-z
-x,-y,-z
x,1/2-y,z
loop_
_atom_site_type_symbol
_atom_site_label
_atom_site_fract_x
_atom_site_fract_y
_atom_site_fract_z
Si Si1 0.434160 0.557207 0.293401
Si Si2 0.894290 0.055746 0.708069
Si Si3 0.338607 0.559684 0.998362
Si Si4 0.709933 0.058401 0.848322
Si Si5 0.950934 0.943754 0.153149
Si Si6 0.742838 0.939122 0.568517
Si Si7 0.583706 0.940817 0.431759
O O1 0.435179 0.750000 0.293782
O O2 0.691191 0.502671 0.220205
O O3 0.355487 0.499359 0.360705
O O4 0.257631 0.505189 0.297532
O O5 0.893919 0.250000 0.708602
O O6 0.156564 0.004764 0.639989
O O7 0.784870 0.003156 0.781333
O O8 0.344173 0.750000 0.995667
O O9 0.460039 0.495083 0.924873
O O10 0.500000 0.500000 0.000000
O O11 0.086548 0.508796 0.075392
O O12 0.712195 0.250000 0.848005
O O13 0.896296 0.005877 0.840790
O O14 0.948659 0.750000 0.154264
O O15 0.744763 0.750000 0.567635
O O16 0.583730 0.999975 0.566678
O O17 0.000000 0.000000 0.500000
O O18 0.583209 0.750000 0.431797
O O19 0.500000 0.000000 0.500000
#
# Coordination Sequence:
#
# PCOD9160565 Si02
#       7
#     4   4   4   4   4   4   4
#     4  10  19  36  59  82 108 144 184 226 272 327
#     4   9  19  34  56  81 108 142 181 219 269 330
#     4   9  16  28  46  72 101 135 176 222 270 319
#     4   9  16  30  49  73 102 138 180 222 265 320
#     4   8  15  28  50  74 102 138 177 218 270 328
#     4  12  25  41  60  85 113 146 184 227 276 328
#     4  11  22  39  61  87 116 147 182 226 274 330
#
# _framework density 19.037257
#
# number of rings (size 3 to 8) (size 9 to 14) (size 15 to 20)
#    0.000    2.286    0.000    4.714    0.000    3.429 
#    0.000   10.000    0.000    0.000    0.000    0.000 
#    0.000    0.000    0.000    0.000    0.000    0.000 
#
# Total GULP energy -156255.174518 kJ/mol
# GULP energy per Si atom -5580.541947 kJ/mol
# Density = 1.899393 g / cm^3
# Si number density = 19.037257 Si / 1000 Ang^3
#
#
#
# Elastic Constant Matrix: (Units=GPa)
#
#
# Indices 1 2 3 4 5 6 
#
# 1 148.0840 26.5619 115.1143 0.0000 -1.0166 0.0000
# 2 26.5619 35.1733 32.4681 0.0000 -1.2064 0.0000
# 3 115.1143 32.4681 236.0077 0.0000 -2.3350 0.0000
# 4 0.0000 0.0000 0.0000 31.7393 0.0000 3.4072
# 5 -1.0166 -1.2064 -2.3350 0.0000 33.4709 0.0000
# 6 0.0000 0.0000 0.0000 3.4072 0.0000 18.9391
#
#
#
# Elastic Compliance Matrix: (Units=1/GPa)
#
#
# Indices 1 2 3 4 5 6 
#
# 1 0.011340 -0.003965 -0.004987 0.000000 -0.000146 0.000000
# 2 -0.003965 0.033978 -0.002731 0.000000 0.000914 0.000000
# 3 -0.004987 -0.002731 0.007048 0.000000 0.000242 0.000000
# 4 0.000000 0.000000 0.000000 0.032127 0.000000 -0.005780
# 5 -0.000146 0.000914 0.000242 0.000000 0.029922 0.000000
# 6 0.000000 0.000000 0.000000 -0.005780 0.000000 0.053841
#
#
# Mechanical properties :
#
#
# Convention : Reuss Voigt Hill
#
# Bulk Modulus (GPa) = 34.48482 85.28374 59.88428
# Shear Modulus (GPa) = 24.84004 33.17125 29.00565
#
# Velocity S-wave (km/s) = 3.61614 4.17878 3.90760
# Velocity P-wave (km/s) = 5.96565 8.25703 7.20304
#
# Compressibility (1/GPa) = 0.02899827
#
# Stress axis : x y z
#
# Youngs Moduli (GPa) = 88.18457 29.43118 141.88888
#
# Poissons Ratio (x) = 0.11670 0.70761
# Poissons Ratio (y) = 0.34966 0.38755
# Poissons Ratio (z) = 0.43978 0.08039
#
# Static dielectric constant tensor:
#      x y z
#    x 1.631170 0.000000 -0.008930 
#    y 0.000000 1.662570 0.000000 
#    z -0.008930 0.000000 1.671240 
# 
# From -- ./inp_files/70850.got.cif
#   From: 2010.05.17/outbox.cif.g08.bks.cpg/sg11_36_cif.got.tgz:70850.got - 2010.06.03 12:22:45.
