data_PCOD9160189
_publ_section_title
;
Structure prediction by ZEFSAII (Michael W. Deem and Ramdas Pophale) SiO2 
 PCOD9160189
Probable space group: P 21/M
;
_chemical_formula_sum "Si O2"
_cell_formula_units_Z 32
_cell_length_a 10.072389
_cell_length_b 12.151271
_cell_length_c 14.042556
_cell_angle_alpha 90.000000
_cell_angle_beta 85.576330
_cell_angle_gamma 90.000000
_cell_volume 1713.581068
_symmetry_space_group_name_H-M "P 21/M"
_symmetry_group_IT_number 11
_symmetry_cell_setting 'monoclinic'
loop_
_space_group_symop_operation_xyz
x,y,z
-x,1/2+y,-z
-x,-y,-z
x,1/2-y,z
loop_
_atom_site_type_symbol
_atom_site_label
_atom_site_fract_x
_atom_site_fract_y
_atom_site_fract_z
Si Si1 0.714338 0.621772 0.251532
Si Si2 0.410518 0.623728 0.276335
Si Si3 0.878103 0.874700 0.429267
Si Si4 0.611965 0.558782 0.881202
Si Si5 0.162416 0.963939 0.397702
Si Si6 0.873738 0.631152 0.769750
Si Si7 0.681957 0.042217 0.078943
Si Si8 0.964898 0.123442 0.045865
O O1 0.730434 0.750000 0.221240
O O2 0.563541 0.609988 0.299759
O O3 0.819335 0.597824 0.328615
O O4 0.721950 0.540126 0.162112
O O5 0.389402 0.750000 0.252604
O O6 0.392884 0.551658 0.182422
O O7 0.301714 0.589255 0.359925
O O8 0.836222 0.750000 0.453253
O O9 0.825984 0.959427 0.510621
O O10 0.038275 0.883251 0.420503
O O11 0.726638 0.628239 0.824807
O O12 0.459673 0.599396 0.890710
O O13 0.655477 0.529710 0.985634
O O14 0.119899 0.038953 0.310243
O O15 0.897999 0.750000 0.723404
O O16 0.974446 0.616510 0.851598
O O17 0.805358 0.121273 0.054683
O O18 0.006073 0.250000 0.007997
O O19 0.000000 0.000000 0.000000
#
# Coordination Sequence:
#
# PCOD9160189 Si02
#       8
#     4   4   4   4   4   4   4   4
#     4   9  19  34  55  79 109 143 180 227 278 334
#     4   9  18  34  53  79 109 141 179 224 276 328
#     4  10  20  35  54  79 104 135 177 223 276 331
#     4   9  19  33  54  79 109 143 185 227 274 331
#     4  10  20  34  55  78 104 137 178 224 271 329
#     4  10  20  36  54  76 109 146 180 224 278 335
#     4  10  19  35  54  79 109 145 187 229 277 325
#     4  11  23  38  55  79 113 149 190 232 282 336
#
# _framework density 18.674341999999999
#
# number of rings (size 3 to 8) (size 9 to 14) (size 15 to 20)
#    0.000    2.250    1.250    1.500    0.000    2.500 
#    0.000    3.125    0.000    0.750    0.000    0.000 
#    0.000    0.000    0.000    0.000    0.000    0.000 
#
# Total GULP energy -178264.191067 kJ/mol
# GULP energy per Si atom -5570.755971 kJ/mol
# Density = 1.863184 g / cm^3
# Si number density = 18.674342 Si / 1000 Ang^3
#
#
#
# Elastic Constant Matrix: (Units=GPa)
#
#
# Indices 1 2 3 4 5 6 
#
# 1 67.4742 22.7719 15.1327 0.0000 0.1618 0.0000
# 2 22.7719 77.1721 18.2899 0.0000 4.9371 0.0000
# 3 15.1327 18.2899 54.1266 0.0000 8.0979 0.0000
# 4 0.0000 0.0000 0.0000 -1.9764 0.0000 -0.7727
# 5 0.1618 4.9371 8.0979 0.0000 29.3588 0.0000
# 6 0.0000 0.0000 0.0000 -0.7727 0.0000 16.3273
#
#
#
# Elastic Compliance Matrix: (Units=1/GPa)
#
#
# Indices 1 2 3 4 5 6 
#
# 1 0.017065 -0.004295 -0.003561 0.000000 0.001610 0.000000
# 2 -0.004295 0.015201 -0.003710 0.000000 -0.001509 0.000000
# 3 -0.003561 -0.003710 0.021516 0.000000 -0.005291 0.000000
# 4 0.000000 0.000000 0.000000 -0.496790 0.000000 -0.023511
# 5 0.001610 -0.001509 -0.005291 0.000000 0.035766 0.000000
# 6 0.000000 0.000000 0.000000 -0.023511 0.000000 0.060134
#
#
# Mechanical properties :
#
#
# Convention : Reuss Voigt Hill
#
# Bulk Modulus (GPa) = 32.62535 34.57355 33.59945
# Shear Modulus (GPa) = -15.93572 18.24718 1.15573
#
# Velocity S-wave (km/s) = -2.92438 3.12929 0.78755
# Velocity P-wave (km/s) = 2.47102 5.62234 4.34262
#
# Compressibility (1/GPa) = 0.03065101
#
# Stress axis : x y z
#
# Youngs Moduli (GPa) = 58.60108 65.78454 46.47710
#
# Poissons Ratio (x) = 0.28251 0.16549
# Poissons Ratio (y) = 0.25166 0.17244
# Poissons Ratio (z) = 0.20866 0.24407
#
# Static dielectric constant tensor:
#      x y z
#    x 1.666270 0.000000 -0.023420 
#    y 0.000000 1.657290 0.000000 
#    z -0.023420 0.000000 1.610520 
# 
# From -- ./inp_files/47189.got.cif
#   From: 2010.05.17/outbox.cif.g08.bks.cpg/sg11_24_cif.got.tgz:47189.got - 2010.06.03 12:22:45.
