data_PCOD9160782
_publ_section_title
;
Structure prediction by ZEFSAII (Michael W. Deem and Ramdas Pophale) SiO2 
 PCOD9160782
Probable space group: P 21/M
;
_chemical_formula_sum "Si O2"
_cell_formula_units_Z 32
_cell_length_a 12.221500
_cell_length_b 18.589567
_cell_length_c 9.276685
_cell_angle_alpha 90.000000
_cell_angle_beta 129.979813
_cell_angle_gamma 90.000000
_cell_volume 1614.986556
_symmetry_space_group_name_H-M "P 21/M"
_symmetry_group_IT_number 11
_symmetry_cell_setting 'monoclinic'
loop_
_space_group_symop_operation_xyz
x,y,z
-x,1/2+y,-z
-x,-y,-z
x,1/2-y,z
loop_
_atom_site_type_symbol
_atom_site_label
_atom_site_fract_x
_atom_site_fract_y
_atom_site_fract_z
Si Si1 0.197725 0.550494 0.959131
Si Si2 0.107857 0.666897 0.100863
Si Si3 0.662460 0.976024 0.652520
Si Si4 0.955170 0.937867 0.354196
Si Si5 0.702859 0.832915 0.142364
Si Si6 0.427177 0.921882 0.912696
Si Si7 0.754959 0.091134 0.523349
Si Si8 0.772314 0.668496 0.863221
O O1 0.098860 0.484822 0.826111
O O2 0.292313 0.577278 0.905548
O O3 0.121211 0.616010 0.973628
O O4 0.292936 0.514196 0.161990
O O5 0.129881 0.750000 0.084413
O O6 0.224437 0.643074 0.320686
O O7 0.944204 0.658228 0.016382
O O8 0.746435 0.012465 0.590665
O O9 0.500000 0.000000 0.500000
O O10 0.698611 0.892480 0.704088
O O11 0.828918 0.886119 0.300277
O O12 0.098205 0.896120 0.437032
O O13 0.000000 0.000000 0.500000
O O14 0.722573 0.750000 0.202309
O O15 0.548988 0.864258 0.053580
O O16 0.714636 0.836459 0.977742
O O17 0.370866 0.907261 0.701750
O O18 0.500000 0.000000 0.000000
O O19 0.746552 0.750000 0.788955
#
# Coordination Sequence:
#
# PCOD9160782 Si02
#       8
#     4   4   4   4   4   4   4   4
#     4  11  22  38  64  90 130 166 213 271 324 383
#     4  10  22  40  62  93 129 166 213 275 328 381
#     4  11  21  37  60  95 124 164 217 264 316 384
#     4  12  21  39  65  97 123 166 224 273 321 385
#     4  11  23  39  62  92 129 168 211 269 331 388
#     4  12  22  41  63  94 132 173 217 265 327 398
#     4  11  22  35  66  94 124 169 221 274 313 385
#     4  10  19  37  62  87 123 164 208 261 325 385
#
# _framework density 19.814406999999999
#
# number of rings (size 3 to 8) (size 9 to 14) (size 15 to 20)
#    0.000    1.000    5.000    2.250    0.000    3.000 
#    0.000    4.375    0.000    9.000    0.000    0.000 
#    0.000    0.000    0.000    0.000    0.000    0.000 
#
# Total GULP energy -178564.613049 kJ/mol
# GULP energy per Si atom -5580.144158 kJ/mol
# Density = 1.976931 g / cm^3
# Si number density = 19.814407 Si / 1000 Ang^3
#
#
#
# Elastic Constant Matrix: (Units=GPa)
#
#
# Indices 1 2 3 4 5 6 
#
# 1 49.2708 12.8991 -6.3158 0.0000 8.5737 0.0000
# 2 12.8991 136.3501 27.7417 0.0000 15.0383 0.0000
# 3 -6.3158 27.7417 88.0907 0.0000 19.1477 0.0000
# 4 0.0000 0.0000 0.0000 27.7778 0.0000 4.5350
# 5 8.5737 15.0383 19.1477 0.0000 26.1069 0.0000
# 6 0.0000 0.0000 0.0000 4.5350 0.0000 28.9854
#
#
#
# Elastic Compliance Matrix: (Units=1/GPa)
#
#
# Indices 1 2 3 4 5 6 
#
# 1 0.023059 -0.002011 0.004379 0.000000 -0.009626 0.000000
# 2 -0.002011 0.008245 -0.002203 0.000000 -0.002473 0.000000
# 3 0.004379 -0.002203 0.014747 0.000000 -0.010985 0.000000
# 4 0.000000 0.000000 0.000000 0.036944 0.000000 -0.005780
# 5 -0.009626 -0.002473 -0.010985 0.000000 0.050947 0.000000
# 6 0.000000 0.000000 0.000000 -0.005780 0.000000 0.035404
#
#
# Mechanical properties :
#
#
# Convention : Reuss Voigt Hill
#
# Bulk Modulus (GPa) = 21.56039 38.04019 29.80029
# Shear Modulus (GPa) = 27.10362 32.53313 29.81838
#
# Velocity S-wave (km/s) = 3.70249 4.05642 3.88349
# Velocity P-wave (km/s) = 5.40210 6.41711 5.93136
#
# Compressibility (1/GPa) = 0.04638136
#
# Stress axis : x y z
#
# Youngs Moduli (GPa) = 43.36758 121.28091 67.80819
#
# Poissons Ratio (x) = 0.24385 -0.29692
# Poissons Ratio (y) = 0.08720 0.14939
# Poissons Ratio (z) = -0.18990 0.26720
#
# Static dielectric constant tensor:
#      x y z
#    x 1.717160 0.000000 -0.029080 
#    y 0.000000 1.710160 0.000000 
#    z -0.029080 0.000000 1.672080 
# 
# From -- ./inp_files/19411.got.cif
#   From: 2010.05.17/outbox.cif.g08.bks.cpg/sg11_10_cif.got.tgz:19411.got - 2010.06.03 12:22:45.
