data_PCOD9160687
_publ_section_title
;
Structure prediction by ZEFSAII (Michael W. Deem and Ramdas Pophale) SiO2 
 PCOD9160687
Probable space group: P 21/M
;
_chemical_formula_sum "Si O2"
_cell_formula_units_Z 32
_cell_length_a 16.923688
_cell_length_b 18.783612
_cell_length_c 9.773845
_cell_angle_alpha 90.000000
_cell_angle_beta 155.159943
_cell_angle_gamma 90.000000
_cell_volume 1305.204094
_symmetry_space_group_name_H-M "P 21/M"
_symmetry_group_IT_number 11
_symmetry_cell_setting 'monoclinic'
loop_
_space_group_symop_operation_xyz
x,y,z
-x,1/2+y,-z
-x,-y,-z
x,1/2-y,z
loop_
_atom_site_type_symbol
_atom_site_label
_atom_site_fract_x
_atom_site_fract_y
_atom_site_fract_z
Si Si1 0.818593 0.025926 0.130110
Si Si2 0.270201 0.946707 0.304594
Si Si3 0.509001 0.947376 0.205565
Si Si4 0.946992 0.328102 0.927467
Si Si5 0.030274 0.831171 0.572529
Si Si6 0.297038 0.830690 0.727367
Si Si7 0.340250 0.325599 0.389831
Si Si8 0.389419 0.168420 0.154027
O O1 0.857593 0.109696 0.170328
O O2 0.754587 0.006789 0.874661
O O3 0.661119 0.009254 0.995461
O O4 0.000000 0.000000 0.500000
O O5 0.087142 0.898562 0.039909
O O6 0.439749 0.887682 0.571526
O O7 0.314595 0.000266 0.501400
O O8 0.535237 0.888257 0.362680
O O9 0.441475 0.897135 0.974888
O O10 0.924659 0.250000 0.959913
O O11 0.798663 0.333392 0.570179
O O12 0.149987 0.328632 0.176499
O O13 0.058526 0.750000 0.659478
O O14 0.129255 0.837585 0.576839
O O15 0.806238 0.846322 0.232337
O O16 0.377851 0.750000 0.868107
O O17 0.436491 0.250000 0.566903
O O18 0.308089 0.329472 0.179866
O O19 0.451400 0.250000 0.216773
#
# Coordination Sequence:
#
# PCOD9160687 Si02
#       8
#     4   4   4   4   4   4   4   4
#     4  11  24  39  59  86 127 169 203 251 311 368
#     4  12  25  39  59  95 131 165 201 256 326 372
#     4  11  23  37  63  89 124 164 214 257 295 371
#     4  10  22  42  66  91 126 161 197 256 323 376
#     4   9  18  34  60  88 113 152 208 258 297 356
#     4   9  18  37  62  91 119 158 209 256 305 364
#     4  10  20  38  64  90 117 160 213 258 298 362
#     4  10  19  36  63  93 121 156 209 258 304 371
#
# _framework density 24.517237999999999
#
# number of rings (size 3 to 8) (size 9 to 14) (size 15 to 20)
#    0.000    1.750    2.500    1.875    1.750    2.500 
#    0.000    2.500    0.000    1.500    0.000    0.000 
#    0.000    0.000    0.000    0.000    0.000    0.000 
#
# Total GULP energy -178463.056065 kJ/mol
# GULP energy per Si atom -5576.970502 kJ/mol
# Density = 2.446144 g / cm^3
# Si number density = 24.517238 Si / 1000 Ang^3
#
#
#
# Elastic Constant Matrix: (Units=GPa)
#
#
# Indices 1 2 3 4 5 6 
#
# 1 44.2204 5.9486 3.1839 0.0000 -0.7753 0.0000
# 2 5.9486 98.9617 26.5156 0.0000 4.5604 0.0000
# 3 3.1839 26.5156 67.8261 0.0000 0.1395 0.0000
# 4 0.0000 0.0000 0.0000 21.7253 0.0000 -17.1401
# 5 -0.7753 4.5604 0.1395 0.0000 30.6619 0.0000
# 6 0.0000 0.0000 0.0000 -17.1401 0.0000 4.5472
#
#
#
# Elastic Compliance Matrix: (Units=1/GPa)
#
#
# Indices 1 2 3 4 5 6 
#
# 1 0.022838 -0.001252 -0.000584 0.000000 0.000766 0.000000
# 2 -0.001252 0.011441 -0.004410 0.000000 -0.001713 0.000000
# 3 -0.000584 -0.004410 0.016494 0.000000 0.000566 0.000000
# 4 0.000000 0.000000 0.000000 -0.023320 0.000000 -0.087901
# 5 0.000766 -0.001713 0.000566 0.000000 0.032885 0.000000
# 6 0.000000 0.000000 0.000000 -0.087901 0.000000 -0.111416
#
#
# Mechanical properties :
#
#
# Convention : Reuss Voigt Hill
#
# Bulk Modulus (GPa) = 26.12315 31.36716 28.74516
# Shear Modulus (GPa) = -193.61114 23.07755 -85.26679
#
# Velocity S-wave (km/s) = -8.89611 3.07135 -5.90371
# Velocity P-wave (km/s) = 9.73874 5.03977 5.89252
#
# Compressibility (1/GPa) = 0.03828022
#
# Stress axis : x y z
#
# Youngs Moduli (GPa) = 43.78689 87.40653 60.62804
#
# Poissons Ratio (x) = 0.10939 0.03543
# Poissons Ratio (y) = 0.05480 0.26739
# Poissons Ratio (z) = 0.02559 0.38549
#
# Static dielectric constant tensor:
#      x y z
#    x 1.979600 0.000000 0.047490 
#    y 0.000000 2.085930 0.000000 
#    z 0.047490 0.000000 2.001650 
# 
# From -- ./inp_files/43568.got.cif
#   From: 2010.05.17/outbox.cif.g08.bks.cpg/sg11_22_cif.got.tgz:43568.got - 2010.06.03 12:22:45.
