data_PCOD9160593
_publ_section_title
;
Structure prediction by ZEFSAII (Michael W. Deem and Ramdas Pophale) SiO2 
 PCOD9160593
Probable space group: P 21/M
;
_chemical_formula_sum "Si O2"
_cell_formula_units_Z 32
_cell_length_a 17.496374
_cell_length_b 14.425911
_cell_length_c 11.707664
_cell_angle_alpha 90.000000
_cell_angle_beta 147.981184
_cell_angle_gamma 90.000000
_cell_volume 1566.748980
_symmetry_space_group_name_H-M "P 21/M"
_symmetry_group_IT_number 11
_symmetry_cell_setting 'monoclinic'
loop_
_space_group_symop_operation_xyz
x,y,z
-x,1/2+y,-z
-x,-y,-z
x,1/2-y,z
loop_
_atom_site_type_symbol
_atom_site_label
_atom_site_fract_x
_atom_site_fract_y
_atom_site_fract_z
Si Si1 0.029941 0.637978 0.202097
Si Si2 0.867734 0.359975 0.917241
Si Si3 0.005583 0.640375 0.686461
Si Si4 0.305503 0.859534 0.928411
Si Si5 0.540655 0.407513 0.483675
Si Si6 0.587953 0.536276 0.355599
Si Si7 0.215054 0.985864 0.604221
Si Si8 0.272299 0.147875 0.267424
O O1 0.047217 0.750000 0.236604
O O2 0.091339 0.606837 0.156679
O O3 0.112109 0.584898 0.404963
O O4 0.860894 0.615541 0.978086
O O5 0.888854 0.250000 0.942199
O O6 0.698579 0.376728 0.721242
O O7 0.964522 0.392424 0.145237
O O8 0.965508 0.750000 0.633752
O O9 0.159341 0.632539 0.817674
O O10 0.883620 0.572835 0.482222
O O11 0.323480 0.750000 0.923577
O O12 0.283956 0.926742 0.793091
O O13 0.447983 0.898007 0.171653
O O14 0.500000 0.500000 0.500000
O O15 0.545001 0.437261 0.356914
O O16 0.411367 0.345149 0.362936
O O17 0.665447 0.522872 0.333387
O O18 0.695537 0.582839 0.584217
O O19 0.234063 0.250000 0.263943
#
# Coordination Sequence:
#
# PCOD9160593 Si02
#       8
#     4   4   4   4   4   4   4   4
#     4  10  22  37  59  93 129 165 200 246 320 386
#     4  10  19  36  59  88 125 162 199 249 311 378
#     4  10  23  40  65  95 122 161 212 262 313 369
#     4  11  25  46  65  87 121 169 220 263 312 371
#     4  10  20  33  54  88 123 158 202 249 307 371
#     4  11  23  38  62  92 121 160 215 261 312 364
#     4  12  24  41  66  90 129 165 211 260 315 368
#     4  10  21  37  58  90 127 163 200 253 316 373
#
# _framework density 20.424461000000001
#
# number of rings (size 3 to 8) (size 9 to 14) (size 15 to 20)
#    0.000    1.500    1.250    4.125    5.250    4.000 
#    0.000    0.000    0.000    0.750    0.000    0.000 
#    0.000    0.000    0.000    0.000    0.000    0.000 
#
# Total GULP energy -178717.660589 kJ/mol
# GULP energy per Si atom -5584.926893 kJ/mol
# Density = 2.037797 g / cm^3
# Si number density = 20.424461 Si / 1000 Ang^3
#
#
#
# Elastic Constant Matrix: (Units=GPa)
#
#
# Indices 1 2 3 4 5 6 
#
# 1 40.1479 20.1020 3.8757 0.0000 13.9892 0.0000
# 2 20.1020 86.2874 21.4323 0.0000 1.3339 0.0000
# 3 3.8757 21.4323 55.7893 0.0000 9.8146 0.0000
# 4 0.0000 0.0000 0.0000 26.9846 0.0000 5.1103
# 5 13.9892 1.3339 9.8146 0.0000 24.1105 0.0000
# 6 0.0000 0.0000 0.0000 5.1103 0.0000 20.9987
#
#
#
# Elastic Compliance Matrix: (Units=1/GPa)
#
#
# Indices 1 2 3 4 5 6 
#
# 1 0.037323 -0.009625 0.005193 0.000000 -0.023236 0.000000
# 2 -0.009625 0.015338 -0.006524 0.000000 0.007392 0.000000
# 3 0.005193 -0.006524 0.022121 0.000000 -0.011657 0.000000
# 4 0.000000 0.000000 0.000000 0.038849 0.000000 -0.009454
# 5 -0.023236 0.007392 -0.011657 0.000000 0.059294 0.000000
# 6 0.000000 0.000000 0.000000 -0.009454 0.000000 0.049923
#
#
# Mechanical properties :
#
#
# Convention : Reuss Voigt Hill
#
# Bulk Modulus (GPa) = 18.91512 30.33829 24.62670
# Shear Modulus (GPa) = 19.05617 23.53973 21.29795
#
# Velocity S-wave (km/s) = 3.05783 3.39857 3.23269
# Velocity P-wave (km/s) = 4.66350 5.50332 5.10072
#
# Compressibility (1/GPa) = 0.05286776
#
# Stress axis : x y z
#
# Youngs Moduli (GPa) = 26.79343 65.19864 45.20637
#
# Poissons Ratio (x) = 0.62757 -0.23474
# Poissons Ratio (y) = 0.25790 0.29492
# Poissons Ratio (z) = -0.13913 0.42535
#
# Static dielectric constant tensor:
#      x y z
#    x 1.742600 0.000000 0.011110 
#    y 0.000000 1.762100 0.000000 
#    z 0.011110 0.000000 1.704030 
# 
# From -- ./inp_files/41710.got.cif
#   From: 2010.05.17/outbox.cif.g08.bks.cpg/sg11_21_cif.got.tgz:41710.got - 2010.06.03 12:22:45.
