data_PCOD9160524
_publ_section_title
;
Structure prediction by ZEFSAII (Michael W. Deem and Ramdas Pophale) SiO2 
 PCOD9160524
Probable space group: P 21/M
;
_chemical_formula_sum "Si O2"
_cell_formula_units_Z 28
_cell_length_a 16.781396
_cell_length_b 8.307031
_cell_length_c 22.132578
_cell_angle_alpha 90.000000
_cell_angle_beta 24.712731
_cell_angle_gamma 90.000000
_cell_volume 1289.893385
_symmetry_space_group_name_H-M "P 21/M"
_symmetry_group_IT_number 11
_symmetry_cell_setting 'monoclinic'
loop_
_space_group_symop_operation_xyz
x,y,z
-x,1/2+y,-z
-x,-y,-z
x,1/2-y,z
loop_
_atom_site_type_symbol
_atom_site_label
_atom_site_fract_x
_atom_site_fract_y
_atom_site_fract_z
Si Si1 0.519166 0.935768 0.584002
Si Si2 0.117631 0.940166 0.728579
Si Si3 0.424563 0.557499 0.202549
Si Si4 0.098032 0.063246 0.871355
Si Si5 0.770812 0.553019 0.882962
Si Si6 0.684660 0.055416 0.594394
Si Si7 0.124383 0.442901 0.320057
O O1 0.463884 0.750000 0.615025
O O2 0.678345 0.979820 0.424772
O O3 0.326033 0.037814 0.717348
O O4 0.620066 0.968592 0.578586
O O5 0.143806 0.750000 0.702797
O O6 0.963641 0.995145 0.784929
O O7 0.041202 0.974973 0.848308
O O8 0.442023 0.750000 0.192723
O O9 0.434635 0.503127 0.264736
O O10 0.224081 0.517927 0.309326
O O11 0.591252 0.493897 0.044841
O O12 0.052380 0.250000 0.896542
O O13 0.000000 0.000000 0.000000
O O14 0.769766 0.750000 0.883294
O O15 0.770628 0.501047 0.813658
O O16 0.668962 0.250000 0.596160
O O17 0.903336 0.021095 0.461025
O O18 0.141407 0.250000 0.313402
#
# Coordination Sequence:
#
# PCOD9160524 Si02
#       7
#     4   4   4   4   4   4   4
#     4  12  25  43  67  97 129 168 216 265 318 379
#     4  11  22  43  70  96 129 172 216 262 317 379
#     4  10  21  35  56  87 120 161 208 259 320 378
#     4  12  27  47  70 101 135 167 206 256 316 379
#     4   9  19  36  59  87 121 161 206 254 311 373
#     4  10  21  38  60  86 122 165 210 261 319 379
#     4  10  19  36  57  82 119 165 210 257 314 375
#
# _framework density 21.707221000000001
#
# number of rings (size 3 to 8) (size 9 to 14) (size 15 to 20)
#    0.000    1.429    1.429    4.286    2.000    1.143 
#    0.000    1.429    0.000    0.000    0.000    0.000 
#    0.000    0.000    0.000    0.000    0.000    0.000 
#
# Total GULP energy -156595.947908 kJ/mol
# GULP energy per Si atom -5592.712425 kJ/mol
# Density = 2.165781 g / cm^3
# Si number density = 21.707221 Si / 1000 Ang^3
#
#
#
# Elastic Constant Matrix: (Units=GPa)
#
#
# Indices 1 2 3 4 5 6 
#
# 1 81.6079 -8.7653 7.7432 0.0000 19.7732 0.0000
# 2 -8.7653 16.0319 -0.1692 0.0000 3.8949 0.0000
# 3 7.7432 -0.1692 55.5563 0.0000 20.4848 0.0000
# 4 0.0000 0.0000 0.0000 23.5003 0.0000 -0.2919
# 5 19.7732 3.8949 20.4848 0.0000 40.1717 0.0000
# 6 0.0000 0.0000 0.0000 -0.2919 0.0000 24.5383
#
#
#
# Elastic Compliance Matrix: (Units=1/GPa)
#
#
# Indices 1 2 3 4 5 6 
#
# 1 0.015561 0.010801 0.001323 0.000000 -0.009382 0.000000
# 2 0.010801 0.071801 0.003991 0.000000 -0.014313 0.000000
# 3 0.001323 0.003991 0.022427 0.000000 -0.012475 0.000000
# 4 0.000000 0.000000 0.000000 0.042559 0.000000 0.000506
# 5 -0.009382 -0.014313 -0.012475 0.000000 0.037260 0.000000
# 6 0.000000 0.000000 0.000000 0.000506 0.000000 0.040759
#
#
# Mechanical properties :
#
#
# Convention : Reuss Voigt Hill
#
# Bulk Modulus (GPa) = 7.04129 16.75706 11.89918
# Shear Modulus (GPa) = 20.36860 27.93455 24.15158
#
# Velocity S-wave (km/s) = 3.06655 3.59120 3.33919
# Velocity P-wave (km/s) = 3.97355 4.99319 4.51226
#
# Compressibility (1/GPa) = 0.14201941
#
# Stress axis : x y z
#
# Youngs Moduli (GPa) = 64.26154 13.92748 44.58888
#
# Poissons Ratio (x) = -0.15043 -0.05900
# Poissons Ratio (y) = -0.69410 -0.17794
# Poissons Ratio (z) = -0.08503 -0.05558
#
# Static dielectric constant tensor:
#      x y z
#    x 1.770500 0.000000 0.014870 
#    y 0.000000 1.747630 0.000000 
#    z 0.014870 0.000000 1.809580 
# 
# From -- ./inp_files/65373.got.cif
#   From: 2010.05.17/outbox.cif.g08.bks.cpg/sg11_33_cif.got.tgz:65373.got - 2010.06.03 12:22:45.
