data_PCOD9160710
_publ_section_title
;
Structure prediction by ZEFSAII (Michael W. Deem and Ramdas Pophale) SiO2 
 PCOD9160710
Probable space group: P 21/M
;
_chemical_formula_sum "Si O2"
_cell_formula_units_Z 28
_cell_length_a 27.710333
_cell_length_b 8.254034
_cell_length_c 9.574850
_cell_angle_alpha 90.000000
_cell_angle_beta 41.891917
_cell_angle_gamma 90.000000
_cell_volume 1462.309392
_symmetry_space_group_name_H-M "P 21/M"
_symmetry_group_IT_number 11
_symmetry_cell_setting 'monoclinic'
loop_
_space_group_symop_operation_xyz
x,y,z
-x,1/2+y,-z
-x,-y,-z
x,1/2-y,z
loop_
_atom_site_type_symbol
_atom_site_label
_atom_site_fract_x
_atom_site_fract_y
_atom_site_fract_z
Si Si1 0.740087 0.558349 0.543125
Si Si2 0.191289 0.937908 0.320632
Si Si3 0.080663 0.442761 0.357992
Si Si4 0.193786 0.562813 0.880242
Si Si5 0.296340 0.436049 0.874784
Si Si6 0.427976 0.054311 0.071395
Si Si7 0.564646 0.554591 0.264734
O O1 0.737199 0.750000 0.579933
O O2 0.781647 0.472730 0.581816
O O3 0.787568 0.527086 0.303084
O O4 0.655118 0.504591 0.708398
O O5 0.206724 0.750000 0.254041
O O6 0.111176 0.975203 0.434887
O O7 0.237056 0.056736 0.123690
O O8 0.082971 0.250000 0.368390
O O9 0.000000 0.500000 0.500000
O O10 0.131918 0.492421 0.115881
O O11 0.178024 0.750000 0.886588
O O12 0.266802 0.542070 0.813210
O O13 0.306961 0.250000 0.804869
O O14 0.365721 0.503687 0.801876
O O15 0.428184 0.250000 0.076856
O O16 0.437578 0.998643 0.889995
O O17 0.500000 0.000000 0.000000
O O18 0.500000 0.500000 0.500000
O O19 0.568775 0.750000 0.250373
#
# Coordination Sequence:
#
# PCOD9160710 Si02
#       7
#     4   4   4   4   4   4   4
#     4  11  22  41  62  84 119 163 204 249 303 364
#     4  11  21  36  61  92 119 153 198 244 293 350
#     4  11  22  41  67  95 127 163 197 239 291 350
#     4  11  23  38  59  92 123 153 198 248 295 353
#     4  10  19  37  58  79 110 153 198 243 296 356
#     4  10  23  41  58  81 115 156 202 251 307 363
#     4  10  22  38  55  79 110 148 195 248 301 358
#
# _framework density 19.147794999999999
#
# number of rings (size 3 to 8) (size 9 to 14) (size 15 to 20)
#    0.000    1.429    1.429    6.429    2.000    2.857 
#    0.000    0.714    0.000    0.000    0.000    0.000 
#    0.000    0.000    0.000    0.000    0.000    0.000 
#
# Total GULP energy -156124.288310 kJ/mol
# GULP energy per Si atom -5575.867440 kJ/mol
# Density = 1.910421 g / cm^3
# Si number density = 19.147795 Si / 1000 Ang^3
#
#
#
# Elastic Constant Matrix: (Units=GPa)
#
#
# Indices 1 2 3 4 5 6 
#
# 1 128.9870 13.5417 53.5507 0.0000 -22.0508 0.0000
# 2 13.5417 64.2355 9.0067 0.0000 -6.8349 0.0000
# 3 53.5507 9.0067 79.9219 0.0000 -4.8397 0.0000
# 4 0.0000 0.0000 0.0000 27.4399 0.0000 0.3168
# 5 -22.0508 -6.8349 -4.8397 0.0000 30.2575 0.0000
# 6 0.0000 0.0000 0.0000 0.3168 0.0000 32.8278
#
#
#
# Elastic Compliance Matrix: (Units=1/GPa)
#
#
# Indices 1 2 3 4 5 6 
#
# 1 0.012331 -0.000709 -0.007723 0.000000 0.007591 0.000000
# 2 -0.000709 0.016196 -0.001171 0.000000 0.002954 0.000000
# 3 -0.007723 -0.001171 0.017633 0.000000 -0.003072 0.000000
# 4 0.000000 0.000000 0.000000 0.036447 0.000000 -0.000352
# 5 0.007591 0.002954 -0.003072 0.000000 0.038758 0.000000
# 6 0.000000 0.000000 0.000000 -0.000352 0.000000 0.030465
#
#
# Mechanical properties :
#
#
# Convention : Reuss Voigt Hill
#
# Bulk Modulus (GPa) = 37.10066 47.26029 42.18048
# Shear Modulus (GPa) = 27.77463 31.24139 29.50801
#
# Velocity S-wave (km/s) = 3.81273 4.04368 3.92990
# Velocity P-wave (km/s) = 6.22901 6.82182 6.53214
#
# Compressibility (1/GPa) = 0.02695370
#
# Stress axis : x y z
#
# Youngs Moduli (GPa) = 81.09592 61.74455 56.71292
#
# Poissons Ratio (x) = 0.04378 0.43798
# Poissons Ratio (y) = 0.05750 0.06642
# Poissons Ratio (z) = 0.62628 0.07231
#
# Static dielectric constant tensor:
#      x y z
#    x 1.569360 0.000000 0.102610 
#    y 0.000000 1.631970 0.000000 
#    z 0.102610 0.000000 1.549880 
# 
# From -- ./inp_files/28443.got.cif
#   From: 2010.05.17/outbox.cif.g08.bks.cpg/sg11_15_cif.got.tgz:28443.got - 2010.06.03 12:22:45.
