data_PCOD9160918
_publ_section_title
;
Structure prediction by ZEFSAII (Michael W. Deem and Ramdas Pophale) SiO2 
 PCOD9160918
Probable space group: P 21/M
;
_chemical_formula_sum "Si O2"
_cell_formula_units_Z 30
_cell_length_a 17.100156
_cell_length_b 12.030932
_cell_length_c 11.531228
_cell_angle_alpha 90.000000
_cell_angle_beta 39.100890
_cell_angle_gamma 90.000000
_cell_volume 1496.199057
_symmetry_space_group_name_H-M "P 21/M"
_symmetry_group_IT_number 11
_symmetry_cell_setting 'monoclinic'
loop_
_space_group_symop_operation_xyz
x,y,z
-x,1/2+y,-z
-x,-y,-z
x,1/2-y,z
loop_
_atom_site_type_symbol
_atom_site_label
_atom_site_fract_x
_atom_site_fract_y
_atom_site_fract_z
Si Si1 0.623550 0.250000 0.518943
Si Si2 0.322301 0.558656 0.383784
Si Si3 0.522347 0.619810 0.695166
Si Si4 0.324072 0.933572 0.741922
Si Si5 0.121051 0.620931 0.173657
Si Si6 0.054485 0.970240 0.754857
Si Si7 0.679010 0.380582 0.869713
Si Si8 0.846274 0.621717 0.151031
O O1 0.596894 0.152367 0.647225
O O2 0.659923 0.347512 0.380997
O O3 0.354570 0.442647 0.407777
O O4 0.179430 0.590420 0.573047
O O5 0.340444 0.553591 0.225725
O O6 0.537663 0.750000 0.652179
O O7 0.450085 0.564200 0.671077
O O8 0.431195 0.608229 0.910795
O O9 0.271622 0.050979 0.757323
O O10 0.218088 0.890534 0.954092
O O11 0.083781 0.750000 0.223288
O O12 0.197126 0.590223 0.201313
O O13 0.009140 0.539028 0.274613
O O14 0.094062 0.059578 0.807482
O O15 0.952387 0.890964 0.930104
O O16 0.687792 0.250000 0.828474
O O17 0.818676 0.750000 0.204093
#
# Coordination Sequence:
#
# PCOD9160918 Si02
#       8
#     2   4   4   4   4   4   4   4
#     4  12  22  38  58  88 120 152 194 236 294 352
#     4  12  24  37  58  89 122 151 190 244 296 345
#     4  10  22  42  65  84 112 156 201 241 287 348
#     4  10  19  40  61  84 115 156 191 238 289 343
#     4   9  17  34  63  82 107 153 202 235 275 348
#     4  10  22  33  54  85 118 160 187 238 295 338
#     4   9  19  39  64  83 106 150 201 243 285 343
#     4  10  21  36  57  86 121 159 196 236 286 352
#
# _framework density 20.050806999999999
#
# number of rings (size 3 to 8) (size 9 to 14) (size 15 to 20)
#    0.000    1.867    3.333    1.600    0.933    2.133 
#    1.200    0.000    0.000    3.200    0.000    0.000 
#    0.000    0.000    0.000    0.000    0.000    0.000 
#
# Total GULP energy -167062.099169 kJ/mol
# GULP energy per Si atom -5568.736639 kJ/mol
# Density = 2.000517 g / cm^3
# Si number density = 20.050807 Si / 1000 Ang^3
#
#
#
# Elastic Constant Matrix: (Units=GPa)
#
#
# Indices 1 2 3 4 5 6 
#
# 1 93.3687 33.8927 20.1683 0.0000 11.5116 0.0000
# 2 33.8927 81.6282 6.6447 0.0000 10.8773 0.0000
# 3 20.1683 6.6447 43.2757 0.0000 -0.0490 0.0000
# 4 0.0000 0.0000 0.0000 16.5772 0.0000 7.0988
# 5 11.5116 10.8773 -0.0490 0.0000 29.2266 0.0000
# 6 0.0000 0.0000 0.0000 7.0988 0.0000 18.0276
#
#
#
# Elastic Compliance Matrix: (Units=1/GPa)
#
#
# Indices 1 2 3 4 5 6 
#
# 1 0.014236 -0.004928 -0.005882 0.000000 -0.003783 0.000000
# 2 -0.004928 0.014769 0.000025 0.000000 -0.003555 0.000000
# 3 -0.005882 0.000025 0.025848 0.000000 0.002351 0.000000
# 4 0.000000 0.000000 0.000000 0.072559 0.000000 -0.028572
# 5 -0.003783 -0.003555 0.002351 0.000000 0.037033 0.000000
# 6 0.000000 0.000000 0.000000 -0.028572 0.000000 0.066721
#
#
# Mechanical properties :
#
#
# Convention : Reuss Voigt Hill
#
# Bulk Modulus (GPa) = 30.04623 37.74266 33.89444
# Shear Modulus (GPa) = 18.95162 23.27076 21.11119
#
# Velocity S-wave (km/s) = 3.07771 3.41044 3.24834
# Velocity P-wave (km/s) = 5.25807 5.86281 5.56865
#
# Compressibility (1/GPa) = 0.03328205
#
# Stress axis : x y z
#
# Youngs Moduli (GPa) = 70.24389 67.71145 38.68791
#
# Poissons Ratio (x) = 0.33368 0.22757
# Poissons Ratio (y) = 0.34616 -0.00097
# Poissons Ratio (z) = 0.41319 -0.00170
#
# Static dielectric constant tensor:
#      x y z
#    x 1.717820 0.000000 -0.016130 
#    y 0.000000 1.635450 0.000000 
#    z -0.016130 0.000000 1.741790 
# 
# From -- ./inp_files/41345.got.cif
#   From: 2010.05.17/outbox.cif.g08.bks.cpg/sg11_21_cif.got.tgz:41345.got - 2010.06.03 12:22:45.
