data_PCOD9160260
_publ_section_title
;
Structure prediction by ZEFSAII (Michael W. Deem and Ramdas Pophale) SiO2 
 PCOD9160260
Probable space group: P 21/M
;
_chemical_formula_sum "Si O2"
_cell_formula_units_Z 32
_cell_length_a 23.019266
_cell_length_b 8.604839
_cell_length_c 29.110163
_cell_angle_alpha 90.000000
_cell_angle_beta 18.363090
_cell_angle_gamma 90.000000
_cell_volume 1816.525054
_symmetry_space_group_name_H-M "P 21/M"
_symmetry_group_IT_number 11
_symmetry_cell_setting 'monoclinic'
loop_
_space_group_symop_operation_xyz
x,y,z
-x,1/2+y,-z
-x,-y,-z
x,1/2-y,z
loop_
_atom_site_type_symbol
_atom_site_label
_atom_site_fract_x
_atom_site_fract_y
_atom_site_fract_z
Si Si1 0.707009 0.063033 0.597769
Si Si2 0.998391 0.438408 0.303458
Si Si3 0.001789 0.937257 0.801556
Si Si4 0.706156 0.562968 0.843190
Si Si5 0.294717 0.936839 0.905711
Si Si6 0.002360 0.563342 0.049423
Si Si7 0.998163 0.435744 0.552842
Si Si8 0.706007 0.936820 0.347218
O O1 0.708972 0.250000 0.599020
O O2 0.819940 0.015209 0.467171
O O3 0.499837 0.002330 0.752363
O O4 0.824316 0.996402 0.552198
O O5 0.998414 0.250000 0.302225
O O6 0.998603 0.491821 0.250921
O O7 0.176629 0.484736 0.199561
O O8 0.999674 0.750000 0.804214
O O9 0.180531 0.997633 0.694683
O O10 0.825585 0.000642 0.961471
O O11 0.705582 0.750000 0.841320
O O12 0.820986 0.498023 0.713863
O O13 0.500000 0.500000 0.000000
O O14 0.297902 0.750000 0.905080
O O15 0.181016 0.984442 0.945260
O O16 0.002700 0.750000 0.047128
O O17 0.824655 0.516251 0.213130
O O18 0.000000 0.500000 0.000000
O O19 0.996636 0.250000 0.553655
O O20 0.000000 0.500000 0.500000
O O21 0.705396 0.750000 0.349915
O O22 0.500000 0.000000 0.500000
#
# Coordination Sequence:
#
# PCOD9160260 Si02
#       8
#     4   4   4   4   4   4   4   4
#     4  10  20  37  58  81 108 142 180 223 271 322
#     4   8  18  35  55  78 107 138 176 221 266 315
#     4  10  19  35  57  80 105 140 180 222 268 317
#     4  10  20  37  57  81 112 147 184 226 273 325
#     4  10  21  37  53  78 112 144 178 221 267 320
#     4   9  20  36  54  76 106 139 178 223 268 316
#     4  11  22  38  58  82 111 145 183 228 276 327
#     4  10  21  37  54  78 108 139 174 218 266 320
#
# _framework density 17.616050999999999
#
# number of rings (size 3 to 8) (size 9 to 14) (size 15 to 20)
#    0.000    2.250    0.000    4.500    0.000    5.000 
#    0.000   15.000    0.000    0.000    0.000    0.000 
#    0.000    0.000    0.000    0.000    0.000    0.000 
#
# Total GULP energy -178612.216415 kJ/mol
# GULP energy per Si atom -5581.631763 kJ/mol
# Density = 1.757596 g / cm^3
# Si number density = 17.616051 Si / 1000 Ang^3
#
#
#
# Elastic Constant Matrix: (Units=GPa)
#
#
# Indices 1 2 3 4 5 6 
#
# 1 190.8976 54.2602 123.8725 0.0000 18.3728 0.0000
# 2 54.2602 82.9321 56.5624 0.0000 -1.4339 0.0000
# 3 123.8725 56.5624 185.7719 0.0000 -20.3746 0.0000
# 4 0.0000 0.0000 0.0000 32.7815 0.0000 -3.1553
# 5 18.3728 -1.4339 -20.3746 0.0000 19.3519 0.0000
# 6 0.0000 0.0000 0.0000 -3.1553 0.0000 29.2719
#
#
#
# Elastic Compliance Matrix: (Units=1/GPa)
#
#
# Indices 1 2 3 4 5 6 
#
# 1 0.020953 -0.002486 -0.017429 0.000000 -0.038427 0.000000
# 2 -0.002486 0.015827 -0.003136 0.000000 0.000232 0.000000
# 3 -0.017429 -0.003136 0.022327 0.000000 0.039822 0.000000
# 4 0.000000 0.000000 0.000000 0.030825 0.000000 0.003323
# 5 -0.038427 0.000232 0.039822 0.000000 0.130100 0.000000
# 6 0.000000 0.000000 0.000000 0.003323 0.000000 0.034521
#
#
# Mechanical properties :
#
#
# Convention : Reuss Voigt Hill
#
# Bulk Modulus (GPa) = 76.89217 103.22131 90.05674
# Shear Modulus (GPa) = 16.39395 31.27483 23.83439
#
# Velocity S-wave (km/s) = 3.05393 4.21807 3.68230
# Velocity P-wave (km/s) = 7.49526 9.07993 8.32538
#
# Compressibility (1/GPa) = 0.01300523
#
# Stress axis : x y z
#
# Youngs Moduli (GPa) = 47.72555 63.18135 44.78919
#
# Poissons Ratio (x) = 0.15709 0.78063
# Poissons Ratio (y) = 0.11866 0.14045
# Poissons Ratio (z) = 0.83181 0.19812
#
# Static dielectric constant tensor:
#      x y z
#    x 1.585890 0.000000 0.004070 
#    y 0.000000 1.597510 0.000000 
#    z 0.004070 0.000000 1.572970 
# 
# From -- ./inp_files/71976.got.cif
#   From: 2010.05.17/outbox.cif.g08.bks.cpg/sg11_36_cif.got.tgz:71976.got - 2010.06.03 12:22:45.
