data_PCOD9160443
_publ_section_title
;
Structure prediction by ZEFSAII (Michael W. Deem and Ramdas Pophale) SiO2 
 PCOD9160443
Probable space group: P 21/M
;
_chemical_formula_sum "Si O2"
_cell_formula_units_Z 28
_cell_length_a 12.111496
_cell_length_b 12.787798
_cell_length_c 9.997056
_cell_angle_alpha 90.000000
_cell_angle_beta 60.243030
_cell_angle_gamma 90.000000
_cell_volume 1344.171462
_symmetry_space_group_name_H-M "P 21/M"
_symmetry_group_IT_number 11
_symmetry_cell_setting 'monoclinic'
loop_
_space_group_symop_operation_xyz
x,y,z
-x,1/2+y,-z
-x,-y,-z
x,1/2-y,z
loop_
_atom_site_type_symbol
_atom_site_label
_atom_site_fract_x
_atom_site_fract_y
_atom_site_fract_z
Si Si1 0.879364 0.371172 0.348952
Si Si2 0.804638 0.583261 0.112051
Si Si3 0.036256 0.935072 0.134978
Si Si4 0.836232 0.366688 0.678163
Si Si5 0.354889 0.483789 0.546791
Si Si6 0.383111 0.031950 0.233295
Si Si7 0.590329 0.862411 0.054214
O O1 0.894471 0.250000 0.299531
O O2 0.904562 0.378543 0.493609
O O3 0.734068 0.412474 0.415603
O O4 0.968707 0.456013 0.223057
O O5 0.710608 0.578522 0.294167
O O6 0.935531 0.622033 0.099916
O O7 0.843755 0.470332 0.026011
O O8 0.729248 0.636059 0.037499
O O9 0.075082 0.877844 0.246260
O O10 0.779942 0.250000 0.711779
O O11 0.729570 0.455712 0.748611
O O12 0.500000 0.500000 0.500000
O O13 0.352146 0.432007 0.401567
O O14 0.401538 0.118207 0.109118
O O15 0.507971 0.958044 0.161621
O O16 0.531187 0.750000 0.119749
#
# Coordination Sequence:
#
# PCOD9160443 Si02
#       7
#     4   4   4   4   4   4   4
#     4   9  20  36  60  89 119 162 208 244 301 370
#     4  10  21  38  60  87 121 157 200 241 306 357
#     4  10  20  37  60  84 125 159 199 250 301 352
#     4  10  19  35  60  90 116 155 204 250 304 361
#     4  10  19  38  63  86 119 161 195 255 310 350
#     4  10  21  39  62  85 125 154 200 255 304 356
#     4  11  22  38  62  88 118 162 204 245 303 363
#
# _framework density 20.830677000000001
#
# number of rings (size 3 to 8) (size 9 to 14) (size 15 to 20)
#    0.000    2.000    2.857    0.857    0.000    1.714 
#    0.000    7.143    0.000    0.000    0.000    0.000 
#    0.000    0.000    0.000    0.000    0.000    0.000 
#
# Total GULP energy -156117.952217 kJ/mol
# GULP energy per Si atom -5575.641151 kJ/mol
# Density = 2.078327 g / cm^3
# Si number density = 20.830677 Si / 1000 Ang^3
#
#
#
# Elastic Constant Matrix: (Units=GPa)
#
#
# Indices 1 2 3 4 5 6 
#
# 1 92.2669 9.6231 31.0504 0.0000 22.1773 0.0000
# 2 9.6231 44.4849 4.9826 0.0000 5.9264 0.0000
# 3 31.0504 4.9826 92.1103 0.0000 11.6927 0.0000
# 4 0.0000 0.0000 0.0000 -4.8748 0.0000 17.3343
# 5 22.1773 5.9264 11.6927 0.0000 38.7553 0.0000
# 6 0.0000 0.0000 0.0000 17.3343 0.0000 -22.4115
#
#
#
# Elastic Compliance Matrix: (Units=1/GPa)
#
#
# Indices 1 2 3 4 5 6 
#
# 1 0.013847 -0.001705 -0.003746 0.000000 -0.006533 0.000000
# 2 -0.001705 0.023218 -0.000368 0.000000 -0.002463 0.000000
# 3 -0.003746 -0.000368 0.012332 0.000000 -0.001521 0.000000
# 4 0.000000 0.000000 0.000000 0.117200 0.000000 0.090649
# 5 -0.006533 -0.002463 -0.001521 0.000000 0.030377 0.000000
# 6 0.000000 0.000000 0.000000 0.090649 0.000000 0.025493
#
#
# Mechanical properties :
#
#
# Convention : Reuss Voigt Hill
#
# Bulk Modulus (GPa) = 26.48511 35.57491 31.03001
# Shear Modulus (GPa) = 20.26820 14.50753 17.38787
#
# Velocity S-wave (km/s) = 3.12268 2.64190 2.89229
# Velocity P-wave (km/s) = 5.07381 5.14017 5.10710
#
# Compressibility (1/GPa) = 0.03775706
#
# Stress axis : x y z
#
# Youngs Moduli (GPa) = 72.21826 43.07023 81.08741
#
# Poissons Ratio (x) = 0.07346 0.30377
# Poissons Ratio (y) = 0.12317 0.02987
# Poissons Ratio (z) = 0.27055 0.01586
#
# Static dielectric constant tensor:
#      x y z
#    x 1.763480 0.000000 -0.013880 
#    y 0.000000 1.795620 0.000000 
#    z -0.013880 0.000000 1.772190 
# 
# From -- ./inp_files/17687.got.cif
#   From: 2010.05.17/outbox.cif.g08.bks.cpg/sg11_9_cif.got.tgz:17687.got - 2010.06.03 12:22:45.
