data_PCOD9160629
_publ_section_title
;
Structure prediction by ZEFSAII (Michael W. Deem and Ramdas Pophale) SiO2 
 PCOD9160629
Probable space group: P 21/M
;
_chemical_formula_sum "Si O2"
_cell_formula_units_Z 32
_cell_length_a 16.752435
_cell_length_b 9.116920
_cell_length_c 21.529493
_cell_angle_alpha 90.000000
_cell_angle_beta 152.738942
_cell_angle_gamma 90.000000
_cell_volume 1506.150934
_symmetry_space_group_name_H-M "P 21/M"
_symmetry_group_IT_number 11
_symmetry_cell_setting 'monoclinic'
loop_
_space_group_symop_operation_xyz
x,y,z
-x,1/2+y,-z
-x,-y,-z
x,1/2-y,z
loop_
_atom_site_type_symbol
_atom_site_label
_atom_site_fract_x
_atom_site_fract_y
_atom_site_fract_z
Si Si1 0.006209 0.419399 0.412933
Si Si2 0.312198 0.423256 0.867467
Si Si3 0.209360 0.411313 0.422684
Si Si4 0.488084 0.418658 0.323726
Si Si5 0.155585 0.923881 0.144615
Si Si6 0.688110 0.576769 0.989376
Si Si7 0.004929 0.082199 0.153426
Si Si8 0.663884 0.423050 0.310029
O O1 0.975892 0.250000 0.409153
O O2 0.097358 0.421420 0.407939
O O3 0.152609 0.493124 0.558255
O O4 0.825189 0.503193 0.274725
O O5 0.328574 0.250000 0.865712
O O6 0.250933 0.438628 0.897211
O O7 0.500000 0.500000 0.000000
O O8 0.297468 0.250000 0.485073
O O9 0.350163 0.539346 0.520635
O O10 0.089837 0.416121 0.280075
O O11 0.434086 0.250000 0.292820
O O12 0.331526 0.523375 0.233751
O O13 0.563799 0.440661 0.306871
O O14 0.140601 0.750000 0.134517
O O15 0.129370 0.988924 0.195187
O O16 0.000000 0.000000 0.000000
O O17 0.693521 0.750000 0.977431
O O18 0.485946 0.529579 0.841999
O O19 0.815679 0.490350 0.031788
O O20 0.989765 0.250000 0.120377
O O21 0.699273 0.250000 0.326470
#
# Coordination Sequence:
#
# PCOD9160629 Si02
#       8
#     4   4   4   4   4   4   4   4
#     4  10  19  36  60  88 120 154 194 238 286 346
#     4  11  23  39  62  90 121 157 194 238 293 350
#     4   9  19  35  56  83 114 150 191 237 287 345
#     4  10  20  35  57  83 114 151 193 241 294 347
#     4  12  25  40  56  77 110 151 195 245 298 353
#     4  10  21  38  61  89 120 153 196 246 295 350
#     4  11  22  37  59  85 115 152 193 241 294 348
#     4   9  19  36  59  87 117 152 194 242 291 347
#
# _framework density 21.246212
#
# number of rings (size 3 to 8) (size 9 to 14) (size 15 to 20)
#    0.000    1.750    1.250    3.375    0.000    4.500 
#    0.000    0.625    0.000    0.000    0.000    0.000 
#    0.000    0.000    0.000    0.000    0.000    0.000 
#
# Total GULP energy -178832.137800 kJ/mol
# GULP energy per Si atom -5588.504306 kJ/mol
# Density = 2.119785 g / cm^3
# Si number density = 21.246212 Si / 1000 Ang^3
#
#
#
# Elastic Constant Matrix: (Units=GPa)
#
#
# Indices 1 2 3 4 5 6 
#
# 1 64.5165 29.8572 17.1867 0.0000 13.1473 0.0000
# 2 29.8572 127.3144 54.5472 0.0000 18.1855 0.0000
# 3 17.1867 54.5472 127.7649 0.0000 4.1180 0.0000
# 4 0.0000 0.0000 0.0000 42.4345 0.0000 7.1640
# 5 13.1473 18.1855 4.1180 0.0000 33.8424 0.0000
# 6 0.0000 0.0000 0.0000 7.1640 0.0000 13.9119
#
#
#
# Elastic Compliance Matrix: (Units=1/GPa)
#
#
# Indices 1 2 3 4 5 6 
#
# 1 0.018280 -0.003119 -0.000956 0.000000 -0.005309 0.000000
# 2 -0.003119 0.010947 -0.004120 0.000000 -0.004169 0.000000
# 3 -0.000956 -0.004120 0.009669 0.000000 0.001409 0.000000
# 4 0.000000 0.000000 0.000000 0.025810 0.000000 -0.013291
# 5 -0.005309 -0.004169 0.001409 0.000000 0.033680 0.000000
# 6 0.000000 0.000000 0.000000 -0.013291 0.000000 0.078725
#
#
# Mechanical properties :
#
#
# Convention : Reuss Voigt Hill
#
# Bulk Modulus (GPa) = 44.43267 58.08646 51.25956
# Shear Modulus (GPa) = 24.87539 32.57139 28.72339
#
# Velocity S-wave (km/s) = 3.42543 3.91966 3.68085
# Velocity P-wave (km/s) = 6.05007 6.91983 6.49951
#
# Compressibility (1/GPa) = 0.02250596
#
# Stress axis : x y z
#
# Youngs Moduli (GPa) = 54.70482 91.35327 103.42459
#
# Poissons Ratio (x) = 0.28491 0.09891
# Poissons Ratio (y) = 0.17061 0.42606
# Poissons Ratio (z) = 0.05232 0.37633
#
# Static dielectric constant tensor:
#      x y z
#    x 1.823490 0.000000 -0.001440 
#    y 0.000000 1.727450 0.000000 
#    z -0.001440 0.000000 1.777380 
# 
# From -- ./inp_files/72119.got.cif
#   From: 2010.05.17/outbox.cif.g08.bks.cpg/sg11_37_cif.got.tgz:72119.got - 2010.06.03 12:22:45.
