data_PCOD9160566
_publ_section_title
;
Structure prediction by ZEFSAII (Michael W. Deem and Ramdas Pophale) SiO2 
 PCOD9160566
Probable space group: P 21/M
;
_chemical_formula_sum "Si O2"
_cell_formula_units_Z 32
_cell_length_a 12.757870
_cell_length_b 8.201509
_cell_length_c 15.434218
_cell_angle_alpha 90.000000
_cell_angle_beta 91.710024
_cell_angle_gamma 90.000000
_cell_volume 1614.221451
_symmetry_space_group_name_H-M "P 21/M"
_symmetry_group_IT_number 11
_symmetry_cell_setting 'monoclinic'
loop_
_space_group_symop_operation_xyz
x,y,z
-x,1/2+y,-z
-x,-y,-z
x,1/2-y,z
loop_
_atom_site_type_symbol
_atom_site_label
_atom_site_fract_x
_atom_site_fract_y
_atom_site_fract_z
Si Si1 0.483438 0.446963 0.866639
Si Si2 0.737325 0.551088 0.437512
Si Si3 0.035569 0.052998 0.596484
Si Si4 0.699531 0.943824 0.630081
Si Si5 0.671171 0.555425 0.985694
Si Si6 0.099055 0.555632 0.058654
Si Si7 0.884185 0.444979 0.745265
Si Si8 0.530735 0.552299 0.331969
O O1 0.484883 0.250000 0.869134
O O2 0.595741 0.506501 0.904183
O O3 0.462067 0.498203 0.768169
O O4 0.393268 0.503726 0.931166
O O5 0.735036 0.750000 0.438544
O O6 0.843314 0.501594 0.391727
O O7 0.740711 0.497074 0.537558
O O8 0.631340 0.496263 0.388562
O O9 0.031746 0.250000 0.598211
O O10 0.962028 0.990563 0.672167
O O11 0.000000 0.000000 0.500000
O O12 0.713007 0.750000 0.634722
O O13 0.767245 0.020313 0.708661
O O14 0.577847 0.986764 0.633557
O O15 0.676696 0.750000 0.989983
O O16 0.788514 0.491244 0.978785
O O17 0.095069 0.750000 0.063169
O O18 0.095991 0.490265 0.157686
O O19 0.000000 0.500000 0.000000
O O20 0.898128 0.250000 0.748896
O O21 0.527733 0.750000 0.334791
#
# Coordination Sequence:
#
# PCOD9160566 Si02
#       8
#     4   4   4   4   4   4   4   4
#     4   9  19  35  57  83 109 144 189 233 278 336
#     4   9  19  34  53  78 108 144 180 224 276 324
#     4  10  19  36  59  82 109 143 185 231 275 326
#     4  11  21  34  54  81 113 145 183 231 278 327
#     4  10  20  36  59  84 111 146 186 232 287 340
#     4  11  24  41  59  84 116 150 190 236 285 341
#     4  10  22  38  60  85 110 147 190 228 275 337
#     4  10  20  35  54  77 109 147 186 225 273 334
#
# _framework density 19.823798
#
# number of rings (size 3 to 8) (size 9 to 14) (size 15 to 20)
#    0.000    2.000    1.250    2.250    0.000    6.000 
#    0.000    5.000    0.000    0.000    0.000    0.000 
#    0.000    0.000    0.000    0.000    0.000    0.000 
#
# Total GULP energy -178708.939594 kJ/mol
# GULP energy per Si atom -5584.654362 kJ/mol
# Density = 1.977868 g / cm^3
# Si number density = 19.823798 Si / 1000 Ang^3
#
#
#
# Elastic Constant Matrix: (Units=GPa)
#
#
# Indices 1 2 3 4 5 6 
#
# 1 155.8840 7.3056 46.6238 0.0000 4.6486 0.0000
# 2 7.3056 13.6485 10.5697 0.0000 -1.6696 0.0000
# 3 46.6238 10.5697 33.9467 0.0000 9.3439 0.0000
# 4 0.0000 0.0000 0.0000 20.8905 0.0000 0.9296
# 5 4.6486 -1.6696 9.3439 0.0000 28.7768 0.0000
# 6 0.0000 0.0000 0.0000 0.9296 0.0000 27.3844
#
#
#
# Elastic Compliance Matrix: (Units=1/GPa)
#
#
# Indices 1 2 3 4 5 6 
#
# 1 0.012273 0.011097 -0.021900 0.000000 0.005772 0.000000
# 2 0.011097 0.114664 -0.057412 0.000000 0.023502 0.000000
# 3 -0.021900 -0.057412 0.084948 0.000000 -0.027376 0.000000
# 4 0.000000 0.000000 0.000000 0.047941 0.000000 -0.001627
# 5 0.005772 0.023502 -0.027376 0.000000 0.044070 0.000000
# 6 0.000000 0.000000 0.000000 -0.001627 0.000000 0.036572
#
#
# Mechanical properties :
#
#
# Convention : Reuss Voigt Hill
#
# Bulk Modulus (GPa) = 13.25303 36.94192 25.09747
# Shear Modulus (GPa) = 9.95917 24.67567 17.31742
#
# Velocity S-wave (km/s) = 2.24382 3.53193 2.95882
# Velocity P-wave (km/s) = 3.66237 5.94208 4.93565
#
# Compressibility (1/GPa) = 0.07545446
#
# Stress axis : x y z
#
# Youngs Moduli (GPa) = 81.47941 8.72115 11.77195
#
# Poissons Ratio (x) = -0.09678 0.25781
# Poissons Ratio (y) = -0.90416 0.67585
# Poissons Ratio (z) = 1.78442 0.50069
#
# Static dielectric constant tensor:
#      x y z
#    x 1.681040 0.000000 -0.018360 
#    y 0.000000 1.695380 0.000000 
#    z -0.018360 0.000000 1.703890 
# 
# From -- ./inp_files/38062.got.cif
#   From: 2010.05.17/outbox.cif.g08.bks.cpg/sg11_20_cif.got.tgz:38062.got - 2010.06.03 12:22:45.
