data_PCOD9160107
_publ_section_title
;
Structure prediction by ZEFSAII (Michael W. Deem and Ramdas Pophale) SiO2 
 PCOD9160107
Probable space group: P 21/M
;
_chemical_formula_sum "Si O2"
_cell_formula_units_Z 32
_cell_length_a 20.516305
_cell_length_b 8.948022
_cell_length_c 20.310980
_cell_angle_alpha 90.000000
_cell_angle_beta 29.657696
_cell_angle_gamma 90.000000
_cell_volume 1845.023246
_symmetry_space_group_name_H-M "P 21/M"
_symmetry_group_IT_number 11
_symmetry_cell_setting 'monoclinic'
loop_
_space_group_symop_operation_xyz
x,y,z
-x,1/2+y,-z
-x,-y,-z
x,1/2-y,z
loop_
_atom_site_type_symbol
_atom_site_label
_atom_site_fract_x
_atom_site_fract_y
_atom_site_fract_z
Si Si1 0.323320 0.572616 0.102651
Si Si2 0.633077 0.927980 0.652546
Si Si3 0.598840 0.072245 0.819285
Si Si4 0.856108 0.571683 0.842330
Si Si5 0.644259 0.570409 0.143082
Si Si6 0.849664 0.069628 0.368119
Si Si7 0.184554 0.429614 0.884020
Si Si8 0.886926 0.429682 0.185763
O O1 0.340011 0.750000 0.078530
O O2 0.324157 0.543221 0.180154
O O3 0.197059 0.513985 0.174633
O O4 0.451101 0.488967 0.961015
O O5 0.634425 0.750000 0.652531
O O6 0.657258 0.992390 0.704426
O O7 0.489623 0.987653 0.756911
O O8 0.740614 0.991496 0.507951
O O9 0.592868 0.250000 0.813521
O O10 0.850309 0.750000 0.835668
O O11 0.003952 0.533968 0.734019
O O12 0.755596 0.539239 0.990453
O O13 0.621896 0.750000 0.162379
O O14 0.704248 0.527144 0.161208
O O15 0.834182 0.250000 0.385175
O O16 0.842481 0.025388 0.297601
O O17 0.186348 0.250000 0.877014
O O18 0.192800 0.500523 0.804744
O O19 0.040693 0.471502 0.039658
O O20 0.880047 0.250000 0.188007
#
# Coordination Sequence:
#
# PCOD9160107 Si02
#       8
#     4   4   4   4   4   4   4   4
#     4  10  20  33  55  87 115 140 180 233 279 320
#     4  12  25  38  55  83 114 146 187 234 281 329
#     4  10  20  36  56  79 112 151 185 221 274 335
#     4  10  19  34  59  85 110 145 189 229 273 331
#     4  10  19  35  58  83 111 146 185 226 274 333
#     4  10  21  39  59  80 111 153 191 224 274 340
#     4   9  17  31  54  84 113 140 178 226 274 326
#     4   9  17  32  54  81 111 143 181 223 272 328
#
# _framework density 17.343955000000001
#
# number of rings (size 3 to 8) (size 9 to 14) (size 15 to 20)
#    0.000    2.000    2.500    1.875    0.000    3.000 
#    0.000    1.250    0.000    0.000    0.000    0.000 
#    0.000    0.000    0.000    0.000    0.000    0.000 
#
# Total GULP energy -178626.132379 kJ/mol
# GULP energy per Si atom -5582.066637 kJ/mol
# Density = 1.730448 g / cm^3
# Si number density = 17.343955 Si / 1000 Ang^3
#
#
#
# Elastic Constant Matrix: (Units=GPa)
#
#
# Indices 1 2 3 4 5 6 
#
# 1 142.1914 61.8328 62.4862 0.0000 18.3087 0.0000
# 2 61.8328 55.4255 54.0874 0.0000 7.8695 0.0000
# 3 62.4862 54.0874 105.9586 0.0000 16.1568 0.0000
# 4 0.0000 0.0000 0.0000 18.1565 0.0000 1.9045
# 5 18.3087 7.8695 16.1568 0.0000 25.6593 0.0000
# 6 0.0000 0.0000 0.0000 1.9045 0.0000 33.4254
#
#
#
# Elastic Compliance Matrix: (Units=1/GPa)
#
#
# Indices 1 2 3 4 5 6 
#
# 1 0.014392 -0.015566 0.000328 0.000000 -0.005702 0.000000
# 2 -0.015566 0.052795 -0.018799 0.000000 0.006752 0.000000
# 3 0.000328 -0.018799 0.019908 0.000000 -0.007004 0.000000
# 4 0.000000 0.000000 0.000000 0.055408 0.000000 -0.003157
# 5 -0.005702 0.006752 -0.007004 0.000000 0.045380 0.000000
# 6 0.000000 0.000000 0.000000 -0.003157 0.000000 0.030097
#
#
# Mechanical properties :
#
#
# Convention : Reuss Voigt Hill
#
# Bulk Modulus (GPa) = 52.57620 73.37648 62.97634
# Shear Modulus (GPa) = 17.10019 23.79286 20.44653
#
# Velocity S-wave (km/s) = 3.14338 3.70783 3.43721
# Velocity P-wave (km/s) = 6.59956 7.79289 7.22092
#
# Compressibility (1/GPa) = 0.01902001
#
# Stress axis : x y z
#
# Youngs Moduli (GPa) = 69.48428 18.94134 50.22989
#
# Poissons Ratio (x) = 0.29484 -0.01648
# Poissons Ratio (y) = 1.08160 0.94429
# Poissons Ratio (z) = -0.02280 0.35609
#
# Static dielectric constant tensor:
#      x y z
#    x 1.596060 0.000000 0.007050 
#    y 0.000000 1.577460 0.000000 
#    z 0.007050 0.000000 1.560110 
# 
# From -- ./inp_files/66453.got.cif
#   From: 2010.05.17/outbox.cif.g08.bks.cpg/sg11_34_cif.got.tgz:66453.got - 2010.06.03 12:22:45.
