data_PCOD9160844
_publ_section_title
;
Structure prediction by ZEFSAII (Michael W. Deem and Ramdas Pophale) SiO2 
 PCOD9160844
Probable space group: P 21/M
;
_chemical_formula_sum "Si O2"
_cell_formula_units_Z 32
_cell_length_a 8.018561
_cell_length_b 24.070856
_cell_length_c 12.725166
_cell_angle_alpha 90.000000
_cell_angle_beta 144.558860
_cell_angle_gamma 90.000000
_cell_volume 1424.227293
_symmetry_space_group_name_H-M "P 21/M"
_symmetry_group_IT_number 11
_symmetry_cell_setting 'monoclinic'
loop_
_space_group_symop_operation_xyz
x,y,z
-x,1/2+y,-z
-x,-y,-z
x,1/2-y,z
loop_
_atom_site_type_symbol
_atom_site_label
_atom_site_fract_x
_atom_site_fract_y
_atom_site_fract_z
Si Si1 0.083759 0.689799 0.114364
Si Si2 0.428933 0.098688 0.644412
Si Si3 0.937156 0.334094 0.130483
Si Si4 0.409735 0.338180 0.981225
Si Si5 0.809061 0.550236 0.693139
Si Si6 0.658738 0.513118 0.824279
Si Si7 0.734966 0.542929 0.082526
Si Si8 0.008237 0.686819 0.614196
O O1 0.235675 0.750000 0.198184
O O2 0.289898 0.636472 0.227316
O O3 0.851027 0.688501 0.088233
O O4 0.963548 0.684763 0.932875
O O5 0.335417 0.071464 0.486140
O O6 0.492905 0.045182 0.749113
O O7 0.180195 0.142495 0.545287
O O8 0.101825 0.312533 0.319286
O O9 0.970139 0.400968 0.158082
O O10 0.603917 0.316709 0.982353
O O11 0.287441 0.397085 0.880184
O O12 0.671109 0.336480 0.200996
O O13 0.596812 0.541700 0.681926
O O14 0.971619 0.491739 0.760203
O O15 0.637189 0.552838 0.911729
O O16 0.000000 0.500000 0.000000
O O17 0.500000 0.500000 0.000000
O O18 0.012220 0.750000 0.577207
#
# Coordination Sequence:
#
# PCOD9160844 Si02
#       8
#     4   4   4   4   4   4   4   4
#     4  12  23  37  65  94 119 164 219 262 308 363
#     4  11  22  37  60  93 123 169 203 253 315 374
#     4   9  20  38  65  90 121 161 209 254 309 378
#     4  10  22  38  64  93 123 153 210 258 306 367
#     4  10  19  38  60  88 126 164 199 247 320 375
#     4  10  21  34  60  88 123 153 203 251 299 368
#     4  11  18  35  61  89 119 161 198 251 305 374
#     4   9  19  40  63  83 122 165 200 258 317 361
#
# _framework density 22.468323999999999
#
# number of rings (size 3 to 8) (size 9 to 14) (size 15 to 20)
#    0.750    1.000    1.250    5.250    0.000    0.000 
#    0.000    2.500   11.000    0.000    0.000    0.000 
#    0.000    0.000    0.000    0.000    0.000    0.000 
#
# Total GULP energy -178199.038519 kJ/mol
# GULP energy per Si atom -5568.719954 kJ/mol
# Density = 2.241719 g / cm^3
# Si number density = 22.468324 Si / 1000 Ang^3
#
#
#
# Elastic Constant Matrix: (Units=GPa)
#
#
# Indices 1 2 3 4 5 6 
#
# 1 42.1260 -4.9379 -12.7831 0.0000 -0.7522 0.0000
# 2 -4.9379 111.6183 16.2717 0.0000 2.2991 0.0000
# 3 -12.7831 16.2717 49.8499 0.0000 -5.3399 0.0000
# 4 0.0000 0.0000 0.0000 -0.0001 0.0000 8.2725
# 5 -0.7522 2.2991 -5.3399 0.0000 21.0664 0.0000
# 6 0.0000 0.0000 0.0000 8.2725 0.0000 15.1127
#
#
#
# Elastic Compliance Matrix: (Units=1/GPa)
#
#
# Indices 1 2 3 4 5 6 
#
# 1 0.025888 0.000085 0.006896 0.000000 0.002663 0.000000
# 2 0.000085 0.009478 -0.003271 0.000000 -0.001861 0.000000
# 3 0.006896 -0.003271 0.023602 0.000000 0.006586 0.000000
# 4 0.000000 0.000000 0.000000 -0.220830 0.000000 0.120879
# 5 0.002663 -0.001861 0.006586 0.000000 0.049436 0.000000
# 6 0.000000 0.000000 0.000000 0.120879 0.000000 0.000002
#
#
# Mechanical properties :
#
#
# Convention : Reuss Voigt Hill
#
# Bulk Modulus (GPa) = 15.06288 22.29950 18.68119
# Shear Modulus (GPa) = -51.16985 20.90537 -15.13224
#
# Velocity S-wave (km/s) = -4.77741 3.05362 -2.59799
# Velocity P-wave (km/s) = 4.86959 4.73066 0.81663
#
# Compressibility (1/GPa) = 0.06638837
#
# Stress axis : x y z
#
# Youngs Moduli (GPa) = 38.62723 105.50664 42.36955
#
# Poissons Ratio (x) = -0.00898 -0.29219
# Poissons Ratio (y) = -0.00329 0.13860
# Poissons Ratio (z) = -0.26638 0.34514
#
# Static dielectric constant tensor:
#      x y z
#    x 1.926640 0.000000 -0.011940 
#    y 0.000000 1.909440 0.000000 
#    z -0.011940 0.000000 1.868380 
# 
# From -- ./inp_files/48458.got.cif
#   From: 2010.05.17/outbox.cif.g08.bks.cpg/sg11_25_cif.got.tgz:48458.got - 2010.06.03 12:22:45.
