data_PCOD9160133
_publ_section_title
;
Structure prediction by ZEFSAII (Michael W. Deem and Ramdas Pophale) SiO2 
 PCOD9160133
Probable space group: P 21/M
;
_chemical_formula_sum "Si O2"
_cell_formula_units_Z 22
_cell_length_a 10.510530
_cell_length_b 10.411373
_cell_length_c 11.538917
_cell_angle_alpha 90.000000
_cell_angle_beta 123.590882
_cell_angle_gamma 90.000000
_cell_volume 1051.834762
_symmetry_space_group_name_H-M "P 21/M"
_symmetry_group_IT_number 11
_symmetry_cell_setting 'monoclinic'
loop_
_space_group_symop_operation_xyz
x,y,z
-x,1/2+y,-z
-x,-y,-z
x,1/2-y,z
loop_
_atom_site_type_symbol
_atom_site_label
_atom_site_fract_x
_atom_site_fract_y
_atom_site_fract_z
Si Si1 0.934270 0.250000 0.607434
Si Si2 0.412254 0.035583 0.781297
Si Si3 0.238047 0.506209 0.100745
Si Si4 0.647984 0.250000 0.317662
Si Si5 0.244133 0.750000 0.246702
Si Si6 0.387237 0.250000 0.582581
Si Si7 0.670656 0.750000 0.715153
Si Si8 0.824611 0.892218 0.154825
O O1 0.823750 0.250000 0.444877
O O2 0.820345 0.250000 0.658089
O O3 0.044518 0.372569 0.682632
O O4 0.351813 0.123811 0.643262
O O5 0.332318 0.084467 0.856979
O O6 0.593965 0.045142 0.862948
O O7 0.376103 0.885027 0.756762
O O8 0.186341 0.624051 0.152034
O O9 0.261230 0.378369 0.190362
O O10 0.143743 0.484221 0.935978
O O11 0.511600 0.250000 0.345377
O O12 0.428469 0.750000 0.341262
O O13 0.315585 0.250000 0.417867
O O14 0.813850 0.750000 0.094799
#
# Coordination Sequence:
#
# PCOD9160133 Si02
#       8
#     2   4   4   2   2   2   2   4
#     4  10  22  38  56  80 120 160 178 232 276 338
#     4  10  21  37  61  88 112 145 187 241 287 330
#     4  10  21  37  61  88 112 145 187 241 287 330
#     4  10  22  34  57  90 114 148 190 233 278 331
#     4  10  22  34  57  90 114 148 190 233 278 331
#     4  10  19  34  59  90 118 144 183 233 293 337
#     4  10  19  34  59  90 118 144 183 233 293 337
#     4  10  21  40  57  78 115 156 185 223 288 338
#
# _framework density 20.915832999999999
#
# number of rings (size 3 to 8) (size 9 to 14) (size 15 to 20)
#    0.545    1.455    2.727    0.545    2.545    4.364 
#    0.000    0.000    0.000    0.000    0.000    0.000 
#    0.000    0.000    0.000    0.000    0.000    0.000 
#
# Total GULP energy -122631.183003 kJ/mol
# GULP energy per Si atom -5574.144682 kJ/mol
# Density = 2.086823 g / cm^3
# Si number density = 20.915833 Si / 1000 Ang^3
#
#
#
# Elastic Constant Matrix: (Units=GPa)
#
#
# Indices 1 2 3 4 5 6 
#
# 1 31.9539 3.6961 4.2810 0.0000 1.3756 0.0000
# 2 3.6961 68.2336 -9.3478 0.0000 11.0297 0.0000
# 3 4.2810 -9.3478 36.1569 0.0000 7.0071 0.0000
# 4 0.0000 0.0000 0.0000 -2.2655 0.0000 -22.0054
# 5 1.3756 11.0297 7.0071 0.0000 21.7310 0.0000
# 6 0.0000 0.0000 0.0000 -22.0054 0.0000 -3.5948
#
#
#
# Elastic Compliance Matrix: (Units=1/GPa)
#
#
# Indices 1 2 3 4 5 6 
#
# 1 0.032167 -0.002485 -0.004587 0.000000 0.000704 0.000000
# 2 -0.002485 0.017516 0.006949 0.000000 -0.010974 0.000000
# 3 -0.004587 0.006949 0.032666 0.000000 -0.013770 0.000000
# 4 0.000000 0.000000 0.000000 0.007551 0.000000 -0.046221
# 5 0.000704 -0.010974 -0.013770 0.000000 0.055983 0.000000
# 6 0.000000 0.000000 0.000000 -0.046221 0.000000 0.004759
#
#
# Mechanical properties :
#
#
# Convention : Reuss Voigt Hill
#
# Bulk Modulus (GPa) = 12.17982 14.84479 13.51230
# Shear Modulus (GPa) = 28.04995 12.35514 20.20255
#
# Velocity S-wave (km/s) = 3.66606 2.43308 3.11126
# Velocity P-wave (km/s) = 4.87400 3.87376 4.40238
#
# Compressibility (1/GPa) = 0.08210301
#
# Stress axis : x y z
#
# Youngs Moduli (GPa) = 31.08797 57.09042 30.61319
#
# Poissons Ratio (x) = 0.14185 0.14044
# Poissons Ratio (y) = 0.07725 -0.21274
# Poissons Ratio (z) = 0.14261 -0.39675
#
# Static dielectric constant tensor:
#      x y z
#    x 1.742580 0.000000 0.035660 
#    y 0.000000 1.777420 0.000000 
#    z 0.035660 0.000000 1.794730 
# 
# From -- ./inp_files/34518.got.cif
#   From: 2010.05.17/outbox.cif.g08.bks.cpg/sg11_18_cif.got.tgz:34518.got - 2010.06.03 12:22:45.
