data_PCOD9160612
_publ_section_title
;
Structure prediction by ZEFSAII (Michael W. Deem and Ramdas Pophale) SiO2 
 PCOD9160612
Probable space group: P 21/M
;
_chemical_formula_sum "Si O2"
_cell_formula_units_Z 28
_cell_length_a 15.699441
_cell_length_b 9.258670
_cell_length_c 17.704170
_cell_angle_alpha 90.000000
_cell_angle_beta 144.175099
_cell_angle_gamma 90.000000
_cell_volume 1506.240748
_symmetry_space_group_name_H-M "P 21/M"
_symmetry_group_IT_number 11
_symmetry_cell_setting 'monoclinic'
loop_
_space_group_symop_operation_xyz
x,y,z
-x,1/2+y,-z
-x,-y,-z
x,1/2-y,z
loop_
_atom_site_type_symbol
_atom_site_label
_atom_site_fract_x
_atom_site_fract_y
_atom_site_fract_z
Si Si1 0.151152 0.422852 0.087455
Si Si2 0.379649 0.914780 0.960596
Si Si3 0.817385 0.922529 0.067501
Si Si4 0.836944 0.087660 0.333164
Si Si5 0.832874 0.921614 0.468189
Si Si6 0.646674 0.578503 0.631084
Si Si7 0.884079 0.922485 0.670975
O O1 0.131910 0.250000 0.084021
O O2 0.280502 0.468792 0.237227
O O3 0.186497 0.449232 0.025224
O O4 0.000000 0.500000 0.000000
O O5 0.422949 0.750000 0.010549
O O6 0.250016 0.908067 0.806543
O O7 0.316556 0.001042 0.986434
O O8 0.500000 0.000000 0.000000
O O9 0.815242 0.750000 0.079113
O O10 0.968055 0.990723 0.207046
O O11 0.851581 0.250000 0.374009
O O12 0.997814 0.038635 0.424759
O O13 0.760195 0.995725 0.343636
O O14 0.814172 0.750000 0.449346
O O15 0.807797 0.964495 0.536723
O O16 0.500000 0.500000 0.500000
O O17 0.617597 0.750000 0.614682
O O18 0.771936 0.555883 0.658399
O O19 0.919004 0.750000 0.690959
#
# Coordination Sequence:
#
# PCOD9160612 Si02
#       7
#     4   4   4   4   4   4   4
#     4  10  21  38  63  93 123 157 201 252 302 361
#     4  11  23  41  60  81 115 156 197 245 300 354
#     4  11  22  36  60  92 119 150 199 249 297 359
#     4   9  18  33  53  77 106 141 179 226 282 335
#     4   9  17  31  53  80 108 138 181 230 278 334
#     4  10  22  40  61  85 121 160 197 246 304 359
#     4  10  19  36  60  84 114 153 195 242 295 352
#
# _framework density 18.589327000000001
#
# number of rings (size 3 to 8) (size 9 to 14) (size 15 to 20)
#    0.000    2.000    2.857    0.857    0.000    3.429 
#    2.571    0.000    0.000    0.000    0.000    0.000 
#    0.000    0.000    0.000    0.000    0.000    0.000 
#
# Total GULP energy -156094.228897 kJ/mol
# GULP energy per Si atom -5574.793889 kJ/mol
# Density = 1.854702 g / cm^3
# Si number density = 18.589327 Si / 1000 Ang^3
#
#
#
# Elastic Constant Matrix: (Units=GPa)
#
#
# Indices 1 2 3 4 5 6 
#
# 1 117.3374 69.5269 37.6791 0.0000 -14.7830 0.0000
# 2 69.5269 70.5468 31.2729 0.0000 -2.4356 0.0000
# 3 37.6791 31.2729 60.7436 0.0000 -9.4453 0.0000
# 4 0.0000 0.0000 0.0000 29.4290 0.0000 -0.9329
# 5 -14.7830 -2.4356 -9.4453 0.0000 37.4694 0.0000
# 6 0.0000 0.0000 0.0000 -0.9329 0.0000 29.2640
#
#
#
# Elastic Compliance Matrix: (Units=1/GPa)
#
#
# Indices 1 2 3 4 5 6 
#
# 1 0.022551 -0.021075 -0.002048 0.000000 0.007011 0.000000
# 2 -0.021075 0.038118 -0.007763 0.000000 -0.007794 0.000000
# 3 -0.002048 -0.007763 0.022404 0.000000 0.004335 0.000000
# 4 0.000000 0.000000 0.000000 0.034014 0.000000 0.001084
# 5 0.007011 -0.007794 0.004335 0.000000 0.030041 0.000000
# 6 0.000000 0.000000 0.000000 0.001084 0.000000 0.034206
#
#
# Mechanical properties :
#
#
# Convention : Reuss Voigt Hill
#
# Bulk Modulus (GPa) = 46.94903 58.39840 52.67372
# Shear Modulus (GPa) = 19.98335 26.57574 23.27955
#
# Velocity S-wave (km/s) = 3.28226 3.78514 3.54263
# Velocity P-wave (km/s) = 6.29881 7.11240 6.71794
#
# Compressibility (1/GPa) = 0.02129969
#
# Stress axis : x y z
#
# Youngs Moduli (GPa) = 44.34321 26.23431 44.63493
#
# Poissons Ratio (x) = 0.55290 0.09142
# Poissons Ratio (y) = 0.93455 0.34652
# Poissons Ratio (z) = 0.09082 0.20367
#
# Static dielectric constant tensor:
#      x y z
#    x 1.647120 0.000000 -0.028480 
#    y 0.000000 1.660910 0.000000 
#    z -0.028480 0.000000 1.691470 
# 
# From -- ./inp_files/60144.got.cif
#   From: 2010.05.17/outbox.cif.g08.bks.cpg/sg11_31_cif.got.tgz:60144.got - 2010.06.03 12:22:45.
