data_PCOD9160297
_publ_section_title
;
Structure prediction by ZEFSAII (Michael W. Deem and Ramdas Pophale) SiO2 
 PCOD9160297
Probable space group: P 21/M
;
_chemical_formula_sum "Si O2"
_cell_formula_units_Z 32
_cell_length_a 20.917095
_cell_length_b 8.830972
_cell_length_c 12.522698
_cell_angle_alpha 90.000000
_cell_angle_beta 127.574384
_cell_angle_gamma 90.000000
_cell_volume 1833.332433
_symmetry_space_group_name_H-M "P 21/M"
_symmetry_group_IT_number 11
_symmetry_cell_setting 'monoclinic'
loop_
_space_group_symop_operation_xyz
x,y,z
-x,1/2+y,-z
-x,-y,-z
x,1/2-y,z
loop_
_atom_site_type_symbol
_atom_site_label
_atom_site_fract_x
_atom_site_fract_y
_atom_site_fract_z
Si Si1 0.517486 0.930562 0.344877
Si Si2 0.536233 0.569694 0.929084
Si Si3 0.287681 0.931967 0.920976
Si Si4 0.989508 0.432430 0.655025
Si Si5 0.127290 0.932392 0.645599
Si Si6 0.783486 0.431559 0.916161
Si Si7 0.624288 0.068322 0.631455
Si Si8 0.040914 0.068881 0.937900
O O1 0.519881 0.750000 0.333766
O O2 0.437927 0.967549 0.335242
O O3 0.509863 0.009036 0.222921
O O4 0.591594 0.987308 0.492669
O O5 0.531560 0.750000 0.928233
O O6 0.500000 0.500000 0.000000
O O7 0.628599 0.515459 0.011142
O O8 0.301479 0.750000 0.929344
O O9 0.218459 0.976267 0.765769
O O10 0.251072 0.964074 0.000875
O O11 0.995549 0.250000 0.657206
O O12 0.910086 0.476358 0.506900
O O13 0.066115 0.499931 0.670537
O O14 0.993951 0.479452 0.782226
O O15 0.123909 0.750000 0.651179
O O16 0.796053 0.250000 0.923220
O O17 0.713621 0.472954 0.760826
O O18 0.867277 0.513755 0.981027
O O19 0.620822 0.250000 0.612681
O O20 0.038860 0.250000 0.941913
O O21 0.000000 0.000000 0.000000
#
# Coordination Sequence:
#
# PCOD9160297 Si02
#       8
#     4   4   4   4   4   4   4   4
#     4  10  19  35  57  84 116 147 186 231 278 334
#     4  12  25  40  59  82 114 153 191 232 286 341
#     4  10  19  35  58  85 113 144 185 232 281 336
#     4   9  18  32  51  80 111 141 181 228 274 327
#     4   9  17  31  55  82 110 142 177 222 279 330
#     4  10  19  35  58  84 114 146 187 232 277 330
#     4   9  18  33  55  84 115 147 183 229 282 333
#     4  11  23  37  54  78 112 150 191 233 283 338
#
# _framework density 17.454552
#
# number of rings (size 3 to 8) (size 9 to 14) (size 15 to 20)
#    0.000    2.000    2.500    1.875    0.000    2.500 
#    0.000    1.250    0.000    6.000    0.000    0.000 
#    0.000    0.000    0.000    0.000    0.000    0.000 
#
# Total GULP energy -178601.514494 kJ/mol
# GULP energy per Si atom -5581.297328 kJ/mol
# Density = 1.741482 g / cm^3
# Si number density = 17.454552 Si / 1000 Ang^3
#
#
#
# Elastic Constant Matrix: (Units=GPa)
#
#
# Indices 1 2 3 4 5 6 
#
# 1 92.0812 47.9704 77.0122 0.0000 -14.6645 0.0000
# 2 47.9704 54.3563 62.4156 0.0000 -7.8701 0.0000
# 3 77.0122 62.4156 178.4589 0.0000 -13.0434 0.0000
# 4 0.0000 0.0000 0.0000 27.7551 0.0000 2.5088
# 5 -14.6645 -7.8701 -13.0434 0.0000 24.6708 0.0000
# 6 0.0000 0.0000 0.0000 2.5088 0.0000 28.1589
#
#
#
# Elastic Compliance Matrix: (Units=1/GPa)
#
#
# Indices 1 2 3 4 5 6 
#
# 1 0.023143 -0.014273 -0.004496 0.000000 0.006826 0.000000
# 2 -0.014273 0.039989 -0.007816 0.000000 0.000140 0.000000
# 3 -0.004496 -0.007816 0.010298 0.000000 0.000278 0.000000
# 4 0.000000 0.000000 0.000000 0.036322 0.000000 -0.003236
# 5 0.006826 0.000140 0.000278 0.000000 0.044783 0.000000
# 6 0.000000 0.000000 0.000000 -0.003236 0.000000 0.035801
#
#
# Mechanical properties :
#
#
# Convention : Reuss Voigt Hill
#
# Bulk Modulus (GPa) = 49.36161 77.74364 63.55263
# Shear Modulus (GPa) = 19.97915 25.28351 22.63133
#
# Velocity S-wave (km/s) = 3.38692 3.81009 3.60472
# Velocity P-wave (km/s) = 6.60579 7.99956 7.33585
#
# Compressibility (1/GPa) = 0.02025866
#
# Stress axis : x y z
#
# Youngs Moduli (GPa) = 43.20916 25.00690 97.10581
#
# Poissons Ratio (x) = 0.35692 0.43663
# Poissons Ratio (y) = 0.61672 0.75902
# Poissons Ratio (z) = 0.19429 0.19547
#
# Static dielectric constant tensor:
#      x y z
#    x 1.550240 0.000000 0.001450 
#    y 0.000000 1.586100 0.000000 
#    z 0.001450 0.000000 1.618000 
# 
# From -- ./inp_files/42903.got.cif
#   From: 2010.05.17/outbox.cif.g08.bks.cpg/sg11_22_cif.got.tgz:42903.got - 2010.06.03 12:22:45.
