data_PCOD9160505
_publ_section_title
;
Structure prediction by ZEFSAII (Michael W. Deem and Ramdas Pophale) SiO2 
 PCOD9160505
Probable space group: P 21/M
;
_chemical_formula_sum "Si O2"
_cell_formula_units_Z 24
_cell_length_a 10.839230
_cell_length_b 16.549112
_cell_length_c 18.236710
_cell_angle_alpha 90.000000
_cell_angle_beta 157.577472
_cell_angle_gamma 90.000000
_cell_volume 1247.782441
_symmetry_space_group_name_H-M "P 21/M"
_symmetry_group_IT_number 11
_symmetry_cell_setting 'monoclinic'
loop_
_space_group_symop_operation_xyz
x,y,z
-x,1/2+y,-z
-x,-y,-z
x,1/2-y,z
loop_
_atom_site_type_symbol
_atom_site_label
_atom_site_fract_x
_atom_site_fract_y
_atom_site_fract_z
Si Si1 0.828320 0.009508 0.327207
Si Si2 0.737594 0.033120 0.068356
Si Si3 0.544129 0.062571 0.378244
Si Si4 0.713079 0.654422 0.619233
Si Si5 0.825047 0.084853 0.777935
Si Si6 0.521745 0.843820 0.809929
O O1 0.697008 0.101326 0.255707
O O2 0.000000 0.000000 0.500000
O O3 0.101762 0.978162 0.422155
O O4 0.503187 0.957998 0.134044
O O5 0.937422 0.112520 0.197619
O O6 0.998438 0.965547 0.189586
O O7 0.500000 0.000000 0.000000
O O8 0.441714 0.113059 0.393175
O O9 0.531400 0.119622 0.300355
O O10 0.304967 0.985651 0.240052
O O11 0.735622 0.750000 0.640177
O O12 0.476498 0.631727 0.422206
O O13 0.102849 0.140294 0.964384
O O14 0.442699 0.750000 0.770341
#
# Coordination Sequence:
#
# PCOD9160505 Si02
#       6
#     4   4   4   4   4   4
#     4   9  19  35  56  78 106 148 185 214 265 334
#     4  10  19  36  56  76 107 146 182 215 268 336
#     4  10  19  37  59  79 108 150 186 218 273 340
#     4  11  22  36  56  86 113 139 183 237 276 315
#     4  10  20  35  57  80 109 148 185 219 275 341
#     4  10  20  35  55  83 112 141 183 237 277 314
#
# _framework density 19.234121999999999
#
# number of rings (size 3 to 8) (size 9 to 14) (size 15 to 20)
#    0.000    2.000    0.000    5.500    0.000    1.333 
#    0.000   15.000    0.000    0.000    0.000    0.000 
#    0.000    0.000    0.000    0.000    0.000    0.000 
#
# Total GULP energy -133843.074798 kJ/mol
# GULP energy per Si atom -5576.794783 kJ/mol
# Density = 1.919034 g / cm^3
# Si number density = 19.234122 Si / 1000 Ang^3
#
#
#
# Elastic Constant Matrix: (Units=GPa)
#
#
# Indices 1 2 3 4 5 6 
#
# 1 35.1920 38.5945 28.4013 0.0000 7.0162 0.0000
# 2 38.5945 149.1818 71.4694 0.0000 13.1275 0.0000
# 3 28.4013 71.4694 140.1937 0.0000 2.2072 0.0000
# 4 0.0000 0.0000 0.0000 21.3885 0.0000 -1.5555
# 5 7.0162 13.1275 2.2072 0.0000 33.2201 0.0000
# 6 0.0000 0.0000 0.0000 -1.5555 0.0000 23.2546
#
#
#
# Elastic Compliance Matrix: (Units=1/GPa)
#
#
# Indices 1 2 3 4 5 6 
#
# 1 0.042055 -0.008434 -0.004137 0.000000 -0.005275 0.000000
# 2 -0.008434 0.010916 -0.003820 0.000000 -0.002279 0.000000
# 3 -0.004137 -0.003820 0.009892 0.000000 0.001726 0.000000
# 4 0.000000 0.000000 0.000000 0.046983 0.000000 0.003143
# 5 -0.005275 -0.002279 0.001726 0.000000 0.032002 0.000000
# 6 0.000000 0.000000 0.000000 0.003143 0.000000 0.043212
#
#
# Mechanical properties :
#
#
# Convention : Reuss Voigt Hill
#
# Bulk Modulus (GPa) = 33.24493 66.83312 50.03902
# Shear Modulus (GPa) = 21.94241 27.97947 24.96094
#
# Velocity S-wave (km/s) = 3.38125 3.81816 3.60633
# Velocity P-wave (km/s) = 5.70663 7.36617 6.58886
#
# Compressibility (1/GPa) = 0.03007977
#
# Stress axis : x y z
#
# Youngs Moduli (GPa) = 23.77820 91.60976 101.09631
#
# Poissons Ratio (x) = 0.77262 0.41827
# Poissons Ratio (y) = 0.20054 0.38622
# Poissons Ratio (z) = 0.09838 0.34998
#
# Static dielectric constant tensor:
#      x y z
#    x 1.743250 0.000000 -0.024180 
#    y 0.000000 1.633150 0.000000 
#    z -0.024180 0.000000 1.704750 
# 
# From -- ./inp_files/47519.got.cif
#   From: 2010.05.17/outbox.cif.g08.bks.cpg/sg11_24_cif.got.tgz:47519.got - 2010.06.03 12:22:45.
