data_PCOD9160091
_publ_section_title
;
Structure prediction by ZEFSAII (Michael W. Deem and Ramdas Pophale) SiO2 
 PCOD9160091
Probable space group: P 21/M
;
_chemical_formula_sum "Si O2"
_cell_formula_units_Z 28
_cell_length_a 22.188087
_cell_length_b 8.528281
_cell_length_c 15.005506
_cell_angle_alpha 90.000000
_cell_angle_beta 29.927577
_cell_angle_gamma 90.000000
_cell_volume 1416.608358
_symmetry_space_group_name_H-M "P 21/M"
_symmetry_group_IT_number 11
_symmetry_cell_setting 'monoclinic'
loop_
_space_group_symop_operation_xyz
x,y,z
-x,1/2+y,-z
-x,-y,-z
x,1/2-y,z
loop_
_atom_site_type_symbol
_atom_site_label
_atom_site_fract_x
_atom_site_fract_y
_atom_site_fract_z
Si Si1 0.947521 0.439014 0.160190
Si Si2 0.386249 0.937707 0.200500
Si Si3 0.329096 0.558852 0.468732
Si Si4 0.121808 0.937522 0.239641
Si Si5 0.842137 0.562771 0.614067
Si Si6 0.829744 0.937985 0.009806
Si Si7 0.385573 0.561604 0.593281
O O1 0.946447 0.250000 0.157967
O O2 0.810940 0.492310 0.350439
O O3 0.000000 0.500000 0.000000
O O4 0.038865 0.486293 0.121227
O O5 0.390428 0.750000 0.195161
O O6 0.388600 0.993576 0.300309
O O7 0.260465 0.989183 0.316310
O O8 0.500000 0.000000 0.000000
O O9 0.329926 0.750000 0.467095
O O10 0.386843 0.509462 0.488374
O O11 0.125142 0.750000 0.243757
O O12 0.980022 0.987050 0.414761
O O13 0.174991 0.012527 0.261105
O O14 0.187414 0.991707 0.066006
O O15 0.835364 0.750000 0.615373
O O16 0.823728 0.750000 0.012740
O O17 0.732692 0.998382 0.205144
O O18 0.500000 0.500000 0.500000
O O19 0.382935 0.750000 0.598161
#
# Coordination Sequence:
#
# PCOD9160091 Si02
#       7
#     4   4   4   4   4   4   4
#     4  10  19  34  58  88 118 151 191 238 296 356
#     4  11  23  41  63  87 118 159 208 256 305 363
#     4   9  20  39  62  85 116 157 195 243 303 355
#     4  10  21  37  61  90 121 159 199 244 299 361
#     4  10  21  39  61  89 122 155 197 251 308 361
#     4  11  22  36  58  90 123 156 196 244 300 361
#     4  11  23  41  61  82 116 158 204 249 297 359
#
# _framework density 19.765519000000001
#
# number of rings (size 3 to 8) (size 9 to 14) (size 15 to 20)
#    0.000    1.714    1.429    3.000    0.000    4.571 
#    0.000    8.571    0.000    0.000    0.000    0.000 
#    0.000    0.000    0.000    0.000    0.000    0.000 
#
# Total GULP energy -156467.716667 kJ/mol
# GULP energy per Si atom -5588.132738 kJ/mol
# Density = 1.972053 g / cm^3
# Si number density = 19.765519 Si / 1000 Ang^3
#
#
#
# Elastic Constant Matrix: (Units=GPa)
#
#
# Indices 1 2 3 4 5 6 
#
# 1 146.5757 18.0771 65.2195 0.0000 19.1544 0.0000
# 2 18.0771 29.2866 13.1924 0.0000 0.9630 0.0000
# 3 65.2195 13.1924 89.6188 0.0000 21.3402 0.0000
# 4 0.0000 0.0000 0.0000 30.6982 0.0000 -1.0574
# 5 19.1544 0.9630 21.3402 0.0000 40.9435 0.0000
# 6 0.0000 0.0000 0.0000 -1.0574 0.0000 29.8175
#
#
#
# Elastic Compliance Matrix: (Units=1/GPa)
#
#
# Indices 1 2 3 4 5 6 
#
# 1 0.010420 -0.003330 -0.006794 0.000000 -0.001255 0.000000
# 2 -0.003330 0.037812 -0.003770 0.000000 0.002633 0.000000
# 3 -0.006794 -0.003770 0.018130 0.000000 -0.006182 0.000000
# 4 0.000000 0.000000 0.000000 0.032615 0.000000 0.001157
# 5 -0.001255 0.002633 -0.006182 0.000000 0.028172 0.000000
# 6 0.000000 0.000000 0.000000 0.001157 0.000000 0.033578
#
#
# Mechanical properties :
#
#
# Convention : Reuss Voigt Hill
#
# Bulk Modulus (GPa) = 25.92399 50.93993 38.43196
# Shear Modulus (GPa) = 24.82947 31.55797 28.19372
#
# Velocity S-wave (km/s) = 3.54814 4.00010 3.78088
# Velocity P-wave (km/s) = 5.47083 6.86750 6.20856
#
# Compressibility (1/GPa) = 0.03857432
#
# Stress axis : x y z
#
# Youngs Moduli (GPa) = 95.96719 26.44640 55.15771
#
# Poissons Ratio (x) = 0.08807 0.37475
# Poissons Ratio (y) = 0.31958 0.20793
# Poissons Ratio (z) = 0.65201 0.09970
#
# Static dielectric constant tensor:
#      x y z
#    x 1.690060 0.000000 0.000060 
#    y 0.000000 1.672670 0.000000 
#    z 0.000060 0.000000 1.671750 
# 
# From -- ./inp_files/54465.got.cif
#   From: 2010.05.17/outbox.cif.g08.bks.cpg/sg11_28_cif.got.tgz:54465.got - 2010.06.03 12:22:45.
