data_PCOD9160599
_publ_section_title
;
Structure prediction by ZEFSAII (Michael W. Deem and Ramdas Pophale) SiO2 
 PCOD9160599
Probable space group: P 21/M
;
_chemical_formula_sum "Si O2"
_cell_formula_units_Z 32
_cell_length_a 22.818243
_cell_length_b 7.666622
_cell_length_c 29.366943
_cell_angle_alpha 90.000000
_cell_angle_beta 162.365875
_cell_angle_gamma 90.000000
_cell_volume 1556.317148
_symmetry_space_group_name_H-M "P 21/M"
_symmetry_group_IT_number 11
_symmetry_cell_setting 'monoclinic'
loop_
_space_group_symop_operation_xyz
x,y,z
-x,1/2+y,-z
-x,-y,-z
x,1/2-y,z
loop_
_atom_site_type_symbol
_atom_site_label
_atom_site_fract_x
_atom_site_fract_y
_atom_site_fract_z
Si Si1 0.887587 0.463806 0.581301
Si Si2 0.060541 0.043591 0.618464
Si Si3 0.443451 0.460878 0.238658
Si Si4 0.517891 0.459944 0.460207
Si Si5 0.099247 0.546124 0.306588
Si Si6 0.298605 0.545303 0.032079
Si Si7 0.774361 0.540613 0.831898
Si Si8 0.698138 0.537755 0.286192
O O1 0.895042 0.250000 0.585883
O O2 0.028960 0.526894 0.645842
O O3 0.667617 0.514770 0.406287
O O4 0.928305 0.525083 0.662726
O O5 0.096190 0.250000 0.648888
O O6 0.224856 0.974725 0.705910
O O7 0.858387 0.019033 0.441709
O O8 0.441405 0.250000 0.237237
O O9 0.341910 0.520317 0.117342
O O10 0.333460 0.523171 0.202413
O O11 0.500000 0.500000 0.500000
O O12 0.520030 0.250000 0.458984
O O13 0.716975 0.527059 0.584772
O O14 0.338819 0.523433 0.296708
O O15 0.144998 0.750000 0.347404
O O16 0.903095 0.533497 0.133035
O O17 0.284580 0.750000 0.012034
O O18 0.486428 0.476042 0.144083
O O19 0.756251 0.750000 0.818822
O O20 0.000000 0.500000 0.000000
O O21 0.698053 0.750000 0.286386
#
# Coordination Sequence:
#
# PCOD9160599 Si02
#       8
#     4   4   4   4   4   4   4   4
#     4   9  16  32  59  83 100 132 184 231 265 307
#     4   9  16  29  54  80 103 137 180 222 266 321
#     4  10  19  36  60  82 105 138 184 231 268 312
#     4  10  22  40  59  80 109 143 178 219 266 320
#     4  10  21  39  59  78 105 143 186 226 264 314
#     4  11  23  36  51  79 117 149 177 220 274 323
#     4  10  22  39  59  84 113 140 174 224 273 319
#     4   9  18  31  47  76 114 143 171 217 274 322
#
# _framework density 20.561361000000002
#
# number of rings (size 3 to 8) (size 9 to 14) (size 15 to 20)
#    0.000    2.250    2.500    0.375    1.750    2.000 
#    0.000    1.875    0.000    0.000    0.000    0.000 
#    0.000    0.000    0.000    0.000    0.000    0.000 
#
# Total GULP energy -178619.481330 kJ/mol
# GULP energy per Si atom -5581.858792 kJ/mol
# Density = 2.051456 g / cm^3
# Si number density = 20.561361 Si / 1000 Ang^3
#
#
#
# Elastic Constant Matrix: (Units=GPa)
#
#
# Indices 1 2 3 4 5 6 
#
# 1 198.2667 4.9070 76.7933 0.0000 -5.8116 0.0000
# 2 4.9070 33.8479 -8.1917 0.0000 2.3166 0.0000
# 3 76.7933 -8.1917 107.2361 0.0000 -8.0664 0.0000
# 4 0.0000 0.0000 0.0000 4.4919 0.0000 1.8546
# 5 -5.8116 2.3166 -8.0664 0.0000 29.6510 0.0000
# 6 0.0000 0.0000 0.0000 1.8546 0.0000 14.7402
#
#
#
# Elastic Compliance Matrix: (Units=1/GPa)
#
#
# Indices 1 2 3 4 5 6 
#
# 1 0.007155 -0.002328 -0.005290 0.000000 0.000145 0.000000
# 2 -0.002328 0.030948 0.003894 0.000000 -0.001815 0.000000
# 3 -0.005290 0.003894 0.013588 0.000000 0.002355 0.000000
# 4 0.000000 0.000000 0.000000 0.234821 0.000000 -0.029545
# 5 0.000145 -0.001815 0.002355 0.000000 0.034537 0.000000
# 6 0.000000 0.000000 0.000000 -0.029545 0.000000 0.071559
#
#
# Mechanical properties :
#
#
# Convention : Reuss Voigt Hill
#
# Bulk Modulus (GPa) = 22.60192 54.04088 38.32140
# Shear Modulus (GPa) = 12.05390 27.49943 19.77667
#
# Velocity S-wave (km/s) = 2.42387 3.66106 3.10471
# Velocity P-wave (km/s) = 4.34164 6.64913 5.61519
#
# Compressibility (1/GPa) = 0.04424403
#
# Stress axis : x y z
#
# Youngs Moduli (GPa) = 139.76852 32.31216 73.59179
#
# Poissons Ratio (x) = 0.07521 0.38934
# Poissons Ratio (y) = 0.32531 -0.28659
# Poissons Ratio (z) = 0.73944 -0.12584
#
# Static dielectric constant tensor:
#      x y z
#    x 1.749510 0.000000 0.015640 
#    y 0.000000 1.783510 0.000000 
#    z 0.015640 0.000000 1.688390 
# 
# From -- ./inp_files/72232.got.cif
#   From: 2010.05.17/outbox.cif.g08.bks.cpg/sg11_37_cif.got.tgz:72232.got - 2010.06.03 12:22:45.
