data_PCOD9160832
_publ_section_title
;
Structure prediction by ZEFSAII (Michael W. Deem and Ramdas Pophale) SiO2 
 PCOD9160832
Probable space group: P 21/M
;
_chemical_formula_sum "Si O2"
_cell_formula_units_Z 18
_cell_length_a 7.371078
_cell_length_b 16.196384
_cell_length_c 7.581882
_cell_angle_alpha 90.000000
_cell_angle_beta 117.648361
_cell_angle_gamma 90.000000
_cell_volume 801.803149
_symmetry_space_group_name_H-M "P 21/M"
_symmetry_group_IT_number 11
_symmetry_cell_setting 'monoclinic'
loop_
_space_group_symop_operation_xyz
x,y,z
-x,1/2+y,-z
-x,-y,-z
x,1/2-y,z
loop_
_atom_site_type_symbol
_atom_site_label
_atom_site_fract_x
_atom_site_fract_y
_atom_site_fract_z
Si Si1 0.079238 0.250000 0.043567
Si Si2 0.503303 0.750000 0.593147
Si Si3 0.987829 0.250000 0.592392
Si Si4 0.586634 0.415681 0.622404
Si Si5 0.274400 0.653666 0.959097
Si Si6 0.099005 0.911746 0.532881
O O1 0.037409 0.250000 0.818350
O O2 0.318775 0.250000 0.184369
O O3 0.957196 0.172673 0.074996
O O4 0.263095 0.750000 0.543396
O O5 0.528563 0.833737 0.495091
O O6 0.055479 0.334323 0.532914
O O7 0.500000 0.500000 0.500000
O O8 0.801737 0.408422 0.616050
O O9 0.616313 0.402445 0.844191
O O10 0.355816 0.750000 0.988248
O O11 0.256264 0.607217 0.764207
O O12 0.000000 0.000000 0.500000
#
# Coordination Sequence:
#
# PCOD9160832 Si02
#       6
#     2   2   2   4   4   4
#     4  10  19  37  75  92 116 186 219 259 341 388
#     4  10  20  39  66  93 127 174 221 261 330 393
#     4  10  19  46  61  95 137 172 216 280 321 393
#     4  11  24  43  66  95 137 171 220 278 327 390
#     4  10  20  41  70  88 129 179 213 263 336 385
#     4  11  23  39  68  97 130 174 221 270 327 390
#
# _framework density 22.449400000000001
#
# number of rings (size 3 to 8) (size 9 to 14) (size 15 to 20)
#    0.667    0.889    6.667    0.000    3.111    3.556 
#    0.000    2.222    0.000    0.000    0.000    0.000 
#    0.000    0.000    0.000    0.000    0.000    0.000 
#
# Total GULP energy -100284.868219 kJ/mol
# GULP energy per Si atom -5571.381568 kJ/mol
# Density = 2.239830 g / cm^3
# Si number density = 22.449400 Si / 1000 Ang^3
#
#
#
# Elastic Constant Matrix: (Units=GPa)
#
#
# Indices 1 2 3 4 5 6 
#
# 1 36.0423 -5.3203 4.2501 0.0000 4.0739 0.0000
# 2 -5.3203 166.0117 24.5408 0.0000 -1.5392 0.0000
# 3 4.2501 24.5408 126.9649 0.0000 -16.7342 0.0000
# 4 0.0000 0.0000 0.0000 36.2657 0.0000 4.7332
# 5 4.0739 -1.5392 -16.7342 0.0000 32.4290 0.0000
# 6 0.0000 0.0000 0.0000 4.7332 0.0000 22.8239
#
#
#
# Elastic Compliance Matrix: (Units=1/GPa)
#
#
# Indices 1 2 3 4 5 6 
#
# 1 0.028624 0.001137 -0.001765 0.000000 -0.004453 0.000000
# 2 0.001137 0.006250 -0.001315 0.000000 -0.000525 0.000000
# 3 -0.001765 -0.001315 0.008810 0.000000 0.004705 0.000000
# 4 0.000000 0.000000 0.000000 0.028341 0.000000 -0.005877
# 5 -0.004453 -0.000525 0.004705 0.000000 0.033799 0.000000
# 6 0.000000 0.000000 0.000000 -0.005877 0.000000 0.045033
#
#
# Mechanical properties :
#
#
# Convention : Reuss Voigt Hill
#
# Bulk Modulus (GPa) = 25.12720 41.77334 33.45027
# Shear Modulus (GPa) = 29.76036 38.67361 34.21699
#
# Velocity S-wave (km/s) = 3.64492 4.15505 3.90831
# Velocity P-wave (km/s) = 5.37876 6.45503 5.94131
#
# Compressibility (1/GPa) = 0.03979751
#
# Stress axis : x y z
#
# Youngs Moduli (GPa) = 34.93529 160.00851 113.51187
#
# Poissons Ratio (x) = -0.18192 0.20033
# Poissons Ratio (y) = -0.03972 0.14929
# Poissons Ratio (z) = 0.06165 0.21045
#
# Static dielectric constant tensor:
#      x y z
#    x 1.907040 0.000000 0.014870 
#    y 0.000000 1.967080 0.000000 
#    z 0.014870 0.000000 1.817760 
# 
# From -- ./inp_files/13366.got.cif
#   From: 2010.05.17/outbox.cif.g08.bks.cpg/sg11_7_cif.got.tgz:13366.got - 2010.06.03 12:22:45.
