data_PCOD9160374
_publ_section_title
;
Structure prediction by ZEFSAII (Michael W. Deem and Ramdas Pophale) SiO2 
 PCOD9160374
Probable space group: P 21/M
;
_chemical_formula_sum "Si O2"
_cell_formula_units_Z 28
_cell_length_a 16.750052
_cell_length_b 16.096315
_cell_length_c 8.676817
_cell_angle_alpha 90.000000
_cell_angle_beta 140.881546
_cell_angle_gamma 90.000000
_cell_volume 1475.982799
_symmetry_space_group_name_H-M "P 21/M"
_symmetry_group_IT_number 11
_symmetry_cell_setting 'monoclinic'
loop_
_space_group_symop_operation_xyz
x,y,z
-x,1/2+y,-z
-x,-y,-z
x,1/2-y,z
loop_
_atom_site_type_symbol
_atom_site_label
_atom_site_fract_x
_atom_site_fract_y
_atom_site_fract_z
Si Si1 0.670620 0.653604 0.978967
Si Si2 0.882485 0.842763 0.564846
Si Si3 0.557111 0.055874 0.220660
Si Si4 0.180077 0.494779 0.305202
Si Si5 0.784450 0.340912 0.474030
Si Si6 0.093336 0.892358 0.642528
Si Si7 0.145029 0.458656 0.904887
O O1 0.637757 0.750000 0.903378
O O2 0.766449 0.650541 0.269215
O O3 0.753404 0.613959 0.966128
O O4 0.550986 0.595962 0.836681
O O5 0.879369 0.750000 0.629446
O O6 0.864899 0.918534 0.656225
O O7 0.010660 0.851634 0.655026
O O8 0.638459 0.131948 0.270746
O O9 0.666026 0.001298 0.466833
O O10 0.500000 0.000000 0.000000
O O11 0.147193 0.584300 0.331120
O O12 0.132377 0.484364 0.061577
O O13 0.808688 0.250000 0.576488
O O14 0.825249 0.341544 0.357042
O O15 0.985895 0.931308 0.369980
O O16 0.180098 0.962106 0.851818
#
# Coordination Sequence:
#
# PCOD9160374 Si02
#       7
#     4   4   4   4   4   4   4
#     4  10  19  35  59  82 112 152 194 234 279 343
#     4  10  20  36  58  87 113 148 193 238 284 335
#     4  10  19  36  60  83 110 149 189 232 288 337
#     4  10  22  36  56  87 116 145 187 243 284 341
#     4  10  21  37  58  87 115 152 192 234 287 346
#     4  10  20  37  61  78 113 154 192 229 283 355
#     4  10  21  37  57  83 112 150 192 233 290 333
#
# _framework density 18.970410999999999
#
# number of rings (size 3 to 8) (size 9 to 14) (size 15 to 20)
#    0.857    1.143    1.429    4.286    0.000    4.000 
#    0.000    2.857    0.000    2.571    0.000    0.000 
#    0.000    0.000    0.000    0.000    0.000    0.000 
#
# Total GULP energy -155988.215858 kJ/mol
# GULP energy per Si atom -5571.007709 kJ/mol
# Density = 1.892723 g / cm^3
# Si number density = 18.970411 Si / 1000 Ang^3
#
#
#
# Elastic Constant Matrix: (Units=GPa)
#
#
# Indices 1 2 3 4 5 6 
#
# 1 85.0967 49.9647 16.3244 0.0000 -4.5243 0.0000
# 2 49.9647 145.0790 23.4968 0.0000 -17.6052 0.0000
# 3 16.3244 23.4968 41.9372 0.0000 1.0778 0.0000
# 4 0.0000 0.0000 0.0000 0.7535 0.0000 -2.3151
# 5 -4.5243 -17.6052 1.0778 0.0000 26.8794 0.0000
# 6 0.0000 0.0000 0.0000 -2.3151 0.0000 13.4896
#
#
#
# Elastic Compliance Matrix: (Units=1/GPa)
#
#
# Indices 1 2 3 4 5 6 
#
# 1 0.015130 -0.004741 -0.003222 0.000000 -0.000429 0.000000
# 2 -0.004741 0.009849 -0.003822 0.000000 0.005806 0.000000
# 3 -0.003222 -0.003822 0.027347 0.000000 -0.004142 0.000000
# 4 0.000000 0.000000 0.000000 2.807731 0.000000 0.481863
# 5 -0.000429 0.005806 -0.004142 0.000000 0.041100 0.000000
# 6 0.000000 0.000000 0.000000 0.481863 0.000000 0.156829
#
#
# Mechanical properties :
#
#
# Convention : Reuss Voigt Hill
#
# Bulk Modulus (GPa) = 34.77516 50.18719 42.48118
# Shear Modulus (GPa) = 1.61752 20.37961 10.99857
#
# Velocity S-wave (km/s) = 0.92440 3.28118 2.41046
# Velocity P-wave (km/s) = 4.41706 6.39280 5.49446
#
# Compressibility (1/GPa) = 0.02875616
#
# Stress axis : x y z
#
# Youngs Moduli (GPa) = 66.09215 101.53099 36.56660
#
# Poissons Ratio (x) = 0.48137 0.11783
# Poissons Ratio (y) = 0.31335 0.13976
# Poissons Ratio (z) = 0.21296 0.38806
#
# Static dielectric constant tensor:
#      x y z
#    x 1.660540 0.000000 0.033760 
#    y 0.000000 1.697500 0.000000 
#    z 0.033760 0.000000 1.651920 
# 
# From -- ./inp_files/22771.got.cif
#   From: 2010.05.17/outbox.cif.g08.bks.cpg/sg11_12_cif.got.tgz:22771.got - 2010.06.03 12:22:45.
