data_PCOD9160493
_publ_section_title
;
Structure prediction by ZEFSAII (Michael W. Deem and Ramdas Pophale) SiO2 
 PCOD9160493
Probable space group: P 21/M
;
_chemical_formula_sum "Si O2"
_cell_formula_units_Z 28
_cell_length_a 11.142757
_cell_length_b 13.650447
_cell_length_c 8.755672
_cell_angle_alpha 90.000000
_cell_angle_beta 112.794723
_cell_angle_gamma 90.000000
_cell_volume 1227.756619
_symmetry_space_group_name_H-M "P 21/M"
_symmetry_group_IT_number 11
_symmetry_cell_setting 'monoclinic'
loop_
_space_group_symop_operation_xyz
x,y,z
-x,1/2+y,-z
-x,-y,-z
x,1/2-y,z
loop_
_atom_site_type_symbol
_atom_site_label
_atom_site_fract_x
_atom_site_fract_y
_atom_site_fract_z
Si Si1 0.508727 0.640021 0.084437
Si Si2 0.966331 0.886272 0.985642
Si Si3 0.475393 0.560375 0.746866
Si Si4 0.195253 0.970448 0.573544
Si Si5 0.243336 0.853192 0.094297
Si Si6 0.058431 0.138917 0.668423
Si Si7 0.274579 0.054591 0.295394
O O1 0.556057 0.750000 0.139869
O O2 0.542316 0.606011 0.930628
O O3 0.542287 0.555416 0.221518
O O4 0.351062 0.640790 0.016840
O O5 0.964598 0.856171 0.161064
O O6 0.095280 0.848215 0.966185
O O7 0.826985 0.874021 0.839182
O O8 0.000000 0.000000 0.000000
O O9 0.326946 0.592280 0.655581
O O10 0.574308 0.580015 0.657440
O O11 0.160156 0.050173 0.686862
O O12 0.223685 0.037679 0.439249
O O13 0.072321 0.900885 0.478378
O O14 0.269681 0.750000 0.191549
O O15 0.261744 0.947761 0.208131
O O16 0.093152 0.250000 0.635376
#
# Coordination Sequence:
#
# PCOD9160493 Si02
#       7
#     4   4   4   4   4   4   4
#     4   9  20  37  59  90 121 159 212 259 307 370
#     4  10  19  35  64  89 120 155 209 259 302 365
#     4  10  22  38  63  88 125 167 204 253 314 371
#     4  11  24  41  66  90 132 165 205 260 311 384
#     4   9  17  32  59  88 116 154 206 257 302 356
#     4  11  25  43  65  93 126 170 210 257 321 372
#     4  10  21  39  61  90 123 162 208 250 310 365
#
# _framework density 22.805821999999999
#
# number of rings (size 3 to 8) (size 9 to 14) (size 15 to 20)
#    0.000    2.000    2.857    0.857    8.000    1.143 
#    0.000    4.286    0.000    3.429    0.000    0.000 
#    0.000    0.000    0.000    0.000    0.000    0.000 
#
# Total GULP energy -156101.799199 kJ/mol
# GULP energy per Si atom -5575.064257 kJ/mol
# Density = 2.275391 g / cm^3
# Si number density = 22.805822 Si / 1000 Ang^3
#
#
#
# Elastic Constant Matrix: (Units=GPa)
#
#
# Indices 1 2 3 4 5 6 
#
# 1 92.3474 -9.0133 -6.2657 0.0000 14.6208 0.0000
# 2 -9.0133 74.7464 -4.4730 0.0000 -4.8623 0.0000
# 3 -6.2657 -4.4730 27.8837 0.0000 2.1734 0.0000
# 4 0.0000 0.0000 0.0000 4.8798 0.0000 -1.4097
# 5 14.6208 -4.8623 2.1734 0.0000 32.5679 0.0000
# 6 0.0000 0.0000 0.0000 -1.4097 0.0000 8.0832
#
#
#
# Elastic Compliance Matrix: (Units=1/GPa)
#
#
# Indices 1 2 3 4 5 6 
#
# 1 0.012042 0.001298 0.003338 0.000000 -0.005435 0.000000
# 2 0.001298 0.013764 0.002397 0.000000 0.001312 0.000000
# 3 0.003338 0.002397 0.037281 0.000000 -0.003628 0.000000
# 4 0.000000 0.000000 0.000000 0.215798 0.000000 0.037634
# 5 -0.005435 0.001312 -0.003628 0.000000 0.033583 0.000000
# 6 0.000000 0.000000 0.000000 0.037634 0.000000 0.130276
#
#
# Mechanical properties :
#
#
# Convention : Reuss Voigt Hill
#
# Bulk Modulus (GPa) = 12.96103 17.27484 15.11793
# Shear Modulus (GPa) = 11.00363 23.42148 17.21256
#
# Velocity S-wave (km/s) = 2.19895 3.20815 2.75024
# Velocity P-wave (km/s) = 3.48464 4.61673 4.09005
#
# Compressibility (1/GPa) = 0.07715439
#
# Stress axis : x y z
#
# Youngs Moduli (GPa) = 83.04008 72.65358 26.82354
#
# Poissons Ratio (x) = -0.09433 -0.08954
# Poissons Ratio (y) = -0.10781 -0.06431
# Poissons Ratio (z) = -0.27718 -0.17418
#
# Static dielectric constant tensor:
#      x y z
#    x 1.911350 0.000000 0.041260 
#    y 0.000000 1.890600 0.000000 
#    z 0.041260 0.000000 1.856120 
# 
# From -- ./inp_files/17812.got.cif
#   From: 2010.05.17/outbox.cif.g08.bks.cpg/sg11_9_cif.got.tgz:17812.got - 2010.06.03 12:22:45.
