data_PCOD9160817
_publ_section_title
;
Structure prediction by ZEFSAII (Michael W. Deem and Ramdas Pophale) SiO2 
 PCOD9160817
Probable space group: P 21/M
;
_chemical_formula_sum "Si O2"
_cell_formula_units_Z 32
_cell_length_a 20.281101
_cell_length_b 10.938426
_cell_length_c 20.386519
_cell_angle_alpha 90.000000
_cell_angle_beta 158.416678
_cell_angle_gamma 90.000000
_cell_volume 1663.660835
_symmetry_space_group_name_H-M "P 21/M"
_symmetry_group_IT_number 11
_symmetry_cell_setting 'monoclinic'
loop_
_space_group_symop_operation_xyz
x,y,z
-x,1/2+y,-z
-x,-y,-z
x,1/2-y,z
loop_
_atom_site_type_symbol
_atom_site_label
_atom_site_fract_x
_atom_site_fract_y
_atom_site_fract_z
Si Si1 0.531101 0.047343 0.602306
Si Si2 0.015643 0.111332 0.787706
Si Si3 0.843417 0.881068 0.687875
Si Si4 0.385292 0.604126 0.721595
Si Si5 0.931939 0.379220 0.972666
Si Si6 0.593627 0.893913 0.788385
Si Si7 0.993366 0.608375 0.376267
Si Si8 0.391965 0.102422 0.940588
O O1 0.351457 0.114030 0.459312
O O2 0.717924 0.118569 0.774976
O O3 0.500000 0.000000 0.500000
O O4 0.561469 0.947115 0.687096
O O5 0.951623 0.250000 0.743971
O O6 0.048249 0.107026 0.740042
O O7 0.202143 0.089787 0.998074
O O8 0.880826 0.003670 0.682116
O O9 0.862957 0.750000 0.670450
O O10 0.986863 0.882656 0.879615
O O11 0.356277 0.750000 0.683697
O O12 0.465997 0.554205 0.728232
O O13 0.527700 0.594652 0.911561
O O14 0.192193 0.552180 0.565114
O O15 0.993779 0.250000 0.998877
O O16 0.000000 0.500000 0.000000
O O17 0.562150 0.750000 0.756333
O O18 0.008205 0.750000 0.410806
O O19 0.817293 0.563498 0.250807
O O20 0.407091 0.250000 0.936331
O O21 0.500000 0.000000 0.000000
#
# Coordination Sequence:
#
# PCOD9160817 Si02
#       8
#     4   4   4   4   4   4   4   4
#     4  12  24  40  59  86 116 156 194 242 302 367
#     4  10  19  37  64  91 115 149 199 250 295 348
#     4  11  24  41  59  83 116 152 189 237 301 363
#     4   9  17  33  57  87 118 151 193 246 293 333
#     4  11  24  43  60  79 108 146 187 235 290 354
#     4  10  20  35  61  92 117 147 200 256 300 350
#     4   9  17  32  58  86 116 153 195 242 289 332
#     4  10  20  35  57  87 124 160 193 235 285 341
#
# _framework density 19.234688999999999
#
# number of rings (size 3 to 8) (size 9 to 14) (size 15 to 20)
#    0.000    1.750    3.750    1.125    0.000    4.000 
#    0.000    0.625    0.000    3.750    0.000    0.000 
#    0.000    0.000    0.000    0.000    0.000    0.000 
#
# Total GULP energy -178325.144655 kJ/mol
# GULP energy per Si atom -5572.660770 kJ/mol
# Density = 1.919091 g / cm^3
# Si number density = 19.234689 Si / 1000 Ang^3
#
#
#
# Elastic Constant Matrix: (Units=GPa)
#
#
# Indices 1 2 3 4 5 6 
#
# 1 60.8190 39.9799 7.6923 0.0000 23.9287 0.0000
# 2 39.9799 102.0082 19.3243 0.0000 28.8855 0.0000
# 3 7.6923 19.3243 82.2143 0.0000 17.1900 0.0000
# 4 0.0000 0.0000 0.0000 0.9358 0.0000 2.2345
# 5 23.9287 28.8855 17.1900 0.0000 30.1088 0.0000
# 6 0.0000 0.0000 0.0000 2.2345 0.0000 17.4072
#
#
#
# Elastic Compliance Matrix: (Units=1/GPa)
#
#
# Indices 1 2 3 4 5 6 
#
# 1 0.026813 -0.006237 0.002455 0.000000 -0.016727 0.000000
# 2 -0.006237 0.014931 -0.001098 0.000000 -0.008740 0.000000
# 3 0.002455 -0.001098 0.014058 0.000000 -0.008923 0.000000
# 4 0.000000 0.000000 0.000000 1.540955 0.000000 -0.197809
# 5 -0.016727 -0.008740 -0.008923 0.000000 0.059986 0.000000
# 6 0.000000 0.000000 0.000000 -0.197809 0.000000 0.082840
#
#
# Mechanical properties :
#
#
# Convention : Reuss Voigt Hill
#
# Bulk Modulus (GPa) = 21.72058 42.11495 31.91777
# Shear Modulus (GPa) = 2.83336 21.56001 12.19669
#
# Velocity S-wave (km/s) = 1.21501 3.35160 2.52086
# Velocity P-wave (km/s) = 3.64489 6.07623 5.01028
#
# Compressibility (1/GPa) = 0.04603928
#
# Stress axis : x y z
#
# Youngs Moduli (GPa) = 37.29540 66.97645 71.13631
#
# Poissons Ratio (x) = 0.41775 -0.17462
# Poissons Ratio (y) = 0.23262 0.07814
# Poissons Ratio (z) = -0.09155 0.07357
#
# Static dielectric constant tensor:
#      x y z
#    x 1.679600 0.000000 0.029570 
#    y 0.000000 1.696040 0.000000 
#    z 0.029570 0.000000 1.707180 
# 
# From -- ./inp_files/66564.got.cif
#   From: 2010.05.17/outbox.cif.g08.bks.cpg/sg11_34_cif.got.tgz:66564.got - 2010.06.03 12:22:45.
