data_PCOD9160938
_publ_section_title
;
Structure prediction by ZEFSAII (Michael W. Deem and Ramdas Pophale) SiO2 
 PCOD9160938
Probable space group: P 21/M
;
_chemical_formula_sum "Si O2"
_cell_formula_units_Z 32
_cell_length_a 11.341754
_cell_length_b 18.625721
_cell_length_c 14.700727
_cell_angle_alpha 90.000000
_cell_angle_beta 150.873184
_cell_angle_gamma 90.000000
_cell_volume 1511.586424
_symmetry_space_group_name_H-M "P 21/M"
_symmetry_group_IT_number 11
_symmetry_cell_setting 'monoclinic'
loop_
_space_group_symop_operation_xyz
x,y,z
-x,1/2+y,-z
-x,-y,-z
x,1/2-y,z
loop_
_atom_site_type_symbol
_atom_site_label
_atom_site_fract_x
_atom_site_fract_y
_atom_site_fract_z
Si Si1 0.386740 0.327855 0.902708
Si Si2 0.130355 0.666471 0.056502
Si Si3 0.338418 0.427255 0.276826
Si Si4 0.671786 0.052834 0.340892
Si Si5 0.245795 0.922168 0.296721
Si Si6 0.150687 0.890305 0.732092
Si Si7 0.901019 0.540823 0.222910
Si Si8 0.366901 0.384233 0.691220
O O1 0.293510 0.250000 0.868476
O O2 0.318764 0.343702 0.752950
O O3 0.284147 0.394327 0.890871
O O4 0.676239 0.331073 0.109000
O O5 0.078373 0.750000 0.007050
O O6 0.169880 0.646725 0.189038
O O7 0.382378 0.644788 0.179112
O O8 0.907883 0.616082 0.876315
O O9 0.454023 0.415352 0.254833
O O10 0.529745 0.407847 0.484900
O O11 0.307376 0.513173 0.268621
O O12 0.758896 0.092799 0.309513
O O13 0.896386 0.051187 0.562291
O O14 0.617148 0.969858 0.279931
O O15 0.032842 0.952877 0.215942
O O16 0.864523 0.874846 0.531449
O O17 0.196053 0.961758 0.822690
#
# Coordination Sequence:
#
# PCOD9160938 Si02
#       8
#     4   4   4   4   4   4   4   4
#     4  12  26  39  59  94 131 172 208 254 326 386
#     4  12  27  42  64  95 133 178 210 254 323 390
#     4  10  23  42  69  98 124 163 221 270 310 373
#     4  10  19  42  72  96 118 160 216 270 320 357
#     4  10  23  42  69  96 126 167 216 270 319 366
#     4  11  23  41  70  95 124 167 215 264 319 373
#     4  10  21  41  67  98 125 159 217 272 312 370
#     4  11  23  44  66  93 129 162 213 270 312 375
#
# _framework density 21.169813000000001
#
# number of rings (size 3 to 8) (size 9 to 14) (size 15 to 20)
#    0.000    1.250    3.750    1.875    5.250    2.000 
#    0.000    1.875    0.000    0.000    0.000    0.000 
#    0.000    0.000    0.000    0.000    0.000    0.000 
#
# Total GULP energy -178933.739397 kJ/mol
# GULP energy per Si atom -5591.679356 kJ/mol
# Density = 2.112163 g / cm^3
# Si number density = 21.169813 Si / 1000 Ang^3
#
#
#
# Elastic Constant Matrix: (Units=GPa)
#
#
# Indices 1 2 3 4 5 6 
#
# 1 72.5779 -1.2495 5.0830 0.0000 16.7748 0.0000
# 2 -1.2495 58.6778 30.9786 0.0000 13.9916 0.0000
# 3 5.0830 30.9786 86.6759 0.0000 17.7359 0.0000
# 4 0.0000 0.0000 0.0000 -9.8737 0.0000 -0.7782
# 5 16.7748 13.9916 17.7359 0.0000 25.6156 0.0000
# 6 0.0000 0.0000 0.0000 -0.7782 0.0000 8.3616
#
#
#
# Elastic Compliance Matrix: (Units=1/GPa)
#
#
# Indices 1 2 3 4 5 6 
#
# 1 0.016836 0.003200 0.000562 0.000000 -0.013163 0.000000
# 2 0.003200 0.022859 -0.006261 0.000000 -0.010247 0.000000
# 3 0.000562 -0.006261 0.015283 0.000000 -0.007530 0.000000
# 4 0.000000 0.000000 0.000000 -0.100541 0.000000 -0.009357
# 5 -0.013163 -0.010247 -0.007530 0.000000 0.058469 0.000000
# 6 0.000000 0.000000 0.000000 -0.009357 0.000000 0.118723
#
#
# Mechanical properties :
#
#
# Convention : Reuss Voigt Hill
#
# Bulk Modulus (GPa) = 20.00741 31.95063 25.97902
# Shear Modulus (GPa) = 32.61861 17.02866 24.82364
#
# Velocity S-wave (km/s) = 3.92957 2.83924 3.42803
# Velocity P-wave (km/s) = 5.48271 5.08662 5.28838
#
# Compressibility (1/GPa) = 0.04998147
#
# Stress axis : x y z
#
# Youngs Moduli (GPa) = 59.39536 43.74622 65.43306
#
# Poissons Ratio (x) = -0.14000 -0.03679
# Poissons Ratio (y) = -0.19008 0.40968
# Poissons Ratio (z) = -0.03340 0.27389
#
# Static dielectric constant tensor:
#      x y z
#    x 1.782870 0.000000 0.022780 
#    y 0.000000 1.721330 0.000000 
#    z 0.022780 0.000000 1.798800 
# 
# From -- ./inp_files/50738.got.cif
#   From: 2010.05.17/outbox.cif.g08.bks.cpg/sg11_26_cif.got.tgz:50738.got - 2010.06.03 12:22:45.
