data_PCOD9160852
_publ_section_title
;
Structure prediction by ZEFSAII (Michael W. Deem and Ramdas Pophale) SiO2 
 PCOD9160852
Probable space group: P 21/M
;
_chemical_formula_sum "Si O2"
_cell_formula_units_Z 20
_cell_length_a 7.239024
_cell_length_b 18.545060
_cell_length_c 7.489318
_cell_angle_alpha 90.000000
_cell_angle_beta 57.068118
_cell_angle_gamma 90.000000
_cell_volume 843.872438
_symmetry_space_group_name_H-M "P 21/M"
_symmetry_group_IT_number 11
_symmetry_cell_setting 'monoclinic'
loop_
_space_group_symop_operation_xyz
x,y,z
-x,1/2+y,-z
-x,-y,-z
x,1/2-y,z
loop_
_atom_site_type_symbol
_atom_site_label
_atom_site_fract_x
_atom_site_fract_y
_atom_site_fract_z
Si Si1 0.195391 0.332230 0.316321
Si Si2 0.679632 0.479708 0.254681
Si Si3 0.296967 0.667559 0.590790
Si Si4 0.521287 0.099538 0.860575
Si Si5 0.989955 0.556983 0.342848
O O1 0.241304 0.250000 0.337596
O O2 0.953067 0.335966 0.353489
O O3 0.175832 0.381493 0.501787
O O4 0.368217 0.361605 0.083091
O O5 0.500000 0.500000 0.500000
O O6 0.693500 0.393405 0.260978
O O7 0.589009 0.523079 0.133758
O O8 0.898934 0.516703 0.218773
O O9 0.340840 0.750000 0.621295
O O10 0.447752 0.643835 0.342083
O O11 0.768302 0.089227 0.801674
O O12 0.000000 0.500000 0.500000
#
# Coordination Sequence:
#
# PCOD9160852 Si02
#       5
#     4   4   4   4   4
#     4  10  21  38  62  90 120 159 198 244 305 354
#     4  10  19  38  61  89 116 156 203 240 298 352
#     4   9  18  35  56  82 119 153 193 244 293 350
#     4  10  21  37  64  86 118 156 202 244 298 353
#     4  11  20  41  60  89 121 156 201 246 294 356
#
# _framework density 23.700265000000002
#
# number of rings (size 3 to 8) (size 9 to 14) (size 15 to 20)
#    0.000    2.000    6.000    0.600    0.000    2.400 
#    0.000    9.000    0.000    8.400    0.000    1.400 
#    0.000    0.000    0.000    0.000    0.000    0.000 
#
# Total GULP energy -112033.973065 kJ/mol
# GULP energy per Si atom -5601.698653 kJ/mol
# Density = 2.364632 g / cm^3
# Si number density = 23.700265 Si / 1000 Ang^3
#
#
#
# Elastic Constant Matrix: (Units=GPa)
#
#
# Indices 1 2 3 4 5 6 
#
# 1 116.3037 46.5719 44.3911 0.0000 2.5012 0.0000
# 2 46.5719 231.9388 83.6292 0.0000 5.6980 0.0000
# 3 44.3911 83.6292 139.7233 0.0000 -3.8322 0.0000
# 4 0.0000 0.0000 0.0000 42.8607 0.0000 -2.0861
# 5 2.5012 5.6980 -3.8322 0.0000 29.2440 0.0000
# 6 0.0000 0.0000 0.0000 -2.0861 0.0000 22.1536
#
#
#
# Elastic Compliance Matrix: (Units=1/GPa)
#
#
# Indices 1 2 3 4 5 6 
#
# 1 0.010028 -0.001059 -0.002579 0.000000 -0.000989 0.000000
# 2 -0.001059 0.005677 -0.003100 0.000000 -0.001422 0.000000
# 3 -0.002579 -0.003100 0.009890 0.000000 0.002121 0.000000
# 4 0.000000 0.000000 0.000000 0.023439 0.000000 0.002207
# 5 -0.000989 -0.001422 0.002121 0.000000 0.034835 0.000000
# 6 0.000000 0.000000 0.000000 0.002207 0.000000 0.045347
#
#
# Mechanical properties :
#
#
# Convention : Reuss Voigt Hill
#
# Bulk Modulus (GPa) = 82.52325 93.01669 87.76997
# Shear Modulus (GPa) = 34.07558 39.74322 36.90940
#
# Velocity S-wave (km/s) = 3.79591 4.09945 3.95060
# Velocity P-wave (km/s) = 7.35575 7.85746 7.61074
#
# Compressibility (1/GPa) = 0.01211780
#
# Stress axis : x y z
#
# Youngs Moduli (GPa) = 99.72045 176.14979 101.11032
#
# Poissons Ratio (x) = 0.18660 0.26077
# Poissons Ratio (y) = 0.10564 0.31347
# Poissons Ratio (z) = 0.25718 0.54612
#
# Static dielectric constant tensor:
#      x y z
#    x 2.011320 0.000000 -0.041450 
#    y 0.000000 1.899470 0.000000 
#    z -0.041450 0.000000 1.946980 
# 
# From -- ./inp_files/13407.got.cif
#   From: 2010.05.17/outbox.cif.g08.bks.cpg/sg11_7_cif.got.tgz:13407.got - 2010.06.03 12:22:45.
