data_PCOD9160595
_publ_section_title
;
Structure prediction by ZEFSAII (Michael W. Deem and Ramdas Pophale) SiO2 
 PCOD9160595
Probable space group: P 21/M
;
_chemical_formula_sum "Si O2"
_cell_formula_units_Z 28
_cell_length_a 12.811896
_cell_length_b 17.821529
_cell_length_c 5.296299
_cell_angle_alpha 90.000000
_cell_angle_beta 105.755038
_cell_angle_gamma 90.000000
_cell_volume 1163.859697
_symmetry_space_group_name_H-M "P 21/M"
_symmetry_group_IT_number 11
_symmetry_cell_setting 'monoclinic'
loop_
_space_group_symop_operation_xyz
x,y,z
-x,1/2+y,-z
-x,-y,-z
x,1/2-y,z
loop_
_atom_site_type_symbol
_atom_site_label
_atom_site_fract_x
_atom_site_fract_y
_atom_site_fract_z
Si Si1 0.468094 0.064277 0.670879
Si Si2 0.196887 0.630574 0.692616
Si Si3 0.646758 0.835608 0.783051
Si Si4 0.421190 0.830949 0.946015
Si Si5 0.258448 0.042345 0.815539
Si Si6 0.904446 0.387025 0.884072
Si Si7 0.919133 0.958918 0.655718
O O1 0.398874 0.132371 0.507269
O O2 0.574311 0.102553 0.851076
O O3 0.382408 0.030739 0.808942
O O4 0.500000 0.000000 0.500000
O O5 0.210515 0.541806 0.766525
O O6 0.113879 0.646654 0.408697
O O7 0.316243 0.659320 0.703570
O O8 0.161389 0.657877 0.946531
O O9 0.687216 0.750000 0.800053
O O10 0.535717 0.835218 0.877404
O O11 0.727084 0.898875 0.947398
O O12 0.414922 0.750000 0.067380
O O13 0.175206 0.080720 0.562763
O O14 0.870377 0.473299 0.791929
O O15 0.016156 0.405326 0.108174
O O16 0.000000 0.000000 0.500000
#
# Coordination Sequence:
#
# PCOD9160595 Si02
#       7
#     4   4   4   4   4   4   4
#     4  11  22  36  60  92 126 157 206 260 313 368
#     4  11  22  37  61  93 125 155 209 257 315 362
#     4  10  22  39  57  84 123 166 211 252 306 379
#     4  10  23  40  58  84 124 171 209 249 312 382
#     4  10  22  35  60  90 120 160 204 259 314 369
#     4  10  21  35  57  93 127 155 196 264 309 370
#     4  10  19  36  59  93 126 157 202 260 323 365
#
# _framework density 24.057880999999998
#
# number of rings (size 3 to 8) (size 9 to 14) (size 15 to 20)
#    0.000    1.714    2.857    2.143   10.000    2.857 
#    0.000    0.000    0.000    1.714    0.000    0.000 
#    0.000    0.000    0.000    0.000    0.000    0.000 
#
# Total GULP energy -156028.201965 kJ/mol
# GULP energy per Si atom -5572.435784 kJ/mol
# Density = 2.400312 g / cm^3
# Si number density = 24.057881 Si / 1000 Ang^3
#
#
#
# Elastic Constant Matrix: (Units=GPa)
#
#
# Indices 1 2 3 4 5 6 
#
# 1 55.2472 12.4518 28.6533 0.0000 11.8116 0.0000
# 2 12.4518 96.2126 25.7360 0.0000 -1.3306 0.0000
# 3 28.6533 25.7360 143.2880 0.0000 14.8569 0.0000
# 4 0.0000 0.0000 0.0000 13.4575 0.0000 -2.3377
# 5 11.8116 -1.3306 14.8569 0.0000 42.9079 0.0000
# 6 0.0000 0.0000 0.0000 -2.3377 0.0000 10.0317
#
#
#
# Elastic Compliance Matrix: (Units=1/GPa)
#
#
# Indices 1 2 3 4 5 6 
#
# 1 0.021323 -0.001908 -0.003430 0.000000 -0.004741 0.000000
# 2 -0.001908 0.011135 -0.001772 0.000000 0.001484 0.000000
# 3 -0.003430 -0.001772 0.008185 0.000000 -0.001945 0.000000
# 4 0.000000 0.000000 0.000000 0.077443 0.000000 0.018047
# 5 -0.004741 0.001484 -0.001945 0.000000 0.025330 0.000000
# 6 0.000000 0.000000 0.000000 0.018047 0.000000 0.103890
#
#
# Mechanical properties :
#
#
# Convention : Reuss Voigt Hill
#
# Bulk Modulus (GPa) = 37.84554 47.60334 42.72444
# Shear Modulus (GPa) = 18.49569 28.47319 23.48444
#
# Velocity S-wave (km/s) = 2.77573 3.44398 3.12775
# Velocity P-wave (km/s) = 5.10275 5.97031 5.55350
#
# Compressibility (1/GPa) = 0.02642319
#
# Stress axis : x y z
#
# Youngs Moduli (GPa) = 46.89793 89.80554 122.17808
#
# Poissons Ratio (x) = 0.17133 0.41903
# Poissons Ratio (y) = 0.08947 0.21655
# Poissons Ratio (z) = 0.16084 0.15917
#
# Static dielectric constant tensor:
#      x y z
#    x 1.995160 0.000000 -0.063550 
#    y 0.000000 1.947310 0.000000 
#    z -0.063550 0.000000 2.014980 
# 
# From -- ./inp_files/6696.got.cif
#   From: 2010.05.17/outbox.cif.g08.bks.cpg/sg11_4_cif.got.tgz:6696.got - 2010.06.03 12:22:45.
