data_PCOD9160690
_publ_section_title
;
Structure prediction by ZEFSAII (Michael W. Deem and Ramdas Pophale) SiO2 
 PCOD9160690
Probable space group: P 21/M
;
_chemical_formula_sum "Si O2"
_cell_formula_units_Z 14
_cell_length_a 12.789348
_cell_length_b 11.466923
_cell_length_c 7.359778
_cell_angle_alpha 90.000000
_cell_angle_beta 28.850911
_cell_angle_gamma 90.000000
_cell_volume 520.818329
_symmetry_space_group_name_H-M "P 21/M"
_symmetry_group_IT_number 11
_symmetry_cell_setting 'monoclinic'
loop_
_space_group_symop_operation_xyz
x,y,z
-x,1/2+y,-z
-x,-y,-z
x,1/2-y,z
loop_
_atom_site_type_symbol
_atom_site_label
_atom_site_fract_x
_atom_site_fract_y
_atom_site_fract_z
Si Si1 0.203558 0.010033 0.431103
Si Si2 0.217495 0.750000 0.862473
Si Si3 0.195975 0.250000 0.290403
Si Si4 0.768515 0.250000 0.746250
Si Si5 0.712896 0.493258 0.297424
O O1 0.281231 0.879404 0.256261
O O2 0.268607 0.052070 0.535568
O O3 0.279876 0.116637 0.183608
O O4 0.939147 0.997423 0.840474
O O5 0.280825 0.859220 0.654269
O O6 0.318296 0.750000 0.912005
O O7 0.965981 0.750000 0.289648
O O8 0.031950 0.250000 0.369619
O O9 0.500000 0.500000 0.500000
#
# Coordination Sequence:
#
# PCOD9160690 Si02
#       5
#     4   2   2   2   4
#     4  10  20  37  62  84 109 157 185 233 289 331
#     4   8  19  35  56  82 117 148 179 247 282 319
#     4   8  18  33  58  83 111 142 190 231 276 330
#     4  10  19  36  64  81 118 150 191 228 292 337
#     4  10  21  36  59  83 116 146 196 232 280 336
#
# _framework density 26.880773999999999
#
# number of rings (size 3 to 8) (size 9 to 14) (size 15 to 20)
#    0.857    1.714    0.000    1.714    0.000    5.714 
#    0.000    1.429    6.286    0.000    0.000    0.000 
#    0.000    0.000    0.000    0.000    0.000    0.000 
#
# Total GULP energy -77947.647067 kJ/mol
# GULP energy per Si atom -5567.689076 kJ/mol
# Density = 2.681959 g / cm^3
# Si number density = 26.880774 Si / 1000 Ang^3
#
#
#
# Elastic Constant Matrix: (Units=GPa)
#
#
# Indices 1 2 3 4 5 6 
#
# 1 108.2092 18.9827 34.6233 0.0000 -17.8404 0.0000
# 2 18.9827 181.4358 26.9698 0.0000 8.7630 0.0000
# 3 34.6233 26.9698 142.8360 0.0000 -18.9569 0.0000
# 4 0.0000 0.0000 0.0000 -30.7300 0.0000 36.2544
# 5 -17.8404 8.7630 -18.9569 0.0000 43.2025 0.0000
# 6 0.0000 0.0000 0.0000 36.2544 0.0000 26.7245
#
#
#
# Elastic Compliance Matrix: (Units=1/GPa)
#
#
# Indices 1 2 3 4 5 6 
#
# 1 0.010646 -0.001015 -0.001888 0.000000 0.003774 0.000000
# 2 -0.001015 0.005891 -0.001147 0.000000 -0.002118 0.000000
# 3 -0.001888 -0.001147 0.008073 0.000000 0.002995 0.000000
# 4 0.000000 0.000000 0.000000 -0.012514 0.000000 0.016976
# 5 0.003774 -0.002118 0.002995 0.000000 0.026449 0.000000
# 6 0.000000 0.000000 0.000000 0.016976 0.000000 0.014389
#
#
# Mechanical properties :
#
#
# Convention : Reuss Voigt Hill
#
# Bulk Modulus (GPa) = 60.57623 65.95918 63.26771
# Shear Modulus (GPa) = 75.14563 31.29974 53.22269
#
# Velocity S-wave (km/s) = 5.29300 3.41602 4.45449
# Velocity P-wave (km/s) = 7.74200 6.33639 7.07419
#
# Compressibility (1/GPa) = 0.01650813
#
# Stress axis : x y z
#
# Youngs Moduli (GPa) = 93.93430 169.76143 123.87258
#
# Poissons Ratio (x) = 0.17238 0.23387
# Poissons Ratio (y) = 0.09538 0.14210
# Poissons Ratio (z) = 0.17734 0.19474
#
# Static dielectric constant tensor:
#      x y z
#    x 2.248380 0.000000 -0.104460 
#    y 0.000000 2.180030 0.000000 
#    z -0.104460 0.000000 2.126670 
# 
# From -- ./inp_files/11625.got.cif
#   From: 2010.05.17/outbox.cif.g08.bks.cpg/sg11_6_cif.got.tgz:11625.got - 2010.06.03 12:22:45.
