data_PCOD9160579
_publ_section_title
;
Structure prediction by ZEFSAII (Michael W. Deem and Ramdas Pophale) SiO2 
 PCOD9160579
Probable space group: P 21/M
;
_chemical_formula_sum "Si O2"
_cell_formula_units_Z 28
_cell_length_a 29.565808
_cell_length_b 8.404711
_cell_length_c 9.197515
_cell_angle_alpha 90.000000
_cell_angle_beta 38.943729
_cell_angle_gamma 90.000000
_cell_volume 1436.572669
_symmetry_space_group_name_H-M "P 21/M"
_symmetry_group_IT_number 11
_symmetry_cell_setting 'monoclinic'
loop_
_space_group_symop_operation_xyz
x,y,z
-x,1/2+y,-z
-x,-y,-z
x,1/2-y,z
loop_
_atom_site_type_symbol
_atom_site_label
_atom_site_fract_x
_atom_site_fract_y
_atom_site_fract_z
Si Si1 0.070080 0.559107 0.909768
Si Si2 0.356896 0.555808 0.523904
Si Si3 0.929863 0.939237 0.760153
Si Si4 0.500224 0.940754 0.334344
Si Si5 0.641728 0.057365 0.815094
Si Si6 0.786504 0.055782 0.617630
Si Si7 0.211805 0.942783 0.050705
O O1 0.070188 0.750000 0.909050
O O2 0.142355 0.504015 0.646324
O O3 0.069638 0.501182 0.076261
O O4 0.000000 0.500000 0.000000
O O5 0.356806 0.750000 0.524355
O O6 0.428385 0.503593 0.429894
O O7 0.357597 0.504442 0.354401
O O8 0.284495 0.505048 0.787332
O O9 0.931127 0.750000 0.758663
O O10 0.858467 0.998109 0.856860
O O11 0.000000 0.000000 0.500000
O O12 0.499545 0.750000 0.336543
O O13 0.500000 0.000000 0.500000
O O14 0.570930 0.999324 0.074288
O O15 0.641368 0.250000 0.816907
O O16 0.713862 0.004438 0.718030
O O17 0.786356 0.250000 0.617730
O O18 0.787983 0.004964 0.781799
O O19 0.210706 0.750000 0.052119
#
# Coordination Sequence:
#
# PCOD9160579 Si02
#       7
#     4   4   4   4   4   4   4
#     4  11  22  39  62  90 121 157 197 241 289 345
#     4   9  19  35  59  85 114 151 192 233 286 350
#     4  12  25  41  60  86 117 154 196 243 295 351
#     4  11  22  37  56  83 114 150 191 236 286 342
#     4  10  19  36  59  84 112 149 191 234 282 341
#     4   9  19  35  60  87 114 149 190 230 283 348
#     4  10  19  37  62  87 113 148 191 237 285 345
#
# _framework density 19.490834
#
# number of rings (size 3 to 8) (size 9 to 14) (size 15 to 20)
#    0.000    1.714    0.000    5.143    0.000    5.714 
#    0.000    8.571    0.000    0.000    0.000    0.000 
#    0.000    0.000    0.000    0.000    0.000    0.000 
#
# Total GULP energy -156544.665183 kJ/mol
# GULP energy per Si atom -5590.880899 kJ/mol
# Density = 1.944647 g / cm^3
# Si number density = 19.490834 Si / 1000 Ang^3
#
#
#
# Elastic Constant Matrix: (Units=GPa)
#
#
# Indices 1 2 3 4 5 6 
#
# 1 249.9277 36.8970 155.2037 0.0000 0.1621 0.0000
# 2 36.8970 38.9306 36.6939 0.0000 0.5648 0.0000
# 3 155.2037 36.6939 249.2662 0.0000 0.3384 0.0000
# 4 0.0000 0.0000 0.0000 30.2787 0.0000 -3.2279
# 5 0.1621 0.5648 0.3384 0.0000 47.0150 0.0000
# 6 0.0000 0.0000 0.0000 -3.2279 0.0000 29.0610
#
#
#
# Elastic Compliance Matrix: (Units=1/GPa)
#
#
# Indices 1 2 3 4 5 6 
#
# 1 0.006784 -0.002843 -0.003806 0.000000 0.000038 0.000000
# 2 -0.002843 0.031022 -0.002796 0.000000 -0.000343 0.000000
# 3 -0.003806 -0.002796 0.006793 0.000000 -0.000002 0.000000
# 4 0.000000 0.000000 0.000000 0.033422 0.000000 0.003712
# 5 0.000038 -0.000343 -0.000002 0.000000 0.021274 0.000000
# 6 0.000000 0.000000 0.000000 0.003712 0.000000 0.034823
#
#
# Mechanical properties :
#
#
# Convention : Reuss Voigt Hill
#
# Bulk Modulus (GPa) = 38.89655 110.63486 74.76570
# Shear Modulus (GPa) = 30.94508 41.89294 36.41901
#
# Velocity S-wave (km/s) = 3.98888 4.64116 4.32733
# Velocity P-wave (km/s) = 6.41986 9.25236 7.96306
#
# Compressibility (1/GPa) = 0.02570922
#
# Stress axis : x y z
#
# Youngs Moduli (GPa) = 147.40246 32.23556 147.21354
#
# Poissons Ratio (x) = 0.09166 0.56023
# Poissons Ratio (y) = 0.41912 0.41157
# Poissons Ratio (z) = 0.56095 0.09012
#
# Static dielectric constant tensor:
#      x y z
#    x 1.647700 0.000000 -0.001290 
#    y 0.000000 1.681720 0.000000 
#    z -0.001290 0.000000 1.646190 
# 
# From -- ./inp_files/28354.got.cif
#   From: 2010.05.17/outbox.cif.g08.bks.cpg/sg11_15_cif.got.tgz:28354.got - 2010.06.03 12:22:45.
