data_PCOD9160709
_publ_section_title
;
Structure prediction by ZEFSAII (Michael W. Deem and Ramdas Pophale) SiO2 
 PCOD9160709
Probable space group: P 21/M
;
_chemical_formula_sum "Si O2"
_cell_formula_units_Z 32
_cell_length_a 21.835811
_cell_length_b 14.093605
_cell_length_c 15.507044
_cell_angle_alpha 90.000000
_cell_angle_beta 160.328902
_cell_angle_gamma 90.000000
_cell_volume 1606.426094
_symmetry_space_group_name_H-M "P 21/M"
_symmetry_group_IT_number 11
_symmetry_cell_setting 'monoclinic'
loop_
_space_group_symop_operation_xyz
x,y,z
-x,1/2+y,-z
-x,-y,-z
x,1/2-y,z
loop_
_atom_site_type_symbol
_atom_site_label
_atom_site_fract_x
_atom_site_fract_y
_atom_site_fract_z
Si Si1 0.815947 0.856263 0.612084
Si Si2 0.283627 0.361200 0.913847
Si Si3 0.126876 0.639328 0.678373
Si Si4 0.010167 0.562780 0.710126
Si Si5 0.200809 0.645660 0.208251
Si Si6 0.630063 0.065169 0.728930
Si Si7 0.322377 0.497767 0.820585
Si Si8 0.431775 0.003300 0.621919
O O1 0.741057 0.750000 0.522655
O O2 0.670981 0.938042 0.440439
O O3 0.906791 0.866873 0.638417
O O4 0.987521 0.867761 0.904841
O O5 0.319292 0.250000 0.975666
O O6 0.323079 0.395803 0.868842
O O7 0.065155 0.377265 0.627070
O O8 0.410235 0.430011 0.138704
O O9 0.169784 0.750000 0.730985
O O10 0.087788 0.609994 0.725645
O O11 0.282005 0.575224 0.841025
O O12 0.852020 0.492876 0.471915
O O13 0.179554 0.519955 0.986763
O O14 0.227760 0.750000 0.283021
O O15 0.303113 0.643130 0.250632
O O16 0.285533 0.562885 0.378339
O O17 0.517537 0.078751 0.667688
O O18 0.500000 0.000000 0.500000
O O19 0.500000 0.500000 0.000000
#
# Coordination Sequence:
#
# PCOD9160709 Si02
#       8
#     4   4   4   4   4   4   4   4
#     4  10  21  35  53  81 114 149 192 242 296 349
#     4  10  21  37  57  81 111 150 194 237 286 346
#     4  10  21  38  61  86 114 151 191 233 284 344
#     4  10  19  37  58  78 112 153 188 234 287 339
#     4   9  19  35  54  78 111 152 193 233 287 355
#     4   9  19  33  54  80 108 142 187 234 281 338
#     4  11  22  37  57  85 117 148 187 236 285 341
#     4  11  19  34  56  83 112 147 191 243 297 348
#
# _framework density 19.919996000000001
#
# number of rings (size 3 to 8) (size 9 to 14) (size 15 to 20)
#    0.000    2.000    0.000    4.875    0.000    2.000 
#    0.000    4.375    0.000    0.750    0.000   19.250 
#    0.000    0.000    0.000    0.000    0.000    0.000 
#
# Total GULP energy -178284.535716 kJ/mol
# GULP energy per Si atom -5571.391741 kJ/mol
# Density = 1.987466 g / cm^3
# Si number density = 19.919996 Si / 1000 Ang^3
#
#
#
# Elastic Constant Matrix: (Units=GPa)
#
#
# Indices 1 2 3 4 5 6 
#
# 1 103.0819 49.6014 39.4369 0.0000 17.7074 0.0000
# 2 49.6014 102.5797 52.1895 0.0000 14.6261 0.0000
# 3 39.4369 52.1895 92.1799 0.0000 -6.0023 0.0000
# 4 0.0000 0.0000 0.0000 19.5713 0.0000 -1.1835
# 5 17.7074 14.6261 -6.0023 0.0000 31.8025 0.0000
# 6 0.0000 0.0000 0.0000 -1.1835 0.0000 15.8030
#
#
#
# Elastic Compliance Matrix: (Units=1/GPa)
#
#
# Indices 1 2 3 4 5 6 
#
# 1 0.014446 -0.003604 -0.004613 0.000000 -0.007257 0.000000
# 2 -0.003604 0.016851 -0.008477 0.000000 -0.007343 0.000000
# 3 -0.004613 -0.008477 0.018267 0.000000 0.009914 0.000000
# 4 0.000000 0.000000 0.000000 0.051328 0.000000 0.003844
# 5 -0.007257 -0.007343 0.009914 0.000000 0.040733 0.000000
# 6 0.000000 0.000000 0.000000 0.003844 0.000000 0.063567
#
#
# Mechanical properties :
#
#
# Convention : Reuss Voigt Hill
#
# Bulk Modulus (GPa) = 61.81516 64.47747 63.14632
# Shear Modulus (GPa) = 20.49427 23.87626 22.18526
#
# Velocity S-wave (km/s) = 3.21102 3.46585 3.34086
# Velocity P-wave (km/s) = 6.69676 6.96093 6.83012
#
# Compressibility (1/GPa) = 0.01617726
#
# Stress axis : x y z
#
# Youngs Moduli (GPa) = 69.22107 59.34407 54.74480
#
# Poissons Ratio (x) = 0.21388 0.25252
# Poissons Ratio (y) = 0.24947 0.46406
# Poissons Ratio (z) = 0.31929 0.50304
#
# Static dielectric constant tensor:
#      x y z
#    x 1.727850 0.000000 -0.024350 
#    y 0.000000 1.681480 0.000000 
#    z -0.024350 0.000000 1.754420 
# 
# From -- ./inp_files/55053.got.cif
#   From: 2010.05.17/outbox.cif.g08.bks.cpg/sg11_28_cif.got.tgz:55053.got - 2010.06.03 12:22:45.
