data_PCOD9160508
_publ_section_title
;
Structure prediction by ZEFSAII (Michael W. Deem and Ramdas Pophale) SiO2 
 PCOD9160508
Probable space group: P 21/M
;
_chemical_formula_sum "Si O2"
_cell_formula_units_Z 28
_cell_length_a 11.180028
_cell_length_b 13.847596
_cell_length_c 14.212648
_cell_angle_alpha 90.000000
_cell_angle_beta 33.566011
_cell_angle_gamma 90.000000
_cell_volume 1216.569100
_symmetry_space_group_name_H-M "P 21/M"
_symmetry_group_IT_number 11
_symmetry_cell_setting 'monoclinic'
loop_
_space_group_symop_operation_xyz
x,y,z
-x,1/2+y,-z
-x,-y,-z
x,1/2-y,z
loop_
_atom_site_type_symbol
_atom_site_label
_atom_site_fract_x
_atom_site_fract_y
_atom_site_fract_z
Si Si1 0.285234 0.574840 0.792569
Si Si2 0.371889 0.140823 0.919496
Si Si3 0.836934 0.434876 0.918993
Si Si4 0.797565 0.949445 0.445378
Si Si5 0.249718 0.646975 0.617290
Si Si6 0.201087 0.863692 0.251816
Si Si7 0.721162 0.855616 0.238599
O O1 0.219615 0.602656 0.940928
O O2 0.548017 0.575330 0.620840
O O3 0.196687 0.635420 0.762653
O O4 0.202210 0.467138 0.820587
O O5 0.322259 0.250000 0.989190
O O6 0.610624 0.112632 0.798945
O O7 0.370778 0.149736 0.808491
O O8 0.217754 0.049812 0.044965
O O9 0.714274 0.391135 0.908915
O O10 0.082409 0.406006 0.726834
O O11 0.814409 0.061886 0.410050
O O12 0.969721 0.917562 0.411151
O O13 0.174033 0.750000 0.632486
O O14 0.510655 0.643227 0.442845
O O15 0.159228 0.750000 0.283464
O O16 0.832304 0.750000 0.178613
#
# Coordination Sequence:
#
# PCOD9160508 Si02
#       7
#     4   4   4   4   4   4   4
#     4  10  19  36  56  79 106 143 176 220 272 320
#     4   9  16  31  57  81 107 147 178 210 268 317
#     4   9  20  34  57  81 111 137 177 222 262 315
#     4   9  20  35  55  80 109 137 182 221 263 314
#     4  10  20  35  54  77 109 142 178 226 269 315
#     4   9  19  35  54  78 111 143 177 221 265 316
#     4   8  15  29  51  78 104 133 173 213 253 309
#
# _framework density 23.015544999999999
#
# number of rings (size 3 to 8) (size 9 to 14) (size 15 to 20)
#    0.857    2.000    0.000    2.143    0.000    2.286 
#    0.000    7.143    0.000    1.714    0.000    0.000 
#    0.000    0.000    0.000    0.000    0.000    0.000 
#
# Total GULP energy -155939.301521 kJ/mol
# GULP energy per Si atom -5569.260769 kJ/mol
# Density = 2.296316 g / cm^3
# Si number density = 23.015545 Si / 1000 Ang^3
#
#
#
# Elastic Constant Matrix: (Units=GPa)
#
#
# Indices 1 2 3 4 5 6 
#
# 1 33.1560 11.9721 20.1595 0.0000 -25.1523 0.0000
# 2 11.9721 85.9773 16.0243 0.0000 -10.8440 0.0000
# 3 20.1595 16.0243 96.0516 0.0000 -20.8642 0.0000
# 4 0.0000 0.0000 0.0000 21.8179 0.0000 -3.9444
# 5 -25.1523 -10.8440 -20.8642 0.0000 29.1284 0.0000
# 6 0.0000 0.0000 0.0000 -3.9444 0.0000 34.8443
#
#
#
# Elastic Compliance Matrix: (Units=1/GPa)
#
#
# Indices 1 2 3 4 5 6 
#
# 1 0.088418 -0.002606 -0.002071 0.000000 0.073895 0.000000
# 2 -0.002606 0.012407 -0.001194 0.000000 0.001514 0.000000
# 3 -0.002071 -0.001194 0.012506 0.000000 0.006725 0.000000
# 4 0.000000 0.000000 0.000000 0.046791 0.000000 0.005297
# 5 0.073895 0.001514 0.006725 0.000000 0.103519 0.000000
# 6 0.000000 0.000000 0.000000 0.005297 0.000000 0.029299
#
#
# Mechanical properties :
#
#
# Convention : Reuss Voigt Hill
#
# Bulk Modulus (GPa) = 9.84366 34.61074 22.22720
# Shear Modulus (GPa) = 14.76909 28.29339 21.53124
#
# Velocity S-wave (km/s) = 2.53593 3.50996 3.06193
# Velocity P-wave (km/s) = 3.58620 5.61223 4.70945
#
# Compressibility (1/GPa) = 0.10158827
#
# Stress axis : x y z
#
# Youngs Moduli (GPa) = 11.30995 80.59775 79.96340
#
# Poissons Ratio (x) = 0.21002 0.16562
# Poissons Ratio (y) = 0.02947 0.09549
# Poissons Ratio (z) = 0.02343 0.09625
#
# Static dielectric constant tensor:
#      x y z
#    x 1.946430 0.000000 -0.032870 
#    y 0.000000 1.924660 0.000000 
#    z -0.032870 0.000000 1.937560 
# 
# From -- ./inp_files/50231.got.cif
#   From: 2010.05.17/outbox.cif.g08.bks.cpg/sg11_26_cif.got.tgz:50231.got - 2010.06.03 12:22:45.
