data_PCOD9160349
_publ_section_title
;
Structure prediction by ZEFSAII (Michael W. Deem and Ramdas Pophale) SiO2 
 PCOD9160349
Probable space group: P 21/M
;
_chemical_formula_sum "Si O2"
_cell_formula_units_Z 32
_cell_length_a 30.894556
_cell_length_b 8.034858
_cell_length_c 12.907260
_cell_angle_alpha 90.000000
_cell_angle_beta 151.633587
_cell_angle_gamma 90.000000
_cell_volume 1522.253562
_symmetry_space_group_name_H-M "P 21/M"
_symmetry_group_IT_number 11
_symmetry_cell_setting 'monoclinic'
loop_
_space_group_symop_operation_xyz
x,y,z
-x,1/2+y,-z
-x,-y,-z
x,1/2-y,z
loop_
_atom_site_type_symbol
_atom_site_label
_atom_site_fract_x
_atom_site_fract_y
_atom_site_fract_z
Si Si1 0.037396 0.950754 0.466626
Si Si2 0.129381 0.453276 0.023739
Si Si3 0.755903 0.045153 0.138975
Si Si4 0.673733 0.552722 0.607587
Si Si5 0.269745 0.946149 0.683999
Si Si6 0.595668 0.053878 0.653543
Si Si7 0.103999 0.050909 0.205587
Si Si8 0.603992 0.449597 0.235292
O O1 0.039414 0.750000 0.464456
O O2 0.140622 0.009882 0.665758
O O3 0.000000 0.000000 0.500000
O O4 0.963205 0.010461 0.226119
O O5 0.128652 0.250000 0.020685
O O6 0.221970 0.510805 0.162950
O O7 0.133842 0.503295 0.153215
O O8 0.757415 0.250000 0.142074
O O9 0.725389 0.988190 0.189193
O O10 0.682599 0.985550 0.900438
O O11 0.676235 0.750000 0.624711
O O12 0.609038 0.486265 0.561203
O O13 0.639779 0.513314 0.420807
O O14 0.289867 0.750000 0.733493
O O15 0.336209 0.016313 0.735348
O O16 0.168165 0.970083 0.426541
O O17 0.599713 0.250000 0.674007
O O18 0.500000 0.000000 0.500000
O O19 0.113013 0.250000 0.231423
O O20 0.000000 0.000000 0.000000
O O21 0.611552 0.250000 0.252776
O O22 0.500000 0.500000 0.000000
#
# Coordination Sequence:
#
# PCOD9160349 Si02
#       8
#     4   4   4   4   4   4   4   4
#     4  10  19  35  58  84 114 153 197 244 296 357
#     4   9  19  35  58  84 116 156 196 239 300 363
#     4   9  20  39  62  86 121 162 201 247 307 368
#     4  11  22  41  65  90 125 164 204 257 312 371
#     4  10  21  40  63  89 121 162 204 251 309 370
#     4  11  24  42  64  92 121 161 210 260 315 373
#     4  11  21  36  57  86 121 162 204 249 300 361
#     4  11  24  40  64  95 126 162 207 259 313 377
#
# _framework density 21.021467000000001
#
# number of rings (size 3 to 8) (size 9 to 14) (size 15 to 20)
#    0.000    1.750    1.250    3.000    1.750    2.500 
#    0.000    5.625    0.000    0.000    0.000    0.000 
#    0.000    0.000    0.000    0.000    0.000    0.000 
#
# Total GULP energy -178830.258450 kJ/mol
# GULP energy per Si atom -5588.445577 kJ/mol
# Density = 2.097362 g / cm^3
# Si number density = 21.021467 Si / 1000 Ang^3
#
#
#
# Elastic Constant Matrix: (Units=GPa)
#
#
# Indices 1 2 3 4 5 6 
#
# 1 151.1397 6.0598 45.2583 0.0000 10.8489 0.0000
# 2 6.0598 16.5591 -2.5934 0.0000 2.8302 0.0000
# 3 45.2583 -2.5934 103.5708 0.0000 12.5871 0.0000
# 4 0.0000 0.0000 0.0000 22.8308 0.0000 0.4718
# 5 10.8489 2.8302 12.5871 0.0000 40.4792 0.0000
# 6 0.0000 0.0000 0.0000 0.4718 0.0000 23.5559
#
#
#
# Elastic Compliance Matrix: (Units=1/GPa)
#
#
# Indices 1 2 3 4 5 6 
#
# 1 0.007824 -0.003257 -0.003402 0.000000 -0.000811 0.000000
# 2 -0.003257 0.062932 0.003562 0.000000 -0.004635 0.000000
# 3 -0.003402 0.003562 0.011588 0.000000 -0.002941 0.000000
# 4 0.000000 0.000000 0.000000 0.043819 0.000000 -0.000878
# 5 -0.000811 -0.004635 -0.002941 0.000000 0.026160 0.000000
# 6 0.000000 0.000000 0.000000 -0.000878 0.000000 0.042470
#
#
# Mechanical properties :
#
#
# Convention : Reuss Voigt Hill
#
# Bulk Modulus (GPa) = 13.13187 40.96879 27.05033
# Shear Modulus (GPa) = 22.08779 32.20950 27.14865
#
# Velocity S-wave (km/s) = 3.24501 3.91860 3.59760
# Velocity P-wave (km/s) = 4.50561 6.32497 5.49117
#
# Compressibility (1/GPa) = 0.07615063
#
# Stress axis : x y z
#
# Youngs Moduli (GPa) = 127.81347 15.89024 86.29343
#
# Poissons Ratio (x) = 0.05176 0.29356
# Poissons Ratio (y) = 0.41632 -0.30741
# Poissons Ratio (z) = 0.43480 -0.05661
#
# Static dielectric constant tensor:
#      x y z
#    x 1.755020 0.000000 0.015340 
#    y 0.000000 1.753460 0.000000 
#    z 0.015340 0.000000 1.756470 
# 
# From -- ./inp_files/45248.got.cif
#   From: 2010.05.17/outbox.cif.g08.bks.cpg/sg11_23_cif.got.tgz:45248.got - 2010.06.03 12:22:45.
