data_PCOD9160603
_publ_section_title
;
Structure prediction by ZEFSAII (Michael W. Deem and Ramdas Pophale) SiO2 
 PCOD9160603
Probable space group: P 21/M
;
_chemical_formula_sum "Si O2"
_cell_formula_units_Z 14
_cell_length_a 8.036142
_cell_length_b 10.560041
_cell_length_c 6.873193
_cell_angle_alpha 90.000000
_cell_angle_beta 70.928360
_cell_angle_gamma 90.000000
_cell_volume 551.257427
_symmetry_space_group_name_H-M "P 21/M"
_symmetry_group_IT_number 11
_symmetry_cell_setting 'monoclinic'
loop_
_space_group_symop_operation_xyz
x,y,z
-x,1/2+y,-z
-x,-y,-z
x,1/2-y,z
loop_
_atom_site_type_symbol
_atom_site_label
_atom_site_fract_x
_atom_site_fract_y
_atom_site_fract_z
Si Si1 0.134327 0.750000 0.242250
Si Si2 0.493756 0.250000 0.655372
Si Si3 0.995832 0.017183 0.233276
Si Si4 0.241568 0.750000 0.740026
Si Si5 0.366724 0.111069 0.019707
O O1 0.317054 0.750000 0.296673
O O2 0.017710 0.622613 0.316310
O O3 0.194324 0.750000 0.988739
O O4 0.558235 0.250000 0.412067
O O5 0.375289 0.133516 0.780684
O O6 0.846139 0.122355 0.316419
O O7 0.185418 0.081274 0.191114
O O8 0.000000 0.000000 0.000000
O O9 0.420491 0.250000 0.066438
O O10 0.500000 0.000000 0.000000
#
# Coordination Sequence:
#
# PCOD9160603 Si02
#       5
#     2   2   4   2   4
#     4  10  20  36  56  86 116 152 192 236 292 346
#     4  10  21  35  63  83 116 148 197 243 291 339
#     4  10  19  36  60  82 117 157 191 238 295 344
#     4  10  21  37  59  87 114 152 197 245 285 343
#     4  10  19  36  60  85 114 160 191 234 299 349
#
# _framework density 25.396481999999999
#
# number of rings (size 3 to 8) (size 9 to 14) (size 15 to 20)
#    0.857    1.143    4.286    0.000    0.000    1.143 
#    0.000    5.714    0.000    3.429    0.000    0.000 
#    0.000    0.000    0.000    0.000    0.000    0.000 
#
# Total GULP energy -78022.060121 kJ/mol
# GULP energy per Si atom -5573.004294 kJ/mol
# Density = 2.533868 g / cm^3
# Si number density = 25.396482 Si / 1000 Ang^3
#
#
#
# Elastic Constant Matrix: (Units=GPa)
#
#
# Indices 1 2 3 4 5 6 
#
# 1 35.7133 20.2493 3.5000 0.0000 6.8623 0.0000
# 2 20.2493 188.4061 19.8491 0.0000 -18.1442 0.0000
# 3 3.5000 19.8491 127.4928 0.0000 -9.6312 0.0000
# 4 0.0000 0.0000 0.0000 2.0212 0.0000 0.1090
# 5 6.8623 -18.1442 -9.6312 0.0000 40.1604 0.0000
# 6 0.0000 0.0000 0.0000 0.1090 0.0000 5.3108
#
#
#
# Elastic Compliance Matrix: (Units=1/GPa)
#
#
# Indices 1 2 3 4 5 6 
#
# 1 0.031811 -0.004052 -0.000806 0.000000 -0.007460 0.000000
# 2 -0.004052 0.006125 -0.000592 0.000000 0.003318 0.000000
# 3 -0.000806 -0.000592 0.008095 0.000000 0.001812 0.000000
# 4 0.000000 0.000000 0.000000 0.495306 0.000000 -0.010169
# 5 -0.007460 0.003318 0.001812 0.000000 0.028108 0.000000
# 6 0.000000 0.000000 0.000000 -0.010169 0.000000 0.188506
#
#
# Mechanical properties :
#
#
# Convention : Reuss Voigt Hill
#
# Bulk Modulus (GPa) = 28.46526 48.75655 38.61090
# Shear Modulus (GPa) = 6.40565 30.03273 18.21919
#
# Velocity S-wave (km/s) = 1.58988 3.44256 2.68132
# Velocity P-wave (km/s) = 3.82139 5.91958 4.98219
#
# Compressibility (1/GPa) = 0.03513054
#
# Stress axis : x y z
#
# Youngs Moduli (GPa) = 31.43578 163.26307 123.53785
#
# Poissons Ratio (x) = 0.66161 0.09956
# Poissons Ratio (y) = 0.12739 0.07310
# Poissons Ratio (z) = 0.02533 0.09660
#
# Static dielectric constant tensor:
#      x y z
#    x 2.198320 0.000000 -0.005850 
#    y 0.000000 1.996850 0.000000 
#    z -0.005850 0.000000 2.119110 
# 
# From -- ./inp_files/11268.got.cif
#   From: 2010.05.17/outbox.cif.g08.bks.cpg/sg11_6_cif.got.tgz:11268.got - 2010.06.03 12:22:45.
