data_PCOD9160281
_publ_section_title
;
Structure prediction by ZEFSAII (Michael W. Deem and Ramdas Pophale) SiO2 
 PCOD9160281
Probable space group: P 21/M
;
_chemical_formula_sum "Si O2"
_cell_formula_units_Z 32
_cell_length_a 24.528375
_cell_length_b 16.270112
_cell_length_c 9.023399
_cell_angle_alpha 90.000000
_cell_angle_beta 26.430945
_cell_angle_gamma 90.000000
_cell_volume 1602.896564
_symmetry_space_group_name_H-M "P 21/M"
_symmetry_group_IT_number 11
_symmetry_cell_setting 'monoclinic'
loop_
_space_group_symop_operation_xyz
x,y,z
-x,1/2+y,-z
-x,-y,-z
x,1/2-y,z
loop_
_atom_site_type_symbol
_atom_site_label
_atom_site_fract_x
_atom_site_fract_y
_atom_site_fract_z
Si Si1 0.169873 0.657023 0.902760
Si Si2 0.188282 0.343581 0.456257
Si Si3 0.349353 0.455168 0.640212
Si Si4 0.106476 0.553494 0.317651
Si Si5 0.445366 0.340882 0.657162
Si Si6 0.999468 0.026931 0.833543
Si Si7 0.443404 0.617761 0.307757
Si Si8 0.695320 0.653759 0.527309
O O1 0.134188 0.750000 0.944251
O O2 0.316850 0.651290 0.550822
O O3 0.122257 0.636318 0.185388
O O4 0.119570 0.577607 0.933223
O O5 0.142856 0.250000 0.576747
O O6 0.100498 0.401089 0.577624
O O7 0.214916 0.375002 0.558477
O O8 0.316951 0.341513 0.057889
O O9 0.429622 0.408205 0.567782
O O10 0.431858 0.519764 0.349645
O O11 0.294945 0.393623 0.650159
O O12 0.236434 0.506091 0.986473
O O13 0.052618 0.550511 0.612940
O O14 0.000000 0.500000 0.500000
O O15 0.464556 0.250000 0.545270
O O16 0.540419 0.354887 0.559548
O O17 0.000000 0.000000 0.000000
O O18 0.559304 0.643835 0.928408
O O19 0.717621 0.750000 0.450208
#
# Coordination Sequence:
#
# PCOD9160281 Si02
#       8
#     4   4   4   4   4   4   4   4
#     4  10  21  40  63  83 115 162 196 230 291 357
#     4   9  19  35  56  80 114 150 185 234 294 346
#     4  11  20  35  58  88 113 147 200 236 288 345
#     4   9  21  38  56  86 117 152 193 242 289 341
#     4  10  19  35  57  82 114 148 186 241 292 337
#     4  11  22  38  62  85 118 150 196 247 291 340
#     4  10  21  37  58  81 119 154 191 231 285 351
#     4  10  21  36  56  86 118 149 189 239 291 342
#
# _framework density 19.96386
#
# number of rings (size 3 to 8) (size 9 to 14) (size 15 to 20)
#    0.000    2.000    1.250    3.375    5.250    0.000 
#    0.000    1.875    0.000    0.000    0.000    0.000 
#    0.000    0.000    0.000    0.000    0.000    0.000 
#
# Total GULP energy -178368.844348 kJ/mol
# GULP energy per Si atom -5574.026386 kJ/mol
# Density = 1.991842 g / cm^3
# Si number density = 19.963860 Si / 1000 Ang^3
#
#
#
# Elastic Constant Matrix: (Units=GPa)
#
#
# Indices 1 2 3 4 5 6 
#
# 1 57.2004 5.8782 4.3082 0.0000 1.3991 0.0000
# 2 5.8782 60.0272 -10.1388 0.0000 -0.2255 0.0000
# 3 4.3082 -10.1388 32.2146 0.0000 -4.4028 0.0000
# 4 0.0000 0.0000 0.0000 6.3970 0.0000 6.4592
# 5 1.3991 -0.2255 -4.4028 0.0000 40.5009 0.0000
# 6 0.0000 0.0000 0.0000 6.4592 0.0000 34.1492
#
#
#
# Elastic Compliance Matrix: (Units=1/GPa)
#
#
# Indices 1 2 3 4 5 6 
#
# 1 0.017991 -0.002318 -0.003271 0.000000 -0.000990 0.000000
# 2 -0.002318 0.017913 0.006062 0.000000 0.000839 0.000000
# 3 -0.003271 0.006062 0.033911 0.000000 0.003833 0.000000
# 4 0.000000 0.000000 0.000000 0.193227 0.000000 -0.036548
# 5 -0.000990 0.000839 0.003833 0.000000 0.025146 0.000000
# 6 0.000000 0.000000 0.000000 -0.036548 0.000000 0.036196
#
#
# Mechanical properties :
#
#
# Convention : Reuss Voigt Hill
#
# Bulk Modulus (GPa) = 14.13176 16.61527 15.37352
# Shear Modulus (GPa) = 14.40816 26.16906 20.28861
#
# Velocity S-wave (km/s) = 2.68938 3.62445 3.19135
# Velocity P-wave (km/s) = 4.09118 5.08491 4.61487
#
# Compressibility (1/GPa) = 0.07076261
#
# Stress axis : x y z
#
# Youngs Moduli (GPa) = 55.58280 55.82469 29.48887
#
# Poissons Ratio (x) = 0.12940 0.09645
# Poissons Ratio (y) = 0.12884 -0.17877
# Poissons Ratio (z) = 0.18180 -0.33843
#
# Static dielectric constant tensor:
#      x y z
#    x 1.782260 0.000000 0.000140 
#    y 0.000000 1.742360 0.000000 
#    z 0.000140 0.000000 1.703490 
# 
# From -- ./inp_files/27768.got.cif
#   From: 2010.05.17/outbox.cif.g08.bks.cpg/sg11_14_cif.got.tgz:27768.got - 2010.06.03 12:22:45.
