data_PCOD9160255
_publ_section_title
;
Structure prediction by ZEFSAII (Michael W. Deem and Ramdas Pophale) SiO2 
 PCOD9160255
Probable space group: P 21/M
;
_chemical_formula_sum "Si O2"
_cell_formula_units_Z 20
_cell_length_a 4.967012
_cell_length_b 13.378457
_cell_length_c 12.796878
_cell_angle_alpha 90.000000
_cell_angle_beta 105.958206
_cell_angle_gamma 90.000000
_cell_volume 817.593852
_symmetry_space_group_name_H-M "P 21/M"
_symmetry_group_IT_number 11
_symmetry_cell_setting 'monoclinic'
loop_
_space_group_symop_operation_xyz
x,y,z
-x,1/2+y,-z
-x,-y,-z
x,1/2-y,z
loop_
_atom_site_type_symbol
_atom_site_label
_atom_site_fract_x
_atom_site_fract_y
_atom_site_fract_z
Si Si1 0.479143 0.576674 0.266465
Si Si2 0.252434 0.425690 0.502332
Si Si3 0.145861 0.424427 0.876480
Si Si4 0.611988 0.644315 0.702747
Si Si5 0.080638 0.855941 0.930339
O O1 0.632810 0.627688 0.380935
O O2 0.142441 0.579463 0.223225
O O3 0.551648 0.458024 0.288916
O O4 0.607302 0.612796 0.171185
O O5 0.500000 0.500000 0.500000
O O6 0.234391 0.364407 0.393376
O O7 0.000000 0.500000 0.500000
O O8 0.221955 0.537860 0.920443
O O9 0.067895 0.367251 0.973367
O O10 0.450824 0.750000 0.686265
O O11 0.841982 0.648095 0.817283
O O12 0.239777 0.750000 0.942387
#
# Coordination Sequence:
#
# PCOD9160255 Si02
#       5
#     4   4   4   4   4
#     4  10  20  37  58  80 110 147 183 223 274 333
#     4  10  19  35  57  79 107 143 178 217 270 327
#     4  10  21  37  58  82 110 148 187 225 278 332
#     4   9  19  35  57  85 111 140 183 232 277 323
#     4   9  19  36  57  82 112 145 186 233 276 326
#
# _framework density 24.462025000000001
#
# number of rings (size 3 to 8) (size 9 to 14) (size 15 to 20)
#    0.000    2.400    0.000    3.600    0.000    8.000 
#    0.000   17.000    0.000    0.000    0.000    0.000 
#    0.000    0.000    0.000    0.000    0.000    0.000 
#
# Total GULP energy -111627.788801 kJ/mol
# GULP energy per Si atom -5581.389440 kJ/mol
# Density = 2.440635 g / cm^3
# Si number density = 24.462025 Si / 1000 Ang^3
#
#
#
# Elastic Constant Matrix: (Units=GPa)
#
#
# Indices 1 2 3 4 5 6 
#
# 1 95.4877 4.9642 10.5636 0.0000 -0.5835 0.0000
# 2 4.9642 67.7224 24.0001 0.0000 14.6308 0.0000
# 3 10.5636 24.0001 167.7823 0.0000 -5.1254 0.0000
# 4 0.0000 0.0000 0.0000 -135.6571 0.0000 -10.1253
# 5 -0.5835 14.6308 -5.1254 0.0000 35.5875 0.0000
# 6 0.0000 0.0000 0.0000 -10.1253 0.0000 8.0589
#
#
#
# Elastic Compliance Matrix: (Units=1/GPa)
#
#
# Indices 1 2 3 4 5 6 
#
# 1 0.010571 -0.000654 -0.000561 0.000000 0.000361 0.000000
# 2 -0.000654 0.017393 -0.002677 0.000000 -0.007547 0.000000
# 3 -0.000561 -0.002677 0.006440 0.000000 0.002019 0.000000
# 4 0.000000 0.000000 0.000000 -0.006740 0.000000 -0.008468
# 5 0.000361 -0.007547 0.002019 0.000000 0.031499 0.000000
# 6 0.000000 0.000000 0.000000 -0.008468 0.000000 0.113448
#
#
# Mechanical properties :
#
#
# Convention : Reuss Voigt Hill
#
# Bulk Modulus (GPa) = 37.56660 45.56092 41.56376
# Shear Modulus (GPa) = 26.41731 1.02883 13.72307
#
# Velocity S-wave (km/s) = 3.28980 0.64923 2.37110
# Velocity P-wave (km/s) = 5.46084 4.38493 4.95219
#
# Compressibility (1/GPa) = 0.02661939
#
# Stress axis : x y z
#
# Youngs Moduli (GPa) = 94.60001 57.49296 155.27767
#
# Poissons Ratio (x) = 0.03761 0.08710
# Poissons Ratio (y) = 0.06189 0.41574
# Poissons Ratio (z) = 0.05306 0.15393
#
# Static dielectric constant tensor:
#      x y z
#    x 1.865510 0.000000 0.010870 
#    y 0.000000 1.996540 0.000000 
#    z 0.010870 0.000000 2.050470 
# 
# From -- ./inp_files/29647.got.cif
#   From: 2010.05.17/outbox.cif.g08.bks.cpg/sg11_15_cif.got.tgz:29647.got - 2010.06.03 12:22:45.
