data_PCOD9160306
_publ_section_title
;
Structure prediction by ZEFSAII (Michael W. Deem and Ramdas Pophale) SiO2 
 PCOD9160306
Probable space group: P 21/M
;
_chemical_formula_sum "Si O2"
_cell_formula_units_Z 32
_cell_length_a 12.149740
_cell_length_b 8.606081
_cell_length_c 33.826312
_cell_angle_alpha 90.000000
_cell_angle_beta 27.700399
_cell_angle_gamma 90.000000
_cell_volume 1644.137853
_symmetry_space_group_name_H-M "P 21/M"
_symmetry_group_IT_number 11
_symmetry_cell_setting 'monoclinic'
loop_
_space_group_symop_operation_xyz
x,y,z
-x,1/2+y,-z
-x,-y,-z
x,1/2-y,z
loop_
_atom_site_type_symbol
_atom_site_label
_atom_site_fract_x
_atom_site_fract_y
_atom_site_fract_z
Si Si1 0.475794 0.437832 0.609716
Si Si2 0.263624 0.564401 0.913680
Si Si3 0.859347 0.562935 0.357107
Si Si4 0.464006 0.060324 0.252333
Si Si5 0.920824 0.062926 0.422190
Si Si6 0.334793 0.563087 0.162555
Si Si7 0.261335 0.936165 0.095185
Si Si8 0.755604 0.063948 0.236814
O O1 0.463469 0.250000 0.617033
O O2 0.316250 0.482042 0.622467
O O3 0.743316 0.485274 0.513587
O O4 0.371934 0.508367 0.682587
O O5 0.254732 0.750000 0.915604
O O6 0.399061 0.510007 0.830796
O O7 0.422129 0.509561 0.899990
O O8 0.000000 0.500000 0.000000
O O9 0.850323 0.750000 0.363319
O O10 0.815656 0.490283 0.413620
O O11 0.122548 0.516241 0.259256
O O12 0.459269 0.250000 0.253412
O O13 0.607078 0.011641 0.245768
O O14 0.191135 0.006577 0.339764
O O15 0.924800 0.250000 0.420965
O O16 0.354098 0.750000 0.157588
O O17 0.265086 0.518817 0.140297
O O18 0.258863 0.750000 0.093684
O O19 0.022686 0.000491 0.151666
O O20 0.500000 0.000000 0.000000
O O21 0.764598 0.250000 0.233604
#
# Coordination Sequence:
#
# PCOD9160306 Si02
#       8
#     4   4   4   4   4   4   4   4
#     4  10  21  38  59  86 120 156 193 243 299 347
#     4  11  23  40  62  88 120 154 199 243 293 355
#     4  10  19  35  57  86 122 152 186 238 300 348
#     4   9  21  40  58  82 117 155 192 244 297 342
#     4  10  20  37  61  86 116 155 198 240 293 355
#     4  10  21  39  62  86 121 157 188 240 299 346
#     4  11  24  43  64  90 123 155 196 244 298 353
#     4  11  23  40  61  84 117 159 201 242 294 351
#
# _framework density 19.463087999999999
#
# number of rings (size 3 to 8) (size 9 to 14) (size 15 to 20)
#    0.000    1.750    2.500    1.500    1.750    2.500 
#    0.000    3.125    0.000    0.000    0.000    0.000 
#    0.000    0.000    0.000    0.000    0.000    0.000 
#
# Total GULP energy -178786.171337 kJ/mol
# GULP energy per Si atom -5587.067854 kJ/mol
# Density = 1.941879 g / cm^3
# Si number density = 19.463088 Si / 1000 Ang^3
#
#
#
# Elastic Constant Matrix: (Units=GPa)
#
#
# Indices 1 2 3 4 5 6 
#
# 1 108.9408 16.5108 25.5133 0.0000 -14.6618 0.0000
# 2 16.5108 14.4892 16.1978 0.0000 -3.6115 0.0000
# 3 25.5133 16.1978 98.1066 0.0000 -17.0907 0.0000
# 4 0.0000 0.0000 0.0000 26.9459 0.0000 0.9977
# 5 -14.6618 -3.6115 -17.0907 0.0000 31.3074 0.0000
# 6 0.0000 0.0000 0.0000 0.9977 0.0000 24.2807
#
#
#
# Elastic Compliance Matrix: (Units=1/GPa)
#
#
# Indices 1 2 3 4 5 6 
#
# 1 0.011576 -0.011793 -0.000393 0.000000 0.003846 0.000000
# 2 -0.011793 0.096811 -0.013188 0.000000 -0.001554 0.000000
# 3 -0.000393 -0.013188 0.013455 0.000000 0.005640 0.000000
# 4 0.000000 0.000000 0.000000 0.037168 0.000000 -0.001527
# 5 0.003846 -0.001554 0.005640 0.000000 0.036642 0.000000
# 6 0.000000 0.000000 0.000000 -0.001527 0.000000 0.041248
#
#
# Mechanical properties :
#
#
# Convention : Reuss Voigt Hill
#
# Bulk Modulus (GPa) = 14.06587 37.55336 25.80961
# Shear Modulus (GPa) = 16.05925 27.39445 21.72685
#
# Velocity S-wave (km/s) = 2.87559 3.75575 3.34475
# Velocity P-wave (km/s) = 4.27411 6.17609 5.31094
#
# Compressibility (1/GPa) = 0.07109406
#
# Stress axis : x y z
#
# Youngs Moduli (GPa) = 86.38245 10.32938 74.32125
#
# Poissons Ratio (x) = 0.12182 0.02924
# Poissons Ratio (y) = 1.01872 0.98013
# Poissons Ratio (z) = 0.03398 0.13622
#
# Static dielectric constant tensor:
#      x y z
#    x 1.656640 0.000000 -0.005780 
#    y 0.000000 1.661900 0.000000 
#    z -0.005780 0.000000 1.680810 
# 
# From -- ./inp_files/73063.got.cif
#   From: 2010.05.17/outbox.cif.g08.bks.cpg/sg11_37_cif.got.tgz:73063.got - 2010.06.03 12:22:45.
