data_PCOD9160923
_publ_section_title
;
Structure prediction by ZEFSAII (Michael W. Deem and Ramdas Pophale) SiO2 
 PCOD9160923
Probable space group: P 21/M
;
_chemical_formula_sum "Si O2"
_cell_formula_units_Z 32
_cell_length_a 12.096567
_cell_length_b 17.684493
_cell_length_c 14.397485
_cell_angle_alpha 90.000000
_cell_angle_beta 148.401039
_cell_angle_gamma 90.000000
_cell_volume 1613.794338
_symmetry_space_group_name_H-M "P 21/M"
_symmetry_group_IT_number 11
_symmetry_cell_setting 'monoclinic'
loop_
_space_group_symop_operation_xyz
x,y,z
-x,1/2+y,-z
-x,-y,-z
x,1/2-y,z
loop_
_atom_site_type_symbol
_atom_site_label
_atom_site_fract_x
_atom_site_fract_y
_atom_site_fract_z
Si Si1 0.959664 0.056951 0.613831
Si Si2 0.163622 0.165632 0.616392
Si Si3 0.540462 0.055602 0.186950
Si Si4 0.681493 0.839128 0.828787
Si Si5 0.619406 0.111936 0.903429
Si Si6 0.727305 0.338879 0.589365
Si Si7 0.156341 0.659526 0.119465
Si Si8 0.169851 0.604312 0.765986
O O1 0.120958 0.104484 0.666049
O O2 0.752485 0.046556 0.401022
O O3 0.887685 0.106631 0.649752
O O4 0.053899 0.975437 0.702667
O O5 0.137438 0.250000 0.635312
O O6 0.395853 0.154039 0.742053
O O7 0.989326 0.151349 0.412279
O O8 0.392407 0.114497 0.134495
O O9 0.623388 0.085978 0.148061
O O10 0.430505 0.974782 0.105963
O O11 0.690278 0.750000 0.857731
O O12 0.500923 0.849526 0.621511
O O13 0.911386 0.861991 0.957336
O O14 0.734182 0.118348 0.887562
O O15 0.763123 0.142244 0.090184
O O16 0.785472 0.250000 0.618573
O O17 0.731387 0.354998 0.701554
O O18 0.165400 0.750000 0.108396
#
# Coordination Sequence:
#
# PCOD9160923 Si02
#       8
#     4   4   4   4   4   4   4   4
#     4  10  19  40  63  92 120 155 195 248 300 361
#     4  11  23  40  63  91 122 158 198 244 296 357
#     4  10  20  39  63  89 122 157 196 245 304 353
#     4   9  20  39  61  86 116 153 201 257 302 346
#     4  12  24  39  61  88 123 164 201 236 292 366
#     4   9  19  37  62  86 114 154 201 253 302 346
#     4  10  23  41  57  82 120 157 201 252 297 347
#     4  11  23  40  63  88 128 159 191 242 305 353
#
# _framework density 19.829044
#
# number of rings (size 3 to 8) (size 9 to 14) (size 15 to 20)
#    0.000    1.750    2.500    1.875    1.750    5.500 
#    0.000    3.750    0.000    0.000    0.000    0.000 
#    0.000    0.000    0.000    0.000    0.000    0.000 
#
# Total GULP energy -178872.372207 kJ/mol
# GULP energy per Si atom -5589.761631 kJ/mol
# Density = 1.978391 g / cm^3
# Si number density = 19.829044 Si / 1000 Ang^3
#
#
#
# Elastic Constant Matrix: (Units=GPa)
#
#
# Indices 1 2 3 4 5 6 
#
# 1 -2.2129 -16.9188 -11.4767 0.0000 -33.4257 0.0000
# 2 -16.9188 23.2084 0.9432 0.0000 0.0624 0.0000
# 3 -11.4767 0.9432 37.2790 0.0000 -9.1037 0.0000
# 4 0.0000 0.0000 0.0000 2.4861 0.0000 -2.9871
# 5 -33.4257 0.0624 -9.1037 0.0000 19.8948 0.0000
# 6 0.0000 0.0000 0.0000 -2.9871 0.0000 5.6452
#
#
#
# Elastic Compliance Matrix: (Units=1/GPa)
#
#
# Indices 1 2 3 4 5 6 
#
# 1 -0.010977 -0.007590 -0.008652 0.000000 -0.022378 0.000000
# 2 -0.007590 0.037893 -0.007249 0.000000 -0.016188 0.000000
# 3 -0.008652 -0.007249 0.023417 0.000000 -0.003798 0.000000
# 4 0.000000 0.000000 0.000000 1.104444 0.000000 0.584417
# 5 -0.022378 -0.016188 -0.003798 0.000000 0.010980 0.000000
# 6 0.000000 0.000000 0.000000 0.584417 0.000000 0.486387
#
#
# Mechanical properties :
#
#
# Convention : Reuss Voigt Hill
#
# Bulk Modulus (GPa) = 298.46572 0.37444 149.42008
# Shear Modulus (GPa) = 2.94076 11.32033 7.13054
#
# Velocity S-wave (km/s) = 1.21913 2.39194 1.89837
# Velocity P-wave (km/s) = 12.36236 2.79602 8.96230
#
# Compressibility (1/GPa) = 0.00335047
#
# Stress axis : x y z
#
# Youngs Moduli (GPa) = -91.10079 26.39039 42.70408
#
# Poissons Ratio (x) = 0.20031 0.36948
# Poissons Ratio (y) = -0.69148 0.30955
# Poissons Ratio (z) = -0.78821 0.19130
#
# Static dielectric constant tensor:
#      x y z
#    x 1.653790 0.000000 -0.004090 
#    y 0.000000 1.694950 0.000000 
#    z -0.004090 0.000000 1.718760 
# 
# From -- ./inp_files/50723.got.cif
#   From: 2010.05.17/outbox.cif.g08.bks.cpg/sg11_26_cif.got.tgz:50723.got - 2010.06.03 12:22:45.
