data_PCOD9160469
_publ_section_title
;
Structure prediction by ZEFSAII (Michael W. Deem and Ramdas Pophale) SiO2 
 PCOD9160469
Probable space group: P 21/M
;
_chemical_formula_sum "Si O2"
_cell_formula_units_Z 32
_cell_length_a 17.296630
_cell_length_b 15.217561
_cell_length_c 10.485618
_cell_angle_alpha 90.000000
_cell_angle_beta 33.983058
_cell_angle_gamma 90.000000
_cell_volume 1542.665551
_symmetry_space_group_name_H-M "P 21/M"
_symmetry_group_IT_number 11
_symmetry_cell_setting 'monoclinic'
loop_
_space_group_symop_operation_xyz
x,y,z
-x,1/2+y,-z
-x,-y,-z
x,1/2-y,z
loop_
_atom_site_type_symbol
_atom_site_label
_atom_site_fract_x
_atom_site_fract_y
_atom_site_fract_z
Si Si1 0.884605 0.086111 0.042427
Si Si2 0.405055 0.648561 0.498091
Si Si3 0.333102 0.644242 0.055182
Si Si4 0.957752 0.420991 0.650326
Si Si5 0.176776 0.412232 0.713451
Si Si6 0.541688 0.143450 0.852127
Si Si7 0.239042 0.148159 0.358680
Si Si8 0.454391 0.354236 0.450631
O O1 0.748406 0.144710 0.233973
O O2 0.850104 0.004365 0.180899
O O3 0.916531 0.056615 0.853645
O O4 0.024308 0.130129 0.905820
O O5 0.446778 0.750000 0.423849
O O6 0.409310 0.608404 0.351407
O O7 0.505404 0.607745 0.466581
O O8 0.346034 0.750000 0.040988
O O9 0.177985 0.622267 0.225386
O O10 0.376376 0.610138 0.135852
O O11 0.443617 0.611021 0.799198
O O12 0.000000 0.500000 0.500000
O O13 0.096819 0.363047 0.475945
O O14 0.231078 0.412780 0.494209
O O15 0.295854 0.366577 0.631182
O O16 0.561008 0.250000 0.826939
O O17 0.378171 0.127523 0.091960
O O18 0.251170 0.250000 0.386019
O O19 0.481950 0.250000 0.419360
#
# Coordination Sequence:
#
# PCOD9160469 Si02
#       8
#     4   4   4   4   4   4   4   4
#     4  10  23  40  57  84 127 164 200 250 308 371
#     4  10  21  38  60  89 122 160 205 255 311 366
#     4  10  19  37  63  89 117 155 209 261 301 360
#     4  11  24  40  59  87 124 165 205 254 304 372
#     4  10  21  37  59  88 121 156 196 252 306 360
#     4   9  19  36  59  89 121 148 194 262 312 354
#     4  10  20  39  65  90 117 160 209 253 304 361
#     4  10  19  35  61  90 115 150 209 261 301 358
#
# _framework density 20.743317000000001
#
# number of rings (size 3 to 8) (size 9 to 14) (size 15 to 20)
#    0.000    2.000    2.500    0.750    0.000    7.000 
#    2.250    1.250    0.000    6.750    0.000    0.000 
#    0.000    0.000    0.000    0.000    0.000    0.000 
#
# Total GULP energy -178500.122083 kJ/mol
# GULP energy per Si atom -5578.128815 kJ/mol
# Density = 2.069610 g / cm^3
# Si number density = 20.743317 Si / 1000 Ang^3
#
#
#
# Elastic Constant Matrix: (Units=GPa)
#
#
# Indices 1 2 3 4 5 6 
#
# 1 178.3074 21.2666 80.5403 0.0000 -4.3002 0.0000
# 2 21.2666 26.9090 10.9224 0.0000 13.8775 0.0000
# 3 80.5403 10.9224 94.0356 0.0000 3.4110 0.0000
# 4 0.0000 0.0000 0.0000 34.2982 0.0000 -21.0918
# 5 -4.3002 13.8775 3.4110 0.0000 40.7715 0.0000
# 6 0.0000 0.0000 0.0000 -21.0918 0.0000 48.9625
#
#
#
# Elastic Compliance Matrix: (Units=1/GPa)
#
#
# Indices 1 2 3 4 5 6 
#
# 1 0.010165 -0.006870 -0.008057 0.000000 0.004085 0.000000
# 2 -0.006870 0.051882 0.000526 0.000000 -0.018428 0.000000
# 3 -0.008057 0.000526 0.017564 0.000000 -0.002498 0.000000
# 4 0.000000 0.000000 0.000000 0.039663 0.000000 0.017086
# 5 0.004085 -0.018428 -0.002498 0.000000 0.031439 0.000000
# 6 0.000000 0.000000 0.000000 0.017086 0.000000 0.027784
#
#
# Mechanical properties :
#
#
# Convention : Reuss Voigt Hill
#
# Bulk Modulus (GPa) = 19.68100 58.30118 38.99109
# Shear Modulus (GPa) = 22.29810 37.24129 29.76969
#
# Velocity S-wave (km/s) = 3.28220 4.24174 3.79244
# Velocity P-wave (km/s) = 4.88593 7.22197 6.16560
#
# Compressibility (1/GPa) = 0.05081043
#
# Stress axis : x y z
#
# Youngs Moduli (GPa) = 98.37352 19.27469 56.93402
#
# Poissons Ratio (x) = 0.13242 0.45870
# Poissons Ratio (y) = 0.67583 -0.02997
# Poissons Ratio (z) = 0.79256 -0.01015
#
# Static dielectric constant tensor:
#      x y z
#    x 1.771060 0.000000 -0.001470 
#    y 0.000000 1.750750 0.000000 
#    z -0.001470 0.000000 1.736510 
# 
# From -- ./inp_files/41613.got.cif
#   From: 2010.05.17/outbox.cif.g08.bks.cpg/sg11_21_cif.got.tgz:41613.got - 2010.06.03 12:22:45.
