data_PCOD9160208
_publ_section_title
;
Structure prediction by ZEFSAII (Michael W. Deem and Ramdas Pophale) SiO2 
 PCOD9160208
Probable space group: P 21/M
;
_chemical_formula_sum "Si O2"
_cell_formula_units_Z 28
_cell_length_a 18.084243
_cell_length_b 13.818898
_cell_length_c 5.532081
_cell_angle_alpha 90.000000
_cell_angle_beta 112.056056
_cell_angle_gamma 90.000000
_cell_volume 1281.315927
_symmetry_space_group_name_H-M "P 21/M"
_symmetry_group_IT_number 11
_symmetry_cell_setting 'monoclinic'
loop_
_space_group_symop_operation_xyz
x,y,z
-x,1/2+y,-z
-x,-y,-z
x,1/2-y,z
loop_
_atom_site_type_symbol
_atom_site_label
_atom_site_fract_x
_atom_site_fract_y
_atom_site_fract_z
Si Si1 0.849185 0.859517 0.506574
Si Si2 0.566786 0.529288 0.390424
Si Si3 0.448013 0.645735 0.997797
Si Si4 0.976535 0.146405 0.045516
Si Si5 0.270937 0.862151 0.909854
Si Si6 0.745853 0.479775 0.625641
Si Si7 0.062617 0.043495 0.764775
O O1 0.817176 0.750000 0.452571
O O2 0.941512 0.851428 0.701111
O O3 0.804109 0.930869 0.632997
O O4 0.858724 0.914622 0.262670
O O5 0.500000 0.500000 0.500000
O O6 0.530824 0.627512 0.236195
O O7 0.659177 0.528969 0.569042
O O8 0.561555 0.442798 0.192291
O O9 0.447560 0.750000 0.873430
O O10 0.367718 0.641262 0.058588
O O11 0.935259 0.250000 0.020310
O O12 0.928604 0.048962 0.047262
O O13 0.013422 0.129728 0.827316
O O14 0.243493 0.750000 0.860199
O O15 0.240547 0.914883 0.116798
O O16 0.255099 0.915577 0.628921
O O17 0.000000 0.000000 0.500000
#
# Coordination Sequence:
#
# PCOD9160208 Si02
#       7
#     4   4   4   4   4   4   4
#     4  10  22  38  59  87 121 163 201 239 302 371
#     4  10  19  35  55  82 117 151 199 261 304 356
#     4   9  19  34  56  81 109 151 200 251 312 366
#     4   9  18  35  61  90 118 155 200 244 294 357
#     4  10  21  40  62  85 113 158 209 257 312 369
#     4  11  23  38  63  88 125 161 204 255 308 369
#     4   9  18  35  60  86 118 155 196 244 290 349
#
# _framework density 21.852535
#
# number of rings (size 3 to 8) (size 9 to 14) (size 15 to 20)
#    0.000    2.286    1.429    0.857    2.000    2.286 
#    0.000    1.429    0.000    2.571    0.000    0.000 
#    0.000    0.000    0.000    0.000    0.000    0.000 
#
# Total GULP energy -155922.950213 kJ/mol
# GULP energy per Si atom -5568.676793 kJ/mol
# Density = 2.180280 g / cm^3
# Si number density = 21.852535 Si / 1000 Ang^3
#
#
#
# Elastic Constant Matrix: (Units=GPa)
#
#
# Indices 1 2 3 4 5 6 
#
# 1 86.2769 50.1171 21.0346 0.0000 -23.2701 0.0000
# 2 50.1171 160.5484 33.6048 0.0000 -22.8236 0.0000
# 3 21.0346 33.6048 73.0653 0.0000 -27.9974 0.0000
# 4 0.0000 0.0000 0.0000 12.3974 0.0000 0.0163
# 5 -23.2701 -22.8236 -27.9974 0.0000 30.2358 0.0000
# 6 0.0000 0.0000 0.0000 0.0163 0.0000 25.7928
#
#
#
# Elastic Compliance Matrix: (Units=1/GPa)
#
#
# Indices 1 2 3 4 5 6 
#
# 1 0.016466 -0.003844 0.001196 0.000000 0.010878 0.000000
# 2 -0.003844 0.008039 -0.002169 0.000000 0.001102 0.000000
# 3 0.001196 -0.002169 0.021800 0.000000 0.019470 0.000000
# 4 0.000000 0.000000 0.000000 0.080662 0.000000 -0.000051
# 5 0.010878 0.001102 0.019470 0.000000 0.060306 0.000000
# 6 0.000000 0.000000 0.000000 -0.000051 0.000000 0.038771
#
#
# Mechanical properties :
#
#
# Convention : Reuss Voigt Hill
#
# Bulk Modulus (GPa) = 27.26872 58.82264 43.04568
# Shear Modulus (GPa) = 20.16942 28.02746 24.09844
#
# Velocity S-wave (km/s) = 3.04135 3.58519 3.32441
# Velocity P-wave (km/s) = 4.98384 6.64188 5.87168
#
# Compressibility (1/GPa) = 0.03667206
#
# Stress axis : x y z
#
# Youngs Moduli (GPa) = 60.73149 124.39147 45.87184
#
# Poissons Ratio (x) = 0.47815 -0.05486
# Poissons Ratio (y) = 0.23345 0.09947
# Poissons Ratio (z) = -0.07263 0.26975
#
# Static dielectric constant tensor:
#      x y z
#    x 1.886060 0.000000 0.029650 
#    y 0.000000 1.789570 0.000000 
#    z 0.029650 0.000000 1.995100 
# 
# From -- ./inp_files/8630.got.cif
#   From: 2010.05.17/outbox.cif.g08.bks.cpg/sg11_5_cif.got.tgz:8630.got - 2010.06.03 12:22:45.
