data_PCOD9160087
_publ_section_title
;
Structure prediction by ZEFSAII (Michael W. Deem and Ramdas Pophale) SiO2 
 PCOD9160087
Probable space group: P 21/M
;
_chemical_formula_sum "Si O2"
_cell_formula_units_Z 32
_cell_length_a 9.532792
_cell_length_b 19.641761
_cell_length_c 13.376671
_cell_angle_alpha 90.000000
_cell_angle_beta 132.362495
_cell_angle_gamma 90.000000
_cell_volume 1850.683855
_symmetry_space_group_name_H-M "P 21/M"
_symmetry_group_IT_number 11
_symmetry_cell_setting 'monoclinic'
loop_
_space_group_symop_operation_xyz
x,y,z
-x,1/2+y,-z
-x,-y,-z
x,1/2-y,z
loop_
_atom_site_type_symbol
_atom_site_label
_atom_site_fract_x
_atom_site_fract_y
_atom_site_fract_z
Si Si1 0.233615 0.518286 0.507134
Si Si2 0.103616 0.391424 0.578093
Si Si3 0.365628 0.533970 0.020310
Si Si4 0.062161 0.447647 0.233614
Si Si5 0.415283 0.329978 0.875014
Si Si6 0.494764 0.170990 0.136516
Si Si7 0.624939 0.943586 0.778590
Si Si8 0.072651 0.671042 0.698005
O O1 0.200949 0.456829 0.571202
O O2 0.174842 0.489954 0.371354
O O3 0.447880 0.543083 0.620367
O O4 0.086344 0.577996 0.463962
O O5 0.241370 0.355552 0.723513
O O6 0.041215 0.341369 0.459121
O O7 0.420232 0.613466 0.061340
O O8 0.389414 0.496811 0.137372
O O9 0.500000 0.500000 0.000000
O O10 0.149098 0.524117 0.883129
O O11 0.181645 0.447231 0.189956
O O12 0.026493 0.373392 0.264495
O O13 0.461670 0.250000 0.877186
O O14 0.380133 0.334758 0.977524
O O15 0.509943 0.250000 0.170310
O O16 0.404152 0.128179 0.180761
O O17 0.710655 0.146102 0.217528
O O18 0.082350 0.750000 0.729143
#
# Coordination Sequence:
#
# PCOD9160087 Si02
#       8
#     4   4   4   4   4   4   4   4
#     4  10  21  35  57  86 115 152 189 242 287 353
#     4  10  19  34  58  88 112 144 197 238 290 332
#     4  12  22  39  61  86 115 151 196 246 290 347
#     4  11  24  36  56  87 116 153 189 240 300 350
#     4  11  21  35  59  88 115 148 194 249 293 338
#     4  10  21  37  59  85 112 150 196 242 291 345
#     4  12  22  39  58  83 121 151 190 240 300 355
#     4  10  19  36  58  81 110 148 196 237 280 345
#
# _framework density 17.290904999999999
#
# number of rings (size 3 to 8) (size 9 to 14) (size 15 to 20)
#    0.000    1.250    5.000    1.875    1.750    0.500 
#    0.000    0.000    0.000    0.000    0.000    0.000 
#    0.000    0.000    0.000    0.000    0.000    0.000 
#
# Total GULP energy -178580.795420 kJ/mol
# GULP energy per Si atom -5580.649857 kJ/mol
# Density = 1.725155 g / cm^3
# Si number density = 17.290905 Si / 1000 Ang^3
#
#
#
# Elastic Constant Matrix: (Units=GPa)
#
#
# Indices 1 2 3 4 5 6 
#
# 1 122.9208 38.5650 43.0476 0.0000 -2.9844 0.0000
# 2 38.5650 77.3991 28.7978 0.0000 -5.2692 0.0000
# 3 43.0476 28.7978 126.3733 0.0000 7.9399 0.0000
# 4 0.0000 0.0000 0.0000 23.6851 0.0000 5.4830
# 5 -2.9844 -5.2692 7.9399 0.0000 18.0068 0.0000
# 6 0.0000 0.0000 0.0000 5.4830 0.0000 10.4689
#
#
#
# Elastic Compliance Matrix: (Units=1/GPa)
#
#
# Indices 1 2 3 4 5 6 
#
# 1 0.010404 -0.004049 -0.002731 0.000000 0.001744 0.000000
# 2 -0.004049 0.016287 -0.002663 0.000000 0.005269 0.000000
# 3 -0.002731 -0.002663 0.009799 0.000000 -0.005553 0.000000
# 4 0.000000 0.000000 0.000000 0.048046 0.000000 -0.025164
# 5 0.001744 0.005269 -0.005553 0.000000 0.059814 0.000000
# 6 0.000000 0.000000 0.000000 -0.025164 0.000000 0.108701
#
#
# Mechanical properties :
#
#
# Convention : Reuss Voigt Hill
#
# Bulk Modulus (GPa) = 56.80584 60.83489 58.82036
# Shear Modulus (GPa) = 17.99816 24.85102 21.42459
#
# Velocity S-wave (km/s) = 3.22980 3.79520 3.52386
# Velocity P-wave (km/s) = 6.84348 7.37999 7.11679
#
# Compressibility (1/GPa) = 0.01760382
#
# Stress axis : x y z
#
# Youngs Moduli (GPa) = 96.11230 61.39748 102.05016
#
# Poissons Ratio (x) = 0.24862 0.27870
# Poissons Ratio (y) = 0.38919 0.27178
# Poissons Ratio (z) = 0.26248 0.16352
#
# Static dielectric constant tensor:
#      x y z
#    x 1.553490 0.000000 0.008660 
#    y 0.000000 1.599090 0.000000 
#    z 0.008660 0.000000 1.605200 
# 
# From -- ./inp_files/19365.got.cif
#   From: 2010.05.17/outbox.cif.g08.bks.cpg/sg11_10_cif.got.tgz:19365.got - 2010.06.03 12:22:45.
