data_PCOD9160950
_publ_section_title
;
Structure prediction by ZEFSAII (Michael W. Deem and Ramdas Pophale) SiO2 
 PCOD9160950
Probable space group: P 21/M
;
_chemical_formula_sum "Si O2"
_cell_formula_units_Z 32
_cell_length_a 15.471153
_cell_length_b 22.845072
_cell_length_c 15.567285
_cell_angle_alpha 90.000000
_cell_angle_beta 161.583352
_cell_angle_gamma 90.000000
_cell_volume 1738.247900
_symmetry_space_group_name_H-M "P 21/M"
_symmetry_group_IT_number 11
_symmetry_cell_setting 'monoclinic'
loop_
_space_group_symop_operation_xyz
x,y,z
-x,1/2+y,-z
-x,-y,-z
x,1/2-y,z
loop_
_atom_site_type_symbol
_atom_site_label
_atom_site_fract_x
_atom_site_fract_y
_atom_site_fract_z
Si Si1 0.147645 0.817896 0.749086
Si Si2 0.390402 0.561061 0.436111
Si Si3 0.610745 0.557359 0.970930
Si Si4 0.818373 0.883182 0.585025
Si Si5 0.287476 0.123867 0.767426
Si Si6 0.197665 0.454514 0.038166
Si Si7 0.262234 0.907111 0.129960
Si Si8 0.902817 0.981616 0.530343
O O1 0.216291 0.750000 0.820289
O O2 0.968341 0.839374 0.661419
O O3 0.950038 0.830528 0.481217
O O4 0.425518 0.855375 0.003065
O O5 0.500000 0.500000 0.500000
O O6 0.625019 0.579763 0.723279
O O7 0.314215 0.598386 0.280251
O O8 0.117335 0.550234 0.233002
O O9 0.655980 0.609547 0.080230
O O10 0.785942 0.502715 0.174249
O O11 0.733057 0.566705 0.991758
O O12 0.298343 0.536700 0.667775
O O13 0.499921 0.874553 0.301506
O O14 0.849913 0.946332 0.568404
O O15 0.973645 0.885780 0.821919
O O16 0.176499 0.064618 0.617521
O O17 0.276467 0.523463 0.120336
#
# Coordination Sequence:
#
# PCOD9160950 Si02
#       8
#     4   4   4   4   4   4   4   4
#     4  11  24  42  58  75 105 132 172 232 279 314
#     4  10  20  30  44  67 102 146 183 204 237 288
#     4  12  21  32  52  74 112 142 178 212 251 303
#     4  11  19  32  52  76  97 139 179 211 258 309
#     4  11  23  37  54  79 100 140 180 211 268 323
#     4  11  19  31  45  71 105 149 174 208 247 280
#     4  11  18  31  48  71 104 137 183 210 237 305
#     4  11  19  33  48  76 110 142 173 212 253 299
#
# _framework density 18.409343
#
# number of rings (size 3 to 8) (size 9 to 14) (size 15 to 20)
#    0.000    1.000    2.500    9.375    0.000    0.000 
#    0.000    0.000    0.000    0.000    0.000    0.000 
#    0.000   20.000    0.000    0.000    0.000    0.000 
#
# Total GULP energy -178725.591754 kJ/mol
# GULP energy per Si atom -5585.174742 kJ/mol
# Density = 1.836744 g / cm^3
# Si number density = 18.409343 Si / 1000 Ang^3
#
#
#
# Elastic Constant Matrix: (Units=GPa)
#
#
# Indices 1 2 3 4 5 6 
#
# 1 69.1909 8.8031 0.4856 0.0000 -12.9763 0.0000
# 2 8.8031 20.4081 -6.6440 0.0000 -9.3395 0.0000
# 3 0.4856 -6.6440 70.0961 0.0000 -8.0307 0.0000
# 4 0.0000 0.0000 0.0000 12.0872 0.0000 -0.7226
# 5 -12.9763 -9.3395 -8.0307 0.0000 34.8660 0.0000
# 6 0.0000 0.0000 0.0000 -0.7226 0.0000 7.0892
#
#
#
# Elastic Compliance Matrix: (Units=1/GPa)
#
#
# Indices 1 2 3 4 5 6 
#
# 1 0.015930 -0.004753 -0.000028 0.000000 0.004649 0.000000
# 2 -0.004753 0.061038 0.007692 0.000000 0.016353 0.000000
# 3 -0.000028 0.007692 0.015643 0.000000 0.005653 0.000000
# 4 0.000000 0.000000 0.000000 0.083239 0.000000 0.008484
# 5 0.004649 0.016353 0.005653 0.000000 0.036094 0.000000
# 6 0.000000 0.000000 0.000000 0.008484 0.000000 0.141925
#
#
# Mechanical properties :
#
#
# Convention : Reuss Voigt Hill
#
# Bulk Modulus (GPa) = 10.15925 18.33161 14.24543
# Shear Modulus (GPa) = 13.12825 21.27850 17.20337
#
# Velocity S-wave (km/s) = 2.67335 3.40347 3.06026
# Velocity P-wave (km/s) = 3.88066 5.04224 4.49910
#
# Compressibility (1/GPa) = 0.09843242
#
# Stress axis : x y z
#
# Youngs Moduli (GPa) = 62.77633 16.38315 63.92614
#
# Poissons Ratio (x) = 0.07787 0.00181
# Poissons Ratio (y) = 0.29837 -0.49172
# Poissons Ratio (z) = 0.00177 -0.12602
#
# Static dielectric constant tensor:
#      x y z
#    x 1.680310 0.000000 -0.027670 
#    y 0.000000 1.614720 0.000000 
#    z -0.027670 0.000000 1.661480 
# 
# From -- ./inp_files/52730.got.cif
#   From: 2010.05.17/outbox.cif.g08.bks.cpg/sg11_27_cif.got.tgz:52730.got - 2010.06.03 12:22:45.
