data_PCOD9160174
_publ_section_title
;
Structure prediction by ZEFSAII (Michael W. Deem and Ramdas Pophale) SiO2 
 PCOD9160174
Probable space group: P 21/M
;
_chemical_formula_sum "Si O2"
_cell_formula_units_Z 24
_cell_length_a 14.220698
_cell_length_b 13.708211
_cell_length_c 20.874832
_cell_angle_alpha 90.000000
_cell_angle_beta 20.681134
_cell_angle_gamma 90.000000
_cell_volume 1437.158151
_symmetry_space_group_name_H-M "P 21/M"
_symmetry_group_IT_number 11
_symmetry_cell_setting 'monoclinic'
loop_
_space_group_symop_operation_xyz
x,y,z
-x,1/2+y,-z
-x,-y,-z
x,1/2-y,z
loop_
_atom_site_type_symbol
_atom_site_label
_atom_site_fract_x
_atom_site_fract_y
_atom_site_fract_z
Si Si1 0.209491 0.024295 0.106559
Si Si2 0.205114 0.635166 0.545981
Si Si3 0.861242 0.520676 0.520822
Si Si4 0.732092 0.134296 0.822246
Si Si5 0.816806 0.862274 0.132533
Si Si6 0.241521 0.977180 0.937587
O O1 0.956667 0.083738 0.294238
O O2 0.236886 0.925795 0.131363
O O3 0.467619 0.090506 0.957566
O O4 0.196264 0.999985 0.040556
O O5 0.142505 0.750000 0.581231
O O6 0.126983 0.576182 0.531340
O O7 0.523113 0.624135 0.350022
O O8 0.552450 0.546085 0.728257
O O9 0.000000 0.500000 0.500000
O O10 0.021882 0.603060 0.379776
O O11 0.714919 0.250000 0.841855
O O12 0.844992 0.750000 0.096819
O O13 0.824111 0.929117 0.064800
O O14 0.045544 0.894936 0.035414
#
# Coordination Sequence:
#
# PCOD9160174 Si02
#       6
#     4   4   4   4   4   4
#     4  10  20  35  55  79 111 143 180 222 272 324
#     4   9  19  35  54  76 106 142 180 221 268 323
#     4  10  19  35  53  78 111 142 179 222 274 324
#     4  10  21  35  52  79 114 147 180 219 265 330
#     4   9  20  37  55  78 106 140 184 227 267 317
#     4  10  20  36  58  79 108 142 179 226 271 316
#
# _framework density 16.699622999999999
#
# number of rings (size 3 to 8) (size 9 to 14) (size 15 to 20)
#    0.000    2.333    1.667    0.500    0.000    4.000 
#    0.000    0.000    0.000    0.000    0.000    0.000 
#    0.000    0.000    0.000    0.000    0.000    0.000 
#
# Total GULP energy -133860.722393 kJ/mol
# GULP energy per Si atom -5577.530100 kJ/mol
# Density = 1.666161 g / cm^3
# Si number density = 16.699623 Si / 1000 Ang^3
#
#
#
# Elastic Constant Matrix: (Units=GPa)
#
#
# Indices 1 2 3 4 5 6 
#
# 1 101.1432 30.9733 56.0388 0.0000 4.2405 0.0000
# 2 30.9733 97.3727 37.0573 0.0000 -5.2560 0.0000
# 3 56.0388 37.0573 79.4386 0.0000 6.9691 0.0000
# 4 0.0000 0.0000 0.0000 22.7202 0.0000 -5.6522
# 5 4.2405 -5.2560 6.9691 0.0000 26.9476 0.0000
# 6 0.0000 0.0000 0.0000 -5.6522 0.0000 8.8455
#
#
#
# Elastic Compliance Matrix: (Units=1/GPa)
#
#
# Indices 1 2 3 4 5 6 
#
# 1 0.016308 -0.000973 -0.011060 0.000000 0.000104 0.000000
# 2 -0.000973 0.012988 -0.005738 0.000000 0.004170 0.000000
# 3 -0.011060 -0.005738 0.023547 0.000000 -0.005469 0.000000
# 4 0.000000 0.000000 0.000000 0.052333 0.000000 0.033440
# 5 0.000104 0.004170 -0.005469 0.000000 0.039320 0.000000
# 6 0.000000 0.000000 0.000000 0.033440 0.000000 0.134420
#
#
# Mechanical properties :
#
#
# Convention : Reuss Voigt Hill
#
# Bulk Modulus (GPa) = 57.79897 58.45482 58.12690
# Shear Modulus (GPa) = 15.61398 21.96166 18.78782
#
# Velocity S-wave (km/s) = 3.06108 3.63036 3.35781
# Velocity P-wave (km/s) = 6.86875 7.25620 7.06513
#
# Compressibility (1/GPa) = 0.01730135
#
# Stress axis : x y z
#
# Youngs Moduli (GPa) = 61.31889 76.99242 42.46835
#
# Poissons Ratio (x) = 0.07490 0.46969
# Poissons Ratio (y) = 0.05965 0.24370
# Poissons Ratio (z) = 0.67817 0.44182
#
# Static dielectric constant tensor:
#      x y z
#    x 1.529050 0.000000 -0.009190 
#    y 0.000000 1.541160 0.000000 
#    z -0.009190 0.000000 1.573620 
# 
# From -- ./inp_files/41382.got.cif
#   From: 2010.05.17/outbox.cif.g08.bks.cpg/sg11_21_cif.got.tgz:41382.got - 2010.06.03 12:22:45.
