data_PCOD9160258
_publ_section_title
;
Structure prediction by ZEFSAII (Michael W. Deem and Ramdas Pophale) SiO2 
 PCOD9160258
Probable space group: P 21/M
;
_chemical_formula_sum "Si O2"
_cell_formula_units_Z 32
_cell_length_a 19.780046
_cell_length_b 15.418068
_cell_length_c 13.538245
_cell_angle_alpha 90.000000
_cell_angle_beta 25.483542
_cell_angle_gamma 90.000000
_cell_volume 1776.406420
_symmetry_space_group_name_H-M "P 21/M"
_symmetry_group_IT_number 11
_symmetry_cell_setting 'monoclinic'
loop_
_space_group_symop_operation_xyz
x,y,z
-x,1/2+y,-z
-x,-y,-z
x,1/2-y,z
loop_
_atom_site_type_symbol
_atom_site_label
_atom_site_fract_x
_atom_site_fract_y
_atom_site_fract_z
Si Si1 0.516013 0.063174 0.073578
Si Si2 0.625085 0.983434 0.529259
Si Si3 0.917223 0.093952 0.117840
Si Si4 0.711643 0.986606 0.104357
Si Si5 0.078625 0.849471 0.109507
Si Si6 0.238551 0.347558 0.352355
Si Si7 0.209617 0.149779 0.828600
Si Si8 0.814392 0.513907 0.747257
O O1 0.406571 0.142585 0.184639
O O2 0.431809 0.028636 0.283765
O O3 0.500000 0.000000 0.000000
O O4 0.699957 0.065216 0.861953
O O5 0.739785 0.066317 0.374170
O O6 0.473772 0.998386 0.660547
O O7 0.711433 0.898300 0.370458
O O8 0.928793 0.141957 0.998537
O O9 0.021665 0.144160 0.059314
O O10 0.000000 0.000000 0.000000
O O11 0.749289 0.911976 0.133507
O O12 0.768752 0.963191 0.919102
O O13 0.800883 0.076086 0.014675
O O14 0.121575 0.750000 0.079784
O O15 0.906679 0.868522 0.382491
O O16 0.216177 0.250000 0.348330
O O17 0.226657 0.410521 0.275108
O O18 0.258030 0.250000 0.774316
O O19 0.000000 0.500000 0.500000
#
# Coordination Sequence:
#
# PCOD9160258 Si02
#       8
#     4   4   4   4   4   4   4   4
#     4   9  20  35  59  88 107 148 193 233 289 349
#     4  10  21  37  59  83 117 155 192 240 296 346
#     4  10  19  35  57  79 110 152 192 237 283 342
#     4  11  22  39  58  86 120 158 193 239 296 352
#     4  11  21  34  59  90 116 151 196 244 296 344
#     4  10  20  36  59  88 118 149 195 246 290 342
#     4  11  23  37  58  87 117 156 200 239 290 346
#     4  10  20  37  61  82 114 156 195 231 295 357
#
# _framework density 18.013895999999999
#
# number of rings (size 3 to 8) (size 9 to 14) (size 15 to 20)
#    0.000    1.750    3.750    2.250    0.000    2.500 
#    0.000    3.125    0.000   10.500    0.000    0.000 
#    0.000    0.000    0.000    0.000    0.000    0.000 
#
# Total GULP energy -178263.396243 kJ/mol
# GULP energy per Si atom -5570.731133 kJ/mol
# Density = 1.797290 g / cm^3
# Si number density = 18.013896 Si / 1000 Ang^3
#
#
#
# Elastic Constant Matrix: (Units=GPa)
#
#
# Indices 1 2 3 4 5 6 
#
# 1 110.4350 45.2644 46.7677 0.0000 -6.9737 0.0000
# 2 45.2644 95.8493 41.1202 0.0000 -2.7635 0.0000
# 3 46.7677 41.1202 87.5938 0.0000 -18.1285 0.0000
# 4 0.0000 0.0000 0.0000 16.2914 0.0000 3.3218
# 5 -6.9737 -2.7635 -18.1285 0.0000 39.5575 0.0000
# 6 0.0000 0.0000 0.0000 3.3218 0.0000 13.0705
#
#
#
# Elastic Compliance Matrix: (Units=1/GPa)
#
#
# Indices 1 2 3 4 5 6 
#
# 1 0.012765 -0.003861 -0.005074 0.000000 -0.000345 0.000000
# 2 -0.003861 0.014391 -0.005112 0.000000 -0.002018 0.000000
# 3 -0.005074 -0.005112 0.017971 0.000000 0.006984 0.000000
# 4 0.000000 0.000000 0.000000 0.064737 0.000000 -0.016452
# 5 -0.000345 -0.002018 0.006984 0.000000 0.028279 0.000000
# 6 0.000000 0.000000 0.000000 -0.016452 0.000000 0.080689
#
#
# Mechanical properties :
#
#
# Convention : Reuss Voigt Hill
#
# Bulk Modulus (GPa) = 58.71216 62.24252 60.47734
# Shear Modulus (GPa) = 19.79387 24.49893 22.14640
#
# Velocity S-wave (km/s) = 3.31843 3.69182 3.51009
# Velocity P-wave (km/s) = 6.88085 7.26638 7.07624
#
# Compressibility (1/GPa) = 0.01703225
#
# Stress axis : x y z
#
# Youngs Moduli (GPa) = 78.34094 69.48591 55.64636
#
# Poissons Ratio (x) = 0.26830 0.28235
# Poissons Ratio (y) = 0.30249 0.28447
# Poissons Ratio (z) = 0.39750 0.35521
#
# Static dielectric constant tensor:
#      x y z
#    x 1.629760 0.000000 -0.027630 
#    y 0.000000 1.614740 0.000000 
#    z -0.027630 0.000000 1.654910 
# 
# From -- ./inp_files/41680.got.cif
#   From: 2010.05.17/outbox.cif.g08.bks.cpg/sg11_21_cif.got.tgz:41680.got - 2010.06.03 12:22:45.
