data_PCOD9160900
_publ_section_title
;
Structure prediction by ZEFSAII (Michael W. Deem and Ramdas Pophale) SiO2 
 PCOD9160900
Probable space group: P 21/M
;
_chemical_formula_sum "Si O2"
_cell_formula_units_Z 32
_cell_length_a 15.110428
_cell_length_b 17.674880
_cell_length_c 5.294911
_cell_angle_alpha 90.000000
_cell_angle_beta 104.172039
_cell_angle_gamma 90.000000
_cell_volume 1371.098988
_symmetry_space_group_name_H-M "P 21/M"
_symmetry_group_IT_number 11
_symmetry_cell_setting 'monoclinic'
loop_
_space_group_symop_operation_xyz
x,y,z
-x,1/2+y,-z
-x,-y,-z
x,1/2-y,z
loop_
_atom_site_type_symbol
_atom_site_label
_atom_site_fract_x
_atom_site_fract_y
_atom_site_fract_z
Si Si1 0.430156 0.958603 0.685514
Si Si2 0.347630 0.833534 0.985584
Si Si3 0.172739 0.925178 0.850424
Si Si4 0.131596 0.159575 0.894366
Si Si5 0.475592 0.378706 0.654224
Si Si6 0.239877 0.494699 0.378596
Si Si7 0.278861 0.334366 0.627359
Si Si8 0.979926 0.658033 0.689105
O O1 0.513231 0.913431 0.616825
O O2 0.345025 0.975685 0.432762
O O3 0.460532 0.041875 0.792185
O O4 0.382875 0.901029 0.837625
O O5 0.345126 0.750000 0.868550
O O6 0.245754 0.859512 0.977144
O O7 0.429522 0.835105 0.244682
O O8 0.185465 0.984492 0.088006
O O9 0.074755 0.886461 0.766348
O O10 0.197591 0.964560 0.599044
O O11 0.126012 0.250000 0.911233
O O12 0.236358 0.147284 0.873621
O O13 0.080183 0.134229 0.110482
O O14 0.072730 0.137488 0.605836
O O15 0.387556 0.332521 0.672573
O O16 0.249699 0.405705 0.439772
O O17 0.243556 0.250000 0.530170
O O18 0.993587 0.750000 0.700158
#
# Coordination Sequence:
#
# PCOD9160900 Si02
#       8
#     4   4   4   4   4   4   4   4
#     4   9  20  38  59  84 123 168 205 249 310 373
#     4  11  22  35  57  92 127 158 203 260 308 368
#     4  11  22  41  63  95 124 168 205 253 313 385
#     4   9  20  39  62  89 124 162 205 261 319 364
#     4  10  19  39  63  85 119 165 209 251 309 374
#     4  10  22  41  64  91 129 167 204 251 316 380
#     4  10  22  42  65  92 121 161 214 264 309 367
#     4  10  20  39  65  91 123 166 211 255 309 373
#
# _framework density 23.338940000000001
#
# number of rings (size 3 to 8) (size 9 to 14) (size 15 to 20)
#    0.000    2.000    1.250    1.875    0.000    2.000 
#    2.250    6.875    0.000    0.000    0.000    0.000 
#    0.000    0.000    0.000    0.000    0.000    0.000 
#
# Total GULP energy -178515.697235 kJ/mol
# GULP energy per Si atom -5578.615539 kJ/mol
# Density = 2.328582 g / cm^3
# Si number density = 23.338940 Si / 1000 Ang^3
#
#
#
# Elastic Constant Matrix: (Units=GPa)
#
#
# Indices 1 2 3 4 5 6 
#
# 1 147.7473 17.4129 30.7227 0.0000 -18.1550 0.0000
# 2 17.4129 81.9117 0.2178 0.0000 -6.6503 0.0000
# 3 30.7227 0.2178 95.4327 0.0000 -18.1181 0.0000
# 4 0.0000 0.0000 0.0000 -3.1382 0.0000 -10.8924
# 5 -18.1550 -6.6503 -18.1181 0.0000 24.4611 0.0000
# 6 0.0000 0.0000 0.0000 -10.8924 0.0000 40.6627
#
#
#
# Elastic Compliance Matrix: (Units=1/GPa)
#
#
# Indices 1 2 3 4 5 6 
#
# 1 0.007791 -0.001314 -0.001716 0.000000 0.004153 0.000000
# 2 -0.001314 0.012748 0.001009 0.000000 0.003237 0.000000
# 3 -0.001716 0.001009 0.012613 0.000000 0.008342 0.000000
# 4 0.000000 0.000000 0.000000 -0.165126 0.000000 -0.044233
# 5 0.004153 0.003237 0.008342 0.000000 0.051023 0.000000
# 6 0.000000 0.000000 0.000000 -0.044233 0.000000 0.012744
#
#
# Mechanical properties :
#
#
# Convention : Reuss Voigt Hill
#
# Bulk Modulus (GPa) = 34.35634 46.86648 40.61141
# Shear Modulus (GPa) = -91.80787 30.84635 -30.48076
#
# Velocity S-wave (km/s) = -6.27871 3.63942 -3.61779
# Velocity P-wave (km/s) = 6.14901 6.14694 0.11275
#
# Compressibility (1/GPa) = 0.02910671
#
# Stress axis : x y z
#
# Youngs Moduli (GPa) = 128.36138 78.44474 79.28532
#
# Poissons Ratio (x) = 0.10310 0.13609
# Poissons Ratio (y) = 0.16871 -0.07997
# Poissons Ratio (z) = 0.22033 -0.07912
#
# Static dielectric constant tensor:
#      x y z
#    x 1.907390 0.000000 0.056780 
#    y 0.000000 1.905290 0.000000 
#    z 0.056780 0.000000 1.992810 
# 
# From -- ./inp_files/6853.got.cif
#   From: 2010.05.17/outbox.cif.g08.bks.cpg/sg11_4_cif.got.tgz:6853.got - 2010.06.03 12:22:45.
