data_PCOD9160273
_publ_section_title
;
Structure prediction by ZEFSAII (Michael W. Deem and Ramdas Pophale) SiO2 
 PCOD9160273
Probable space group: P 21/M
;
_chemical_formula_sum "Si O2"
_cell_formula_units_Z 24
_cell_length_a 19.106771
_cell_length_b 12.289624
_cell_length_c 14.358753
_cell_angle_alpha 90.000000
_cell_angle_beta 21.188981
_cell_angle_gamma 90.000000
_cell_volume 1218.667289
_symmetry_space_group_name_H-M "P 21/M"
_symmetry_group_IT_number 11
_symmetry_cell_setting 'monoclinic'
loop_
_space_group_symop_operation_xyz
x,y,z
-x,1/2+y,-z
-x,-y,-z
x,1/2-y,z
loop_
_atom_site_type_symbol
_atom_site_label
_atom_site_fract_x
_atom_site_fract_y
_atom_site_fract_z
Si Si1 0.061481 0.130460 0.313324
Si Si2 0.883138 0.623802 0.045169
Si Si3 0.574838 0.624721 0.274444
Si Si4 0.759374 0.529274 0.389036
Si Si5 0.223513 0.453305 0.296851
Si Si6 0.523654 0.873336 0.851972
O O1 0.977077 0.250000 0.398632
O O2 0.109367 0.117379 0.363233
O O3 0.259974 0.121657 0.010118
O O4 0.919419 0.031348 0.467791
O O5 0.927138 0.750000 0.969700
O O6 0.692565 0.594612 0.221744
O O7 0.839957 0.607017 0.207795
O O8 0.062979 0.546294 0.797887
O O9 0.507409 0.750000 0.366972
O O10 0.400203 0.547983 0.461851
O O11 0.656918 0.592680 0.599819
O O12 0.352302 0.384391 0.207178
O O13 0.355778 0.537699 0.074057
O O14 0.452380 0.750000 0.929249
#
# Coordination Sequence:
#
# PCOD9160273 Si02
#       6
#     4   4   4   4   4   4
#     4  10  19  35  57  81 111 146 187 234 281 334
#     4  10  22  38  59  84 114 150 189 238 292 345
#     4  10  20  36  58  85 112 146 192 236 286 343
#     4  11  21  38  59  84 115 149 191 239 289 343
#     4  10  21  36  55  81 115 149 189 230 283 339
#     4  11  22  37  56  82 114 151 191 235 286 341
#
# _framework density 19.693645
#
# number of rings (size 3 to 8) (size 9 to 14) (size 15 to 20)
#    0.000    1.667    1.667    3.500    0.000    0.000 
#    0.000    1.667    0.000    4.000    0.000    0.000 
#    0.000    0.000    0.000    0.000    0.000    0.000 
#
# Total GULP energy -134037.153389 kJ/mol
# GULP energy per Si atom -5584.881391 kJ/mol
# Density = 1.964882 g / cm^3
# Si number density = 19.693645 Si / 1000 Ang^3
#
#
#
# Elastic Constant Matrix: (Units=GPa)
#
#
# Indices 1 2 3 4 5 6 
#
# 1 47.5925 11.6624 0.6856 0.0000 11.0158 0.0000
# 2 11.6624 73.5277 12.9467 0.0000 4.3169 0.0000
# 3 0.6856 12.9467 47.1504 0.0000 7.9582 0.0000
# 4 0.0000 0.0000 0.0000 15.8522 0.0000 2.8749
# 5 11.0158 4.3169 7.9582 0.0000 22.9871 0.0000
# 6 0.0000 0.0000 0.0000 2.8749 0.0000 8.6060
#
#
#
# Elastic Compliance Matrix: (Units=1/GPa)
#
#
# Indices 1 2 3 4 5 6 
#
# 1 0.024665 -0.003677 0.002687 0.000000 -0.012060 0.000000
# 2 -0.003677 0.014882 -0.004098 0.000000 0.000386 0.000000
# 3 0.002687 -0.004098 0.023771 0.000000 -0.008748 0.000000
# 4 0.000000 0.000000 0.000000 0.067151 0.000000 -0.022433
# 5 -0.012060 0.000386 -0.008748 0.000000 0.052238 0.000000
# 6 0.000000 0.000000 0.000000 -0.022433 0.000000 0.123692
#
#
# Mechanical properties :
#
#
# Convention : Reuss Voigt Hill
#
# Bulk Modulus (GPa) = 18.81767 24.31776 21.56771
# Shear Modulus (GPa) = 14.95699 19.02078 16.98889
#
# Velocity S-wave (km/s) = 2.75886 3.11116 2.94029
# Velocity P-wave (km/s) = 4.44121 5.02798 4.74368
#
# Compressibility (1/GPa) = 0.05314156
#
# Stress axis : x y z
#
# Youngs Moduli (GPa) = 40.54254 67.19304 42.06742
#
# Poissons Ratio (x) = 0.24708 -0.11301
# Poissons Ratio (y) = 0.14908 0.17240
# Poissons Ratio (z) = -0.10892 0.27537
#
# Static dielectric constant tensor:
#      x y z
#    x 1.679000 0.000000 0.003820 
#    y 0.000000 1.667360 0.000000 
#    z 0.003820 0.000000 1.676530 
# 
# From -- ./inp_files/16914.got.cif
#   From: 2010.05.17/outbox.cif.g08.bks.cpg/sg11_9_cif.got.tgz:16914.got - 2010.06.03 12:22:45.
