data_PCOD9160399
_publ_section_title
;
Structure prediction by ZEFSAII (Michael W. Deem and Ramdas Pophale) SiO2 
 PCOD9160399
Probable space group: P 21/M
;
_chemical_formula_sum "Si O2"
_cell_formula_units_Z 32
_cell_length_a 20.509466
_cell_length_b 7.552616
_cell_length_c 26.258952
_cell_angle_alpha 90.000000
_cell_angle_beta 21.424160
_cell_angle_gamma 90.000000
_cell_volume 1485.738510
_symmetry_space_group_name_H-M "P 21/M"
_symmetry_group_IT_number 11
_symmetry_cell_setting 'monoclinic'
loop_
_space_group_symop_operation_xyz
x,y,z
-x,1/2+y,-z
-x,-y,-z
x,1/2-y,z
loop_
_atom_site_type_symbol
_atom_site_label
_atom_site_fract_x
_atom_site_fract_y
_atom_site_fract_z
Si Si1 0.790318 0.461014 0.657329
Si Si2 0.736400 0.536099 0.421639
Si Si3 0.861271 0.532571 0.220522
Si Si4 0.668330 0.957362 0.258189
Si Si5 0.303097 0.537780 0.162656
Si Si6 0.953601 0.966722 0.359235
Si Si7 0.252579 0.953631 0.911922
Si Si8 0.366150 0.044270 0.336142
O O1 0.765931 0.250000 0.673417
O O2 0.725581 0.529302 0.759083
O O3 0.686890 0.536158 0.684110
O O4 0.000000 0.500000 0.500000
O O5 0.735215 0.750000 0.421948
O O6 0.771934 0.475024 0.338301
O O7 0.544423 0.479211 0.582365
O O8 0.890522 0.479548 0.348942
O O9 0.859255 0.750000 0.221711
O O10 0.755405 0.474972 0.247142
O O11 0.065929 0.471134 0.067174
O O12 0.710616 0.750000 0.222957
O O13 0.741382 0.044087 0.153762
O O14 0.282098 0.750000 0.180487
O O15 0.145162 0.472446 0.240444
O O16 0.500000 0.500000 0.000000
O O17 0.957063 0.750000 0.357310
O O18 0.798446 0.027528 0.511018
O O19 0.252310 0.750000 0.930236
O O20 0.439738 0.036098 0.794029
O O21 0.379362 0.250000 0.342635
#
# Coordination Sequence:
#
# PCOD9160399 Si02
#       8
#     4   4   4   4   4   4   4   4
#     4  11  22  37  59  86 116 149 184 229 275 327
#     4  10  19  36  60  81 106 147 190 229 276 331
#     4   9  20  35  54  83 114 143 186 236 281 332
#     4  11  21  34  53  82 116 147 184 233 281 332
#     4  10  22  39  57  82 116 145 180 224 273 326
#     4   9  17  34  58  82 108 140 181 230 272 321
#     4  10  20  37  59  82 108 146 192 232 275 337
#     4  10  19  35  59  86 111 141 188 236 276 329
#
# _framework density 21.53811
#
# number of rings (size 3 to 8) (size 9 to 14) (size 15 to 20)
#    0.000    2.000    2.500    1.500    0.000    2.500 
#    0.000    5.000    0.000    0.000    0.000    0.000 
#    0.000    0.000    0.000    0.000    0.000    0.000 
#
# Total GULP energy -178785.554696 kJ/mol
# GULP energy per Si atom -5587.048584 kJ/mol
# Density = 2.148909 g / cm^3
# Si number density = 21.538110 Si / 1000 Ang^3
#
#
#
# Elastic Constant Matrix: (Units=GPa)
#
#
# Indices 1 2 3 4 5 6 
#
# 1 71.3423 -11.9834 -2.2358 0.0000 -11.9549 0.0000
# 2 -11.9834 50.2718 -11.5877 0.0000 -4.0223 0.0000
# 3 -2.2358 -11.5877 75.8826 0.0000 -0.6288 0.0000
# 4 0.0000 0.0000 0.0000 6.1038 0.0000 1.0423
# 5 -11.9549 -4.0223 -0.6288 0.0000 36.6711 0.0000
# 6 0.0000 0.0000 0.0000 1.0423 0.0000 17.2472
#
#
#
# Elastic Compliance Matrix: (Units=1/GPa)
#
#
# Indices 1 2 3 4 5 6 
#
# 1 0.015754 0.004483 0.001196 0.000000 0.005648 0.000000
# 2 0.004483 0.022092 0.003538 0.000000 0.003945 0.000000
# 3 0.001196 0.003538 0.013762 0.000000 0.001014 0.000000
# 4 0.000000 0.000000 0.000000 0.165540 0.000000 -0.010004
# 5 0.005648 0.003945 0.001014 0.000000 0.029561 0.000000
# 6 0.000000 0.000000 0.000000 -0.010004 0.000000 0.058585
#
#
# Mechanical properties :
#
#
# Convention : Reuss Voigt Hill
#
# Bulk Modulus (GPa) = 14.27741 16.20921 15.24331
# Shear Modulus (GPa) = 16.11824 26.89132 21.50478
#
# Velocity S-wave (km/s) = 2.73858 3.53731 3.16326
# Velocity P-wave (km/s) = 4.07959 4.92195 4.52044
#
# Compressibility (1/GPa) = 0.07004073
#
# Stress axis : x y z
#
# Youngs Moduli (GPa) = 63.47672 45.26597 72.66284
#
# Poissons Ratio (x) = -0.20292 -0.08687
# Poissons Ratio (y) = -0.28455 -0.25710
# Poissons Ratio (z) = -0.07589 -0.16016
#
# Static dielectric constant tensor:
#      x y z
#    x 1.759640 0.000000 -0.015450 
#    y 0.000000 1.854260 0.000000 
#    z -0.015450 0.000000 1.742420 
# 
# From -- ./inp_files/72103.got.cif
#   From: 2010.05.17/outbox.cif.g08.bks.cpg/sg11_37_cif.got.tgz:72103.got - 2010.06.03 12:22:45.
