data_PCOD9160623
_publ_section_title
;
Structure prediction by ZEFSAII (Michael W. Deem and Ramdas Pophale) SiO2 
 PCOD9160623
Probable space group: P 21/M
;
_chemical_formula_sum "Si O2"
_cell_formula_units_Z 28
_cell_length_a 11.044004
_cell_length_b 14.436113
_cell_length_c 8.942444
_cell_angle_alpha 90.000000
_cell_angle_beta 109.248409
_cell_angle_gamma 90.000000
_cell_volume 1346.015978
_symmetry_space_group_name_H-M "P 21/M"
_symmetry_group_IT_number 11
_symmetry_cell_setting 'monoclinic'
loop_
_space_group_symop_operation_xyz
x,y,z
-x,1/2+y,-z
-x,-y,-z
x,1/2-y,z
loop_
_atom_site_type_symbol
_atom_site_label
_atom_site_fract_x
_atom_site_fract_y
_atom_site_fract_z
Si Si1 0.028171 0.069115 0.146606
Si Si2 0.404311 0.012854 0.099281
Si Si3 0.182548 0.152509 0.968493
Si Si4 0.074792 0.143185 0.605157
Si Si5 0.602269 0.359290 0.325044
Si Si6 0.252961 0.855609 0.938006
Si Si7 0.170930 0.525280 0.479245
O O1 0.889994 0.104423 0.142540
O O2 0.114395 0.018158 0.304249
O O3 0.110635 0.146758 0.096345
O O4 0.000000 0.000000 0.000000
O O5 0.477522 0.074982 0.251882
O O6 0.284266 0.072622 0.997391
O O7 0.500000 0.000000 0.000000
O O8 0.337086 0.913273 0.092882
O O9 0.253149 0.250000 0.982780
O O10 0.087138 0.146090 0.789522
O O11 0.088913 0.250000 0.557207
O O12 0.938356 0.097676 0.510024
O O13 0.175635 0.066335 0.586734
O O14 0.579532 0.250000 0.353588
O O15 0.673951 0.358924 0.191888
O O16 0.699469 0.415706 0.471712
O O17 0.241458 0.750000 0.981504
#
# Coordination Sequence:
#
# PCOD9160623 Si02
#       7
#     4   4   4   4   4   4   4
#     4  12  22  38  59  87 120 158 192 245 309 363
#     4  10  19  36  60  87 119 154 203 248 294 341
#     4  11  22  38  61  89 119 153 197 247 300 359
#     4  10  20  34  56  85 115 152 197 249 304 356
#     4  10  21  37  60  88 118 161 207 251 298 353
#     4  10  20  36  61  90 123 159 201 248 303 360
#     4  11  21  36  56  83 121 156 198 248 300 362
#
# _framework density 20.802130999999999
#
# number of rings (size 3 to 8) (size 9 to 14) (size 15 to 20)
#    0.000    1.429    2.857    4.714    0.000    2.857 
#    0.000    1.429    0.000    0.000    0.000    0.000 
#    0.000    0.000    0.000    0.000    0.000    0.000 
#
# Total GULP energy -156101.599746 kJ/mol
# GULP energy per Si atom -5575.057134 kJ/mol
# Density = 2.075478 g / cm^3
# Si number density = 20.802131 Si / 1000 Ang^3
#
#
#
# Elastic Constant Matrix: (Units=GPa)
#
#
# Indices 1 2 3 4 5 6 
#
# 1 50.7260 32.1873 24.3943 0.0000 19.8101 0.0000
# 2 32.1873 172.5740 57.5292 0.0000 26.1343 0.0000
# 3 24.3943 57.5292 81.1900 0.0000 17.4998 0.0000
# 4 0.0000 0.0000 0.0000 16.1855 0.0000 2.1075
# 5 19.8101 26.1343 17.4998 0.0000 28.3159 0.0000
# 6 0.0000 0.0000 0.0000 2.1075 0.0000 21.8744
#
#
#
# Elastic Compliance Matrix: (Units=1/GPa)
#
#
# Indices 1 2 3 4 5 6 
#
# 1 0.029069 -0.001583 -0.004089 0.000000 -0.016349 0.000000
# 2 -0.001583 0.008143 -0.004514 0.000000 -0.003618 0.000000
# 3 -0.004089 -0.004514 0.017570 0.000000 -0.003832 0.000000
# 4 0.000000 0.000000 0.000000 0.062569 0.000000 -0.006028
# 5 -0.016349 -0.003618 -0.003832 0.000000 0.052461 0.000000
# 6 0.000000 0.000000 0.000000 -0.006028 0.000000 0.046296
#
#
# Mechanical properties :
#
#
# Convention : Reuss Voigt Hill
#
# Bulk Modulus (GPa) = 29.06101 59.19017 44.12559
# Shear Modulus (GPa) = 20.16538 25.96710 23.06624
#
# Velocity S-wave (km/s) = 3.11688 3.53695 3.33354
# Velocity P-wave (km/s) = 5.19170 6.72277 6.00622
#
# Compressibility (1/GPa) = 0.03441036
#
# Stress axis : x y z
#
# Youngs Moduli (GPa) = 34.40049 122.81080 56.91591
#
# Poissons Ratio (x) = 0.19440 0.23270
# Poissons Ratio (y) = 0.05445 0.25693
# Poissons Ratio (z) = 0.14065 0.55440
#
# Static dielectric constant tensor:
#      x y z
#    x 1.759120 0.000000 -0.010070 
#    y 0.000000 1.823390 0.000000 
#    z -0.010070 0.000000 1.756500 
# 
# From -- ./inp_files/17802.got.cif
#   From: 2010.05.17/outbox.cif.g08.bks.cpg/sg11_9_cif.got.tgz:17802.got - 2010.06.03 12:22:45.
