data_PCOD9160769
_publ_section_title
;
Structure prediction by ZEFSAII (Michael W. Deem and Ramdas Pophale) SiO2 
 PCOD9160769
Probable space group: P 21/M
;
_chemical_formula_sum "Si O2"
_cell_formula_units_Z 32
_cell_length_a 14.779882
_cell_length_b 7.673415
_cell_length_c 21.172516
_cell_angle_alpha 90.000000
_cell_angle_beta 34.750022
_cell_angle_gamma 90.000000
_cell_volume 1368.688923
_symmetry_space_group_name_H-M "P 21/M"
_symmetry_group_IT_number 11
_symmetry_cell_setting 'monoclinic'
loop_
_space_group_symop_operation_xyz
x,y,z
-x,1/2+y,-z
-x,-y,-z
x,1/2-y,z
loop_
_atom_site_type_symbol
_atom_site_label
_atom_site_fract_x
_atom_site_fract_y
_atom_site_fract_z
Si Si1 0.014808 0.547488 0.762567
Si Si2 0.011327 0.549631 0.089726
Si Si3 0.852232 0.451761 0.726715
Si Si4 0.830030 0.039339 0.518091
Si Si5 0.665173 0.037544 0.480251
Si Si6 0.672443 0.456965 0.150763
Si Si7 0.660707 0.548635 0.294920
Si Si8 0.374899 0.539223 0.244819
O O1 0.026261 0.750000 0.772175
O O2 0.937908 0.454126 0.866136
O O3 0.917878 0.534970 0.753089
O O4 0.194702 0.478920 0.646823
O O5 0.992483 0.750000 0.080066
O O6 0.835993 0.467031 0.191771
O O7 0.152213 0.473812 0.967029
O O8 0.826474 0.250000 0.756698
O O9 0.697595 0.523622 0.779830
O O10 0.994559 0.466446 0.593908
O O11 0.841557 0.250000 0.512946
O O12 0.732668 0.991617 0.510853
O O13 0.738345 0.978752 0.632692
O O14 0.660814 0.250000 0.479555
O O15 0.484342 0.971150 0.581493
O O16 0.680773 0.250000 0.156805
O O17 0.609443 0.543889 0.250754
O O18 0.551538 0.488510 0.163018
O O19 0.677803 0.750000 0.304610
O O20 0.367220 0.750000 0.248200
#
# Coordination Sequence:
#
# PCOD9160769 Si02
#       8
#     4   4   4   4   4   4   4   4
#     4  10  21  38  58  80 112 150 190 231 274 330
#     4  10  23  40  58  81 110 148 191 237 282 325
#     4  10  20  33  54  83 113 145 185 228 275 333
#     4   9  16  30  51  78 115 149 181 220 269 331
#     4   8  15  30  54  82 111 143 177 220 268 323
#     4  11  23  37  55  85 118 143 184 240 280 325
#     4  10  19  37  62  83 112 150 182 222 285 343
#     4  10  20  35  55  80 111 150 188 224 275 337
#
# _framework density 23.380039
#
# number of rings (size 3 to 8) (size 9 to 14) (size 15 to 20)
#    0.000    2.250    1.250    2.625    0.000    3.500 
#    0.000    1.250    0.000    0.000    0.000    0.000 
#    0.000    0.000    0.000    0.000    0.000    0.000 
#
# Total GULP energy -178772.710366 kJ/mol
# GULP energy per Si atom -5586.647199 kJ/mol
# Density = 2.332683 g / cm^3
# Si number density = 23.380039 Si / 1000 Ang^3
#
#
#
# Elastic Constant Matrix: (Units=GPa)
#
#
# Indices 1 2 3 4 5 6 
#
# 1 77.7417 10.4027 31.0031 0.0000 -13.4385 0.0000
# 2 10.4027 58.8434 -0.3664 0.0000 -0.8608 0.0000
# 3 31.0031 -0.3664 75.3045 0.0000 2.7231 0.0000
# 4 0.0000 0.0000 0.0000 10.4399 0.0000 -2.1639
# 5 -13.4385 -0.8608 2.7231 0.0000 33.6482 0.0000
# 6 0.0000 0.0000 0.0000 -2.1639 0.0000 20.8254
#
#
#
# Elastic Compliance Matrix: (Units=1/GPa)
#
#
# Indices 1 2 3 4 5 6 
#
# 1 0.017576 -0.003044 -0.007524 0.000000 0.007551 0.000000
# 2 -0.003044 0.017528 0.001370 0.000000 -0.000878 0.000000
# 3 -0.007524 0.001370 0.016540 0.000000 -0.004308 0.000000
# 4 0.000000 0.000000 0.000000 0.097895 0.000000 0.010172
# 5 0.007551 -0.000878 -0.004308 0.000000 0.033061 0.000000
# 6 0.000000 0.000000 0.000000 0.010172 0.000000 0.049075
#
#
# Mechanical properties :
#
#
# Convention : Reuss Voigt Hill
#
# Bulk Modulus (GPa) = 30.07640 32.66315 31.36977
# Shear Modulus (GPa) = 19.14588 24.37271 21.75930
#
# Velocity S-wave (km/s) = 2.86474 3.23221 3.05401
# Velocity P-wave (km/s) = 4.88205 5.28493 5.08748
#
# Compressibility (1/GPa) = 0.03324866
#
# Stress axis : x y z
#
# Youngs Moduli (GPa) = 56.89531 57.05149 60.46113
#
# Poissons Ratio (x) = 0.17364 0.45491
# Poissons Ratio (y) = 0.17317 -0.08284
# Poissons Ratio (z) = 0.42808 -0.07817
#
# Static dielectric constant tensor:
#      x y z
#    x 1.929040 0.000000 -0.033380 
#    y 0.000000 1.852870 0.000000 
#    z -0.033380 0.000000 1.875570 
# 
# From -- ./inp_files/68983.got.cif
#   From: 2010.05.17/outbox.cif.g08.bks.cpg/sg11_35_cif.got.tgz:68983.got - 2010.06.03 12:22:45.
