data_PCOD9160227
_publ_section_title
;
Structure prediction by ZEFSAII (Michael W. Deem and Ramdas Pophale) SiO2 
 PCOD9160227
Probable space group: P 21/M
;
_chemical_formula_sum "Si O2"
_cell_formula_units_Z 32
_cell_length_a 12.648487
_cell_length_b 7.800366
_cell_length_c 32.584823
_cell_angle_alpha 90.000000
_cell_angle_beta 28.983751
_cell_angle_gamma 90.000000
_cell_volume 1557.822185
_symmetry_space_group_name_H-M "P 21/M"
_symmetry_group_IT_number 11
_symmetry_cell_setting 'monoclinic'
loop_
_space_group_symop_operation_xyz
x,y,z
-x,1/2+y,-z
-x,-y,-z
x,1/2-y,z
loop_
_atom_site_type_symbol
_atom_site_label
_atom_site_fract_x
_atom_site_fract_y
_atom_site_fract_z
Si Si1 0.562905 0.045509 0.025142
Si Si2 0.138807 0.459459 0.220538
Si Si3 0.833172 0.449097 0.617613
Si Si4 0.296039 0.954536 0.426723
Si Si5 0.319805 0.048771 0.241910
Si Si6 0.205067 0.542533 0.902054
Si Si7 0.942223 0.451403 0.135391
Si Si8 0.220473 0.957249 0.721281
O O1 0.582549 0.250000 0.022076
O O2 0.363573 0.990625 0.121635
O O3 0.500000 0.000000 0.000000
O O4 0.797218 0.969063 0.956332
O O5 0.126007 0.250000 0.223917
O O6 0.163297 0.519291 0.259138
O O7 0.935188 0.520255 0.262476
O O8 0.776752 0.250000 0.640935
O O9 0.711611 0.518226 0.618101
O O10 0.771954 0.533159 0.681195
O O11 0.088940 0.468109 0.520369
O O12 0.262561 0.750000 0.436878
O O13 0.527287 0.994919 0.368025
O O14 0.343019 0.250000 0.224746
O O15 0.565444 0.976503 0.158277
O O16 0.217255 0.750000 0.895822
O O17 0.166824 0.476274 0.868700
O O18 0.000000 0.500000 0.000000
O O19 0.888203 0.250000 0.154751
O O20 0.865143 0.523424 0.205389
O O21 0.204651 0.750000 0.727253
#
# Coordination Sequence:
#
# PCOD9160227 Si02
#       8
#     4   4   4   4   4   4   4   4
#     4  11  20  34  54  77 107 145 188 232 276 324
#     4   9  19  35  55  78 108 147 188 228 272 325
#     4  10  21  38  60  86 113 142 175 219 277 331
#     4  10  21  37  59  87 114 138 175 224 272 330
#     4  10  20  37  59  81 108 148 191 226 269 325
#     4  10  21  35  53  78 111 149 187 231 279 327
#     4  10  20  34  52  77 109 145 186 230 280 332
#     4  10  19  35  56  79 110 144 180 227 278 324
#
# _framework density 20.541495999999999
#
# number of rings (size 3 to 8) (size 9 to 14) (size 15 to 20)
#    0.000    2.000    1.250    2.625    0.000    5.000 
#    0.000    2.500    0.000    0.000    0.000    0.000 
#    0.000    0.000    0.000    0.000    0.000    0.000 
#
# Total GULP energy -178721.318920 kJ/mol
# GULP energy per Si atom -5585.041216 kJ/mol
# Density = 2.049474 g / cm^3
# Si number density = 20.541496 Si / 1000 Ang^3
#
#
#
# Elastic Constant Matrix: (Units=GPa)
#
#
# Indices 1 2 3 4 5 6 
#
# 1 153.9458 4.8957 55.6224 0.0000 -6.9931 0.0000
# 2 4.8957 25.1945 -10.4862 0.0000 2.5813 0.0000
# 3 55.6224 -10.4862 69.3991 0.0000 -5.2094 0.0000
# 4 0.0000 0.0000 0.0000 25.3785 0.0000 -1.2947
# 5 -6.9931 2.5813 -5.2094 0.0000 31.0728 0.0000
# 6 0.0000 0.0000 0.0000 -1.2947 0.0000 12.3124
#
#
#
# Elastic Compliance Matrix: (Units=1/GPa)
#
#
# Indices 1 2 3 4 5 6 
#
# 1 0.009863 -0.005650 -0.008666 0.000000 0.001236 0.000000
# 2 -0.005650 0.045781 0.011206 0.000000 -0.003196 0.000000
# 3 -0.008666 0.011206 0.023123 0.000000 0.000995 0.000000
# 4 0.000000 0.000000 0.000000 0.039616 0.000000 0.004166
# 5 0.001236 -0.003196 0.000995 0.000000 0.032893 0.000000
# 6 0.000000 0.000000 0.000000 0.004166 0.000000 0.081657
#
#
# Mechanical properties :
#
#
# Convention : Reuss Voigt Hill
#
# Bulk Modulus (GPa) = 13.78427 38.73369 26.25898
# Shear Modulus (GPa) = 18.98732 26.98655 22.98693
#
# Velocity S-wave (km/s) = 3.04359 3.62851 3.34885
# Velocity P-wave (km/s) = 4.36764 6.03755 5.26917
#
# Compressibility (1/GPa) = 0.07254644
#
# Stress axis : x y z
#
# Youngs Moduli (GPa) = 101.39288 21.84335 43.24749
#
# Poissons Ratio (x) = 0.12341 0.37477
# Poissons Ratio (y) = 0.57285 -0.48462
# Poissons Ratio (z) = 0.87864 -0.24477
#
# Static dielectric constant tensor:
#      x y z
#    x 1.753800 0.000000 0.003680 
#    y 0.000000 1.758980 0.000000 
#    z 0.003680 0.000000 1.692440 
# 
# From -- ./inp_files/49286.got.cif
#   From: 2010.05.17/outbox.cif.g08.bks.cpg/sg11_25_cif.got.tgz:49286.got - 2010.06.03 12:22:45.
