data_PCOD9160185
_publ_section_title
;
Structure prediction by ZEFSAII (Michael W. Deem and Ramdas Pophale) SiO2 
 PCOD9160185
Probable space group: P 21/M
;
_chemical_formula_sum "Si O2"
_cell_formula_units_Z 24
_cell_length_a 7.706814
_cell_length_b 20.559104
_cell_length_c 9.508832
_cell_angle_alpha 90.000000
_cell_angle_beta 135.652540
_cell_angle_gamma 90.000000
_cell_volume 1053.145329
_symmetry_space_group_name_H-M "P 21/M"
_symmetry_group_IT_number 11
_symmetry_cell_setting 'monoclinic'
loop_
_space_group_symop_operation_xyz
x,y,z
-x,1/2+y,-z
-x,-y,-z
x,1/2-y,z
loop_
_atom_site_type_symbol
_atom_site_label
_atom_site_fract_x
_atom_site_fract_y
_atom_site_fract_z
Si Si1 0.753193 0.456595 0.861095
Si Si2 0.097411 0.958418 0.747212
Si Si3 0.687018 0.452486 0.435534
Si Si4 0.945193 0.322074 0.921423
Si Si5 0.034725 0.679723 0.727764
Si Si6 0.483284 0.677088 0.771688
O O1 0.541177 0.500115 0.673093
O O2 0.730828 0.447974 0.017735
O O3 0.781241 0.386148 0.806705
O O4 0.000000 0.500000 0.000000
O O5 0.246255 0.964120 0.690184
O O6 0.930402 0.892228 0.634123
O O7 0.924105 0.021545 0.656212
O O8 0.612454 0.377228 0.391710
O O9 0.865418 0.250000 0.825277
O O10 0.960364 0.317943 0.100875
O O11 0.225896 0.335004 0.029299
O O12 0.924467 0.750000 0.616737
O O13 0.303668 0.676441 0.804638
O O14 0.469082 0.750000 0.704311
#
# Coordination Sequence:
#
# PCOD9160185 Si02
#       6
#     4   4   4   4   4   4
#     4  11  20  33  52  79 104 137 171 212 263 312
#     4   9  20  34  53  78 105 137 172 220 258 309
#     4  10  19  35  54  77 105 135 177 215 263 309
#     4   9  17  31  49  73 103 134 173 214 256 307
#     4   8  15  29  49  73  99 134 176 210 254 307
#     4   9  16  29  51  73  99 136 173 213 256 307
#
# _framework density 22.788876999999999
#
# number of rings (size 3 to 8) (size 9 to 14) (size 15 to 20)
#    0.000    2.667    1.667    0.500    0.000    0.667 
#    0.000    0.833    0.000    3.000    0.000    0.000 
#    0.000    0.000    0.000    0.000    0.000    0.000 
#
# Total GULP energy -133753.690606 kJ/mol
# GULP energy per Si atom -5573.070442 kJ/mol
# Density = 2.273701 g / cm^3
# Si number density = 22.788877 Si / 1000 Ang^3
#
#
#
# Elastic Constant Matrix: (Units=GPa)
#
#
# Indices 1 2 3 4 5 6 
#
# 1 61.1148 7.5657 15.8982 0.0000 -12.7825 0.0000
# 2 7.5657 145.7652 8.9740 0.0000 9.4381 0.0000
# 3 15.8982 8.9740 36.2050 0.0000 -12.6040 0.0000
# 4 0.0000 0.0000 0.0000 13.5964 0.0000 13.1287
# 5 -12.7825 9.4381 -12.6040 0.0000 22.1534 0.0000
# 6 0.0000 0.0000 0.0000 13.1287 0.0000 32.2698
#
#
#
# Elastic Compliance Matrix: (Units=1/GPa)
#
#
# Indices 1 2 3 4 5 6 
#
# 1 0.019760 -0.001284 -0.005236 0.000000 0.008969 0.000000
# 2 -0.001284 0.007510 -0.003329 0.000000 -0.005834 0.000000
# 3 -0.005236 -0.003329 0.037642 0.000000 0.019813 0.000000
# 4 0.000000 0.000000 0.000000 0.121137 0.000000 -0.049284
# 5 0.008969 -0.005834 0.019813 0.000000 0.064073 0.000000
# 6 0.000000 0.000000 0.000000 -0.049284 0.000000 0.051039
#
#
# Mechanical properties :
#
#
# Convention : Reuss Voigt Hill
#
# Bulk Modulus (GPa) = 22.11683 34.21789 28.16736
# Shear Modulus (GPa) = 14.88405 27.64706 21.26555
#
# Velocity S-wave (km/s) = 2.55841 3.48686 3.05807
# Velocity P-wave (km/s) = 4.29575 5.59094 4.98558
#
# Compressibility (1/GPa) = 0.04521445
#
# Stress axis : x y z
#
# Youngs Moduli (GPa) = 50.60816 133.16180 26.56584
#
# Poissons Ratio (x) = 0.17098 0.13910
# Poissons Ratio (y) = 0.06498 0.08843
# Poissons Ratio (z) = 0.26499 0.44324
#
# Static dielectric constant tensor:
#      x y z
#    x 1.892880 0.000000 -0.005740 
#    y 0.000000 1.934380 0.000000 
#    z -0.005740 0.000000 1.810210 
# 
# From -- ./inp_files/13205.got.cif
#   From: 2010.05.17/outbox.cif.g08.bks.cpg/sg11_7_cif.got.tgz:13205.got - 2010.06.03 12:22:45.
