data_PCOD9160416
_publ_section_title
;
Structure prediction by ZEFSAII (Michael W. Deem and Ramdas Pophale) SiO2 
 PCOD9160416
Probable space group: P 21/M
;
_chemical_formula_sum "Si O2"
_cell_formula_units_Z 28
_cell_length_a 8.469436
_cell_length_b 16.654826
_cell_length_c 20.018872
_cell_angle_alpha 90.000000
_cell_angle_beta 148.919141
_cell_angle_gamma 90.000000
_cell_volume 1457.779837
_symmetry_space_group_name_H-M "P 21/M"
_symmetry_group_IT_number 11
_symmetry_cell_setting 'monoclinic'
loop_
_space_group_symop_operation_xyz
x,y,z
-x,1/2+y,-z
-x,-y,-z
x,1/2-y,z
loop_
_atom_site_type_symbol
_atom_site_label
_atom_site_fract_x
_atom_site_fract_y
_atom_site_fract_z
Si Si1 0.643099 0.571666 0.339129
Si Si2 0.650290 0.997705 0.893415
Si Si3 0.386425 0.661176 0.864544
Si Si4 0.736937 0.897660 0.586400
Si Si5 0.247605 0.656621 0.296984
Si Si6 0.422795 0.084290 0.936431
Si Si7 0.230260 0.954037 0.491733
O O1 0.519920 0.514119 0.237155
O O2 0.403295 0.634559 0.282245
O O3 0.709722 0.515168 0.426443
O O4 0.958317 0.602160 0.419876
O O5 0.568276 0.911839 0.895896
O O6 0.553966 0.068356 0.910230
O O7 0.000000 0.000000 0.000000
O O8 0.500713 0.750000 0.889172
O O9 0.039220 0.651188 0.712936
O O10 0.418314 0.647495 0.955958
O O11 0.504691 0.861425 0.446930
O O12 0.533869 0.909455 0.578749
O O13 0.840398 0.985751 0.596152
O O14 0.166214 0.750000 0.270241
O O15 0.938945 0.604839 0.195617
O O16 0.500000 0.000000 0.000000
#
# Coordination Sequence:
#
# PCOD9160416 Si02
#       7
#     4   4   4   4   4   4   4
#     4  10  19  35  59  92 119 159 201 249 305 360
#     4  11  23  39  64  90 117 158 210 253 303 369
#     4  11  23  41  63  91 125 162 202 258 318 364
#     4  10  20  36  65  89 124 158 212 250 306 367
#     4  11  23  40  62  91 127 167 206 256 315 369
#     4  10  23  40  63  87 115 160 213 251 293 369
#     4   9  19  33  60  91 120 157 204 254 293 362
#
# _framework density 19.207288999999999
#
# number of rings (size 3 to 8) (size 9 to 14) (size 15 to 20)
#    0.000    1.714    1.429    3.429   12.000    0.000 
#    0.000    5.714    0.000    0.000    0.000    0.000 
#    0.000    0.000    0.000    0.000    0.000    0.000 
#
# Total GULP energy -156051.270294 kJ/mol
# GULP energy per Si atom -5573.259653 kJ/mol
# Density = 1.916357 g / cm^3
# Si number density = 19.207289 Si / 1000 Ang^3
#
#
#
# Elastic Constant Matrix: (Units=GPa)
#
#
# Indices 1 2 3 4 5 6 
#
# 1 146.0271 37.5287 44.8506 0.0000 22.5777 0.0000
# 2 37.5287 80.8558 33.4191 0.0000 10.3670 0.0000
# 3 44.8506 33.4191 86.3023 0.0000 15.6233 0.0000
# 4 0.0000 0.0000 0.0000 17.4683 0.0000 0.3598
# 5 22.5777 10.3670 15.6233 0.0000 32.2503 0.0000
# 6 0.0000 0.0000 0.0000 0.3598 0.0000 17.9164
#
#
#
# Elastic Compliance Matrix: (Units=1/GPa)
#
#
# Indices 1 2 3 4 5 6 
#
# 1 0.009027 -0.002420 -0.003015 0.000000 -0.004081 0.000000
# 2 -0.002420 0.015512 -0.004552 0.000000 -0.001087 0.000000
# 3 -0.003015 -0.004552 0.015642 0.000000 -0.004003 0.000000
# 4 0.000000 0.000000 0.000000 0.057270 0.000000 -0.001150
# 5 -0.004081 -0.001087 -0.004003 0.000000 0.036153 0.000000
# 6 0.000000 0.000000 0.000000 -0.001150 0.000000 0.055838
#
#
# Mechanical properties :
#
#
# Convention : Reuss Voigt Hill
#
# Bulk Modulus (GPa) = 49.49268 60.53135 55.01201
# Shear Modulus (GPa) = 23.13178 26.68610 24.90894
#
# Velocity S-wave (km/s) = 3.47410 3.73147 3.60509
# Velocity P-wave (km/s) = 6.47426 7.08155 6.78471
#
# Compressibility (1/GPa) = 0.02020501
#
# Stress axis : x y z
#
# Youngs Moduli (GPa) = 110.77671 64.46662 63.93192
#
# Poissons Ratio (x) = 0.15603 0.19278
# Poissons Ratio (y) = 0.26812 0.29103
# Poissons Ratio (z) = 0.33403 0.29346
#
# Static dielectric constant tensor:
#      x y z
#    x 1.729150 0.000000 0.057090 
#    y 0.000000 1.707720 0.000000 
#    z 0.057090 0.000000 1.830050 
# 
# From -- ./inp_files/47979.got.cif
#   From: 2010.05.17/outbox.cif.g08.bks.cpg/sg11_24_cif.got.tgz:47979.got - 2010.06.03 12:22:45.
