data_PCOD9160249
_publ_section_title
;
Structure prediction by ZEFSAII (Michael W. Deem and Ramdas Pophale) SiO2 
 PCOD9160249
Probable space group: P 21/M
;
_chemical_formula_sum "Si O2"
_cell_formula_units_Z 32
_cell_length_a 9.004923
_cell_length_b 18.585251
_cell_length_c 13.668903
_cell_angle_alpha 90.000000
_cell_angle_beta 47.752984
_cell_angle_gamma 90.000000
_cell_volume 1693.410922
_symmetry_space_group_name_H-M "P 21/M"
_symmetry_group_IT_number 11
_symmetry_cell_setting 'monoclinic'
loop_
_space_group_symop_operation_xyz
x,y,z
-x,1/2+y,-z
-x,-y,-z
x,1/2-y,z
loop_
_atom_site_type_symbol
_atom_site_label
_atom_site_fract_x
_atom_site_fract_y
_atom_site_fract_z
Si Si1 0.567898 0.168009 0.255398
Si Si2 0.009203 0.671695 0.851155
Si Si3 0.182502 0.943312 0.413477
Si Si4 0.531456 0.025080 0.374601
Si Si5 0.014775 0.669564 0.638436
Si Si6 0.415736 0.396619 0.123330
Si Si7 0.998204 0.986036 0.885128
Si Si8 0.280672 0.558907 0.153263
O O1 0.489672 0.250000 0.299352
O O2 0.808021 0.172287 0.155027
O O3 0.489465 0.109400 0.368835
O O4 0.524549 0.132344 0.170665
O O5 0.902701 0.750000 0.902243
O O6 0.122191 0.669642 0.695854
O O7 0.906635 0.594647 0.911546
O O8 0.118378 0.880704 0.515345
O O9 0.196485 0.916721 0.295185
O O10 0.384275 0.979885 0.367911
O O11 0.000000 0.000000 0.500000
O O12 0.767750 0.014313 0.248349
O O13 0.500000 0.000000 0.500000
O O14 0.996645 0.750000 0.608884
O O15 0.798186 0.641546 0.770325
O O16 0.379345 0.482250 0.140342
O O17 0.556202 0.387865 0.966470
O O18 0.876003 0.037638 0.864483
O O19 0.000000 0.000000 0.000000
#
# Coordination Sequence:
#
# PCOD9160249 Si02
#       8
#     4   4   4   4   4   4   4   4
#     4  10  19  35  56  84 116 158 203 250 304 363
#     4   9  18  33  54  79 112 148 191 239 287 348
#     4  12  21  37  59  88 125 160 200 258 314 363
#     4  11  22  36  58  91 120 158 209 256 307 364
#     4  11  22  39  61  87 119 160 202 248 306 374
#     4  11  21  36  58  88 119 156 203 254 306 368
#     4  11  22  37  60  86 117 153 204 251 303 363
#     4  11  22  36  58  89 124 153 199 260 318 353
#
# _framework density 18.896773
#
# number of rings (size 3 to 8) (size 9 to 14) (size 15 to 20)
#    0.000    1.250    3.750    4.125    1.750    0.000 
#    0.000    1.250    0.000    2.250    0.000    0.000 
#    0.000    0.000    0.000    0.000    0.000    0.000 
#
# Total GULP energy -178236.624995 kJ/mol
# GULP energy per Si atom -5569.894531 kJ/mol
# Density = 1.885376 g / cm^3
# Si number density = 18.896773 Si / 1000 Ang^3
#
#
#
# Elastic Constant Matrix: (Units=GPa)
#
#
# Indices 1 2 3 4 5 6 
#
# 1 100.5658 18.8051 43.4411 0.0000 11.7047 0.0000
# 2 18.8051 106.7861 42.2949 0.0000 5.3801 0.0000
# 3 43.4411 42.2949 113.6188 0.0000 14.9693 0.0000
# 4 0.0000 0.0000 0.0000 25.5308 0.0000 0.8342
# 5 11.7047 5.3801 14.9693 0.0000 33.9375 0.0000
# 6 0.0000 0.0000 0.0000 0.8342 0.0000 -2.3925
#
#
#
# Elastic Compliance Matrix: (Units=1/GPa)
#
#
# Indices 1 2 3 4 5 6 
#
# 1 0.012083 -0.000354 -0.004190 0.000000 -0.002263 0.000000
# 2 -0.000354 0.010995 -0.003975 0.000000 0.000132 0.000000
# 3 -0.004190 -0.003975 0.012326 0.000000 -0.003362 0.000000
# 4 0.000000 0.000000 0.000000 0.038727 0.000000 0.013503
# 5 -0.002263 0.000132 -0.003362 0.000000 0.031708 0.000000
# 6 0.000000 0.000000 0.000000 0.013503 0.000000 -0.413262
#
#
# Mechanical properties :
#
#
# Convention : Reuss Voigt Hill
#
# Bulk Modulus (GPa) = 54.44918 58.89477 56.67198
# Shear Modulus (GPa) = -17.58934 25.84380 4.12723
#
# Velocity S-wave (km/s) = -3.05423 3.70216 1.47947
# Velocity P-wave (km/s) = 4.05448 7.03626 5.74229
#
# Compressibility (1/GPa) = 0.01836575
#
# Stress axis : x y z
#
# Youngs Moduli (GPa) = 82.75899 90.95451 81.13064
#
# Poissons Ratio (x) = 0.03223 0.33993
# Poissons Ratio (y) = 0.02933 0.32247
# Poissons Ratio (z) = 0.34675 0.36152
#
# Static dielectric constant tensor:
#      x y z
#    x 1.747320 0.000000 0.035050 
#    y 0.000000 1.694500 0.000000 
#    z 0.035050 0.000000 1.653030 
# 
# From -- ./inp_files/32794.got.cif
#   From: 2010.05.17/outbox.cif.g08.bks.cpg/sg11_17_cif.got.tgz:32794.got - 2010.06.03 12:22:45.
