data_PCOD9160423
_publ_section_title
;
Structure prediction by ZEFSAII (Michael W. Deem and Ramdas Pophale) SiO2 
 PCOD9160423
Probable space group: P 21/M
;
_chemical_formula_sum "Si O2"
_cell_formula_units_Z 24
_cell_length_a 9.293864
_cell_length_b 19.112464
_cell_length_c 7.549449
_cell_angle_alpha 90.000000
_cell_angle_beta 49.433970
_cell_angle_gamma 90.000000
_cell_volume 1018.698810
_symmetry_space_group_name_H-M "P 21/M"
_symmetry_group_IT_number 11
_symmetry_cell_setting 'monoclinic'
loop_
_space_group_symop_operation_xyz
x,y,z
-x,1/2+y,-z
-x,-y,-z
x,1/2-y,z
loop_
_atom_site_type_symbol
_atom_site_label
_atom_site_fract_x
_atom_site_fract_y
_atom_site_fract_z
Si Si1 0.464502 0.329437 0.609107
Si Si2 0.954913 0.036981 0.319301
Si Si3 0.621569 0.536426 0.751738
Si Si4 0.430627 0.670490 0.871586
Si Si5 0.196716 0.830485 0.384132
Si Si6 0.291197 0.021849 0.800257
O O1 0.380966 0.250000 0.679908
O O2 0.583876 0.332600 0.329334
O O3 0.607001 0.335916 0.660728
O O4 0.323982 0.395990 0.725493
O O5 0.936724 0.114377 0.413288
O O6 0.833495 0.988084 0.549362
O O7 0.826759 0.024099 0.244698
O O8 0.162079 0.021722 0.080772
O O9 0.599514 0.618847 0.786429
O O10 0.491548 0.513007 0.688156
O O11 0.500000 0.500000 0.000000
O O12 0.472926 0.750000 0.886994
O O13 0.250767 0.650405 0.137575
O O14 0.132332 0.750000 0.442461
#
# Coordination Sequence:
#
# PCOD9160423 Si02
#       6
#     4   4   4   4   4   4
#     4  10  19  35  60  84 115 159 195 239 300 349
#     4  11  22  37  59  88 116 157 195 244 296 345
#     4  12  21  38  63  85 116 158 193 245 302 340
#     4  10  20  34  59  87 113 152 197 238 290 354
#     4  10  20  37  59  86 117 154 198 240 294 353
#     4  11  23  37  58  89 120 150 204 246 285 361
#
# _framework density 23.559463999999998
#
# number of rings (size 3 to 8) (size 9 to 14) (size 15 to 20)
#    0.000    1.333    5.000    1.500    0.000    1.333 
#    0.000    0.000    0.000    2.000    0.000    0.000 
#    0.000    0.000    0.000    0.000    0.000    0.000 
#
# Total GULP energy -134100.290209 kJ/mol
# GULP energy per Si atom -5587.512092 kJ/mol
# Density = 2.350584 g / cm^3
# Si number density = 23.559464 Si / 1000 Ang^3
#
#
#
# Elastic Constant Matrix: (Units=GPa)
#
#
# Indices 1 2 3 4 5 6 
#
# 1 65.3793 13.8153 27.7271 0.0000 -7.3307 0.0000
# 2 13.8153 151.9384 42.5472 0.0000 -9.9250 0.0000
# 3 27.7271 42.5472 141.1409 0.0000 8.6217 0.0000
# 4 0.0000 0.0000 0.0000 39.7567 0.0000 7.5253
# 5 -7.3307 -9.9250 8.6217 0.0000 50.3129 0.0000
# 6 0.0000 0.0000 0.0000 7.5253 0.0000 20.5646
#
#
#
# Elastic Compliance Matrix: (Units=1/GPa)
#
#
# Indices 1 2 3 4 5 6 
#
# 1 0.017176 -0.000403 -0.003437 0.000000 0.003012 0.000000
# 2 -0.000403 0.007364 -0.002250 0.000000 0.001780 0.000000
# 3 -0.003437 -0.002250 0.008586 0.000000 -0.002416 0.000000
# 4 0.000000 0.000000 0.000000 0.027025 0.000000 -0.009889
# 5 0.003012 0.001780 -0.002416 0.000000 0.021080 0.000000
# 6 0.000000 0.000000 0.000000 -0.009889 0.000000 0.052246
#
#
# Mechanical properties :
#
#
# Convention : Reuss Voigt Hill
#
# Bulk Modulus (GPa) = 47.73706 58.51534 53.12620
# Shear Modulus (GPa) = 32.75737 40.41809 36.58773
#
# Velocity S-wave (km/s) = 3.73287 4.14645 3.94508
# Velocity P-wave (km/s) = 6.23582 6.91486 6.58410
#
# Compressibility (1/GPa) = 0.02094809
#
# Stress axis : x y z
#
# Youngs Moduli (GPa) = 58.22182 135.78779 116.46849
#
# Poissons Ratio (x) = 0.05466 0.40028
# Poissons Ratio (y) = 0.02344 0.26201
# Poissons Ratio (z) = 0.20010 0.30547
#
# Static dielectric constant tensor:
#      x y z
#    x 1.934990 0.000000 0.101830 
#    y 0.000000 1.890550 0.000000 
#    z 0.101830 0.000000 1.950250 
# 
# From -- ./inp_files/19071.got.cif
#   From: 2010.05.17/outbox.cif.g08.bks.cpg/sg11_10_cif.got.tgz:19071.got - 2010.06.03 12:22:45.
