data_PCOD9160605
_publ_section_title
;
Structure prediction by ZEFSAII (Michael W. Deem and Ramdas Pophale) SiO2 
 PCOD9160605
Probable space group: P 21/M
;
_chemical_formula_sum "Si O2"
_cell_formula_units_Z 32
_cell_length_a 11.653921
_cell_length_b 8.043061
_cell_length_c 22.218642
_cell_angle_alpha 90.000000
_cell_angle_beta 51.637595
_cell_angle_gamma 90.000000
_cell_volume 1632.987548
_symmetry_space_group_name_H-M "P 21/M"
_symmetry_group_IT_number 11
_symmetry_cell_setting 'monoclinic'
loop_
_space_group_symop_operation_xyz
x,y,z
-x,1/2+y,-z
-x,-y,-z
x,1/2-y,z
loop_
_atom_site_type_symbol
_atom_site_label
_atom_site_fract_x
_atom_site_fract_y
_atom_site_fract_z
Si Si1 0.984636 0.448029 0.573984
Si Si2 0.164908 0.947889 0.933733
Si Si3 0.277299 0.948261 0.547111
Si Si4 0.322686 0.943764 0.127521
Si Si5 0.309330 0.545379 0.265467
Si Si6 0.569644 0.950136 0.384411
Si Si7 0.656279 0.046513 0.007624
Si Si8 0.604929 0.550609 0.236504
O O1 0.980109 0.250000 0.577810
O O2 0.122999 0.502975 0.568695
O O3 0.000000 0.500000 0.500000
O O4 0.829472 0.508602 0.650389
O O5 0.171524 0.750000 0.929284
O O6 0.255669 0.004158 0.962512
O O7 0.247010 0.011743 0.847646
O O8 0.000000 0.000000 0.000000
O O9 0.285781 0.750000 0.544450
O O10 0.413385 0.011600 0.461675
O O11 0.309836 0.007071 0.604413
O O12 0.281725 0.750000 0.143239
O O13 0.286256 0.015882 0.204541
O O14 0.497507 0.964780 0.064872
O O15 0.269913 0.007055 0.079636
O O16 0.313656 0.750000 0.262722
O O17 0.463479 0.490305 0.244286
O O18 0.561363 0.750000 0.384004
O O19 0.599725 0.012122 0.307043
O O20 0.640908 0.250000 0.011491
O O21 0.591756 0.750000 0.243539
#
# Coordination Sequence:
#
# PCOD9160605 Si02
#       8
#     4   4   4   4   4   4   4   4
#     4  11  22  37  56  83 117 152 190 230 281 336
#     4  11  23  38  54  78 112 145 182 228 279 333
#     4  10  20  37  59  84 117 150 189 235 279 333
#     4   9  16  31  56  79 101 135 175 216 268 323
#     4   9  18  33  56  82 108 141 184 228 271 332
#     4   9  19  36  60  85 111 149 191 233 281 336
#     4   9  18  32  52  79 107 133 170 220 270 322
#     4  10  19  36  60  83 106 139 187 232 276 330
#
# _framework density 19.595986
#
# number of rings (size 3 to 8) (size 9 to 14) (size 15 to 20)
#    0.000    2.250    1.250    1.875    0.000    3.500 
#    2.250    3.750    0.000    0.000    0.000    0.000 
#    0.000    0.000    0.000    0.000    0.000    0.000 
#
# Total GULP energy -178456.062254 kJ/mol
# GULP energy per Si atom -5576.751945 kJ/mol
# Density = 1.955138 g / cm^3
# Si number density = 19.595986 Si / 1000 Ang^3
#
#
#
# Elastic Constant Matrix: (Units=GPa)
#
#
# Indices 1 2 3 4 5 6 
#
# 1 62.9340 0.0473 48.4661 0.0000 7.8371 0.0000
# 2 0.0473 14.5282 4.7135 0.0000 4.7675 0.0000
# 3 48.4661 4.7135 163.9626 0.0000 25.3887 0.0000
# 4 0.0000 0.0000 0.0000 23.2069 0.0000 -1.4226
# 5 7.8371 4.7675 25.3887 0.0000 35.1191 0.0000
# 6 0.0000 0.0000 0.0000 -1.4226 0.0000 19.9929
#
#
#
# Elastic Compliance Matrix: (Units=1/GPa)
#
#
# Indices 1 2 3 4 5 6 
#
# 1 0.020633 0.002066 -0.006083 0.000000 -0.000487 0.000000
# 2 0.002066 0.072305 -0.001236 0.000000 -0.009383 0.000000
# 3 -0.006083 -0.001236 0.008667 0.000000 -0.004740 0.000000
# 4 0.000000 0.000000 0.000000 0.043279 0.000000 0.003080
# 5 -0.000487 -0.009383 -0.004740 0.000000 0.033284 0.000000
# 6 0.000000 0.000000 0.000000 0.003080 0.000000 0.050237
#
#
# Mechanical properties :
#
#
# Convention : Reuss Voigt Hill
#
# Bulk Modulus (GPa) = 10.97715 38.65319 24.81517
# Shear Modulus (GPa) = 18.56821 28.21031 23.38926
#
# Velocity S-wave (km/s) = 3.08157 3.79832 3.45856
# Velocity P-wave (km/s) = 4.27497 6.24533 5.35161
#
# Compressibility (1/GPa) = 0.09109836
#
# Stress axis : x y z
#
# Youngs Moduli (GPa) = 48.46518 13.83033 115.38628
#
# Poissons Ratio (x) = -0.02858 0.70189
# Poissons Ratio (y) = -0.10014 0.14267
# Poissons Ratio (z) = 0.29481 0.01710
#
# Static dielectric constant tensor:
#      x y z
#    x 1.657180 0.000000 0.027870 
#    y 0.000000 1.697190 0.000000 
#    z 0.027870 0.000000 1.706770 
# 
# From -- ./inp_files/64378.got.cif
#   From: 2010.05.17/outbox.cif.g08.bks.cpg/sg11_33_cif.got.tgz:64378.got - 2010.06.03 12:22:45.
