data_PCOD9160818
_publ_section_title
;
Structure prediction by ZEFSAII (Michael W. Deem and Ramdas Pophale) SiO2 
 PCOD9160818
Probable space group: P 21/M
;
_chemical_formula_sum "Si O2"
_cell_formula_units_Z 32
_cell_length_a 12.001427
_cell_length_b 13.864893
_cell_length_c 11.039349
_cell_angle_alpha 90.000000
_cell_angle_beta 65.945456
_cell_angle_gamma 90.000000
_cell_volume 1677.408064
_symmetry_space_group_name_H-M "P 21/M"
_symmetry_group_IT_number 11
_symmetry_cell_setting 'monoclinic'
loop_
_space_group_symop_operation_xyz
x,y,z
-x,1/2+y,-z
-x,-y,-z
x,1/2-y,z
loop_
_atom_site_type_symbol
_atom_site_label
_atom_site_fract_x
_atom_site_fract_y
_atom_site_fract_z
Si Si1 0.364529 0.542000 0.058673
Si Si2 0.034375 0.587374 0.396323
Si Si3 0.807404 0.642084 0.353912
Si Si4 0.378865 0.862228 0.797161
Si Si5 0.587925 0.532599 0.567465
Si Si6 0.884081 0.979437 0.880266
Si Si7 0.704710 0.141440 0.658172
Si Si8 0.135803 0.544616 0.835204
O O1 0.258963 0.459394 0.084973
O O2 0.339893 0.601731 0.191656
O O3 0.500000 0.500000 0.000000
O O4 0.352927 0.612174 0.948377
O O5 0.084219 0.547891 0.246036
O O6 0.148073 0.641725 0.404414
O O7 0.000000 0.500000 0.500000
O O8 0.912089 0.640788 0.410510
O O9 0.800204 0.750000 0.304841
O O10 0.683367 0.609614 0.473540
O O11 0.838875 0.558600 0.241616
O O12 0.400332 0.750000 0.770687
O O13 0.498393 0.921788 0.706500
O O14 0.259882 0.894372 0.772155
O O15 0.500000 0.500000 0.500000
O O16 0.659213 0.439499 0.585401
O O17 0.007943 0.914818 0.836871
O O18 0.882687 0.028584 0.012978
O O19 0.659968 0.250000 0.654871
#
# Coordination Sequence:
#
# PCOD9160818 Si02
#       8
#     4   4   4   4   4   4   4   4
#     4  10  19  37  64  92 122 157 195 249 307 359
#     4  10  19  37  64  92 122 157 195 249 307 359
#     4  11  22  38  63  87 117 161 206 248 300 362
#     4  11  22  38  63  87 117 161 206 248 300 362
#     4  12  24  41  55  87 125 159 201 248 301 354
#     4   8  18  33  59  88 120 157 189 246 299 341
#     4  11  23  40  64  91 120 157 203 248 304 375
#     4   9  18  39  58  84 120 155 200 251 294 342
#
# _framework density 19.077051000000001
#
# number of rings (size 3 to 8) (size 9 to 14) (size 15 to 20)
#    0.000    1.750    3.750    1.125    0.000    1.000 
#    0.000   12.500    0.000    3.000    0.000    0.000 
#    0.000    0.000    0.000    0.000    0.000    0.000 
#
# Total GULP energy -178158.457441 kJ/mol
# GULP energy per Si atom -5567.451795 kJ/mol
# Density = 1.903363 g / cm^3
# Si number density = 19.077051 Si / 1000 Ang^3
#
#
#
# Elastic Constant Matrix: (Units=GPa)
#
#
# Indices 1 2 3 4 5 6 
#
# 1 138.5108 28.9400 2.3127 0.0000 -12.9122 0.0000
# 2 28.9400 85.4201 15.1071 0.0000 7.2049 0.0000
# 3 2.3127 15.1071 55.5975 0.0000 -1.6798 0.0000
# 4 0.0000 0.0000 0.0000 12.6474 0.0000 -0.8885
# 5 -12.9122 7.2049 -1.6798 0.0000 32.7851 0.0000
# 6 0.0000 0.0000 0.0000 -0.8885 0.0000 11.0014
#
#
#
# Elastic Compliance Matrix: (Units=1/GPa)
#
#
# Indices 1 2 3 4 5 6 
#
# 1 0.008262 -0.003254 0.000661 0.000000 0.004003 0.000000
# 2 -0.003254 0.013856 -0.003766 0.000000 -0.004519 0.000000
# 3 0.000661 -0.003766 0.019045 0.000000 0.002064 0.000000
# 4 0.000000 0.000000 0.000000 0.079519 0.000000 0.006422
# 5 0.004003 -0.004519 0.002064 0.000000 0.033177 0.000000
# 6 0.000000 0.000000 0.000000 0.006422 0.000000 0.091416
#
#
# Mechanical properties :
#
#
# Convention : Reuss Voigt Hill
#
# Bulk Modulus (GPa) = 35.15484 41.36088 38.25786
# Shear Modulus (GPa) = 18.69342 26.83136 22.76239
#
# Velocity S-wave (km/s) = 3.13372 3.75437 3.45799
# Velocity P-wave (km/s) = 5.61795 6.36567 6.00346
#
# Compressibility (1/GPa) = 0.02844558
#
# Stress axis : x y z
#
# Youngs Moduli (GPa) = 121.04299 72.16865 52.50817
#
# Poissons Ratio (x) = 0.23480 -0.03473
# Poissons Ratio (y) = 0.39382 0.19776
# Poissons Ratio (z) = -0.08005 0.27181
#
# Static dielectric constant tensor:
#      x y z
#    x 1.721790 0.000000 -0.025280 
#    y 0.000000 1.662760 0.000000 
#    z -0.025280 0.000000 1.675580 
# 
# From -- ./inp_files/35057.got.cif
#   From: 2010.05.17/outbox.cif.g08.bks.cpg/sg11_18_cif.got.tgz:35057.got - 2010.06.03 12:22:45.
