data_PCOD9160472
_publ_section_title
;
Structure prediction by ZEFSAII (Michael W. Deem and Ramdas Pophale) SiO2 
 PCOD9160472
Probable space group: P 21/M
;
_chemical_formula_sum "Si O2"
_cell_formula_units_Z 28
_cell_length_a 14.527021
_cell_length_b 18.086509
_cell_length_c 4.992816
_cell_angle_alpha 90.000000
_cell_angle_beta 90.778187
_cell_angle_gamma 90.000000
_cell_volume 1311.706940
_symmetry_space_group_name_H-M "P 21/M"
_symmetry_group_IT_number 11
_symmetry_cell_setting 'monoclinic'
loop_
_space_group_symop_operation_xyz
x,y,z
-x,1/2+y,-z
-x,-y,-z
x,1/2-y,z
loop_
_atom_site_type_symbol
_atom_site_label
_atom_site_fract_x
_atom_site_fract_y
_atom_site_fract_z
Si Si1 0.684392 0.663421 0.278640
Si Si2 0.070940 0.446729 0.853053
Si Si3 0.174614 0.912521 0.699604
Si Si4 0.344811 0.540223 0.038840
Si Si5 0.235003 0.090536 0.232570
Si Si6 0.085184 0.838265 0.213133
Si Si7 0.521029 0.935525 0.290314
O O1 0.687849 0.750000 0.305525
O O2 0.706250 0.640354 0.974664
O O3 0.586714 0.631141 0.376946
O O4 0.759025 0.625527 0.476244
O O5 0.129200 0.505263 0.678002
O O6 0.137400 0.414965 0.084836
O O7 0.009906 0.381806 0.722712
O O8 0.000000 0.500000 0.000000
O O9 0.277316 0.923515 0.820260
O O10 0.160625 0.868399 0.426222
O O11 0.118804 0.866409 0.923888
O O12 0.280245 0.491508 0.231018
O O13 0.411771 0.478745 0.911281
O O14 0.421694 0.590763 0.180285
O O15 0.075402 0.750000 0.221935
O O16 0.500000 0.000000 0.500000
#
# Coordination Sequence:
#
# PCOD9160472 Si02
#       7
#     4   4   4   4   4   4   4
#     4  11  23  38  56  84 124 158 190 236 299 359
#     4   9  21  39  64  91 116 152 203 248 290 348
#     4  10  22  39  63  85 117 155 203 242 291 350
#     4   9  20  35  60  88 111 147 196 249 285 343
#     4  10  21  38  59  86 114 153 193 241 294 347
#     4  11  23  39  58  85 122 159 194 245 298 346
#     4  10  19  35  62  87 114 148 196 244 294 338
#
# _framework density 21.346231
#
# number of rings (size 3 to 8) (size 9 to 14) (size 15 to 20)
#    0.000    2.000    1.429    1.286    2.000   10.286 
#    0.000    1.429    0.000    0.000    0.000    0.000 
#    0.000    0.000    0.000    0.000    0.000    0.000 
#
# Total GULP energy -156357.492539 kJ/mol
# GULP energy per Si atom -5584.196162 kJ/mol
# Density = 2.129765 g / cm^3
# Si number density = 21.346231 Si / 1000 Ang^3
#
#
#
# Elastic Constant Matrix: (Units=GPa)
#
#
# Indices 1 2 3 4 5 6 
#
# 1 94.1761 37.2913 6.8342 0.0000 28.2693 0.0000
# 2 37.2913 140.2013 30.8683 0.0000 18.2029 0.0000
# 3 6.8342 30.8683 62.7960 0.0000 2.6658 0.0000
# 4 0.0000 0.0000 0.0000 26.8196 0.0000 1.5663
# 5 28.2693 18.2029 2.6658 0.0000 40.6415 0.0000
# 6 0.0000 0.0000 0.0000 1.5663 0.0000 19.5232
#
#
#
# Elastic Compliance Matrix: (Units=1/GPa)
#
#
# Indices 1 2 3 4 5 6 
#
# 1 0.014303 -0.002700 0.000142 0.000000 -0.008749 0.000000
# 2 -0.002700 0.008985 -0.004043 0.000000 -0.001881 0.000000
# 3 0.000142 -0.004043 0.017874 0.000000 0.000540 0.000000
# 4 0.000000 0.000000 0.000000 0.037462 0.000000 -0.003005
# 5 -0.008749 -0.001881 0.000540 0.000000 0.031498 0.000000
# 6 0.000000 0.000000 0.000000 -0.003005 0.000000 0.051462
#
#
# Mechanical properties :
#
#
# Convention : Reuss Voigt Hill
#
# Bulk Modulus (GPa) = 35.76507 49.68455 42.72481
# Shear Modulus (GPa) = 27.15818 32.20884 29.68351
#
# Velocity S-wave (km/s) = 3.57076 3.88864 3.73309
# Velocity P-wave (km/s) = 5.81305 6.59455 6.21610
#
# Compressibility (1/GPa) = 0.02796024
#
# Stress axis : x y z
#
# Youngs Moduli (GPa) = 69.91314 111.29520 55.94829
#
# Poissons Ratio (x) = 0.30047 -0.00794
# Poissons Ratio (y) = 0.18875 0.22620
# Poissons Ratio (z) = -0.00992 0.44998
#
# Static dielectric constant tensor:
#      x y z
#    x 1.852760 0.000000 -0.010640 
#    y 0.000000 1.792390 0.000000 
#    z -0.010640 0.000000 1.857210 
# 
# From -- ./inp_files/6704.got.cif
#   From: 2010.05.17/outbox.cif.g08.bks.cpg/sg11_4_cif.got.tgz:6704.got - 2010.06.03 12:22:45.
