data_PCOD9160057
_publ_section_title
;
Structure prediction by ZEFSAII (Michael W. Deem and Ramdas Pophale) SiO2 
 PCOD9160057
Probable space group: P 21/M
;
_chemical_formula_sum "Si O2"
_cell_formula_units_Z 28
_cell_length_a 21.165971
_cell_length_b 14.437646
_cell_length_c 9.064460
_cell_angle_alpha 90.000000
_cell_angle_beta 32.457965
_cell_angle_gamma 90.000000
_cell_volume 1486.594455
_symmetry_space_group_name_H-M "P 21/M"
_symmetry_group_IT_number 11
_symmetry_cell_setting 'monoclinic'
loop_
_space_group_symop_operation_xyz
x,y,z
-x,1/2+y,-z
-x,-y,-z
x,1/2-y,z
loop_
_atom_site_type_symbol
_atom_site_label
_atom_site_fract_x
_atom_site_fract_y
_atom_site_fract_z
Si Si1 0.219649 0.859054 0.269380
Si Si2 0.212205 0.358141 0.249737
Si Si3 0.029988 0.359050 0.370410
Si Si4 0.803911 0.995598 0.141892
Si Si5 0.362535 0.990720 0.796760
Si Si6 0.900511 0.359834 0.182183
Si Si7 0.179513 0.140469 0.650800
O O1 0.244142 0.750000 0.220698
O O2 0.173985 0.883212 0.523621
O O3 0.107301 0.876304 0.383202
O O4 0.326443 0.915878 0.991414
O O5 0.239928 0.250000 0.187851
O O6 0.083392 0.369177 0.428609
O O7 0.210772 0.386017 0.422337
O O8 0.304331 0.415278 0.973258
O O9 0.050658 0.250000 0.284356
O O10 0.101488 0.433425 0.133960
O O11 0.755996 0.922695 0.357530
O O12 0.705789 0.029534 0.221164
O O13 0.860435 0.078419 0.124223
O O14 0.500000 0.000000 0.500000
O O15 0.887131 0.250000 0.179015
O O16 0.038639 0.375368 0.943207
O O17 0.200684 0.250000 0.629844
#
# Coordination Sequence:
#
# PCOD9160057 Si02
#       7
#     4   4   4   4   4   4   4
#     4  10  21  39  60  82 117 152 185 233 288 345
#     4   9  20  36  59  85 118 150 186 237 288 343
#     4   9  18  33  55  89 119 148 185 229 289 352
#     4  11  21  34  60  84 117 153 184 235 287 341
#     4  11  26  42  57  79 110 156 210 246 272 318
#     4  10  21  35  55  90 127 149 177 223 289 364
#     4  10  19  34  57  91 123 145 172 223 295 364
#
# _framework density 18.834996
#
# number of rings (size 3 to 8) (size 9 to 14) (size 15 to 20)
#    0.000    2.000    1.429    1.714    4.000    2.857 
#    0.000    2.857    0.000    3.429    0.000    0.000 
#    0.000    0.000    0.000    0.000    0.000    0.000 
#
# Total GULP energy -156381.339529 kJ/mol
# GULP energy per Si atom -5585.047840 kJ/mol
# Density = 1.879213 g / cm^3
# Si number density = 18.834996 Si / 1000 Ang^3
#
#
#
# Elastic Constant Matrix: (Units=GPa)
#
#
# Indices 1 2 3 4 5 6 
#
# 1 57.0303 25.7625 25.3685 0.0000 14.9798 0.0000
# 2 25.7625 67.0640 30.3890 0.0000 4.1516 0.0000
# 3 25.3685 30.3890 95.0053 0.0000 0.1614 0.0000
# 4 0.0000 0.0000 0.0000 9.0563 0.0000 12.0034
# 5 14.9798 4.1516 0.1614 0.0000 23.2213 0.0000
# 6 0.0000 0.0000 0.0000 12.0034 0.0000 25.4588
#
#
#
# Elastic Compliance Matrix: (Units=1/GPa)
#
#
# Indices 1 2 3 4 5 6 
#
# 1 0.027271 -0.007230 -0.004942 0.000000 -0.016265 0.000000
# 2 -0.007230 0.019578 -0.004334 0.000000 0.001194 0.000000
# 3 -0.004942 -0.004334 0.013225 0.000000 0.003871 0.000000
# 4 0.000000 0.000000 0.000000 0.294382 0.000000 -0.138796
# 5 -0.016265 0.001194 0.003871 0.000000 0.053316 0.000000
# 6 0.000000 0.000000 0.000000 -0.138796 0.000000 0.104719
#
#
# Mechanical properties :
#
#
# Convention : Reuss Voigt Hill
#
# Bulk Modulus (GPa) = 36.95050 42.45995 39.70523
# Shear Modulus (GPa) = 9.01674 20.71927 14.86801
#
# Velocity S-wave (km/s) = 2.19035 3.32029 2.81264
# Velocity P-wave (km/s) = 5.10465 6.10665 5.62799
#
# Compressibility (1/GPa) = 0.02706323
#
# Stress axis : x y z
#
# Youngs Moduli (GPa) = 36.66899 51.07655 75.61444
#
# Poissons Ratio (x) = 0.36928 0.37366
# Poissons Ratio (y) = 0.26511 0.32771
# Poissons Ratio (z) = 0.18121 0.22136
#
# Static dielectric constant tensor:
#      x y z
#    x 1.662680 0.000000 0.034570 
#    y 0.000000 1.687940 0.000000 
#    z 0.034570 0.000000 1.626780 
# 
# From -- ./inp_files/22082.got.cif
#   From: 2010.05.17/outbox.cif.g08.bks.cpg/sg11_12_cif.got.tgz:22082.got - 2010.06.03 12:22:45.
