data_PCOD9160486
_publ_section_title
;
Structure prediction by ZEFSAII (Michael W. Deem and Ramdas Pophale) SiO2 
 PCOD9160486
Probable space group: P 21/M
;
_chemical_formula_sum "Si O2"
_cell_formula_units_Z 26
_cell_length_a 13.873440
_cell_length_b 14.622468
_cell_length_c 8.235172
_cell_angle_alpha 90.000000
_cell_angle_beta 48.733226
_cell_angle_gamma 90.000000
_cell_volume 1255.715615
_symmetry_space_group_name_H-M "P 21/M"
_symmetry_group_IT_number 11
_symmetry_cell_setting 'monoclinic'
loop_
_space_group_symop_operation_xyz
x,y,z
-x,1/2+y,-z
-x,-y,-z
x,1/2-y,z
loop_
_atom_site_type_symbol
_atom_site_label
_atom_site_fract_x
_atom_site_fract_y
_atom_site_fract_z
Si Si1 0.607757 0.002662 0.017982
Si Si2 0.963322 0.750000 0.446878
Si Si3 0.200772 0.436459 0.425703
Si Si4 0.686116 0.603673 0.202062
Si Si5 0.859194 0.042683 0.190800
Si Si6 0.551950 0.649559 0.675697
Si Si7 0.904687 0.250000 0.045552
Si Si8 0.895766 0.750000 0.887148
O O1 0.749324 0.989222 0.788982
O O2 0.575825 0.092526 0.154339
O O3 0.500000 0.000000 0.000000
O O4 0.591155 0.921194 0.162912
O O5 0.889226 0.847761 0.500241
O O6 0.979291 0.750000 0.627764
O O7 0.063639 0.750000 0.183287
O O8 0.157596 0.512967 0.602394
O O9 0.329411 0.392485 0.357590
O O10 0.755078 0.515253 0.204383
O O11 0.603987 0.648556 0.435337
O O12 0.799859 0.664514 0.003368
O O13 0.847181 0.150310 0.160327
O O14 0.000000 0.000000 0.000000
O O15 0.529690 0.750000 0.761745
O O16 0.030088 0.250000 0.023828
#
# Coordination Sequence:
#
# PCOD9160486 Si02
#       8
#     4   2   4   4   4   4   2   2
#     4  10  22  39  59  87 126 156 204 268 317 369
#     4  12  20  36  68  94 122 166 218 262 320 366
#     4  10  20  37  61  92 124 161 206 265 316 368
#     4  11  21  39  63  95 125 160 216 259 317 380
#     4  11  22  40  68  89 127 172 203 266 325 379
#     4  10  19  35  63  87 117 168 205 255 315 374
#     4  12  24  46  60  95 133 171 215 264 322 379
#     4  12  22  36  70 101 121 161 227 272 308 373
#
# _framework density 20.705324999999998
#
# number of rings (size 3 to 8) (size 9 to 14) (size 15 to 20)
#    0.000    1.231    6.154    1.385    0.000    0.000 
#    5.538    2.308    0.000    0.000    0.000    0.000 
#    0.000    0.000    0.000    0.000    0.000    0.000 
#
# Total GULP energy -144771.616094 kJ/mol
# GULP energy per Si atom -5568.139081 kJ/mol
# Density = 2.065820 g / cm^3
# Si number density = 20.705325 Si / 1000 Ang^3
#
#
#
# Elastic Constant Matrix: (Units=GPa)
#
#
# Indices 1 2 3 4 5 6 
#
# 1 29.3116 -4.1049 2.9850 0.0000 9.8704 0.0000
# 2 -4.1049 123.3185 43.6816 0.0000 -8.1178 0.0000
# 3 2.9850 43.6816 56.0360 0.0000 14.3433 0.0000
# 4 0.0000 0.0000 0.0000 41.9558 0.0000 -10.1403
# 5 9.8704 -8.1178 14.3433 0.0000 17.3772 0.0000
# 6 0.0000 0.0000 0.0000 -10.1403 0.0000 20.6225
#
#
#
# Elastic Compliance Matrix: (Units=1/GPa)
#
#
# Indices 1 2 3 4 5 6 
#
# 1 0.044554 -0.004585 0.010431 0.000000 -0.036059 0.000000
# 2 -0.004585 0.016577 -0.019432 0.000000 0.026388 0.000000
# 3 0.010431 -0.019432 0.045996 0.000000 -0.052968 0.000000
# 4 0.000000 0.000000 0.000000 0.027049 0.000000 0.013300
# 5 -0.036059 0.026388 -0.052968 0.000000 0.134075 0.000000
# 6 0.000000 0.000000 0.000000 0.013300 0.000000 0.055031
#
#
# Mechanical properties :
#
#
# Convention : Reuss Voigt Hill
#
# Bulk Modulus (GPa) = 12.50723 32.64329 22.57526
# Shear Modulus (GPa) = 13.25887 27.06472 20.16179
#
# Velocity S-wave (km/s) = 2.53328 3.61936 3.12388
# Velocity P-wave (km/s) = 3.82235 5.76769 4.89268
#
# Compressibility (1/GPa) = 0.07995372
#
# Stress axis : x y z
#
# Youngs Moduli (GPa) = 22.44449 60.32578 21.74116
#
# Poissons Ratio (x) = 0.27662 -0.22678
# Poissons Ratio (y) = 0.10292 0.42247
# Poissons Ratio (z) = -0.23412 1.17225
#
# Static dielectric constant tensor:
#      x y z
#    x 1.781100 0.000000 0.052050 
#    y 0.000000 1.837680 0.000000 
#    z 0.052050 0.000000 1.811700 
# 
# From -- ./inp_files/22423.got.cif
#   From: 2010.05.17/outbox.cif.g08.bks.cpg/sg11_12_cif.got.tgz:22423.got - 2010.06.03 12:22:45.
