data_PCOD9160037
_publ_section_title
;
Structure prediction by ZEFSAII (Michael W. Deem and Ramdas Pophale) SiO2 
 PCOD9160037
Probable space group: P 21/M
;
_chemical_formula_sum "Si O2"
_cell_formula_units_Z 28
_cell_length_a 28.864403
_cell_length_b 8.454221
_cell_length_c 9.925792
_cell_angle_alpha 90.000000
_cell_angle_beta 140.433505
_cell_angle_gamma 90.000000
_cell_volume 1542.845998
_symmetry_space_group_name_H-M "P 21/M"
_symmetry_group_IT_number 11
_symmetry_cell_setting 'monoclinic'
loop_
_space_group_symop_operation_xyz
x,y,z
-x,1/2+y,-z
-x,-y,-z
x,1/2-y,z
loop_
_atom_site_type_symbol
_atom_site_label
_atom_site_fract_x
_atom_site_fract_y
_atom_site_fract_z
Si Si1 0.081104 0.560858 0.152888
Si Si2 0.642968 0.438398 0.140589
Si Si3 0.939911 0.439225 0.196154
Si Si4 0.504561 0.938929 0.663591
Si Si5 0.570120 0.440806 0.240173
Si Si6 0.794813 0.562605 0.376319
Si Si7 0.896818 0.939310 0.377461
O O1 0.084715 0.750000 0.184225
O O2 0.140129 0.472229 0.374063
O O3 0.093737 0.529111 0.023699
O O4 0.000000 0.500000 0.000000
O O5 0.632245 0.250000 0.111834
O O6 0.633716 0.488737 0.277829
O O7 0.721506 0.480934 0.259732
O O8 0.580239 0.514076 0.906405
O O9 0.941953 0.250000 0.220474
O O10 0.896896 0.514730 0.222437
O O11 0.024264 0.496493 0.390759
O O12 0.500338 0.750000 0.646975
O O13 0.442489 0.995165 0.633276
O O14 0.500000 0.000000 0.500000
O O15 0.570282 0.250000 0.246158
O O16 0.500000 0.500000 0.000000
O O17 0.781219 0.750000 0.337367
O O18 0.828897 0.502159 0.311799
O O19 0.897208 0.750000 0.392656
#
# Coordination Sequence:
#
# PCOD9160037 Si02
#       7
#     4   4   4   4   4   4   4
#     4  11  21  35  54  78 105 136 177 225 271 319
#     4  10  20  36  56  81 109 143 182 221 268 322
#     4   9  18  33  51  74 100 129 172 222 267 317
#     4  10  19  34  57  86 114 145 179 219 263 311
#     4   8  16  31  53  78 107 138 175 215 256 308
#     4  11  22  37  54  78 110 142 179 224 273 325
#     4   9  18  33  51  73 101 134 172 217 267 320
#
# _framework density 18.148278999999999
#
# number of rings (size 3 to 8) (size 9 to 14) (size 15 to 20)
#    0.000    2.286    1.429    1.714    0.000    3.429 
#    0.000    1.429    0.000    1.714    0.000    0.000 
#    0.000    0.000    0.000    0.000    0.000    0.000 
#
# Total GULP energy -155998.679926 kJ/mol
# GULP energy per Si atom -5571.381426 kJ/mol
# Density = 1.810697 g / cm^3
# Si number density = 18.148279 Si / 1000 Ang^3
#
#
#
# Elastic Constant Matrix: (Units=GPa)
#
#
# Indices 1 2 3 4 5 6 
#
# 1 182.0985 20.9769 43.3969 0.0000 -11.5361 0.0000
# 2 20.9769 14.2582 4.6951 0.0000 -7.7260 0.0000
# 3 43.3969 4.6951 39.1265 0.0000 -7.6931 0.0000
# 4 0.0000 0.0000 0.0000 28.5531 0.0000 -1.0881
# 5 -11.5361 -7.7260 -7.6931 0.0000 27.9911 0.0000
# 6 0.0000 0.0000 0.0000 -1.0881 0.0000 27.4602
#
#
#
# Elastic Compliance Matrix: (Units=1/GPa)
#
#
# Indices 1 2 3 4 5 6 
#
# 1 0.008711 -0.010935 -0.008708 0.000000 -0.001821 0.000000
# 2 -0.010935 0.097431 0.005115 0.000000 0.023791 0.000000
# 3 -0.008708 0.005115 0.036127 0.000000 0.007752 0.000000
# 4 0.000000 0.000000 0.000000 0.035075 0.000000 0.001390
# 5 -0.001821 0.023791 0.007752 0.000000 0.043672 0.000000
# 6 0.000000 0.000000 0.000000 0.001390 0.000000 0.036471
#
#
# Mechanical properties :
#
#
# Convention : Reuss Voigt Hill
#
# Bulk Modulus (GPa) = 8.83292 41.51345 25.17318
# Shear Modulus (GPa) = 15.41873 27.89519 21.65696
#
# Velocity S-wave (km/s) = 2.91795 3.92480 3.45821
# Velocity P-wave (km/s) = 4.02867 6.59265 5.46321
#
# Compressibility (1/GPa) = 0.11321287
#
# Stress axis : x y z
#
# Youngs Moduli (GPa) = 114.79704 10.26368 27.68045
#
# Poissons Ratio (x) = 0.11224 0.24103
# Poissons Ratio (y) = 1.25535 -0.14159
# Poissons Ratio (z) = 0.99961 -0.05250
#
# Static dielectric constant tensor:
#      x y z
#    x 1.676690 0.000000 -0.020620 
#    y 0.000000 1.629660 0.000000 
#    z -0.020620 0.000000 1.557390 
# 
# From -- ./inp_files/28595.got.cif
#   From: 2010.05.17/outbox.cif.g08.bks.cpg/sg11_15_cif.got.tgz:28595.got - 2010.06.03 12:22:45.
