data_PCOD9160840
_publ_section_title
;
Structure prediction by ZEFSAII (Michael W. Deem and Ramdas Pophale) SiO2 
 PCOD9160840
Probable space group: P 21/M
;
_chemical_formula_sum "Si O2"
_cell_formula_units_Z 32
_cell_length_a 11.586984
_cell_length_b 15.655905
_cell_length_c 17.521532
_cell_angle_alpha 90.000000
_cell_angle_beta 32.849564
_cell_angle_gamma 90.000000
_cell_volume 1724.123931
_symmetry_space_group_name_H-M "P 21/M"
_symmetry_group_IT_number 11
_symmetry_cell_setting 'monoclinic'
loop_
_space_group_symop_operation_xyz
x,y,z
-x,1/2+y,-z
-x,-y,-z
x,1/2-y,z
loop_
_atom_site_type_symbol
_atom_site_label
_atom_site_fract_x
_atom_site_fract_y
_atom_site_fract_z
Si Si1 0.157750 0.591842 0.322340
Si Si2 0.075676 0.917946 0.536298
Si Si3 0.637018 0.849194 0.047782
Si Si4 0.829681 0.000868 0.027034
Si Si5 0.489695 0.036909 0.327293
Si Si6 0.779636 0.652127 0.428519
Si Si7 0.031932 0.845542 0.723198
Si Si8 0.810802 0.513818 0.282344
O O1 0.088106 0.623274 0.445717
O O2 0.401443 0.613142 0.170077
O O3 0.107178 0.490482 0.355471
O O4 0.005834 0.631776 0.342676
O O5 0.294638 0.972020 0.423186
O O6 0.049790 0.857038 0.622747
O O7 0.621289 0.750000 0.077848
O O8 0.754930 0.905844 0.046058
O O9 0.790049 0.855040 0.888760
O O10 0.624598 0.047198 0.175273
O O11 0.958973 0.035447 0.882712
O O12 0.000000 0.000000 0.000000
O O13 0.642532 0.998213 0.307942
O O14 0.393664 0.124316 0.412409
O O15 0.763459 0.750000 0.415130
O O16 0.749757 0.586738 0.375453
O O17 0.103344 0.750000 0.706153
O O18 0.161248 0.923040 0.690175
#
# Coordination Sequence:
#
# PCOD9160840 Si02
#       8
#     4   4   4   4   4   4   4   4
#     4  10  20  37  59  80 115 151 190 237 289 337
#     4  10  20  36  57  87 109 148 191 242 283 347
#     4  10  20  35  57  86 113 147 195 237 284 347
#     4   9  19  37  61  82 113 152 186 239 290 337
#     4  10  19  38  60  83 114 148 194 236 290 347
#     4  11  23  38  57  84 118 156 194 235 292 349
#     4  10  21  36  55  85 115 145 191 239 286 339
#     4  10  20  39  59  84 117 151 188 243 287 345
#
# _framework density 18.56015
#
# number of rings (size 3 to 8) (size 9 to 14) (size 15 to 20)
#    0.000    2.000    3.750    0.750    0.000    2.000 
#    0.000    5.000    0.000    0.000    0.000    0.000 
#    0.000    0.000    0.000    0.000    0.000    0.000 
#
# Total GULP energy -178437.362708 kJ/mol
# GULP energy per Si atom -5576.167585 kJ/mol
# Density = 1.851791 g / cm^3
# Si number density = 18.560150 Si / 1000 Ang^3
#
#
#
# Elastic Constant Matrix: (Units=GPa)
#
#
# Indices 1 2 3 4 5 6 
#
# 1 55.7091 6.8535 2.4190 0.0000 -5.0955 0.0000
# 2 6.8535 68.2254 23.8365 0.0000 -3.2572 0.0000
# 3 2.4190 23.8365 67.8988 0.0000 -5.5737 0.0000
# 4 0.0000 0.0000 0.0000 17.2320 0.0000 3.8080
# 5 -5.0955 -3.2572 -5.5737 0.0000 29.8148 0.0000
# 6 0.0000 0.0000 0.0000 3.8080 0.0000 7.2112
#
#
#
# Elastic Compliance Matrix: (Units=1/GPa)
#
#
# Indices 1 2 3 4 5 6 
#
# 1 0.018435 -0.001784 0.000215 0.000000 0.002996 0.000000
# 2 -0.001784 0.016895 -0.005831 0.000000 0.000451 0.000000
# 3 0.000215 -0.005831 0.016978 0.000000 0.002574 0.000000
# 4 0.000000 0.000000 0.000000 0.065698 0.000000 -0.034693
# 5 0.002996 0.000451 0.002574 0.000000 0.034583 0.000000
# 6 0.000000 0.000000 0.000000 -0.034693 0.000000 0.156994
#
#
# Mechanical properties :
#
#
# Convention : Reuss Voigt Hill
#
# Bulk Modulus (GPa) = 26.65988 28.67237 27.66613
# Shear Modulus (GPa) = 14.84188 21.43324 18.13756
#
# Velocity S-wave (km/s) = 2.83090 3.40192 3.12946
# Velocity P-wave (km/s) = 5.00805 5.55991 5.29118
#
# Compressibility (1/GPa) = 0.03750954
#
# Stress axis : x y z
#
# Youngs Moduli (GPa) = 54.24606 59.18862 58.89872
#
# Poissons Ratio (x) = 0.10560 -0.01269
# Poissons Ratio (y) = 0.09678 0.34342
# Poissons Ratio (z) = -0.01169 0.34511
#
# Static dielectric constant tensor:
#      x y z
#    x 1.649200 0.000000 0.006410 
#    y 0.000000 1.624050 0.000000 
#    z 0.006410 0.000000 1.685090 
# 
# From -- ./inp_files/59446.got.cif
#   From: 2010.05.17/outbox.cif.g08.bks.cpg/sg11_30_cif.got.tgz:59446.got - 2010.06.03 12:22:45.
