data_PCOD9160838
_publ_section_title
;
Structure prediction by ZEFSAII (Michael W. Deem and Ramdas Pophale) SiO2 
 PCOD9160838
Probable space group: P 21/M
;
_chemical_formula_sum "Si O2"
_cell_formula_units_Z 22
_cell_length_a 17.698624
_cell_length_b 14.711500
_cell_length_c 9.040782
_cell_angle_alpha 90.000000
_cell_angle_beta 30.519286
_cell_angle_gamma 90.000000
_cell_volume 1195.416948
_symmetry_space_group_name_H-M "P 21/M"
_symmetry_group_IT_number 11
_symmetry_cell_setting 'monoclinic'
loop_
_space_group_symop_operation_xyz
x,y,z
-x,1/2+y,-z
-x,-y,-z
x,1/2-y,z
loop_
_atom_site_type_symbol
_atom_site_label
_atom_site_fract_x
_atom_site_fract_y
_atom_site_fract_z
Si Si1 0.351759 0.250000 0.613670
Si Si2 0.697563 0.250000 0.958912
Si Si3 0.053295 0.905689 0.983408
Si Si4 0.726831 0.423690 0.113504
Si Si5 0.771601 0.250000 0.489570
Si Si6 0.570421 0.750000 0.031041
Si Si7 0.176429 0.250000 0.623476
Si Si8 0.607397 0.601632 0.210861
O O1 0.516310 0.250000 0.262707
O O2 0.217994 0.250000 0.725441
O O3 0.344970 0.162798 0.730287
O O4 0.743427 0.337185 0.979061
O O5 0.761225 0.250000 0.685481
O O6 0.150065 0.925721 0.966640
O O7 0.147225 0.839885 0.713388
O O8 0.916182 0.840163 0.257083
O O9 0.000000 0.000000 0.000000
O O10 0.708396 0.512784 0.043785
O O11 0.567035 0.418743 0.466692
O O12 0.603998 0.250000 0.708997
O O13 0.668299 0.750000 0.721340
O O14 0.613377 0.662518 0.055783
#
# Coordination Sequence:
#
# PCOD9160838 Si02
#       8
#     2   2   4   4   2   2   2   4
#     4   9  17  34  55  87 120 147 198 248 295 341
#     4  10  20  35  62  88 116 153 201 253 293 338
#     4  11  24  42  62  85 126 167 198 236 305 371
#     4  10  19  38  59  88 117 160 200 242 297 354
#     4  11  22  42  63  88 118 157 201 247 301 358
#     4  11  20  40  61  94 116 150 203 258 299 341
#     4  11  23  37  59  91 126 157 195 250 302 358
#     4   9  19  34  64  87 114 152 206 251 288 347
#
# _framework density 18.403618999999999
#
# number of rings (size 3 to 8) (size 9 to 14) (size 15 to 20)
#    0.000    1.818    2.727    2.727    0.000    1.455 
#    0.000   14.545    0.000    0.000    0.000    0.000 
#    0.000    0.000    0.000    0.000    0.000    0.000 
#
# Total GULP energy -122753.475433 kJ/mol
# GULP energy per Si atom -5579.703429 kJ/mol
# Density = 1.836173 g / cm^3
# Si number density = 18.403619 Si / 1000 Ang^3
#
#
#
# Elastic Constant Matrix: (Units=GPa)
#
#
# Indices 1 2 3 4 5 6 
#
# 1 148.5725 72.1654 24.9186 0.0000 -13.3640 0.0000
# 2 72.1654 163.7821 40.0290 0.0000 -8.9132 0.0000
# 3 24.9186 40.0290 53.6343 0.0000 3.8153 0.0000
# 4 0.0000 0.0000 0.0000 -0.2771 0.0000 -14.2648
# 5 -13.3640 -8.9132 3.8153 0.0000 25.2240 0.0000
# 6 0.0000 0.0000 0.0000 -14.2648 0.0000 -5.0849
#
#
#
# Elastic Compliance Matrix: (Units=1/GPa)
#
#
# Indices 1 2 3 4 5 6 
#
# 1 0.009008 -0.003258 -0.002033 0.000000 0.003928 0.000000
# 2 -0.003258 0.008969 -0.005340 0.000000 0.002251 0.000000
# 3 -0.002033 -0.005340 0.024044 0.000000 -0.006601 0.000000
# 4 0.000000 0.000000 0.000000 0.025163 0.000000 -0.070592
# 5 0.003928 0.002251 -0.006601 0.000000 0.043520 0.000000
# 6 0.000000 0.000000 0.000000 -0.070592 0.000000 0.001371
#
#
# Mechanical properties :
#
#
# Convention : Reuss Voigt Hill
#
# Bulk Modulus (GPa) = 48.17264 71.13499 59.65382
# Shear Modulus (GPa) = 35.64883 19.23080 27.43981
#
# Velocity S-wave (km/s) = 4.40597 3.23607 3.86554
# Velocity P-wave (km/s) = 7.21914 7.25944 7.23932
#
# Compressibility (1/GPa) = 0.02075867
#
# Stress axis : x y z
#
# Youngs Moduli (GPa) = 111.01652 111.49509 41.59009
#
# Poissons Ratio (x) = 0.36329 0.08454
# Poissons Ratio (y) = 0.36173 0.22210
# Poissons Ratio (z) = 0.22565 0.59540
#
# Static dielectric constant tensor:
#      x y z
#    x 1.599610 0.000000 -0.010760 
#    y 0.000000 1.641290 0.000000 
#    z -0.010760 0.000000 1.628810 
# 
# From -- ./inp_files/12316.got.cif
#   From: 2010.05.17/outbox.cif.g08.bks.cpg/sg11_7_cif.got.tgz:12316.got - 2010.06.03 12:22:45.
