data_PCOD9160130
_publ_section_title
;
Structure prediction by ZEFSAII (Michael W. Deem and Ramdas Pophale) SiO2 
 PCOD9160130
Probable space group: P 21/M
;
_chemical_formula_sum "Si O2"
_cell_formula_units_Z 32
_cell_length_a 9.130154
_cell_length_b 19.675484
_cell_length_c 12.208371
_cell_angle_alpha 90.000000
_cell_angle_beta 49.705864
_cell_angle_gamma 90.000000
_cell_volume 1672.763908
_symmetry_space_group_name_H-M "P 21/M"
_symmetry_group_IT_number 11
_symmetry_cell_setting 'monoclinic'
loop_
_space_group_symop_operation_xyz
x,y,z
-x,1/2+y,-z
-x,-y,-z
x,1/2-y,z
loop_
_atom_site_type_symbol
_atom_site_label
_atom_site_fract_x
_atom_site_fract_y
_atom_site_fract_z
Si Si1 0.800096 0.675242 0.696774
Si Si2 0.070938 0.825965 0.353443
Si Si3 0.045789 0.922238 0.723299
Si Si4 0.481549 0.919018 0.516821
Si Si5 0.937184 0.077667 0.028805
Si Si6 0.495679 0.419377 0.233160
Si Si7 0.178475 0.170086 0.747319
Si Si8 0.153659 0.978849 0.330956
O O1 0.801527 0.750000 0.739243
O O2 0.589313 0.647633 0.779901
O O3 0.913697 0.672026 0.526852
O O4 0.908406 0.627786 0.727115
O O5 0.164490 0.750000 0.315465
O O6 0.183386 0.897556 0.311817
O O7 0.958198 0.829304 0.293451
O O8 0.264173 0.908719 0.581130
O O9 0.050062 0.905731 0.848852
O O10 0.956604 0.994843 0.726630
O O11 0.510410 0.907945 0.632852
O O12 0.632729 0.873474 0.377553
O O13 0.500000 0.000000 0.500000
O O14 0.066754 0.128463 0.895442
O O15 0.717016 0.074492 0.095914
O O16 0.000000 0.000000 0.000000
O O17 0.350130 0.479936 0.265018
O O18 0.218814 0.250000 0.754239
O O19 0.000000 0.000000 0.500000
#
# Coordination Sequence:
#
# PCOD9160130 Si02
#       8
#     4   4   4   4   4   4   4   4
#     4  10  20  37  60  90 121 151 201 257 307 369
#     4  10  19  34  59  88 121 154 192 252 315 366
#     4  10  22  36  62  93 121 161 199 259 313 365
#     4  11  20  35  63  94 121 158 208 260 313 374
#     4  11  24  43  61  88 128 169 215 254 310 377
#     4  10  21  36  64  90 114 165 209 253 302 373
#     4  11  23  40  62  90 126 166 209 259 315 376
#     4  11  17  34  62  92 122 149 201 259 312 361
#
# _framework density 19.130015
#
# number of rings (size 3 to 8) (size 9 to 14) (size 15 to 20)
#    0.000    1.500    3.750    3.750    0.000    1.500 
#    0.000    8.125    0.000    0.000    0.000    0.000 
#    0.000    0.000    0.000    0.000    0.000    0.000 
#
# Total GULP energy -178369.163096 kJ/mol
# GULP energy per Si atom -5574.036347 kJ/mol
# Density = 1.908647 g / cm^3
# Si number density = 19.130015 Si / 1000 Ang^3
#
#
#
# Elastic Constant Matrix: (Units=GPa)
#
#
# Indices 1 2 3 4 5 6 
#
# 1 77.1870 14.9139 27.7753 0.0000 -9.4464 0.0000
# 2 14.9139 137.1822 42.0861 0.0000 -10.4196 0.0000
# 3 27.7753 42.0861 80.7800 0.0000 -15.7408 0.0000
# 4 0.0000 0.0000 0.0000 23.8377 0.0000 -2.6203
# 5 -9.4464 -10.4196 -15.7408 0.0000 23.4227 0.0000
# 6 0.0000 0.0000 0.0000 -2.6203 0.0000 15.9111
#
#
#
# Elastic Compliance Matrix: (Units=1/GPa)
#
#
# Indices 1 2 3 4 5 6 
#
# 1 0.014962 0.000000 -0.004566 0.000000 0.002965 0.000000
# 2 0.000000 0.008695 -0.004345 0.000000 0.000948 0.000000
# 3 -0.004566 -0.004345 0.017810 0.000000 0.008194 0.000000
# 4 0.000000 0.000000 0.000000 0.042724 0.000000 0.007036
# 5 0.002965 0.000948 0.008194 0.000000 0.049818 0.000000
# 6 0.000000 0.000000 0.000000 0.007036 0.000000 0.064008
#
#
# Mechanical properties :
#
#
# Convention : Reuss Voigt Hill
#
# Bulk Modulus (GPa) = 42.29685 51.63331 46.96508
# Shear Modulus (GPa) = 22.34936 26.65925 24.50431
#
# Velocity S-wave (km/s) = 3.42173 3.73712 3.58290
# Velocity P-wave (km/s) = 6.14566 6.75801 6.45910
#
# Compressibility (1/GPa) = 0.02364242
#
# Stress axis : x y z
#
# Youngs Moduli (GPa) = 66.83731 115.01368 56.14853
#
# Poissons Ratio (x) = 0.00005 0.25640
# Poissons Ratio (y) = 0.00003 0.24397
# Poissons Ratio (z) = 0.30521 0.49974
#
# Static dielectric constant tensor:
#      x y z
#    x 1.573350 0.000000 -0.013570 
#    y 0.000000 1.580430 0.000000 
#    z -0.013570 0.000000 1.670400 
# 
# From -- ./inp_files/32815.got.cif
#   From: 2010.05.17/outbox.cif.g08.bks.cpg/sg11_17_cif.got.tgz:32815.got - 2010.06.03 12:22:45.
