data_PCOD9160248
_publ_section_title
;
Structure prediction by ZEFSAII (Michael W. Deem and Ramdas Pophale) SiO2 
 PCOD9160248
Probable space group: P 21/M
;
_chemical_formula_sum "Si O2"
_cell_formula_units_Z 28
_cell_length_a 15.375549
_cell_length_b 8.721877
_cell_length_c 12.121456
_cell_angle_alpha 90.000000
_cell_angle_beta 118.597670
_cell_angle_gamma 90.000000
_cell_volume 1427.220589
_symmetry_space_group_name_H-M "P 21/M"
_symmetry_group_IT_number 11
_symmetry_cell_setting 'monoclinic'
loop_
_space_group_symop_operation_xyz
x,y,z
-x,1/2+y,-z
-x,-y,-z
x,1/2-y,z
loop_
_atom_site_type_symbol
_atom_site_label
_atom_site_fract_x
_atom_site_fract_y
_atom_site_fract_z
Si Si1 0.887099 0.566530 0.927267
Si Si2 0.509746 0.566190 0.881275
Si Si3 0.812627 0.426482 0.254937
Si Si4 0.679990 0.436435 0.374930
Si Si5 0.806830 0.063555 0.651099
Si Si6 0.007840 0.929847 0.384080
Si Si7 0.715847 0.072995 0.970123
O O1 0.894036 0.750000 0.938627
O O2 0.830081 0.514942 0.780938
O O3 0.813455 0.500653 0.975885
O O4 0.000000 0.500000 0.000000
O O5 0.504939 0.750000 0.887406
O O6 0.421520 0.513874 0.745205
O O7 0.613815 0.515917 0.890683
O O8 0.500000 0.500000 0.000000
O O9 0.845778 0.250000 0.289244
O O10 0.766543 0.482379 0.341546
O O11 0.903794 0.525162 0.268321
O O12 0.730354 0.427002 0.111092
O O13 0.680034 0.250000 0.374081
O O14 0.711380 0.480562 0.518230
O O15 0.806248 0.250000 0.664868
O O16 0.900396 0.017653 0.632194
O O17 0.017903 0.750000 0.400493
O O18 0.000000 0.000000 0.500000
O O19 0.708373 0.250000 0.929005
#
# Coordination Sequence:
#
# PCOD9160248 Si02
#       7
#     4   4   4   4   4   4   4
#     4  12  26  45  67  93 124 162 210 259 309 372
#     4  11  21  37  62  94 130 169 211 259 314 372
#     4  10  19  35  56  83 119 158 198 246 304 363
#     4   9  18  36  59  86 122 162 201 248 306 365
#     4  10  21  40  62  84 119 165 208 255 310 365
#     4  11  21  32  52  83 118 155 196 243 301 369
#     4  11  23  41  65  92 124 163 209 260 313 370
#
# _framework density 19.618552000000001
#
# number of rings (size 3 to 8) (size 9 to 14) (size 15 to 20)
#    0.000    1.429    2.857    3.429    0.000    4.571 
#    0.000    2.143    0.000    0.000    0.000    0.000 
#    0.000    0.000    0.000    0.000    0.000    0.000 
#
# Total GULP energy -156214.581027 kJ/mol
# GULP energy per Si atom -5579.092180 kJ/mol
# Density = 1.957390 g / cm^3
# Si number density = 19.618552 Si / 1000 Ang^3
#
#
#
# Elastic Constant Matrix: (Units=GPa)
#
#
# Indices 1 2 3 4 5 6 
#
# 1 81.1704 19.3261 34.8342 0.0000 10.8722 0.0000
# 2 19.3261 50.2104 26.8290 0.0000 -3.8580 0.0000
# 3 34.8342 26.8290 126.7822 0.0000 9.9252 0.0000
# 4 0.0000 0.0000 0.0000 29.4420 0.0000 0.3464
# 5 10.8722 -3.8580 9.9252 0.0000 33.1595 0.0000
# 6 0.0000 0.0000 0.0000 0.3464 0.0000 28.3834
#
#
#
# Elastic Compliance Matrix: (Units=1/GPa)
#
#
# Indices 1 2 3 4 5 6 
#
# 1 0.015294 -0.004737 -0.002830 0.000000 -0.004719 0.000000
# 2 -0.004737 0.024489 -0.004327 0.000000 0.005697 0.000000
# 3 -0.002830 -0.004327 0.009777 0.000000 -0.002502 0.000000
# 4 0.000000 0.000000 0.000000 0.033970 0.000000 -0.000415
# 5 -0.004719 0.005697 -0.002502 0.000000 0.033116 0.000000
# 6 0.000000 0.000000 0.000000 -0.000415 0.000000 0.035237
#
#
# Mechanical properties :
#
#
# Convention : Reuss Voigt Hill
#
# Bulk Modulus (GPa) = 38.80211 46.68241 42.74226
# Shear Modulus (GPa) = 27.13526 30.00856 28.57191
#
# Velocity S-wave (km/s) = 3.72310 3.91525 3.82038
# Velocity P-wave (km/s) = 6.18895 6.65475 6.42607
#
# Compressibility (1/GPa) = 0.02577179
#
# Stress axis : x y z
#
# Youngs Moduli (GPa) = 65.38388 40.83427 102.28432
#
# Poissons Ratio (x) = 0.19343 0.28950
# Poissons Ratio (y) = 0.30973 0.44256
# Poissons Ratio (z) = 0.18506 0.17668
#
# Static dielectric constant tensor:
#      x y z
#    x 1.703600 0.000000 0.025360 
#    y 0.000000 1.676060 0.000000 
#    z 0.025360 0.000000 1.765820 
# 
# From -- ./inp_files/38495.got.cif
#   From: 2010.05.17/outbox.cif.g08.bks.cpg/sg11_20_cif.got.tgz:38495.got - 2010.06.03 12:22:45.
