data_PCOD9160910
_publ_section_title
;
Structure prediction by ZEFSAII (Michael W. Deem and Ramdas Pophale) SiO2 
 PCOD9160910
Probable space group: P 21/M
;
_chemical_formula_sum "Si O2"
_cell_formula_units_Z 30
_cell_length_a 8.873675
_cell_length_b 25.072805
_cell_length_c 8.195288
_cell_angle_alpha 90.000000
_cell_angle_beta 49.581409
_cell_angle_gamma 90.000000
_cell_volume 1388.169336
_symmetry_space_group_name_H-M "P 21/M"
_symmetry_group_IT_number 11
_symmetry_cell_setting 'monoclinic'
loop_
_space_group_symop_operation_xyz
x,y,z
-x,1/2+y,-z
-x,-y,-z
x,1/2-y,z
loop_
_atom_site_type_symbol
_atom_site_label
_atom_site_fract_x
_atom_site_fract_y
_atom_site_fract_z
Si Si1 0.813803 0.613352 0.713392
Si Si2 0.620698 0.983840 0.690961
Si Si3 0.476608 0.190381 0.225504
Si Si4 0.569387 0.592789 0.187818
Si Si5 0.750906 0.403504 0.055619
Si Si6 0.201754 0.640174 0.618336
Si Si7 0.120604 0.462476 0.791815
Si Si8 0.676592 0.250000 0.367485
O O1 0.764146 0.552793 0.698031
O O2 0.723025 0.656049 0.650122
O O3 0.036595 0.620229 0.609018
O O4 0.683048 0.623308 0.967007
O O5 0.424128 0.947217 0.808181
O O6 0.741978 0.991261 0.437607
O O7 0.546111 0.040969 0.802780
O O8 0.470261 0.250000 0.151338
O O9 0.651461 0.149527 0.048043
O O10 0.540166 0.204441 0.365767
O O11 0.410908 0.627604 0.391063
O O12 0.728622 0.571500 0.205476
O O13 0.816407 0.388826 0.193947
O O14 0.947108 0.426540 0.833072
O O15 0.185003 0.702819 0.656915
O O16 0.000000 0.500000 0.000000
#
# Coordination Sequence:
#
# PCOD9160910 Si02
#       8
#     4   4   4   4   4   4   4   2
#     4  11  25  40  64  96 135 171 207 261 335 387
#     4  11  24  41  63  93 136 178 211 265 312 385
#     4   8  19  40  67  88 119 167 207 263 326 378
#     4  12  24  39  63  97 134 170 219 263 315 382
#     4  10  19  39  66  93 124 164 223 262 311 378
#     4  11  22  41  65  95 129 166 212 273 322 382
#     4  12  22  37  67  95 123 176 226 256 306 381
#     4   8  20  42  72  90 120 166 214 274 326 378
#
# _framework density 21.611196
#
# number of rings (size 3 to 8) (size 9 to 14) (size 15 to 20)
#    0.400    1.067    4.000    1.600    0.933    2.667 
#    1.200    0.000    1.467    3.200    0.000    0.000 
#    0.000    0.000    0.000    0.000    0.000    0.000 
#
# Total GULP energy -167013.706156 kJ/mol
# GULP energy per Si atom -5567.123539 kJ/mol
# Density = 2.156201 g / cm^3
# Si number density = 21.611196 Si / 1000 Ang^3
#
#
#
# Elastic Constant Matrix: (Units=GPa)
#
#
# Indices 1 2 3 4 5 6 
#
# 1 71.7602 -12.4924 3.4205 0.0000 -17.0053 0.0000
# 2 -12.4924 74.5530 3.6926 0.0000 -6.0630 0.0000
# 3 3.4205 3.6926 70.5920 0.0000 -17.5514 0.0000
# 4 0.0000 0.0000 0.0000 10.6684 0.0000 1.2797
# 5 -17.0053 -6.0630 -17.5514 0.0000 24.0803 0.0000
# 6 0.0000 0.0000 0.0000 1.2797 0.0000 31.2586
#
#
#
# Elastic Compliance Matrix: (Units=1/GPa)
#
#
# Indices 1 2 3 4 5 6 
#
# 1 0.018365 0.004247 0.002905 0.000000 0.016156 0.000000
# 2 0.004247 0.014678 0.000844 0.000000 0.007310 0.000000
# 3 0.002905 0.000844 0.017763 0.000000 0.015211 0.000000
# 4 0.000000 0.000000 0.000000 0.094197 0.000000 -0.003856
# 5 0.016156 0.007310 0.015211 0.000000 0.065864 0.000000
# 6 0.000000 0.000000 0.000000 -0.003856 0.000000 0.032149
#
#
# Mechanical properties :
#
#
# Convention : Reuss Voigt Hill
#
# Bulk Modulus (GPa) = 14.97075 22.90519 18.93797
# Shear Modulus (GPa) = 20.05702 28.02041 24.03871
#
# Velocity S-wave (km/s) = 3.04975 3.60470 3.33877
# Velocity P-wave (km/s) = 4.39814 5.28648 4.86264
#
# Compressibility (1/GPa) = 0.06679692
#
# Stress axis : x y z
#
# Youngs Moduli (GPa) = 54.45238 68.13086 56.29727
#
# Poissons Ratio (x) = -0.28937 -0.16353
# Poissons Ratio (y) = -0.23127 -0.04751
# Poissons Ratio (z) = -0.15817 -0.05750
#
# Static dielectric constant tensor:
#      x y z
#    x 1.832640 0.000000 0.039060 
#    y 0.000000 1.830940 0.000000 
#    z 0.039060 0.000000 1.778090 
# 
# From -- ./inp_files/15170.got.cif
#   From: 2010.05.17/outbox.cif.g08.bks.cpg/sg11_8_cif.got.tgz:15170.got - 2010.06.03 12:22:45.
