data_PCOD9160420
_publ_section_title
;
Structure prediction by ZEFSAII (Michael W. Deem and Ramdas Pophale) SiO2 
 PCOD9160420
Probable space group: P 21/M
;
_chemical_formula_sum "Si O2"
_cell_formula_units_Z 32
_cell_length_a 28.189300
_cell_length_b 8.989960
_cell_length_c 21.958549
_cell_angle_alpha 90.000000
_cell_angle_beta 161.323277
_cell_angle_gamma 90.000000
_cell_volume 1781.989729
_symmetry_space_group_name_H-M "P 21/M"
_symmetry_group_IT_number 11
_symmetry_cell_setting 'monoclinic'
loop_
_space_group_symop_operation_xyz
x,y,z
-x,1/2+y,-z
-x,-y,-z
x,1/2-y,z
loop_
_atom_site_type_symbol
_atom_site_label
_atom_site_fract_x
_atom_site_fract_y
_atom_site_fract_z
Si Si1 0.721901 0.071926 0.650243
Si Si2 0.541881 0.927594 0.986891
Si Si3 0.376249 0.072381 0.219579
Si Si4 0.868577 0.928597 0.713449
Si Si5 0.392981 0.074371 0.692525
Si Si6 0.791421 0.071175 0.873766
Si Si7 0.703799 0.425008 0.001048
Si Si8 0.151783 0.428551 0.707896
O O1 0.740076 0.250000 0.668105
O O2 0.550744 0.035607 0.428490
O O3 0.759243 0.028359 0.764799
O O4 0.823297 0.995841 0.723165
O O5 0.533822 0.750000 0.981519
O O6 0.431331 0.986030 0.800130
O O7 0.708084 0.966773 0.165496
O O8 0.500000 0.000000 0.000000
O O9 0.361025 0.250000 0.197898
O O10 0.313041 0.011090 0.205833
O O11 0.293975 0.996402 0.062794
O O12 0.856118 0.750000 0.702711
O O13 0.751268 0.977959 0.519589
O O14 0.037714 0.964486 0.904070
O O15 0.377124 0.250000 0.687523
O O16 0.536054 0.058996 0.822764
O O17 0.770482 0.250000 0.853343
O O18 0.739038 0.250000 0.041671
O O19 0.806318 0.507339 0.174826
O O20 0.140037 0.250000 0.695837
O O21 0.000000 0.500000 0.500000
#
# Coordination Sequence:
#
# PCOD9160420 Si02
#       8
#     4   4   4   4   4   4   4   4
#     4  10  21  36  57  82 109 145 189 234 281 337
#     4  10  21  37  59  86 115 148 185 228 274 327
#     4  11  22  36  55  81 112 147 189 235 280 332
#     4  10  20  36  58  83 110 144 186 231 281 336
#     4   9  18  34  57  83 109 143 186 228 272 330
#     4  10  22  38  54  79 114 149 185 232 287 337
#     4  10  19  35  60  84 110 148 188 230 278 330
#     4  10  21  38  60  88 118 149 187 229 275 328
#
# _framework density 17.957455
#
# number of rings (size 3 to 8) (size 9 to 14) (size 15 to 20)
#    0.000    2.000    1.250    2.250    0.000    4.000 
#    2.250    0.000    0.000    0.000    0.000    0.000 
#    0.000    0.000    0.000    0.000    0.000    0.000 
#
# Total GULP energy -178698.206864 kJ/mol
# GULP energy per Si atom -5584.318964 kJ/mol
# Density = 1.791658 g / cm^3
# Si number density = 17.957455 Si / 1000 Ang^3
#
#
#
# Elastic Constant Matrix: (Units=GPa)
#
#
# Indices 1 2 3 4 5 6 
#
# 1 54.9341 16.9265 -6.1585 0.0000 -13.8883 0.0000
# 2 16.9265 31.9227 19.9684 0.0000 -3.9400 0.0000
# 3 -6.1585 19.9684 60.1140 0.0000 -19.8212 0.0000
# 4 0.0000 0.0000 0.0000 23.4885 0.0000 -5.1225
# 5 -13.8883 -3.9400 -19.8212 0.0000 27.2786 0.0000
# 6 0.0000 0.0000 0.0000 -5.1225 0.0000 36.7710
#
#
#
# Elastic Compliance Matrix: (Units=1/GPa)
#
#
# Indices 1 2 3 4 5 6 
#
# 1 0.040966 -0.034479 0.027465 0.000000 0.035833 0.000000
# 2 -0.034479 0.069095 -0.038112 0.000000 -0.035268 0.000000
# 3 0.027465 -0.038112 0.045902 0.000000 0.041831 0.000000
# 4 0.000000 0.000000 0.000000 0.043908 0.000000 0.006117
# 5 0.035833 -0.035268 0.041831 0.000000 0.080204 0.000000
# 6 0.000000 0.000000 0.000000 0.006117 0.000000 0.028047
#
#
# Mechanical properties :
#
#
# Convention : Reuss Voigt Hill
#
# Bulk Modulus (GPa) = 15.21845 23.16042 19.18943
# Shear Modulus (GPa) = 11.89692 25.25660 18.57676
#
# Velocity S-wave (km/s) = 2.57671 3.75436 3.21983
# Velocity P-wave (km/s) = 4.16482 5.63196 4.95302
#
# Compressibility (1/GPa) = 0.06570972
#
# Stress axis : x y z
#
# Youngs Moduli (GPa) = 24.41076 14.47289 21.78569
#
# Poissons Ratio (x) = 0.49900 -0.59834
# Poissons Ratio (y) = 0.84165 0.83031
# Poissons Ratio (z) = -0.67044 0.55160
#
# Static dielectric constant tensor:
#      x y z
#    x 1.580410 0.000000 -0.002150 
#    y 0.000000 1.604050 0.000000 
#    z -0.002150 0.000000 1.610060 
# 
# From -- ./inp_files/67257.got.cif
#   From: 2010.05.17/outbox.cif.g08.bks.cpg/sg11_34_cif.got.tgz:67257.got - 2010.06.03 12:22:45.
