data_PCOD9160206
_publ_section_title
;
Structure prediction by ZEFSAII (Michael W. Deem and Ramdas Pophale) SiO2 
 PCOD9160206
Probable space group: P 21/M
;
_chemical_formula_sum "Si O2"
_cell_formula_units_Z 26
_cell_length_a 14.426931
_cell_length_b 17.846927
_cell_length_c 10.977101
_cell_angle_alpha 90.000000
_cell_angle_beta 149.624058
_cell_angle_gamma 90.000000
_cell_volume 1429.201912
_symmetry_space_group_name_H-M "P 21/M"
_symmetry_group_IT_number 11
_symmetry_cell_setting 'monoclinic'
loop_
_space_group_symop_operation_xyz
x,y,z
-x,1/2+y,-z
-x,-y,-z
x,1/2-y,z
loop_
_atom_site_type_symbol
_atom_site_label
_atom_site_fract_x
_atom_site_fract_y
_atom_site_fract_z
Si Si1 0.951418 0.098216 0.836175
Si Si2 0.159572 0.915705 0.794957
Si Si3 0.015948 0.250000 0.050744
Si Si4 0.062798 0.750000 0.764018
Si Si5 0.557530 0.916120 0.288900
Si Si6 0.327987 0.250000 0.592841
Si Si7 0.182775 0.522533 0.550020
Si Si8 0.707110 0.981090 0.697050
O O1 0.853792 0.083803 0.596539
O O2 0.825072 0.052619 0.788716
O O3 0.974652 0.179156 0.920339
O O4 0.155950 0.063231 0.059706
O O5 0.128540 0.827539 0.781046
O O6 0.189026 0.937818 0.687447
O O7 0.347578 0.936700 0.075799
O O8 0.986283 0.963482 0.643235
O O9 0.222696 0.250000 0.341902
O O10 0.900652 0.250000 0.047598
O O11 0.842076 0.750000 0.507124
O O12 0.566871 0.827817 0.270921
O O13 0.683920 0.930864 0.549192
O O14 0.641740 0.971369 0.283090
O O15 0.500000 0.000000 0.500000
#
# Coordination Sequence:
#
# PCOD9160206 Si02
#       8
#     4   4   2   2   4   2   4   4
#     4  10  21  37  55  80 117 149 181 230 283 336
#     4  11  22  37  61  84 113 150 191 231 276 337
#     4  10  20  37  58  81 117 151 183 233 291 336
#     4  10  21  36  57  85 111 143 191 232 282 326
#     4  11  20  36  57  85 114 144 189 234 282 329
#     4  10  19  35  55  82 114 140 178 239 281 328
#     4  10  22  39  57  84 114 150 191 229 277 336
#     4  10  20  32  57  84 111 145 185 232 280 331
#
# _framework density 18.191972
#
# number of rings (size 3 to 8) (size 9 to 14) (size 15 to 20)
#    0.462    1.231    3.077    1.846    6.462    0.615 
#    0.000    0.769    0.000    0.000    0.000    0.000 
#    0.000    0.000    0.000    0.000    0.000    0.000 
#
# Total GULP energy -144883.648185 kJ/mol
# GULP energy per Si atom -5572.448007 kJ/mol
# Density = 1.815057 g / cm^3
# Si number density = 18.191972 Si / 1000 Ang^3
#
#
#
# Elastic Constant Matrix: (Units=GPa)
#
#
# Indices 1 2 3 4 5 6 
#
# 1 41.1549 37.5289 1.9665 0.0000 5.8272 0.0000
# 2 37.5289 115.3527 28.1329 0.0000 -3.5538 0.0000
# 3 1.9665 28.1329 61.6707 0.0000 13.6287 0.0000
# 4 0.0000 0.0000 0.0000 13.7836 0.0000 -2.8681
# 5 5.8272 -3.5538 13.6287 0.0000 36.9141 0.0000
# 6 0.0000 0.0000 0.0000 -2.8681 0.0000 22.5178
#
#
#
# Elastic Compliance Matrix: (Units=1/GPa)
#
#
# Indices 1 2 3 4 5 6 
#
# 1 0.039048 -0.014955 0.007902 0.000000 -0.010521 0.000000
# 2 -0.014955 0.015758 -0.008241 0.000000 0.006920 0.000000
# 3 0.007902 -0.008241 0.021966 0.000000 -0.010151 0.000000
# 4 0.000000 0.000000 0.000000 0.074525 0.000000 0.009492
# 5 -0.010521 0.006920 -0.010151 0.000000 0.033165 0.000000
# 6 0.000000 0.000000 0.000000 0.009492 0.000000 0.045618
#
#
# Mechanical properties :
#
#
# Convention : Reuss Voigt Hill
#
# Bulk Modulus (GPa) = 21.65255 39.27054 30.46155
# Shear Modulus (GPa) = 18.11188 24.67978 21.39583
#
# Velocity S-wave (km/s) = 3.15873 3.68724 3.43317
# Velocity P-wave (km/s) = 5.02310 6.30565 5.70056
#
# Compressibility (1/GPa) = 0.04618394
#
# Stress axis : x y z
#
# Youngs Moduli (GPa) = 25.60928 63.46113 45.52570
#
# Poissons Ratio (x) = 0.94909 -0.35976
# Poissons Ratio (y) = 0.38300 0.37517
# Poissons Ratio (z) = -0.20237 0.52297
#
# Static dielectric constant tensor:
#      x y z
#    x 1.635700 0.000000 0.005730 
#    y 0.000000 1.615240 0.000000 
#    z 0.005730 0.000000 1.612450 
# 
# From -- ./inp_files/39874.got.cif
#   From: 2010.05.17/outbox.cif.g08.bks.cpg/sg11_20_cif.got.tgz:39874.got - 2010.06.03 12:22:45.
