data_PCOD9160385
_publ_section_title
;
Structure prediction by ZEFSAII (Michael W. Deem and Ramdas Pophale) SiO2 
 PCOD9160385
Probable space group: P 21/M
;
_chemical_formula_sum "Si O2"
_cell_formula_units_Z 24
_cell_length_a 8.023403
_cell_length_b 15.669596
_cell_length_c 8.262361
_cell_angle_alpha 90.000000
_cell_angle_beta 102.305321
_cell_angle_gamma 90.000000
_cell_volume 1014.907819
_symmetry_space_group_name_H-M "P 21/M"
_symmetry_group_IT_number 11
_symmetry_cell_setting 'monoclinic'
loop_
_space_group_symop_operation_xyz
x,y,z
-x,1/2+y,-z
-x,-y,-z
x,1/2-y,z
loop_
_atom_site_type_symbol
_atom_site_label
_atom_site_fract_x
_atom_site_fract_y
_atom_site_fract_z
Si Si1 0.617978 0.916457 0.034428
Si Si2 0.777678 0.147760 0.569225
Si Si3 0.099152 0.148868 0.421840
Si Si4 0.090403 0.972971 0.854211
Si Si5 0.439769 0.149083 0.331470
Si Si6 0.697932 0.346169 0.905111
O O1 0.636189 0.887669 0.851625
O O2 0.504457 0.850094 0.109823
O O3 0.500000 0.000000 0.000000
O O4 0.789103 0.946441 0.158145
O O5 0.746758 0.250000 0.573081
O O6 0.969262 0.138105 0.544875
O O7 0.626565 0.114223 0.420580
O O8 0.748252 0.113508 0.743495
O O9 0.070483 0.250000 0.364254
O O10 0.033559 0.071102 0.296726
O O11 0.303825 0.139398 0.449940
O O12 0.215140 0.895572 0.930990
O O13 0.000000 0.000000 0.000000
O O14 0.459454 0.250000 0.304071
O O15 0.760576 0.250000 0.921713
#
# Coordination Sequence:
#
# PCOD9160385 Si02
#       6
#     4   4   4   4   4   4
#     4  10  20  35  58  82 113 149 189 237 289 340
#     4   9  19  37  59  84 116 149 192 245 290 341
#     4  10  20  37  62  85 111 155 200 238 287 351
#     4  11  21  38  57  84 121 149 190 242 292 339
#     4  10  19  35  59  84 109 150 200 241 285 347
#     4  10  21  39  61  86 114 151 193 239 293 343
#
# _framework density 23.647468
#
# number of rings (size 3 to 8) (size 9 to 14) (size 15 to 20)
#    0.000    2.000    1.667    3.000    0.000    1.333 
#    3.000    8.333    0.000    0.000    0.000    0.000 
#    0.000    0.000    0.000    0.000    0.000    0.000 
#
# Total GULP energy -133862.431193 kJ/mol
# GULP energy per Si atom -5577.601300 kJ/mol
# Density = 2.359365 g / cm^3
# Si number density = 23.647468 Si / 1000 Ang^3
#
#
#
# Elastic Constant Matrix: (Units=GPa)
#
#
# Indices 1 2 3 4 5 6 
#
# 1 88.6862 19.3782 20.4655 0.0000 -15.3976 0.0000
# 2 19.3782 36.1502 4.2874 0.0000 13.5461 0.0000
# 3 20.4655 4.2874 49.9908 0.0000 -7.9511 0.0000
# 4 0.0000 0.0000 0.0000 14.8458 0.0000 -5.3155
# 5 -15.3976 13.5461 -7.9511 0.0000 38.5509 0.0000
# 6 0.0000 0.0000 0.0000 -5.3155 0.0000 30.8866
#
#
#
# Elastic Compliance Matrix: (Units=1/GPa)
#
#
# Indices 1 2 3 4 5 6 
#
# 1 0.016657 -0.012214 -0.004168 0.000000 0.010085 0.000000
# 2 -0.012214 0.041901 -0.001769 0.000000 -0.019967 0.000000
# 3 -0.004168 -0.001769 0.022432 0.000000 0.003584 0.000000
# 4 0.000000 0.000000 0.000000 0.071782 0.000000 0.012354
# 5 0.010085 -0.019967 0.003584 0.000000 0.037723 0.000000
# 6 0.000000 0.000000 0.000000 0.012354 0.000000 0.034503
#
#
# Mechanical properties :
#
#
# Convention : Reuss Voigt Hill
#
# Bulk Modulus (GPa) = 22.37701 29.23213 25.80457
# Shear Modulus (GPa) = 18.10315 25.56974 21.83645
#
# Velocity S-wave (km/s) = 2.76985 3.29186 3.04207
# Velocity P-wave (km/s) = 4.43990 5.18044 4.82440
#
# Compressibility (1/GPa) = 0.04468872
#
# Stress axis : x y z
#
# Youngs Moduli (GPa) = 60.03420 23.86564 44.58009
#
# Poissons Ratio (x) = 0.29149 0.18579
# Poissons Ratio (y) = 0.73325 0.07887
# Poissons Ratio (z) = 0.25020 0.04222
#
# Static dielectric constant tensor:
#      x y z
#    x 1.987950 0.000000 0.000550 
#    y 0.000000 1.909010 0.000000 
#    z 0.000550 0.000000 1.946930 
# 
# From -- ./inp_files/12546.got.cif
#   From: 2010.05.17/outbox.cif.g08.bks.cpg/sg11_7_cif.got.tgz:12546.got - 2010.06.03 12:22:45.
