data_PCOD9160284
_publ_section_title
;
Structure prediction by ZEFSAII (Michael W. Deem and Ramdas Pophale) SiO2 
 PCOD9160284
Probable space group: P 21/M
;
_chemical_formula_sum "Si O2"
_cell_formula_units_Z 32
_cell_length_a 29.389727
_cell_length_b 8.602843
_cell_length_c 12.830673
_cell_angle_alpha 90.000000
_cell_angle_beta 30.121071
_cell_angle_gamma 90.000000
_cell_volume 1627.955871
_symmetry_space_group_name_H-M "P 21/M"
_symmetry_group_IT_number 11
_symmetry_cell_setting 'monoclinic'
loop_
_space_group_symop_operation_xyz
x,y,z
-x,1/2+y,-z
-x,-y,-z
x,1/2-y,z
loop_
_atom_site_type_symbol
_atom_site_label
_atom_site_fract_x
_atom_site_fract_y
_atom_site_fract_z
Si Si1 0.715976 0.064464 0.959842
Si Si2 0.226150 0.062342 0.719332
Si Si3 0.469641 0.570470 0.952118
Si Si4 0.027778 0.937320 0.059178
Si Si5 0.146526 0.068298 0.482671
Si Si6 0.511552 0.059748 0.311603
Si Si7 0.317050 0.062151 0.758212
Si Si8 0.293541 0.068865 0.362099
O O1 0.713429 0.250000 0.963711
O O2 0.790856 0.010012 0.728535
O O3 0.613129 0.006590 0.137616
O O4 0.733940 0.004506 0.040827
O O5 0.218727 0.250000 0.733940
O O6 0.272134 0.015539 0.737067
O O7 0.284854 0.023846 0.499939
O O8 0.127255 0.991893 0.895722
O O9 0.492662 0.750000 0.908304
O O10 0.362388 0.540608 0.164672
O O11 0.500000 0.500000 0.000000
O O12 0.507456 0.506664 0.769388
O O13 0.024268 0.750000 0.061771
O O14 0.953641 0.991456 0.291991
O O15 0.000000 0.000000 0.000000
O O16 0.140761 0.250000 0.465774
O O17 0.198847 0.058851 0.489808
O O18 0.513403 0.250000 0.309424
O O19 0.423161 0.010623 0.551149
O O20 0.315997 0.250000 0.764361
O O21 0.323514 0.250000 0.295825
#
# Coordination Sequence:
#
# PCOD9160284 Si02
#       8
#     4   4   4   4   4   4   4   4
#     4  11  22  38  60  87 118 150 197 250 289 333
#     4  10  21  39  61  87 120 157 196 240 295 353
#     4  11  21  34  51  79 117 155 195 235 289 347
#     4  11  22  38  62  91 121 153 192 239 292 353
#     4  10  21  38  60  86 116 150 190 233 286 351
#     4   9  19  36  57  81 112 152 195 240 286 339
#     4  10  21  39  61  82 114 159 198 236 292 351
#     4  10  19  35  57  82 115 152 189 232 287 349
#
# _framework density 19.656554
#
# number of rings (size 3 to 8) (size 9 to 14) (size 15 to 20)
#    0.000    1.750    2.500    2.250    0.000    4.000 
#    0.000    3.750    0.000    0.000    0.000    0.000 
#    0.000    0.000    0.000    0.000    0.000    0.000 
#
# Total GULP energy -178584.532934 kJ/mol
# GULP energy per Si atom -5580.766654 kJ/mol
# Density = 1.961181 g / cm^3
# Si number density = 19.656554 Si / 1000 Ang^3
#
#
#
# Elastic Constant Matrix: (Units=GPa)
#
#
# Indices 1 2 3 4 5 6 
#
# 1 70.6152 12.7207 42.8894 0.0000 18.9246 0.0000
# 2 12.7207 12.3032 17.1771 0.0000 7.6131 0.0000
# 3 42.8894 17.1771 123.4409 0.0000 18.5731 0.0000
# 4 0.0000 0.0000 0.0000 28.0598 0.0000 -1.0801
# 5 18.9246 7.6131 18.5731 0.0000 37.3358 0.0000
# 6 0.0000 0.0000 0.0000 -1.0801 0.0000 26.1359
#
#
#
# Elastic Compliance Matrix: (Units=1/GPa)
#
#
# Indices 1 2 3 4 5 6 
#
# 1 0.020595 -0.011075 -0.004738 0.000000 -0.005824 0.000000
# 2 -0.011075 0.114877 -0.010223 0.000000 -0.012726 0.000000
# 3 -0.004738 -0.010223 0.011344 0.000000 -0.001157 0.000000
# 4 0.000000 0.000000 0.000000 0.035695 0.000000 0.001475
# 5 -0.005824 -0.012726 -0.001157 0.000000 0.032906 0.000000
# 6 0.000000 0.000000 0.000000 0.001475 0.000000 0.038323
#
#
# Mechanical properties :
#
#
# Convention : Reuss Voigt Hill
#
# Bulk Modulus (GPa) = 10.55473 39.10376 24.82924
# Shear Modulus (GPa) = 14.81950 27.21110 21.01530
#
# Velocity S-wave (km/s) = 2.74874 3.72469 3.27329
# Velocity P-wave (km/s) = 3.93133 6.19955 5.19085
#
# Compressibility (1/GPa) = 0.09474426
#
# Stress axis : x y z
#
# Youngs Moduli (GPa) = 48.55559 8.70494 88.15243
#
# Poissons Ratio (x) = 0.09640 0.41770
# Poissons Ratio (y) = 0.53774 0.90117
# Poissons Ratio (z) = 0.23007 0.08899
#
# Static dielectric constant tensor:
#      x y z
#    x 1.717680 0.000000 -0.019920 
#    y 0.000000 1.681620 0.000000 
#    z -0.019920 0.000000 1.710920 
# 
# From -- ./inp_files/45143.got.cif
#   From: 2010.05.17/outbox.cif.g08.bks.cpg/sg11_23_cif.got.tgz:45143.got - 2010.06.03 12:22:45.
