data_PCOD9160030
_publ_section_title
;
Structure prediction by ZEFSAII (Michael W. Deem and Ramdas Pophale) SiO2 
 PCOD9160030
Probable space group: P 21/M
;
_chemical_formula_sum "Si O2"
_cell_formula_units_Z 24
_cell_length_a 12.992774
_cell_length_b 11.584120
_cell_length_c 7.404645
_cell_angle_alpha 90.000000
_cell_angle_beta 112.630388
_cell_angle_gamma 90.000000
_cell_volume 1028.664671
_symmetry_space_group_name_H-M "P 21/M"
_symmetry_group_IT_number 11
_symmetry_cell_setting 'monoclinic'
loop_
_space_group_symop_operation_xyz
x,y,z
-x,1/2+y,-z
-x,-y,-z
x,1/2-y,z
loop_
_atom_site_type_symbol
_atom_site_label
_atom_site_fract_x
_atom_site_fract_y
_atom_site_fract_z
Si Si1 0.523826 0.882429 0.252826
Si Si2 0.863046 0.630059 0.423723
Si Si3 0.062873 0.951032 0.768920
Si Si4 0.873554 0.120919 0.801557
Si Si5 0.288616 0.430339 0.351445
Si Si6 0.609678 0.620122 0.921451
O O1 0.476016 0.750000 0.224007
O O2 0.591871 0.904075 0.481878
O O3 0.449149 0.996964 0.170314
O O4 0.608929 0.882940 0.138475
O O5 0.842622 0.750000 0.311687
O O6 0.846608 0.520504 0.285455
O O7 0.794310 0.627093 0.561883
O O8 0.990326 0.622072 0.579901
O O9 0.110097 0.884927 0.971467
O O10 0.973728 0.044629 0.786722
O O11 0.879541 0.250000 0.738906
O O12 0.755517 0.061098 0.679259
O O13 0.285954 0.384780 0.145342
O O14 0.558863 0.750000 0.849708
#
# Coordination Sequence:
#
# PCOD9160030 Si02
#       6
#     4   4   4   4   4   4
#     4  10  22  41  64  90 123 158 201 250 305 368
#     4  10  19  34  57  84 117 154 196 245 295 351
#     4   9  20  36  57  82 115 158 206 244 298 357
#     4  10  21  38  57  84 121 160 205 256 301 358
#     4  11  23  36  59  92 122 154 200 244 301 359
#     4  10  22  41  65  90 121 160 202 247 305 370
#
# _framework density 23.331219000000001
#
# number of rings (size 3 to 8) (size 9 to 14) (size 15 to 20)
#    0.000    2.000    0.000    3.000    2.333    1.333 
#    0.000    4.167    0.000    0.000    0.000    0.000 
#    0.000    0.000    0.000    0.000    0.000    0.000 
#
# Total GULP energy -133780.909034 kJ/mol
# GULP energy per Si atom -5574.204543 kJ/mol
# Density = 2.327812 g / cm^3
# Si number density = 23.331219 Si / 1000 Ang^3
#
#
#
# Elastic Constant Matrix: (Units=GPa)
#
#
# Indices 1 2 3 4 5 6 
#
# 1 56.1683 28.2187 7.3745 0.0000 -28.8957 0.0000
# 2 28.2187 177.7629 19.4128 0.0000 5.5162 0.0000
# 3 7.3745 19.4128 86.1412 0.0000 -20.8182 0.0000
# 4 0.0000 0.0000 0.0000 19.8420 0.0000 4.2191
# 5 -28.8957 5.5162 -20.8182 0.0000 35.7616 0.0000
# 6 0.0000 0.0000 0.0000 4.2191 0.0000 15.2525
#
#
#
# Elastic Compliance Matrix: (Units=1/GPa)
#
#
# Indices 1 2 3 4 5 6 
#
# 1 0.041365 -0.008654 0.007924 0.000000 0.039371 0.000000
# 2 -0.008654 0.007693 -0.003456 0.000000 -0.010190 0.000000
# 3 0.007924 -0.003456 0.015577 0.000000 0.016004 0.000000
# 4 0.000000 0.000000 0.000000 0.053548 0.000000 -0.014812
# 5 0.039371 -0.010190 0.016004 0.000000 0.070663 0.000000
# 6 0.000000 0.000000 0.000000 -0.014812 0.000000 0.069660
#
#
# Mechanical properties :
#
#
# Convention : Reuss Voigt Hill
#
# Bulk Modulus (GPa) = 17.77317 47.78715 32.78016
# Shear Modulus (GPa) = 17.50507 31.84231 24.67369
#
# Velocity S-wave (km/s) = 2.74210 3.69832 3.25551
# Velocity P-wave (km/s) = 4.20236 6.22602 5.31146
#
# Compressibility (1/GPa) = 0.05626457
#
# Stress axis : x y z
#
# Youngs Moduli (GPa) = 24.17489 129.99239 64.19757
#
# Poissons Ratio (x) = 1.12489 -0.50870
# Poissons Ratio (y) = 0.20920 0.22184
# Poissons Ratio (z) = -0.19156 0.44920
#
# Static dielectric constant tensor:
#      x y z
#    x 1.940090 0.000000 0.006410 
#    y 0.000000 1.925130 0.000000 
#    z 0.006410 0.000000 1.847680 
# 
# From -- ./inp_files/21005.got.cif
#   From: 2010.05.17/outbox.cif.g08.bks.cpg/sg11_11_cif.got.tgz:21005.got - 2010.06.03 12:22:45.
