data_PCOD9160069
_publ_section_title
;
Structure prediction by ZEFSAII (Michael W. Deem and Ramdas Pophale) SiO2 
 PCOD9160069
Probable space group: P 21/M
;
_chemical_formula_sum "Si O2"
_cell_formula_units_Z 32
_cell_length_a 31.391753
_cell_length_b 8.756204
_cell_length_c 22.311816
_cell_angle_alpha 90.000000
_cell_angle_beta 162.567007
_cell_angle_gamma 90.000000
_cell_volume 1837.358930
_symmetry_space_group_name_H-M "P 21/M"
_symmetry_group_IT_number 11
_symmetry_cell_setting 'monoclinic'
loop_
_space_group_symop_operation_xyz
x,y,z
-x,1/2+y,-z
-x,-y,-z
x,1/2-y,z
loop_
_atom_site_type_symbol
_atom_site_label
_atom_site_fract_x
_atom_site_fract_y
_atom_site_fract_z
Si Si1 0.046592 0.433805 0.625832
Si Si2 0.732916 0.926658 0.911317
Si Si3 0.348156 0.432599 0.556532
Si Si4 0.845099 0.432069 0.807477
Si Si5 0.339710 0.568968 0.065669
Si Si6 0.937929 0.072780 0.602247
Si Si7 0.844263 0.064909 0.600982
Si Si8 0.162568 0.434456 0.074141
O O1 0.104897 0.750000 0.461059
O O2 0.000000 0.500000 0.500000
O O3 0.947536 0.492013 0.548238
O O4 0.206074 0.483864 0.856937
O O5 0.685742 0.750000 0.849674
O O6 0.740332 0.980356 0.852445
O O7 0.898730 0.927816 0.154840
O O8 0.651909 0.021497 0.853007
O O9 0.331555 0.250000 0.531309
O O10 0.262498 0.507495 0.386891
O O11 0.513828 0.469342 0.770696
O O12 0.278720 0.494672 0.524073
O O13 0.852787 0.250000 0.815948
O O14 0.801548 0.489024 0.814971
O O15 0.000000 0.500000 0.000000
O O16 0.315349 0.750000 0.029288
O O17 0.039805 0.250000 0.615995
O O18 0.848952 0.007953 0.538368
O O19 0.834617 0.250000 0.587879
O O20 0.997951 0.027952 0.836950
O O21 0.170621 0.250000 0.089763
#
# Coordination Sequence:
#
# PCOD9160069 Si02
#       8
#     4   4   4   4   4   4   4   4
#     4  10  19  34  58  85 111 137 166 205 254 306
#     4   8  15  30  52  74  99 132 169 212 263 311
#     4  11  23  36  50  72 104 140 176 218 264 306
#     4  12  23  34  50  73 101 135 177 222 266 314
#     4  10  21  36  53  76 107 139 174 213 254 307
#     4   7  13  27  48  76 104 130 162 203 252 298
#     4   9  16  29  51  74  98 133 173 211 256 308
#     4   9  17  31  51  75 101 130 169 221 271 309
#
# _framework density 17.416302999999999
#
# number of rings (size 3 to 8) (size 9 to 14) (size 15 to 20)
#    0.000    2.500    1.250    4.500    0.000    2.500 
#    0.000    6.250    0.000    0.750    0.000    0.000 
#    0.000    0.000    0.000    0.000    0.000    0.000 
#
# Total GULP energy -178365.263885 kJ/mol
# GULP energy per Si atom -5573.914496 kJ/mol
# Density = 1.737666 g / cm^3
# Si number density = 17.416303 Si / 1000 Ang^3
#
#
#
# Elastic Constant Matrix: (Units=GPa)
#
#
# Indices 1 2 3 4 5 6 
#
# 1 191.8987 49.1153 55.8755 0.0000 7.0366 0.0000
# 2 49.1153 44.7324 31.1822 0.0000 6.4194 0.0000
# 3 55.8755 31.1822 46.4155 0.0000 9.2181 0.0000
# 4 0.0000 0.0000 0.0000 20.2410 0.0000 1.4483
# 5 7.0366 6.4194 9.2181 0.0000 23.6789 0.0000
# 6 0.0000 0.0000 0.0000 1.4483 0.0000 28.1229
#
#
#
# Elastic Compliance Matrix: (Units=1/GPa)
#
#
# Indices 1 2 3 4 5 6 
#
# 1 0.008460 -0.004134 -0.007728 0.000000 0.001615 0.000000
# 2 -0.004134 0.044069 -0.024386 0.000000 -0.001225 0.000000
# 3 -0.007728 -0.024386 0.049271 0.000000 -0.010273 0.000000
# 4 0.000000 0.000000 0.000000 0.049587 0.000000 -0.002554
# 5 0.001615 -0.001225 -0.010273 0.000000 0.046083 0.000000
# 6 0.000000 0.000000 0.000000 -0.002554 0.000000 0.035690
#
#
# Mechanical properties :
#
#
# Convention : Reuss Voigt Hill
#
# Bulk Modulus (GPa) = 34.12530 61.71027 47.91779
# Shear Modulus (GPa) = 15.85168 24.20014 20.02591
#
# Velocity S-wave (km/s) = 3.02016 3.73166 3.39460
# Velocity P-wave (km/s) = 5.63900 7.35367 6.55266
#
# Compressibility (1/GPa) = 0.02930377
#
# Stress axis : x y z
#
# Youngs Moduli (GPa) = 118.20294 22.69168 20.29601
#
# Poissons Ratio (x) = 0.09380 0.15685
# Poissons Ratio (y) = 0.48861 0.49495
# Poissons Ratio (z) = 0.91348 0.55337
#
# Static dielectric constant tensor:
#      x y z
#    x 1.630570 0.000000 0.013340 
#    y 0.000000 1.591250 0.000000 
#    z 0.013340 0.000000 1.565740 
# 
# From -- ./inp_files/67155.got.cif
#   From: 2010.05.17/outbox.cif.g08.bks.cpg/sg11_34_cif.got.tgz:67155.got - 2010.06.03 12:22:45.
