data_PCOD9160955
_publ_section_title
;
Structure prediction by ZEFSAII (Michael W. Deem and Ramdas Pophale) SiO2 
 PCOD9160955
Probable space group: P 21/M
;
_chemical_formula_sum "Si O2"
_cell_formula_units_Z 14
_cell_length_a 10.337502
_cell_length_b 5.614454
_cell_length_c 10.447318
_cell_angle_alpha 90.000000
_cell_angle_beta 121.209843
_cell_angle_gamma 90.000000
_cell_volume 518.601604
_symmetry_space_group_name_H-M "P 21/M"
_symmetry_group_IT_number 11
_symmetry_cell_setting 'monoclinic'
loop_
_space_group_symop_operation_xyz
x,y,z
-x,1/2+y,-z
-x,-y,-z
x,1/2-y,z
loop_
_atom_site_type_symbol
_atom_site_label
_atom_site_fract_x
_atom_site_fract_y
_atom_site_fract_z
Si Si1 0.561421 0.750000 0.765640
Si Si2 0.231840 0.250000 0.671977
Si Si3 0.746372 0.250000 0.265026
Si Si4 0.245002 0.250000 0.379227
Si Si5 0.970953 0.998967 0.136878
Si Si6 0.421976 0.750000 0.087476
O O1 0.379996 0.750000 0.685711
O O2 0.616649 0.750000 0.647471
O O3 0.618263 0.499696 0.859846
O O4 0.160513 0.505554 0.670318
O O5 0.270124 0.250000 0.541270
O O6 0.395395 0.250000 0.823227
O O7 0.631755 0.250000 0.086004
O O8 0.134143 0.030540 0.285081
O O9 0.891055 0.250000 0.124661
O O10 0.897090 0.750000 0.131599
O O11 0.000000 0.000000 0.000000
#
# Coordination Sequence:
#
# PCOD9160955 Si02
#       6
#     2   2   2   2   4   2
#     4  10  20  30  50  69  95 127 153 204 234 270
#     4  10  20  30  50  69  95 127 153 204 234 270
#     4  10  20  36  49  63  92 134 173 193 226 265
#     4  10  22  28  48  78 106 112 158 186 246 296
#     4   8  16  30  46  61  95 133 145 178 224 294
#     4  10  20  36  49  63  92 134 173 193 226 265
#
# _framework density 26.995674999999999
#
# number of rings (size 3 to 8) (size 9 to 14) (size 15 to 20)
#    0.857    1.714    0.000    4.286    4.000    4.571 
#    0.000    0.000    0.000    0.000    0.000    0.000 
#    0.000   38.857    0.000    0.000    0.000    0.000 
#
# Total GULP energy -78303.604743 kJ/mol
# GULP energy per Si atom -5593.114624 kJ/mol
# Density = 2.693423 g / cm^3
# Si number density = 26.995675 Si / 1000 Ang^3
#
#
#
# Elastic Constant Matrix: (Units=GPa)
#
#
# Indices 1 2 3 4 5 6 
#
# 1 66.9049 8.8077 10.2980 0.0000 -3.5021 0.0000
# 2 8.8077 311.3419 42.0296 0.0000 -21.4075 0.0000
# 3 10.2980 42.0296 95.9785 0.0000 -12.6936 0.0000
# 4 0.0000 0.0000 0.0000 34.0294 0.0000 -7.8004
# 5 -3.5021 -21.4075 -12.6936 0.0000 29.8635 0.0000
# 6 0.0000 0.0000 0.0000 -7.8004 0.0000 41.4872
#
#
#
# Elastic Compliance Matrix: (Units=1/GPa)
#
#
# Indices 1 2 3 4 5 6 
#
# 1 0.015243 -0.000166 -0.001422 0.000000 0.001064 0.000000
# 2 -0.000166 0.003523 -0.001264 0.000000 0.001968 0.000000
# 3 -0.001422 -0.001264 0.011638 0.000000 0.003873 0.000000
# 4 0.000000 0.000000 0.000000 0.030710 0.000000 0.005774
# 5 0.001064 0.001968 0.003873 0.000000 0.036668 0.000000
# 6 0.000000 0.000000 0.000000 0.005774 0.000000 0.025189
#
#
# Mechanical properties :
#
#
# Convention : Reuss Voigt Hill
#
# Bulk Modulus (GPa) = 40.48899 66.27732 53.38316
# Shear Modulus (GPa) = 36.52081 48.61536 42.56808
#
# Velocity S-wave (km/s) = 3.68209 4.24825 3.97526
# Velocity P-wave (km/s) = 5.75395 6.97624 6.39437
#
# Compressibility (1/GPa) = 0.02469807
#
# Stress axis : x y z
#
# Youngs Moduli (GPa) = 65.60374 283.87877 85.92859
#
# Poissons Ratio (x) = 0.04715 0.12219
# Poissons Ratio (y) = 0.01090 0.10865
# Poissons Ratio (z) = 0.09329 0.35895
#
# Static dielectric constant tensor:
#      x y z
#    x 2.084280 0.000000 -0.062120 
#    y 0.000000 2.264320 0.000000 
#    z -0.062120 0.000000 2.104610 
# 
# From -- ./inp_files/20004.got.cif
#   From: 2010.05.17/outbox.cif.g08.bks.cpg/sg11_11_cif.got.tgz:20004.got - 2010.06.03 12:22:45.
