data_PCOD9160511
_publ_section_title
;
Structure prediction by ZEFSAII (Michael W. Deem and Ramdas Pophale) SiO2 
 PCOD9160511
Probable space group: P 21/M
;
_chemical_formula_sum "Si O2"
_cell_formula_units_Z 32
_cell_length_a 15.690331
_cell_length_b 13.304470
_cell_length_c 12.841607
_cell_angle_alpha 90.000000
_cell_angle_beta 42.249944
_cell_angle_gamma 90.000000
_cell_volume 1802.415266
_symmetry_space_group_name_H-M "P 21/M"
_symmetry_group_IT_number 11
_symmetry_cell_setting 'monoclinic'
loop_
_space_group_symop_operation_xyz
x,y,z
-x,1/2+y,-z
-x,-y,-z
x,1/2-y,z
loop_
_atom_site_type_symbol
_atom_site_label
_atom_site_fract_x
_atom_site_fract_y
_atom_site_fract_z
Si Si1 0.108752 0.365478 0.195187
Si Si2 0.770500 0.485221 0.386993
Si Si3 0.515383 0.634329 0.884074
Si Si4 0.825740 0.366910 0.541071
Si Si5 0.738727 0.130316 0.202200
Si Si6 0.713441 0.495892 0.826349
Si Si7 0.542703 0.634340 0.611026
Si Si8 0.960727 0.488835 0.915410
O O1 0.153012 0.250000 0.152195
O O2 0.202831 0.440321 0.169340
O O3 0.082667 0.409658 0.103601
O O4 0.974453 0.367674 0.377271
O O5 0.758548 0.422388 0.504296
O O6 0.769515 0.409898 0.289818
O O7 0.657205 0.563120 0.474803
O O8 0.908382 0.539825 0.261226
O O9 0.511309 0.750000 0.923089
O O10 0.627633 0.574097 0.838770
O O11 0.537434 0.633130 0.740855
O O12 0.384596 0.578310 0.028164
O O13 0.786299 0.250000 0.586039
O O14 0.795614 0.429754 0.671664
O O15 0.746122 0.250000 0.192575
O O16 0.594941 0.100234 0.304733
O O17 0.841105 0.085205 0.028945
O O18 0.562551 0.750000 0.558947
O O19 0.000000 0.500000 0.000000
#
# Coordination Sequence:
#
# PCOD9160511 Si02
#       8
#     4   4   4   4   4   4   4   4
#     4  10  21  37  58  83 113 147 186 231 283 335
#     4  10  19  36  56  82 110 147 187 234 279 341
#     4  10  21  35  54  78 109 150 189 232 285 336
#     4  10  20  35  56  82 112 146 186 235 283 335
#     4  10  20  35  57  81 110 147 185 229 285 342
#     4  11  20  35  57  80 112 148 190 235 277 334
#     4  10  20  35  54  78 110 146 185 233 285 335
#     4   9  20  36  58  83 111 144 181 227 280 335
#
# _framework density 17.753955000000001
#
# number of rings (size 3 to 8) (size 9 to 14) (size 15 to 20)
#    0.000    2.000    1.250    2.625    0.000    3.500 
#    0.000    2.500    0.000    4.500    0.000    0.000 
#    0.000    0.000    0.000    0.000    0.000    0.000 
#
# Total GULP energy -178444.095211 kJ/mol
# GULP energy per Si atom -5576.377975 kJ/mol
# Density = 1.771355 g / cm^3
# Si number density = 17.753955 Si / 1000 Ang^3
#
#
#
# Elastic Constant Matrix: (Units=GPa)
#
#
# Indices 1 2 3 4 5 6 
#
# 1 66.1727 37.4570 23.8975 0.0000 -4.7197 0.0000
# 2 37.4570 107.7396 51.0721 0.0000 -5.2859 0.0000
# 3 23.8975 51.0721 60.6418 0.0000 -1.4096 0.0000
# 4 0.0000 0.0000 0.0000 30.2029 0.0000 1.5179
# 5 -4.7197 -5.2859 -1.4096 0.0000 25.9313 0.0000
# 6 0.0000 0.0000 0.0000 1.5179 0.0000 24.4180
#
#
#
# Elastic Compliance Matrix: (Units=1/GPa)
#
#
# Indices 1 2 3 4 5 6 
#
# 1 0.019324 -0.005028 -0.003327 0.000000 0.002311 0.000000
# 2 -0.005028 0.016914 -0.012220 0.000000 0.001868 0.000000
# 3 -0.003327 -0.012220 0.028057 0.000000 -0.001571 0.000000
# 4 0.000000 0.000000 0.000000 0.033213 0.000000 -0.002065
# 5 0.002311 0.001868 -0.001571 0.000000 0.039280 0.000000
# 6 0.000000 0.000000 0.000000 -0.002065 0.000000 0.041082
#
#
# Mechanical properties :
#
#
# Convention : Reuss Voigt Hill
#
# Bulk Modulus (GPa) = 43.20617 51.04526 47.12571
# Shear Modulus (GPa) = 22.05221 24.25226 23.15224
#
# Velocity S-wave (km/s) = 3.52817 3.69998 3.61510
# Velocity P-wave (km/s) = 6.40205 6.86054 6.63526
#
# Compressibility (1/GPa) = 0.02314484
#
# Stress axis : x y z
#
# Youngs Moduli (GPa) = 51.74812 59.12263 35.64216
#
# Poissons Ratio (x) = 0.29725 0.11859
# Poissons Ratio (y) = 0.26018 0.43555
# Poissons Ratio (z) = 0.17218 0.72249
#
# Static dielectric constant tensor:
#      x y z
#    x 1.608130 0.000000 -0.011760 
#    y 0.000000 1.587180 0.000000 
#    z -0.011760 0.000000 1.603110 
# 
# From -- ./inp_files/39634.got.cif
#   From: 2010.05.17/outbox.cif.g08.bks.cpg/sg11_20_cif.got.tgz:39634.got - 2010.06.03 12:22:45.
