data_PCOD9160529
_publ_section_title
;
Structure prediction by ZEFSAII (Michael W. Deem and Ramdas Pophale) SiO2 
 PCOD9160529
Probable space group: P 21/M
;
_chemical_formula_sum "Si O2"
_cell_formula_units_Z 24
_cell_length_a 14.746963
_cell_length_b 7.807985
_cell_length_c 15.600156
_cell_angle_alpha 90.000000
_cell_angle_beta 38.268748
_cell_angle_gamma 90.000000
_cell_volume 1112.518556
_symmetry_space_group_name_H-M "P 21/M"
_symmetry_group_IT_number 11
_symmetry_cell_setting 'monoclinic'
loop_
_space_group_symop_operation_xyz
x,y,z
-x,1/2+y,-z
-x,-y,-z
x,1/2-y,z
loop_
_atom_site_type_symbol
_atom_site_label
_atom_site_fract_x
_atom_site_fract_y
_atom_site_fract_z
Si Si1 0.668245 0.548129 0.079335
Si Si2 0.692655 0.046349 0.434966
Si Si3 0.635295 0.040236 0.776077
Si Si4 0.200631 0.550151 0.184966
Si Si5 0.641360 0.957055 0.287743
Si Si6 0.121418 0.542732 0.543633
O O1 0.642503 0.750000 0.109951
O O2 0.517911 0.478365 0.149165
O O3 0.697054 0.481804 0.153683
O O4 0.790166 0.527272 0.916435
O O5 0.685805 0.250000 0.452911
O O6 0.527852 0.981926 0.577121
O O7 0.808125 0.981892 0.418676
O O8 0.724210 0.013276 0.312013
O O9 0.631208 0.250000 0.781936
O O10 0.678892 0.977823 0.838337
O O11 0.766152 0.993265 0.614384
O O12 0.229182 0.750000 0.153399
O O13 0.041680 0.525748 0.343991
O O14 0.641588 0.750000 0.289958
O O15 0.112350 0.750000 0.550533
#
# Coordination Sequence:
#
# PCOD9160529 Si02
#       6
#     4   4   4   4   4   4
#     4  10  19  36  58  78 104 143 181 212 258 321
#     4   9  17  31  54  81 105 132 170 216 263 311
#     4   9  18  35  58  79 103 138 182 223 258 307
#     4  11  23  35  50  79 114 142 173 221 268 303
#     4   9  17  31  54  81 105 132 170 216 263 311
#     4  10  19  36  58  78 104 143 181 212 258 321
#
# _framework density 21.572673000000002
#
# number of rings (size 3 to 8) (size 9 to 14) (size 15 to 20)
#    0.000    2.333    1.667    1.500    0.000    1.333 
#    0.000    3.333    0.000    0.000    0.000    0.000 
#    0.000    0.000    0.000    0.000    0.000    0.000 
#
# Total GULP energy -133968.848077 kJ/mol
# GULP energy per Si atom -5582.035337 kJ/mol
# Density = 2.152357 g / cm^3
# Si number density = 21.572673 Si / 1000 Ang^3
#
#
#
# Elastic Constant Matrix: (Units=GPa)
#
#
# Indices 1 2 3 4 5 6 
#
# 1 67.2805 5.6211 -3.7574 0.0000 25.5476 0.0000
# 2 5.6211 19.8864 -4.8878 0.0000 4.9878 0.0000
# 3 -3.7574 -4.8878 58.9044 0.0000 16.8400 0.0000
# 4 0.0000 0.0000 0.0000 17.0451 0.0000 -2.1614
# 5 25.5476 4.9878 16.8400 0.0000 37.1248 0.0000
# 6 0.0000 0.0000 0.0000 -2.1614 0.0000 15.7463
#
#
#
# Elastic Compliance Matrix: (Units=1/GPa)
#
#
# Indices 1 2 3 4 5 6 
#
# 1 0.022170 -0.000059 0.006628 0.000000 -0.018255 0.000000
# 2 -0.000059 0.054888 0.007638 0.000000 -0.010799 0.000000
# 3 0.006628 0.007638 0.022556 0.000000 -0.015819 0.000000
# 4 0.000000 0.000000 0.000000 0.059707 0.000000 0.008196
# 5 -0.018255 -0.010799 -0.015819 0.000000 0.048125 0.000000
# 6 0.000000 0.000000 0.000000 0.008196 0.000000 0.064632
#
#
# Mechanical properties :
#
#
# Convention : Reuss Voigt Hill
#
# Bulk Modulus (GPa) = 7.81077 15.55811 11.68444
# Shear Modulus (GPa) = 17.46182 23.92293 20.69237
#
# Velocity S-wave (km/s) = 2.84816 3.33370 3.10045
# Velocity P-wave (km/s) = 3.80059 4.69528 4.27143
#
# Compressibility (1/GPa) = 0.12802842
#
# Stress axis : x y z
#
# Youngs Moduli (GPa) = 45.10596 18.21891 44.33489
#
# Poissons Ratio (x) = 0.00107 -0.29386
# Poissons Ratio (y) = 0.00265 -0.33863
# Poissons Ratio (z) = -0.29897 -0.13916
#
# Static dielectric constant tensor:
#      x y z
#    x 1.796460 0.000000 0.027670 
#    y 0.000000 1.793060 0.000000 
#    z 0.027670 0.000000 1.766780 
# 
# From -- ./inp_files/25747.got.cif
#   From: 2010.05.17/outbox.cif.g08.bks.cpg/sg11_13_cif.got.tgz:25747.got - 2010.06.03 12:22:45.
