data_PCOD9160282
_publ_section_title
;
Structure prediction by ZEFSAII (Michael W. Deem and Ramdas Pophale) SiO2 
 PCOD9160282
Probable space group: P 21/M
;
_chemical_formula_sum "Si O2"
_cell_formula_units_Z 32
_cell_length_a 29.526551
_cell_length_b 8.522390
_cell_length_c 12.828927
_cell_angle_alpha 90.000000
_cell_angle_beta 29.898586
_cell_angle_gamma 90.000000
_cell_volume 1609.163970
_symmetry_space_group_name_H-M "P 21/M"
_symmetry_group_IT_number 11
_symmetry_cell_setting 'monoclinic'
loop_
_space_group_symop_operation_xyz
x,y,z
-x,1/2+y,-z
-x,-y,-z
x,1/2-y,z
loop_
_atom_site_type_symbol
_atom_site_label
_atom_site_fract_x
_atom_site_fract_y
_atom_site_fract_z
Si Si1 0.706880 0.434153 0.633338
Si Si2 0.316006 0.940280 0.765579
Si Si3 0.971000 0.436348 0.944420
Si Si4 0.142602 0.567096 0.500054
Si Si5 0.769710 0.058990 0.284194
Si Si6 0.489418 0.441903 0.686184
Si Si7 0.470571 0.431082 0.949628
Si Si8 0.283333 0.062307 0.049092
O O1 0.679161 0.250000 0.694420
O O2 0.802894 0.445899 0.499171
O O3 0.712760 0.483666 0.501280
O O4 0.637087 0.539854 0.836183
O O5 0.313462 0.750000 0.775445
O O6 0.271984 0.989695 0.743079
O O7 0.422620 0.990521 0.554951
O O8 0.265717 0.009997 0.965694
O O9 0.964040 0.250000 0.968808
O O10 0.048636 0.478569 0.706050
O O11 0.000000 0.500000 0.000000
O O12 0.872648 0.494847 0.101312
O O13 0.124659 0.750000 0.517189
O O14 0.209959 0.505482 0.276060
O O15 0.769695 0.250000 0.283351
O O16 0.487693 0.250000 0.688254
O O17 0.387319 0.494369 0.863705
O O18 0.508941 0.496418 0.765692
O O19 0.494070 0.250000 0.903826
O O20 0.500000 0.500000 0.000000
O O21 0.282591 0.250000 0.059381
#
# Coordination Sequence:
#
# PCOD9160282 Si02
#       8
#     4   4   4   4   4   4   4   4
#     4  10  19  35  57  82 114 151 189 234 288 348
#     4  10  20  38  61  83 111 154 199 240 287 345
#     4  11  21  37  61  91 122 156 192 238 295 353
#     4  11  22  38  61  89 116 150 196 241 289 349
#     4   9  19  37  60  85 118 154 192 236 292 351
#     4   9  19  35  57  81 112 152 195 237 286 342
#     4  11  21  34  51  79 116 156 194 233 288 347
#     4  11  22  39  59  85 119 153 194 245 292 341
#
# _framework density 19.886102000000001
#
# number of rings (size 3 to 8) (size 9 to 14) (size 15 to 20)
#    0.000    1.750    2.500    2.625    0.000    2.500 
#    0.000    5.625    0.000    0.000    0.000    0.000 
#    0.000    0.000    0.000    0.000    0.000    0.000 
#
# Total GULP energy -178618.893492 kJ/mol
# GULP energy per Si atom -5581.840422 kJ/mol
# Density = 1.984084 g / cm^3
# Si number density = 19.886102 Si / 1000 Ang^3
#
#
#
# Elastic Constant Matrix: (Units=GPa)
#
#
# Indices 1 2 3 4 5 6 
#
# 1 73.9761 7.5643 38.5463 0.0000 17.4298 0.0000
# 2 7.5643 16.5416 3.4238 0.0000 4.5185 0.0000
# 3 38.5463 3.4238 108.3807 0.0000 14.4300 0.0000
# 4 0.0000 0.0000 0.0000 27.6535 0.0000 2.7784
# 5 17.4298 4.5185 14.4300 0.0000 36.8666 0.0000
# 6 0.0000 0.0000 0.0000 2.7784 0.0000 21.0968
#
#
#
# Elastic Compliance Matrix: (Units=1/GPa)
#
#
# Indices 1 2 3 4 5 6 
#
# 1 0.018374 -0.005660 -0.005583 0.000000 -0.005808 0.000000
# 2 -0.005660 0.064396 0.000710 0.000000 -0.005494 0.000000
# 3 -0.005583 0.000710 0.011447 0.000000 -0.001928 0.000000
# 4 0.000000 0.000000 0.000000 0.036647 0.000000 -0.004826
# 5 -0.005808 -0.005494 -0.001928 0.000000 0.031299 0.000000
# 6 0.000000 0.000000 0.000000 -0.004826 0.000000 0.048036
#
#
# Mechanical properties :
#
#
# Convention : Reuss Voigt Hill
#
# Bulk Modulus (GPa) = 13.67035 33.10748 23.38891
# Shear Modulus (GPa) = 19.55822 27.08098 23.31960
#
# Velocity S-wave (km/s) = 3.13950 3.69427 3.42812
# Velocity P-wave (km/s) = 4.47562 5.90606 5.23988
#
# Compressibility (1/GPa) = 0.07315104
#
# Stress axis : x y z
#
# Youngs Moduli (GPa) = 54.42443 15.52898 87.36266
#
# Poissons Ratio (x) = 0.08790 0.48773
# Poissons Ratio (y) = 0.30806 -0.06206
# Poissons Ratio (z) = 0.30384 -0.01103
#
# Static dielectric constant tensor:
#      x y z
#    x 1.738410 0.000000 -0.024080 
#    y 0.000000 1.717640 0.000000 
#    z -0.024080 0.000000 1.712580 
# 
# From -- ./inp_files/45144.got.cif
#   From: 2010.05.17/outbox.cif.g08.bks.cpg/sg11_23_cif.got.tgz:45144.got - 2010.06.03 12:22:45.
