data_PCOD9160084
_publ_section_title
;
Structure prediction by ZEFSAII (Michael W. Deem and Ramdas Pophale) SiO2 
 PCOD9160084
Probable space group: P 21/M
;
_chemical_formula_sum "Si O2"
_cell_formula_units_Z 32
_cell_length_a 8.790510
_cell_length_b 14.808427
_cell_length_c 11.008204
_cell_angle_alpha 90.000000
_cell_angle_beta 93.694411
_cell_angle_gamma 90.000000
_cell_volume 1429.999967
_symmetry_space_group_name_H-M "P 21/M"
_symmetry_group_IT_number 11
_symmetry_cell_setting 'monoclinic'
loop_
_space_group_symop_operation_xyz
x,y,z
-x,1/2+y,-z
-x,-y,-z
x,1/2-y,z
loop_
_atom_site_type_symbol
_atom_site_label
_atom_site_fract_x
_atom_site_fract_y
_atom_site_fract_z
Si Si1 0.897609 0.090516 0.498063
Si Si2 0.638780 0.014115 0.351171
Si Si3 0.442218 0.144147 0.018143
Si Si4 0.102785 0.853001 0.227181
Si Si5 0.948984 0.850452 0.737078
Si Si6 0.763050 0.643985 0.223031
Si Si7 0.249956 0.644659 0.857431
Si Si8 0.316850 0.482735 0.225768
O O1 0.721906 0.062507 0.466589
O O2 0.909808 0.140090 0.626515
O O3 0.957085 0.144963 0.383956
O O4 0.000000 0.000000 0.500000
O O5 0.691475 0.075659 0.240299
O O6 0.459017 0.007644 0.324538
O O7 0.718107 0.917555 0.334010
O O8 0.408194 0.250000 0.048150
O O9 0.365194 0.127014 0.885071
O O10 0.625425 0.135209 0.030780
O O11 0.374078 0.073468 0.111210
O O12 0.133933 0.750000 0.190920
O O13 0.930488 0.879338 0.179416
O O14 0.232155 0.923118 0.196237
O O15 0.888775 0.750000 0.752683
O O16 0.815226 0.921396 0.723905
O O17 0.068883 0.871735 0.852513
O O18 0.766176 0.750000 0.252673
O O19 0.261367 0.750000 0.818849
#
# Coordination Sequence:
#
# PCOD9160084 Si02
#       8
#     4   4   4   4   4   4   4   4
#     4  11  19  39  63  80 107 148 197 235 275 341
#     4  10  21  36  61  85 113 146 191 238 291 332
#     4   9  19  37  60  86 115 150 192 239 287 331
#     4  11  23  40  59  83 117 156 192 235 286 340
#     4  10  19  34  58  87 114 147 191 239 288 339
#     4  10  21  39  61  83 111 153 200 237 276 339
#     4   8  16  32  55  80 108 144 189 233 273 327
#     4  11  22  36  57  87 124 148 183 238 290 347
#
# _framework density 22.377621000000001
#
# number of rings (size 3 to 8) (size 9 to 14) (size 15 to 20)
#    0.000    2.000    2.500    1.500    0.000    4.500 
#    0.000    1.250    0.000    5.250    0.000    0.000 
#    0.000    0.000    0.000    0.000    0.000    0.000 
#
# Total GULP energy -178708.624000 kJ/mol
# GULP energy per Si atom -5584.644500 kJ/mol
# Density = 2.232669 g / cm^3
# Si number density = 22.377621 Si / 1000 Ang^3
#
#
#
# Elastic Constant Matrix: (Units=GPa)
#
#
# Indices 1 2 3 4 5 6 
#
# 1 106.6551 56.3120 13.9514 0.0000 17.2076 0.0000
# 2 56.3120 88.6824 7.3390 0.0000 -0.9964 0.0000
# 3 13.9514 7.3390 35.4050 0.0000 3.2212 0.0000
# 4 0.0000 0.0000 0.0000 14.8472 0.0000 6.5653
# 5 17.2076 -0.9964 3.2212 0.0000 37.1284 0.0000
# 6 0.0000 0.0000 0.0000 6.5653 0.0000 31.7984
#
#
#
# Elastic Compliance Matrix: (Units=1/GPa)
#
#
# Indices 1 2 3 4 5 6 
#
# 1 0.016501 -0.010258 -0.003684 0.000000 -0.007603 0.000000
# 2 -0.010258 0.017860 -0.000137 0.000000 0.005246 0.000000
# 3 -0.003684 -0.000137 0.029805 0.000000 -0.000882 0.000000
# 4 0.000000 0.000000 0.000000 0.074120 0.000000 -0.015303
# 5 -0.007603 0.005246 -0.000882 0.000000 0.030675 0.000000
# 6 0.000000 0.000000 0.000000 -0.015303 0.000000 0.034608
#
#
# Mechanical properties :
#
#
# Convention : Reuss Voigt Hill
#
# Bulk Modulus (GPa) = 27.77224 42.88304 35.32764
# Shear Modulus (GPa) = 20.51454 26.96415 23.73935
#
# Velocity S-wave (km/s) = 3.03106 3.47502 3.26061
# Velocity P-wave (km/s) = 4.96865 5.94188 5.47693
#
# Compressibility (1/GPa) = 0.03600717
#
# Stress axis : x y z
#
# Youngs Moduli (GPa) = 60.60306 55.98993 33.55143
#
# Poissons Ratio (x) = 0.57436 0.12360
# Poissons Ratio (y) = 0.62169 0.00460
# Poissons Ratio (z) = 0.22326 0.00768
#
# Static dielectric constant tensor:
#      x y z
#    x 1.840650 0.000000 0.009670 
#    y 0.000000 1.812180 0.000000 
#    z 0.009670 0.000000 1.851610 
# 
# From -- ./inp_files/31903.got.cif
#   From: 2010.05.17/outbox.cif.g08.bks.cpg/sg11_16_cif.got.tgz:31903.got - 2010.06.03 12:22:45.
