data_PCOD9160729
_publ_section_title
;
Structure prediction by ZEFSAII (Michael W. Deem and Ramdas Pophale) SiO2 
 PCOD9160729
Probable space group: P 21/M
;
_chemical_formula_sum "Si O2"
_cell_formula_units_Z 32
_cell_length_a 11.687032
_cell_length_b 31.384755
_cell_length_c 9.177901
_cell_angle_alpha 90.000000
_cell_angle_beta 153.622603
_cell_angle_gamma 90.000000
_cell_volume 1495.632373
_symmetry_space_group_name_H-M "P 21/M"
_symmetry_group_IT_number 11
_symmetry_cell_setting 'monoclinic'
loop_
_space_group_symop_operation_xyz
x,y,z
-x,1/2+y,-z
-x,-y,-z
x,1/2-y,z
loop_
_atom_site_type_symbol
_atom_site_label
_atom_site_fract_x
_atom_site_fract_y
_atom_site_fract_z
Si Si1 0.312066 0.081692 0.344233
Si Si2 0.136503 0.152445 0.365842
Si Si3 0.758039 0.499974 0.616672
Si Si4 0.509661 0.148851 0.363942
Si Si5 0.768521 0.975538 0.313737
Si Si6 0.156156 0.912202 0.396983
Si Si7 0.857699 0.884678 0.307010
Si Si8 0.410051 0.700141 0.287586
O O1 0.170235 0.108684 0.310074
O O2 0.504462 0.114623 0.490756
O O3 0.426992 0.036435 0.525790
O O4 0.113174 0.075099 0.984348
O O5 0.128592 0.141862 0.529111
O O6 0.382359 0.179878 0.588700
O O7 0.870241 0.177527 0.034476
O O8 0.847406 0.522777 0.571309
O O9 0.677397 0.452449 0.473941
O O10 0.000000 0.500000 0.000000
O O11 0.491241 0.191905 0.433250
O O12 0.766337 0.133871 0.576256
O O13 0.296351 0.140103 0.996203
O O14 0.724952 0.928569 0.203534
O O15 0.000000 0.000000 0.500000
O O16 0.500000 0.000000 0.000000
O O17 0.114776 0.903242 0.520615
O O18 0.383810 0.750000 0.228270
#
# Coordination Sequence:
#
# PCOD9160729 Si02
#       8
#     4   4   4   4   4   4   4   4
#     4   9  19  37  56  92 127 175 225 272 316 372
#     4  11  23  43  71 102 131 169 217 270 336 397
#     4  10  20  38  58  89 131 179 233 280 312 366
#     4  10  22  40  65  93 128 175 219 267 333 404
#     4  12  25  43  59  91 136 184 231 279 326 372
#     4  10  19  37  59  89 131 177 228 265 318 380
#     4  11  24  39  65  96 136 179 220 275 333 395
#     4  11  25  48  75  99 128 164 212 273 340 416
#
# _framework density 21.395631999999999
#
# number of rings (size 3 to 8) (size 9 to 14) (size 15 to 20)
#    0.000    1.500    3.750    1.125    1.750    0.500 
#    4.500    1.250    0.000    0.000    0.000    0.000 
#    0.000    0.000    0.000    0.000    0.000    0.000 
#
# Total GULP energy -178204.091596 kJ/mol
# GULP energy per Si atom -5568.877862 kJ/mol
# Density = 2.134693 g / cm^3
# Si number density = 21.395632 Si / 1000 Ang^3
#
#
#
# Elastic Constant Matrix: (Units=GPa)
#
#
# Indices 1 2 3 4 5 6 
#
# 1 110.8495 36.4934 46.4276 0.0000 -14.4922 0.0000
# 2 36.4934 106.0850 34.6539 0.0000 -1.7882 0.0000
# 3 46.4276 34.6539 77.5585 0.0000 -6.7000 0.0000
# 4 0.0000 0.0000 0.0000 16.5542 0.0000 -3.9818
# 5 -14.4922 -1.7882 -6.7000 0.0000 41.9148 0.0000
# 6 0.0000 0.0000 0.0000 -3.9818 0.0000 31.0336
#
#
#
# Elastic Compliance Matrix: (Units=1/GPa)
#
#
# Indices 1 2 3 4 5 6 
#
# 1 0.012894 -0.002286 -0.006409 0.000000 0.003336 0.000000
# 2 -0.002286 0.011447 -0.003825 0.000000 -0.000913 0.000000
# 3 -0.006409 -0.003825 0.018489 0.000000 0.000576 0.000000
# 4 0.000000 0.000000 0.000000 0.062331 0.000000 0.007997
# 5 0.003336 -0.000913 0.000576 0.000000 0.025065 0.000000
# 6 0.000000 0.000000 0.000000 0.007997 0.000000 0.033249
#
#
# Mechanical properties :
#
#
# Convention : Reuss Voigt Hill
#
# Bulk Modulus (GPa) = 56.21170 58.84920 57.53045
# Shear Modulus (GPa) = 25.71411 29.69506 27.70459
#
# Velocity S-wave (km/s) = 3.47052 3.72950 3.60234
# Velocity P-wave (km/s) = 6.51067 6.79047 6.65204
#
# Compressibility (1/GPa) = 0.01778989
#
# Stress axis : x y z
#
# Youngs Moduli (GPa) = 77.55346 87.36025 54.08611
#
# Poissons Ratio (x) = 0.19969 0.34665
# Poissons Ratio (y) = 0.17727 0.20689
# Poissons Ratio (z) = 0.49706 0.33417
#
# Static dielectric constant tensor:
#      x y z
#    x 1.855150 0.000000 -0.027320 
#    y 0.000000 1.665740 0.000000 
#    z -0.027320 0.000000 1.674650 
# 
# From -- ./inp_files/10855.got.cif
#   From: 2010.05.17/outbox.cif.g08.bks.cpg/sg11_6_cif.got.tgz:10855.got - 2010.06.03 12:22:45.
