data_PCOD9160080
_publ_section_title
;
Structure prediction by ZEFSAII (Michael W. Deem and Ramdas Pophale) SiO2 
 PCOD9160080
Probable space group: P 21/M
;
_chemical_formula_sum "Si O2"
_cell_formula_units_Z 28
_cell_length_a 14.973272
_cell_length_b 8.659561
_cell_length_c 22.163713
_cell_angle_alpha 90.000000
_cell_angle_beta 149.746651
_cell_angle_gamma 90.000000
_cell_volume 1447.885980
_symmetry_space_group_name_H-M "P 21/M"
_symmetry_group_IT_number 11
_symmetry_cell_setting 'monoclinic'
loop_
_space_group_symop_operation_xyz
x,y,z
-x,1/2+y,-z
-x,-y,-z
x,1/2-y,z
loop_
_atom_site_type_symbol
_atom_site_label
_atom_site_fract_x
_atom_site_fract_y
_atom_site_fract_z
Si Si1 0.472374 0.938312 0.674135
Si Si2 0.841652 0.564131 0.948355
Si Si3 0.598417 0.436015 0.146950
Si Si4 0.020517 0.565952 0.175086
Si Si5 0.236418 0.933664 0.883473
Si Si6 0.802180 0.436749 0.387660
Si Si7 0.410655 0.065132 0.388122
O O1 0.471726 0.750000 0.673957
O O2 0.651339 0.988366 0.813219
O O3 0.302605 0.988231 0.613428
O O4 0.491092 0.988114 0.615762
O O5 0.844052 0.750000 0.945521
O O6 0.000000 0.500000 0.000000
O O7 0.884048 0.522898 0.041982
O O8 0.572758 0.250000 0.133125
O O9 0.724710 0.473603 0.163637
O O10 0.687442 0.482698 0.261788
O O11 0.409778 0.511248 0.021624
O O12 0.042760 0.750000 0.188256
O O13 0.207408 0.489065 0.269001
O O14 0.935276 0.511594 0.187804
O O15 0.219791 0.750000 0.878374
O O16 0.808941 0.250000 0.391479
O O17 0.000000 0.500000 0.500000
O O18 0.416065 0.250000 0.392433
O O19 0.500000 0.000000 0.500000
#
# Coordination Sequence:
#
# PCOD9160080 Si02
#       7
#     4   4   4   4   4   4   4
#     4   9  19  37  60  83 112 149 184 231 291 342
#     4  10  19  34  58  86 114 145 185 232 286 341
#     4   9  19  37  58  82 115 150 187 236 292 343
#     4  11  22  36  57  86 118 153 189 230 285 344
#     4  10  20  34  57  87 117 150 187 232 285 341
#     4  10  21  39  60  82 111 148 192 237 285 339
#     4  11  23  40  59  80 112 151 194 237 282 342
#
# _framework density 19.338539999999998
#
# number of rings (size 3 to 8) (size 9 to 14) (size 15 to 20)
#    0.000    2.000    1.429    2.143    0.000    5.143 
#    0.000    5.000    0.000    0.000    0.000    0.000 
#    0.000    0.000    0.000    0.000    0.000    0.000 
#
# Total GULP energy -156375.290889 kJ/mol
# GULP energy per Si atom -5584.831817 kJ/mol
# Density = 1.929452 g / cm^3
# Si number density = 19.338540 Si / 1000 Ang^3
#
#
#
# Elastic Constant Matrix: (Units=GPa)
#
#
# Indices 1 2 3 4 5 6 
#
# 1 177.3962 36.5107 68.7310 0.0000 3.7534 0.0000
# 2 36.5107 21.0543 20.6676 0.0000 -5.5206 0.0000
# 3 68.7310 20.6676 87.4523 0.0000 -9.6030 0.0000
# 4 0.0000 0.0000 0.0000 31.3289 0.0000 6.0549
# 5 3.7534 -5.5206 -9.6030 0.0000 30.5871 0.0000
# 6 0.0000 0.0000 0.0000 6.0549 0.0000 26.5386
#
#
#
# Elastic Compliance Matrix: (Units=1/GPa)
#
#
# Indices 1 2 3 4 5 6 
#
# 1 0.011137 -0.015152 -0.005823 0.000000 -0.005930 0.000000
# 2 -0.015152 0.083856 -0.006259 0.000000 0.015029 0.000000
# 3 -0.005823 -0.006259 0.018068 0.000000 0.005257 0.000000
# 4 0.000000 0.000000 0.000000 0.033392 0.000000 -0.007619
# 5 -0.005930 0.015029 0.005257 0.000000 0.037784 0.000000
# 6 0.000000 0.000000 0.000000 -0.007619 0.000000 0.039419
#
#
# Mechanical properties :
#
#
# Convention : Reuss Voigt Hill
#
# Bulk Modulus (GPa) = 17.06696 59.74685 38.40691
# Shear Modulus (GPa) = 16.79788 28.35715 22.57752
#
# Velocity S-wave (km/s) = 2.95044 3.83345 3.42056
# Velocity P-wave (km/s) = 4.52231 7.11028 5.95850
#
# Compressibility (1/GPa) = 0.05859273
#
# Stress axis : x y z
#
# Youngs Moduli (GPa) = 89.78910 11.92518 55.34619
#
# Poissons Ratio (x) = 0.18069 0.32230
# Poissons Ratio (y) = 1.36046 0.34643
# Poissons Ratio (z) = 0.52287 0.07464
#
# Static dielectric constant tensor:
#      x y z
#    x 1.690720 0.000000 -0.009890 
#    y 0.000000 1.653120 0.000000 
#    z -0.009890 0.000000 1.660010 
# 
# From -- ./inp_files/38438.got.cif
#   From: 2010.05.17/outbox.cif.g08.bks.cpg/sg11_20_cif.got.tgz:38438.got - 2010.06.03 12:22:45.
