data_PCOD9160317
_publ_section_title
;
Structure prediction by ZEFSAII (Michael W. Deem and Ramdas Pophale) SiO2 
 PCOD9160317
Probable space group: P 21/M
;
_chemical_formula_sum "Si O2"
_cell_formula_units_Z 28
_cell_length_a 10.138935
_cell_length_b 14.535794
_cell_length_c 11.658053
_cell_angle_alpha 90.000000
_cell_angle_beta 52.864188
_cell_angle_gamma 90.000000
_cell_volume 1369.708304
_symmetry_space_group_name_H-M "P 21/M"
_symmetry_group_IT_number 11
_symmetry_cell_setting 'monoclinic'
loop_
_space_group_symop_operation_xyz
x,y,z
-x,1/2+y,-z
-x,-y,-z
x,1/2-y,z
loop_
_atom_site_type_symbol
_atom_site_label
_atom_site_fract_x
_atom_site_fract_y
_atom_site_fract_z
Si Si1 0.092276 0.524568 0.833230
Si Si2 0.532683 0.643774 0.171843
Si Si3 0.880110 0.857457 0.554012
Si Si4 0.400341 0.906092 0.574481
Si Si5 0.820522 0.855536 0.851005
Si Si6 0.721168 0.652200 0.317209
Si Si7 0.769318 0.057111 0.568645
O O1 0.266641 0.582310 0.745952
O O2 0.151911 0.430996 0.740790
O O3 0.963077 0.578965 0.823303
O O4 0.000000 0.500000 0.000000
O O5 0.474920 0.750000 0.192346
O O6 0.640674 0.639800 0.232367
O O7 0.381398 0.575302 0.266324
O O8 0.651083 0.621483 0.004298
O O9 0.867536 0.750000 0.519755
O O10 0.809327 0.859022 0.720597
O O11 0.070288 0.890352 0.468469
O O12 0.798196 0.947579 0.537665
O O13 0.562382 0.843514 0.485355
O O14 0.288441 0.894533 0.519503
O O15 0.500000 0.000000 0.500000
O O16 0.861691 0.750000 0.862472
O O17 0.808742 0.750000 0.274774
#
# Coordination Sequence:
#
# PCOD9160317 Si02
#       7
#     4   4   4   4   4   4   4
#     4  11  19  31  53  81 114 145 177 227 280 326
#     4   9  17  31  53  79 104 136 178 223 270 326
#     4  10  21  36  57  81 107 143 185 230 273 320
#     4   9  19  34  53  79 108 141 181 220 275 330
#     4  10  20  34  53  81 108 142 188 227 270 324
#     4   9  18  32  51  76 108 144 183 221 270 327
#     4  10  19  35  58  80 109 139 186 227 270 327
#
# _framework density 20.442309999999999
#
# number of rings (size 3 to 8) (size 9 to 14) (size 15 to 20)
#    0.000    2.286    2.857    0.429    0.000    1.714 
#    0.000    2.857    0.000    6.000    0.000    0.000 
#    0.000    0.000    0.000    0.000    0.000    0.000 
#
# Total GULP energy -155977.083506 kJ/mol
# GULP energy per Si atom -5570.610125 kJ/mol
# Density = 2.039578 g / cm^3
# Si number density = 20.442310 Si / 1000 Ang^3
#
#
#
# Elastic Constant Matrix: (Units=GPa)
#
#
# Indices 1 2 3 4 5 6 
#
# 1 40.9179 16.3418 30.8150 0.0000 -6.8730 0.0000
# 2 16.3418 119.3855 45.5121 0.0000 -20.4449 0.0000
# 3 30.8150 45.5121 152.5254 0.0000 -8.5810 0.0000
# 4 0.0000 0.0000 0.0000 26.8666 0.0000 -4.6802
# 5 -6.8730 -20.4449 -8.5810 0.0000 21.9913 0.0000
# 6 0.0000 0.0000 0.0000 -4.6802 0.0000 13.7510
#
#
#
# Elastic Compliance Matrix: (Units=1/GPa)
#
#
# Indices 1 2 3 4 5 6 
#
# 1 0.029964 -0.000947 -0.005413 0.000000 0.006372 0.000000
# 2 -0.000947 0.011027 -0.002596 0.000000 0.008943 0.000000
# 3 -0.005413 -0.002596 0.008377 0.000000 -0.000836 0.000000
# 4 0.000000 0.000000 0.000000 0.039567 0.000000 0.013467
# 5 0.006372 0.008943 -0.000836 0.000000 0.055452 0.000000
# 6 0.000000 0.000000 0.000000 0.013467 0.000000 0.077305
#
#
# Mechanical properties :
#
#
# Convention : Reuss Voigt Hill
#
# Bulk Modulus (GPa) = 31.78903 55.35186 43.57044
# Shear Modulus (GPa) = 19.99290 27.19909 23.59600
#
# Velocity S-wave (km/s) = 3.13072 3.65160 3.40114
# Velocity P-wave (km/s) = 5.35284 6.70185 6.06497
#
# Compressibility (1/GPa) = 0.03145739
#
# Stress axis : x y z
#
# Youngs Moduli (GPa) = 33.37342 90.68744 119.36921
#
# Poissons Ratio (x) = 0.08587 0.64610
# Poissons Ratio (y) = 0.03160 0.30987
# Poissons Ratio (z) = 0.18064 0.23542
#
# Static dielectric constant tensor:
#      x y z
#    x 1.758010 0.000000 0.024900 
#    y 0.000000 1.836660 0.000000 
#    z 0.024900 0.000000 1.759730 
# 
# From -- ./inp_files/39470.got.cif
#   From: 2010.05.17/outbox.cif.g08.bks.cpg/sg11_20_cif.got.tgz:39470.got - 2010.06.03 12:22:45.
