data_PCOD9160703
_publ_section_title
;
Structure prediction by ZEFSAII (Michael W. Deem and Ramdas Pophale) SiO2 
 PCOD9160703
Probable space group: P 21/M
;
_chemical_formula_sum "Si O2"
_cell_formula_units_Z 32
_cell_length_a 14.412379
_cell_length_b 20.744128
_cell_length_c 17.372151
_cell_angle_alpha 90.000000
_cell_angle_beta 158.880529
_cell_angle_gamma 90.000000
_cell_volume 1871.394688
_symmetry_space_group_name_H-M "P 21/M"
_symmetry_group_IT_number 11
_symmetry_cell_setting 'monoclinic'
loop_
_space_group_symop_operation_xyz
x,y,z
-x,1/2+y,-z
-x,-y,-z
x,1/2-y,z
loop_
_atom_site_type_symbol
_atom_site_label
_atom_site_fract_x
_atom_site_fract_y
_atom_site_fract_z
Si Si1 0.380418 0.400757 0.695269
Si Si2 0.750106 0.558570 0.636360
Si Si3 0.626391 0.587289 0.035445
Si Si4 0.903781 0.014716 0.340789
Si Si5 0.253398 0.024641 0.029545
Si Si6 0.475152 0.823633 0.043294
Si Si7 0.290100 0.026268 0.226829
Si Si8 0.125025 0.324376 0.375892
O O1 0.402351 0.370489 0.797281
O O2 0.351630 0.342980 0.612004
O O3 0.120205 0.439630 0.474425
O O4 0.594917 0.456205 0.857541
O O5 0.691101 0.568634 0.681368
O O6 0.493945 0.531422 0.397392
O O7 0.851689 0.622681 0.673644
O O8 0.959392 0.500285 0.794117
O O9 0.364504 0.551218 0.858125
O O10 0.857230 0.548870 0.255526
O O11 0.666295 0.572743 0.976552
O O12 0.582328 0.655441 0.042589
O O13 0.000000 0.000000 0.500000
O O14 0.322267 0.053941 0.166122
O O15 0.544237 0.750000 0.113457
O O16 0.163819 0.828784 0.810844
O O17 0.000000 0.000000 0.000000
O O18 0.154262 0.250000 0.373578
#
# Coordination Sequence:
#
# PCOD9160703 Si02
#       8
#     4   4   4   4   4   4   4   4
#     4  12  19  33  51  76 109 141 182 217 269 316
#     4  10  19  37  54  79 111 137 169 218 281 326
#     4  11  21  32  48  78 105 140 182 217 268 301
#     4  11  19  30  49  74 106 138 173 227 260 301
#     4  11  20  30  55  83 106 135 175 229 272 318
#     4  11  23  36  48  71 113 155 184 213 253 317
#     4   9  20  35  56  79 107 133 162 219 283 333
#     4  11  22  34  52  78 111 149 180 211 254 324
#
# _framework density 17.099546
#
# number of rings (size 3 to 8) (size 9 to 14) (size 15 to 20)
#    0.000    1.250    6.250    1.875    0.000    0.000 
#    0.000    0.000    0.000    0.750    0.000    7.000 
#    0.000    0.000    0.000    0.000    0.000    0.000 
#
# Total GULP energy -178220.027900 kJ/mol
# GULP energy per Si atom -5569.375872 kJ/mol
# Density = 1.706063 g / cm^3
# Si number density = 17.099546 Si / 1000 Ang^3
#
#
#
# Elastic Constant Matrix: (Units=GPa)
#
#
# Indices 1 2 3 4 5 6 
#
# 1 110.8580 32.5068 13.3601 0.0000 -16.3584 0.0000
# 2 32.5068 52.0433 15.3064 0.0000 2.0817 0.0000
# 3 13.3601 15.3064 72.5537 0.0000 -0.6969 0.0000
# 4 0.0000 0.0000 0.0000 19.6937 0.0000 -0.3927
# 5 -16.3584 2.0817 -0.6969 0.0000 26.9419 0.0000
# 6 0.0000 0.0000 0.0000 -0.3927 0.0000 19.9495
#
#
#
# Elastic Compliance Matrix: (Units=1/GPa)
#
#
# Indices 1 2 3 4 5 6 
#
# 1 0.012688 -0.008096 -0.000548 0.000000 0.008315 0.000000
# 2 -0.008096 0.025730 -0.004005 0.000000 -0.007007 0.000000
# 3 -0.000548 -0.004005 0.014732 0.000000 0.000358 0.000000
# 4 0.000000 0.000000 0.000000 0.050798 0.000000 0.001000
# 5 0.008315 -0.007007 0.000358 0.000000 0.042716 0.000000
# 6 0.000000 0.000000 0.000000 0.001000 0.000000 0.050146
#
#
# Mechanical properties :
#
#
# Convention : Reuss Voigt Hill
#
# Bulk Modulus (GPa) = 35.90502 39.75572 37.83037
# Shear Modulus (GPa) = 21.60836 24.93578 23.27207
#
# Velocity S-wave (km/s) = 3.55868 3.82287 3.69314
# Velocity P-wave (km/s) = 6.15864 6.54109 6.35275
#
# Compressibility (1/GPa) = 0.02785126
#
# Stress axis : x y z
#
# Youngs Moduli (GPa) = 78.81686 38.86548 67.87874
#
# Poissons Ratio (x) = 0.31466 0.03723
# Poissons Ratio (y) = 0.63811 0.27183
# Poissons Ratio (z) = 0.04323 0.15564
#
# Static dielectric constant tensor:
#      x y z
#    x 1.663850 0.000000 0.009060 
#    y 0.000000 1.611000 0.000000 
#    z 0.009060 0.000000 1.656810 
# 
# From -- ./inp_files/46223.got.cif
#   From: 2010.05.17/outbox.cif.g08.bks.cpg/sg11_24_cif.got.tgz:46223.got - 2010.06.03 12:22:45.
