data_PCOD9160726
_publ_section_title
;
Structure prediction by ZEFSAII (Michael W. Deem and Ramdas Pophale) SiO2 
 PCOD9160726
Probable space group: P 21/M
;
_chemical_formula_sum "Si O2"
_cell_formula_units_Z 28
_cell_length_a 8.078332
_cell_length_b 20.979927
_cell_length_c 13.508463
_cell_angle_alpha 90.000000
_cell_angle_beta 34.484190
_cell_angle_gamma 90.000000
_cell_volume 1296.239401
_symmetry_space_group_name_H-M "P 21/M"
_symmetry_group_IT_number 11
_symmetry_cell_setting 'monoclinic'
loop_
_space_group_symop_operation_xyz
x,y,z
-x,1/2+y,-z
-x,-y,-z
x,1/2-y,z
loop_
_atom_site_type_symbol
_atom_site_label
_atom_site_fract_x
_atom_site_fract_y
_atom_site_fract_z
Si Si1 0.306246 0.676265 0.198866
Si Si2 0.220156 0.823687 0.591657
Si Si3 0.196090 0.390207 0.673915
Si Si4 0.617984 0.531608 0.603865
Si Si5 0.303899 0.964117 0.958335
Si Si6 0.241355 0.408998 0.111419
Si Si7 0.851860 0.100323 0.544746
O O1 0.309754 0.750000 0.218921
O O2 0.345761 0.633849 0.276528
O O3 0.008371 0.654346 0.293719
O O4 0.560392 0.652980 0.002520
O O5 0.194090 0.750000 0.632383
O O6 0.554203 0.843910 0.407702
O O7 0.050967 0.842477 0.574430
O O8 0.077153 0.877174 0.732392
O O9 0.348449 0.440578 0.523161
O O10 0.973110 0.424891 0.860358
O O11 0.357401 0.540179 0.813652
O O12 0.687798 0.456340 0.568414
O O13 0.886239 0.566679 0.527059
O O14 0.605227 0.941545 0.867132
O O15 0.263303 0.036010 0.018389
#
# Coordination Sequence:
#
# PCOD9160726 Si02
#       7
#     4   4   4   4   4   4   4
#     4  10  19  37  59  84 116 159 204 241 290 365
#     4  12  24  41  58  86 129 162 195 245 295 357
#     4  10  24  38  61  87 120 166 199 240 307 356
#     4  10  19  39  64  91 121 148 201 259 298 355
#     4  10  19  39  64  91 121 148 201 259 298 355
#     4  10  20  35  62  92 114 153 201 249 306 347
#     4  10  20  35  62  92 114 153 201 249 306 347
#
# _framework density 21.600947999999999
#
# number of rings (size 3 to 8) (size 9 to 14) (size 15 to 20)
#    0.000    1.714    2.857    2.143    4.000    2.286 
#    2.571    1.429    0.000    0.000    0.000    0.000 
#    0.000    0.000    0.000    0.000    0.000    0.000 
#
# Total GULP energy -156052.156460 kJ/mol
# GULP energy per Si atom -5573.291302 kJ/mol
# Density = 2.155178 g / cm^3
# Si number density = 21.600948 Si / 1000 Ang^3
#
#
#
# Elastic Constant Matrix: (Units=GPa)
#
#
# Indices 1 2 3 4 5 6 
#
# 1 29.4972 11.7401 10.2137 0.0000 -5.2445 0.0000
# 2 11.7401 128.9295 49.9917 0.0000 -9.3363 0.0000
# 3 10.2137 49.9917 94.5138 0.0000 3.1071 0.0000
# 4 0.0000 0.0000 0.0000 23.9637 0.0000 -0.7334
# 5 -5.2445 -9.3363 3.1071 0.0000 33.2579 0.0000
# 6 0.0000 0.0000 0.0000 -0.7334 0.0000 20.8952
#
#
#
# Elastic Compliance Matrix: (Units=1/GPa)
#
#
# Indices 1 2 3 4 5 6 
#
# 1 0.036697 -0.001667 -0.003269 0.000000 0.005624 0.000000
# 2 -0.001667 0.010192 -0.005312 0.000000 0.003095 0.000000
# 3 -0.003269 -0.005312 0.013852 0.000000 -0.003301 0.000000
# 4 0.000000 0.000000 0.000000 0.041775 0.000000 0.001466
# 5 0.005624 0.003095 -0.003301 0.000000 0.032132 0.000000
# 6 0.000000 0.000000 0.000000 0.001466 0.000000 0.047909
#
#
# Mechanical properties :
#
#
# Convention : Reuss Voigt Hill
#
# Bulk Modulus (GPa) = 24.84810 44.09240 34.47025
# Shear Modulus (GPa) = 23.09809 27.68971 25.39390
#
# Velocity S-wave (km/s) = 3.27358 3.58421 3.43241
# Velocity P-wave (km/s) = 5.08101 6.13069 5.63036
#
# Compressibility (1/GPa) = 0.04024453
#
# Stress axis : x y z
#
# Youngs Moduli (GPa) = 27.25035 98.11685 72.19066
#
# Poissons Ratio (x) = 0.16354 0.23599
# Poissons Ratio (y) = 0.04542 0.38351
# Poissons Ratio (z) = 0.08908 0.52124
#
# Static dielectric constant tensor:
#      x y z
#    x 1.844610 0.000000 0.027150 
#    y 0.000000 1.730480 0.000000 
#    z 0.027150 0.000000 1.922160 
# 
# From -- ./inp_files/23227.got.cif
#   From: 2010.05.17/outbox.cif.g08.bks.cpg/sg11_12_cif.got.tgz:23227.got - 2010.06.03 12:22:45.
