data_PCOD9160691
_publ_section_title
;
Structure prediction by ZEFSAII (Michael W. Deem and Ramdas Pophale) SiO2 
 PCOD9160691
Probable space group: P 21/M
;
_chemical_formula_sum "Si O2"
_cell_formula_units_Z 18
_cell_length_a 14.351976
_cell_length_b 8.007166
_cell_length_c 9.749786
_cell_angle_alpha 90.000000
_cell_angle_beta 45.245683
_cell_angle_gamma 90.000000
_cell_volume 795.655189
_symmetry_space_group_name_H-M "P 21/M"
_symmetry_group_IT_number 11
_symmetry_cell_setting 'monoclinic'
loop_
_space_group_symop_operation_xyz
x,y,z
-x,1/2+y,-z
-x,-y,-z
x,1/2-y,z
loop_
_atom_site_type_symbol
_atom_site_label
_atom_site_fract_x
_atom_site_fract_y
_atom_site_fract_z
Si Si1 0.096075 0.250000 0.012909
Si Si2 0.026579 0.939511 0.246451
Si Si3 0.680374 0.750000 0.419608
Si Si4 0.393057 0.565741 0.322872
Si Si5 0.214651 0.053658 0.290486
Si Si6 0.619553 0.750000 0.180399
O O1 0.024420 0.419064 0.131775
O O2 0.170287 0.250000 0.790993
O O3 0.225926 0.250000 0.975409
O O4 0.041697 0.750000 0.181484
O O5 0.896438 0.957191 0.474263
O O6 0.145696 0.973994 0.230085
O O7 0.653178 0.586206 0.535992
O O8 0.591292 0.750000 0.374044
O O9 0.341648 0.750000 0.420470
O O10 0.341021 0.534259 0.224520
O O11 0.548697 0.593042 0.183313
O O12 0.242010 0.250000 0.244891
#
# Coordination Sequence:
#
# PCOD9160691 Si02
#       6
#     2   4   2   4   4   2
#     4  10  22  38  54  82 120 146 184 228 276 338
#     4  10  21  37  60  85 110 151 181 227 284 337
#     4  10  20  39  57  81 112 150 188 235 271 322
#     4  10  20  35  61  86 107 144 194 233 269 327
#     4  10  19  36  64  86 109 141 192 233 275 327
#     4   8  22  37  57  83 110 148 192 225 279 324
#
# _framework density 22.622864
#
# number of rings (size 3 to 8) (size 9 to 14) (size 15 to 20)
#    1.333    0.889    2.222    1.333    3.111    0.889 
#    2.000    2.222    0.000    0.000    0.000    0.000 
#    0.000    0.000    0.000    0.000    0.000    0.000 
#
# Total GULP energy -100419.842860 kJ/mol
# GULP energy per Si atom -5578.880159 kJ/mol
# Density = 2.257137 g / cm^3
# Si number density = 22.622864 Si / 1000 Ang^3
#
#
#
# Elastic Constant Matrix: (Units=GPa)
#
#
# Indices 1 2 3 4 5 6 
#
# 1 135.4604 15.0501 -9.6453 0.0000 -9.3805 0.0000
# 2 15.0501 175.0899 41.2450 0.0000 7.4729 0.0000
# 3 -9.6453 41.2450 45.7794 0.0000 11.7423 0.0000
# 4 0.0000 0.0000 0.0000 29.0819 0.0000 -2.0180
# 5 -9.3805 7.4729 11.7423 0.0000 18.9799 0.0000
# 6 0.0000 0.0000 0.0000 -2.0180 0.0000 30.7766
#
#
#
# Elastic Compliance Matrix: (Units=1/GPa)
#
#
# Indices 1 2 3 4 5 6 
#
# 1 0.007887 -0.001286 0.002010 0.000000 0.003161 0.000000
# 2 -0.001286 0.007492 -0.007252 0.000000 0.000901 0.000000
# 3 0.002010 -0.007252 0.033060 0.000000 -0.016605 0.000000
# 4 0.000000 0.000000 0.000000 0.034543 0.000000 0.002265
# 5 0.003161 0.000901 -0.016605 0.000000 0.064168 0.000000
# 6 0.000000 0.000000 0.000000 0.002265 0.000000 0.032641
#
#
# Mechanical properties :
#
#
# Convention : Reuss Voigt Hill
#
# Bulk Modulus (GPa) = 28.26280 49.95882 39.11081
# Shear Modulus (GPa) = 24.43305 36.41299 30.42302
#
# Velocity S-wave (km/s) = 3.28992 4.01629 3.67112
# Velocity P-wave (km/s) = 5.19149 6.60596 5.94097
#
# Compressibility (1/GPa) = 0.03538220
#
# Stress axis : x y z
#
# Youngs Moduli (GPa) = 126.78842 133.48060 30.24815
#
# Poissons Ratio (x) = 0.17170 -0.06079
# Poissons Ratio (y) = 0.16309 0.21935
# Poissons Ratio (z) = -0.25482 0.96797
#
# Static dielectric constant tensor:
#      x y z
#    x 1.874120 0.000000 -0.011480 
#    y 0.000000 1.804470 0.000000 
#    z -0.011480 0.000000 1.859570 
# 
# From -- ./inp_files/36801.got.cif
#   From: 2010.05.17/outbox.cif.g08.bks.cpg/sg11_19_cif.got.tgz:36801.got - 2010.06.03 12:22:45.
