data_PCOD9160166
_publ_section_title
;
Structure prediction by ZEFSAII (Michael W. Deem and Ramdas Pophale) SiO2 
 PCOD9160166
Probable space group: P 21/M
;
_chemical_formula_sum "Si O2"
_cell_formula_units_Z 32
_cell_length_a 9.661181
_cell_length_b 22.761269
_cell_length_c 16.284934
_cell_angle_alpha 90.000000
_cell_angle_beta 153.867504
_cell_angle_gamma 90.000000
_cell_volume 1577.276219
_symmetry_space_group_name_H-M "P 21/M"
_symmetry_group_IT_number 11
_symmetry_cell_setting 'monoclinic'
loop_
_space_group_symop_operation_xyz
x,y,z
-x,1/2+y,-z
-x,-y,-z
x,1/2-y,z
loop_
_atom_site_type_symbol
_atom_site_label
_atom_site_fract_x
_atom_site_fract_y
_atom_site_fract_z
Si Si1 0.073663 0.092951 0.495483
Si Si2 0.348215 0.574665 0.077355
Si Si3 0.736992 0.991294 0.525696
Si Si4 0.309354 0.117570 0.895951
Si Si5 0.929274 0.182667 0.280872
Si Si6 0.950428 0.025381 0.811119
Si Si7 0.257148 0.625744 0.518114
Si Si8 0.891769 0.817017 0.809416
O O1 0.385874 0.081442 0.713519
O O2 0.028668 0.033687 0.418159
O O3 0.086668 0.142463 0.433062
O O4 0.826493 0.114073 0.431715
O O5 0.517139 0.575371 0.077829
O O6 0.147421 0.515415 0.976693
O O7 0.130383 0.632443 0.965235
O O8 0.397642 0.960061 0.341870
O O9 0.675092 0.060279 0.480285
O O10 0.879874 0.985485 0.692307
O O11 0.144222 0.080382 0.879854
O O12 0.040342 0.146839 0.695216
O O13 0.576739 0.159533 0.074146
O O14 0.920229 0.250000 0.302128
O O15 0.109808 0.178395 0.290418
O O16 0.551518 0.667398 0.662981
O O17 0.986890 0.750000 0.880400
#
# Coordination Sequence:
#
# PCOD9160166 Si02
#       8
#     4   4   4   4   4   4   4   4
#     4  11  24  37  60  88 127 161 193 247 306 362
#     4  10  20  38  57  90 126 160 199 240 302 364
#     4  10  20  35  60  91 127 160 196 245 301 355
#     4   9  20  35  62  88 116 157 204 245 296 355
#     4  10  23  43  63  85 117 157 206 255 300 351
#     4  10  19  34  62  90 122 161 203 246 290 361
#     4  10  21  39  60  93 122 156 198 246 302 365
#     4  10  21  41  67  86 113 160 210 253 292 356
#
# _framework density 20.288138
#
# number of rings (size 3 to 8) (size 9 to 14) (size 15 to 20)
#    0.000    2.000    1.250    2.250    3.500    5.000 
#    2.250    2.500    0.000    0.000    0.000    0.000 
#    0.000    0.000    0.000    0.000    0.000    0.000 
#
# Total GULP energy -178697.676297 kJ/mol
# GULP energy per Si atom -5584.302384 kJ/mol
# Density = 2.024196 g / cm^3
# Si number density = 20.288138 Si / 1000 Ang^3
#
#
#
# Elastic Constant Matrix: (Units=GPa)
#
#
# Indices 1 2 3 4 5 6 
#
# 1 71.0112 14.9032 22.9702 0.0000 8.2430 0.0000
# 2 14.9032 44.0216 0.9969 0.0000 -7.6146 0.0000
# 3 22.9702 0.9969 33.9497 0.0000 5.6363 0.0000
# 4 0.0000 0.0000 0.0000 19.4219 0.0000 3.6554
# 5 8.2430 -7.6146 5.6363 0.0000 22.9624 0.0000
# 6 0.0000 0.0000 0.0000 3.6554 0.0000 24.5409
#
#
#
# Elastic Compliance Matrix: (Units=1/GPa)
#
#
# Indices 1 2 3 4 5 6 
#
# 1 0.020605 -0.007890 -0.012559 0.000000 -0.006931 0.000000
# 2 -0.007890 0.027267 0.002675 0.000000 0.011218 0.000000
# 3 -0.012559 0.002675 0.038549 0.000000 -0.004067 0.000000
# 4 0.000000 0.000000 0.000000 0.052973 0.000000 -0.007890
# 5 -0.006931 0.011218 -0.004067 0.000000 0.050756 0.000000
# 6 0.000000 0.000000 0.000000 -0.007890 0.000000 0.041924
#
#
# Mechanical properties :
#
#
# Convention : Reuss Voigt Hill
#
# Bulk Modulus (GPa) = 19.65641 25.19145 22.42393
# Shear Modulus (GPa) = 17.56974 20.72584 19.14779
#
# Velocity S-wave (km/s) = 2.94600 3.19967 3.07545
# Velocity P-wave (km/s) = 4.61319 5.10826 4.86703
#
# Compressibility (1/GPa) = 0.05087400
#
# Stress axis : x y z
#
# Youngs Moduli (GPa) = 48.53135 36.67425 25.94071
#
# Poissons Ratio (x) = 0.28937 0.32579
# Poissons Ratio (y) = 0.38292 -0.06940
# Poissons Ratio (z) = 0.60951 -0.09812
#
# Static dielectric constant tensor:
#      x y z
#    x 1.748790 0.000000 0.012250 
#    y 0.000000 1.722550 0.000000 
#    z 0.012250 0.000000 1.737090 
# 
# From -- ./inp_files/48488.got.cif
#   From: 2010.05.17/outbox.cif.g08.bks.cpg/sg11_25_cif.got.tgz:48488.got - 2010.06.03 12:22:45.
