data_PCOD9160581
_publ_section_title
;
Structure prediction by ZEFSAII (Michael W. Deem and Ramdas Pophale) SiO2 
 PCOD9160581
Probable space group: P 21/M
;
_chemical_formula_sum "Si O2"
_cell_formula_units_Z 32
_cell_length_a 16.797967
_cell_length_b 16.754083
_cell_length_c 11.349613
_cell_angle_alpha 90.000000
_cell_angle_beta 35.244429
_cell_angle_gamma 90.000000
_cell_volume 1843.247967
_symmetry_space_group_name_H-M "P 21/M"
_symmetry_group_IT_number 11
_symmetry_cell_setting 'monoclinic'
loop_
_space_group_symop_operation_xyz
x,y,z
-x,1/2+y,-z
-x,-y,-z
x,1/2-y,z
loop_
_atom_site_type_symbol
_atom_site_label
_atom_site_fract_x
_atom_site_fract_y
_atom_site_fract_z
Si Si1 0.327773 0.563361 0.896405
Si Si2 0.073683 0.661287 0.300397
Si Si3 0.388426 0.344191 0.448851
Si Si4 0.912386 0.447978 0.250597
Si Si5 0.222360 0.024782 0.798277
Si Si6 0.354304 0.514268 0.118482
Si Si7 0.194601 0.099422 0.478184
Si Si8 0.823174 0.156012 0.576532
O O1 0.452975 0.626547 0.739770
O O2 0.307013 0.513606 0.802932
O O3 0.181454 0.603416 0.106446
O O4 0.361433 0.509826 0.969766
O O5 0.131952 0.750000 0.219140
O O6 0.067869 0.644016 0.447740
O O7 0.924862 0.656763 0.421913
O O8 0.376989 0.250000 0.488793
O O9 0.305693 0.403012 0.637221
O O10 0.315320 0.361690 0.410535
O O11 0.816808 0.455849 0.250034
O O12 0.881340 0.532384 0.351123
O O13 0.871744 0.380668 0.394016
O O14 0.072539 0.443990 0.022263
O O15 0.253525 0.449032 0.296192
O O16 0.301785 0.601558 0.223899
O O17 0.500000 0.500000 0.000000
O O18 0.793164 0.250000 0.602670
#
# Coordination Sequence:
#
# PCOD9160581 Si02
#       8
#     4   4   4   4   4   4   4   4
#     4  11  21  37  61  82 112 150 187 230 277 329
#     4  10  20  34  56  88 116 141 182 231 283 337
#     4  11  23  38  56  81 116 152 185 231 281 324
#     4   9  19  36  58  82 109 140 192 235 273 324
#     4  10  21  37  59  83 106 149 198 231 267 326
#     4  10  20  36  59  86 110 143 186 225 277 346
#     4  10  19  36  59  85 109 143 185 230 275 338
#     4   9  20  35  56  83 115 146 178 229 290 336
#
# _framework density 17.360658999999998
#
# number of rings (size 3 to 8) (size 9 to 14) (size 15 to 20)
#    0.000    2.000    2.500    1.125    1.750    2.500 
#    0.000    1.250    0.000    0.000    0.000    0.000 
#    0.000    0.000    0.000    0.000    0.000    0.000 
#
# Total GULP energy -178340.536928 kJ/mol
# GULP energy per Si atom -5573.141779 kJ/mol
# Density = 1.732115 g / cm^3
# Si number density = 17.360659 Si / 1000 Ang^3
#
#
#
# Elastic Constant Matrix: (Units=GPa)
#
#
# Indices 1 2 3 4 5 6 
#
# 1 138.4327 58.3457 37.3164 0.0000 3.2918 0.0000
# 2 58.3457 89.8932 27.8610 0.0000 5.7653 0.0000
# 3 37.3164 27.8610 53.7103 0.0000 -1.4829 0.0000
# 4 0.0000 0.0000 0.0000 8.8920 0.0000 -1.4296
# 5 3.2918 5.7653 -1.4829 0.0000 27.7712 0.0000
# 6 0.0000 0.0000 0.0000 -1.4296 0.0000 23.0453
#
#
#
# Elastic Compliance Matrix: (Units=1/GPa)
#
#
# Indices 1 2 3 4 5 6 
#
# 1 0.010831 -0.005565 -0.004649 0.000000 -0.000377 0.000000
# 2 -0.005565 0.016391 -0.004719 0.000000 -0.002995 0.000000
# 3 -0.004649 -0.004719 0.024374 0.000000 0.002832 0.000000
# 4 0.000000 0.000000 0.000000 0.113594 0.000000 0.007047
# 5 -0.000377 -0.002995 0.002832 0.000000 0.036826 0.000000
# 6 0.000000 0.000000 0.000000 0.007047 0.000000 0.043830
#
#
# Mechanical properties :
#
#
# Convention : Reuss Voigt Hill
#
# Bulk Modulus (GPa) = 46.01691 58.78693 52.40192
# Shear Modulus (GPa) = 17.67061 22.50925 20.08993
#
# Velocity S-wave (km/s) = 3.19384 3.60469 3.40547
# Velocity P-wave (km/s) = 6.33757 7.15966 6.76112
#
# Compressibility (1/GPa) = 0.02173114
#
# Stress axis : x y z
#
# Youngs Moduli (GPa) = 92.32371 61.00922 41.02691
#
# Poissons Ratio (x) = 0.33953 0.19073
# Poissons Ratio (y) = 0.51380 0.19359
# Poissons Ratio (z) = 0.42921 0.28788
#
# Static dielectric constant tensor:
#      x y z
#    x 1.612910 0.000000 0.016540 
#    y 0.000000 1.575900 0.000000 
#    z 0.016540 0.000000 1.596060 
# 
# From -- ./inp_files/41826.got.cif
#   From: 2010.05.17/outbox.cif.g08.bks.cpg/sg11_21_cif.got.tgz:41826.got - 2010.06.03 12:22:45.
