data_PCOD9160816
_publ_section_title
;
Structure prediction by ZEFSAII (Michael W. Deem and Ramdas Pophale) SiO2 
 PCOD9160816
Probable space group: P 21/M
;
_chemical_formula_sum "Si O2"
_cell_formula_units_Z 28
_cell_length_a 8.725829
_cell_length_b 11.230308
_cell_length_c 15.388231
_cell_angle_alpha 90.000000
_cell_angle_beta 115.156568
_cell_angle_gamma 90.000000
_cell_volume 1364.920638
_symmetry_space_group_name_H-M "P 21/M"
_symmetry_group_IT_number 11
_symmetry_cell_setting 'monoclinic'
loop_
_space_group_symop_operation_xyz
x,y,z
-x,1/2+y,-z
-x,-y,-z
x,1/2-y,z
loop_
_atom_site_type_symbol
_atom_site_label
_atom_site_fract_x
_atom_site_fract_y
_atom_site_fract_z
Si Si1 0.937972 0.057884 0.574564
Si Si2 0.169921 0.385953 0.132387
Si Si3 0.372189 0.882750 0.606204
Si Si4 0.734716 0.544622 0.256520
Si Si5 0.728363 0.884402 0.641730
Si Si6 0.628385 0.115948 0.892003
Si Si7 0.801982 0.386221 0.104946
O O1 0.775474 0.127167 0.500273
O O2 0.859896 0.958372 0.618234
O O3 0.000000 0.000000 0.500000
O O4 0.099603 0.110364 0.664310
O O5 0.202499 0.250000 0.104930
O O6 0.213303 0.381210 0.244789
O O7 0.274599 0.497875 0.119997
O O8 0.968102 0.408766 0.085381
O O9 0.419558 0.750000 0.647579
O O10 0.317139 0.956210 0.677181
O O11 0.539024 0.936014 0.601635
O O12 0.563505 0.611795 0.188953
O O13 0.788058 0.472526 0.183088
O O14 0.720638 0.750000 0.604496
O O15 0.697953 0.250000 0.886616
O O16 0.645633 0.106577 0.000589
O O17 0.816719 0.250000 0.140589
#
# Coordination Sequence:
#
# PCOD9160816 Si02
#       7
#     4   4   4   4   4   4   4
#     4  10  22  36  58  86 120 151 195 249 310 365
#     4  10  20  39  68  95 119 161 219 264 306 370
#     4  10  21  37  61  88 116 154 207 258 305 365
#     4  11  21  38  60  87 124 166 208 253 304 375
#     4  10  19  37  64  90 116 152 204 263 308 362
#     4  11  24  41  60  92 134 170 206 258 321 373
#     4  10  21  38  65  95 125 164 213 265 314 366
#
# _framework density 20.514012000000001
#
# number of rings (size 3 to 8) (size 9 to 14) (size 15 to 20)
#    0.000    1.714    2.857    1.714    0.000    3.429 
#    0.000    4.286    0.000    0.000    0.000    0.000 
#    0.000    0.000    0.000    0.000    0.000    0.000 
#
# Total GULP energy -155986.236138 kJ/mol
# GULP energy per Si atom -5570.937005 kJ/mol
# Density = 2.046732 g / cm^3
# Si number density = 20.514012 Si / 1000 Ang^3
#
#
#
# Elastic Constant Matrix: (Units=GPa)
#
#
# Indices 1 2 3 4 5 6 
#
# 1 84.4983 45.2757 33.4377 0.0000 14.2234 0.0000
# 2 45.2757 104.6607 26.6271 0.0000 -11.8622 0.0000
# 3 33.4377 26.6271 124.1092 0.0000 24.4126 0.0000
# 4 0.0000 0.0000 0.0000 20.5942 0.0000 -39.0573
# 5 14.2234 -11.8622 24.4126 0.0000 38.9339 0.0000
# 6 0.0000 0.0000 0.0000 -39.0573 0.0000 544.9612
#
#
#
# Elastic Compliance Matrix: (Units=1/GPa)
#
#
# Indices 1 2 3 4 5 6 
#
# 1 0.018409 -0.008541 -0.001474 0.000000 -0.008403 0.000000
# 2 -0.008541 0.015027 -0.002780 0.000000 0.009442 0.000000
# 3 -0.001474 -0.002780 0.010394 0.000000 -0.006826 0.000000
# 4 0.000000 0.000000 0.000000 0.056196 0.000000 0.004028
# 5 -0.008403 0.009442 -0.006826 0.000000 0.035911 0.000000
# 6 0.000000 0.000000 0.000000 0.004028 0.000000 0.002124
#
#
# Mechanical properties :
#
#
# Convention : Reuss Voigt Hill
#
# Bulk Modulus (GPa) = 54.82867 58.21658 56.52262
# Shear Modulus (GPa) = 29.45865 134.75970 82.10918
#
# Velocity S-wave (km/s) = 3.79360 8.11382 6.33347
# Velocity P-wave (km/s) = 6.78041 10.78051 9.00537
#
# Compressibility (1/GPa) = 0.01823863
#
# Stress axis : x y z
#
# Youngs Moduli (GPa) = 54.32194 66.54780 96.21197
#
# Poissons Ratio (x) = 0.56837 0.14186
# Poissons Ratio (y) = 0.46395 0.26747
# Poissons Ratio (z) = 0.08010 0.18501
#
# Static dielectric constant tensor:
#      x y z
#    x 1.773910 0.000000 0.078360 
#    y 0.000000 2.622880 0.000000 
#    z 0.078360 0.000000 1.742730 
# 
# From -- ./inp_files/47283.got.cif
#   From: 2010.05.17/outbox.cif.g08.bks.cpg/sg11_24_cif.got.tgz:47283.got - 2010.06.03 12:22:45.
