data_PCOD9160307
_publ_section_title
;
Structure prediction by ZEFSAII (Michael W. Deem and Ramdas Pophale) SiO2 
 PCOD9160307
Probable space group: P 21/M
;
_chemical_formula_sum "Si O2"
_cell_formula_units_Z 28
_cell_length_a 18.207615
_cell_length_b 18.596913
_cell_length_c 12.744294
_cell_angle_alpha 90.000000
_cell_angle_beta 18.669590
_cell_angle_gamma 90.000000
_cell_volume 1381.367481
_symmetry_space_group_name_H-M "P 21/M"
_symmetry_group_IT_number 11
_symmetry_cell_setting 'monoclinic'
loop_
_space_group_symop_operation_xyz
x,y,z
-x,1/2+y,-z
-x,-y,-z
x,1/2-y,z
loop_
_atom_site_type_symbol
_atom_site_label
_atom_site_fract_x
_atom_site_fract_y
_atom_site_fract_z
Si Si1 0.674690 0.574276 0.703197
Si Si2 0.493746 0.167834 0.876672
Si Si3 0.851988 0.464495 0.608294
Si Si4 0.789044 0.836691 0.346378
Si Si5 0.423081 0.163180 0.571007
Si Si6 0.001750 0.830636 0.704247
Si Si7 0.698295 0.337302 0.389344
O O1 0.844410 0.510999 0.510459
O O2 0.766511 0.624343 0.487038
O O3 0.635639 0.619542 0.863469
O O4 0.424127 0.545984 0.003056
O O5 0.404877 0.250000 0.995151
O O6 0.755261 0.171532 0.565066
O O7 0.529735 0.137745 0.710361
O O8 0.963749 0.387505 0.433808
O O9 0.000000 0.500000 0.500000
O O10 0.774931 0.750000 0.379769
O O11 0.601599 0.861802 0.514640
O O12 0.034631 0.853144 0.961265
O O13 0.441202 0.250000 0.538857
O O14 0.623529 0.137246 0.375451
O O15 0.194904 0.149051 0.947649
O O16 0.949968 0.750000 0.736046
O O17 0.678991 0.250000 0.419211
#
# Coordination Sequence:
#
# PCOD9160307 Si02
#       7
#     4   4   4   4   4   4   4
#     4  10  22  38  58  81 115 159 190 227 295 348
#     4   9  16  31  56  87 114 147 197 243 276 330
#     4  10  23  41  58  80 118 155 189 236 292 342
#     4  10  19  35  57  87 123 153 188 240 288 335
#     4   9  17  30  53  83 113 146 187 239 288 330
#     4   9  17  34  60  86 107 141 195 243 283 332
#     4   9  17  29  52  84 117 148 189 240 286 326
#
# _framework density 20.269769
#
# number of rings (size 3 to 8) (size 9 to 14) (size 15 to 20)
#    0.000    2.571    1.429    0.429    2.000    1.714 
#    0.000    1.429    0.000    1.714    0.000    0.000 
#    0.000    0.000    0.000    0.000    0.000    0.000 
#
# Total GULP energy -156052.970256 kJ/mol
# GULP energy per Si atom -5573.320366 kJ/mol
# Density = 2.022363 g / cm^3
# Si number density = 20.269769 Si / 1000 Ang^3
#
#
#
# Elastic Constant Matrix: (Units=GPa)
#
#
# Indices 1 2 3 4 5 6 
#
# 1 116.8290 27.6633 31.0233 0.0000 8.0778 0.0000
# 2 27.6633 49.5678 18.7500 0.0000 8.9636 0.0000
# 3 31.0233 18.7500 30.1880 0.0000 8.5321 0.0000
# 4 0.0000 0.0000 0.0000 -15.0606 0.0000 -6.5227
# 5 8.0778 8.9636 8.5321 0.0000 28.9728 0.0000
# 6 0.0000 0.0000 0.0000 -6.5227 0.0000 19.1480
#
#
#
# Elastic Compliance Matrix: (Units=1/GPa)
#
#
# Indices 1 2 3 4 5 6 
#
# 1 0.012048 -0.002734 -0.010878 0.000000 0.000690 0.000000
# 2 -0.002734 0.027346 -0.013090 0.000000 -0.003844 0.000000
# 3 -0.010878 -0.013090 0.055012 0.000000 -0.009118 0.000000
# 4 0.000000 0.000000 0.000000 -0.057862 0.000000 -0.019711
# 5 0.000690 -0.003844 -0.009118 0.000000 0.038197 0.000000
# 6 0.000000 0.000000 0.000000 -0.019711 0.000000 0.045511
#
#
# Mechanical properties :
#
#
# Convention : Reuss Voigt Hill
#
# Bulk Modulus (GPa) = 24.38825 39.05088 31.71957
# Shear Modulus (GPa) = 26.69193 14.55525 20.62359
#
# Velocity S-wave (km/s) = 3.63276 2.68260 3.19322
# Velocity P-wave (km/s) = 5.44554 5.37611 5.41093
#
# Compressibility (1/GPa) = 0.04100334
#
# Stress axis : x y z
#
# Youngs Moduli (GPa) = 83.00297 36.56787 18.17780
#
# Poissons Ratio (x) = 0.09996 0.19774
# Poissons Ratio (y) = 0.22690 0.23794
# Poissons Ratio (z) = 0.90294 0.47866
#
# Static dielectric constant tensor:
#      x y z
#    x 1.758700 0.000000 -0.017390 
#    y 0.000000 1.762220 0.000000 
#    z -0.017390 0.000000 1.698580 
# 
# From -- ./inp_files/41985.got.cif
#   From: 2010.05.17/outbox.cif.g08.bks.cpg/sg11_21_cif.got.tgz:41985.got - 2010.06.03 12:22:45.
