data_PCOD9160070
_publ_section_title
;
Structure prediction by ZEFSAII (Michael W. Deem and Ramdas Pophale) SiO2 
 PCOD9160070
Probable space group: P 21/M
;
_chemical_formula_sum "Si O2"
_cell_formula_units_Z 32
_cell_length_a 16.380764
_cell_length_b 9.110644
_cell_length_c 11.215924
_cell_angle_alpha 90.000000
_cell_angle_beta 87.755839
_cell_angle_gamma 90.000000
_cell_volume 1672.572956
_symmetry_space_group_name_H-M "P 21/M"
_symmetry_group_IT_number 11
_symmetry_cell_setting 'monoclinic'
loop_
_space_group_symop_operation_xyz
x,y,z
-x,1/2+y,-z
-x,-y,-z
x,1/2-y,z
loop_
_atom_site_type_symbol
_atom_site_label
_atom_site_fract_x
_atom_site_fract_y
_atom_site_fract_z
Si Si1 0.471693 0.421186 0.688009
Si Si2 0.914717 0.921810 0.027099
Si Si3 0.239019 0.924462 0.077568
Si Si4 0.228609 0.575681 0.349807
Si Si5 0.911752 0.925587 0.513852
Si Si6 0.664835 0.425152 0.161805
Si Si7 0.379892 0.079200 0.439605
Si Si8 0.816711 0.921720 0.274000
O O1 0.488875 0.250000 0.710293
O O2 0.417131 0.494046 0.793115
O O3 0.554101 0.508380 0.653427
O O4 0.418166 0.430347 0.569372
O O5 0.922473 0.750000 0.001390
O O6 0.883004 0.938618 0.164664
O O7 0.843356 0.991642 0.951927
O O8 0.000000 0.000000 0.000000
O O9 0.224005 0.750000 0.066340
O O10 0.259096 0.953626 0.213529
O O11 0.306802 0.962290 0.974605
O O12 0.220170 0.750000 0.366547
O O13 0.142702 0.496882 0.379079
O O14 0.296288 0.509128 0.433374
O O15 0.919108 0.750000 0.527144
O O16 0.860602 0.955297 0.395563
O O17 0.000000 0.000000 0.500000
O O18 0.655894 0.250000 0.173436
O O19 0.739134 0.480999 0.241742
O O20 0.365709 0.250000 0.413427
O O21 0.790396 0.750000 0.277815
#
# Coordination Sequence:
#
# PCOD9160070 Si02
#       8
#     4   4   4   4   4   4   4   4
#     4  10  20  35  58  87 119 149 183 230 281 332
#     4  10  20  34  55  80 105 138 181 231 282 331
#     4   9  21  39  56  78 110 149 189 230 280 334
#     4  11  23  40  60  81 114 153 188 231 284 338
#     4  11  24  40  57  81 111 147 188 230 280 337
#     4  10  19  34  58  85 111 143 186 233 277 329
#     4  10  21  37  58  87 118 150 188 230 277 333
#     4   9  20  37  54  75 108 143 178 224 279 333
#
# _framework density 19.132200000000001
#
# number of rings (size 3 to 8) (size 9 to 14) (size 15 to 20)
#    0.000    2.000    0.000    3.000    1.750    7.500 
#    0.000    0.625    0.000    0.000    0.000    0.000 
#    0.000    0.000    0.000    0.000    0.000    0.000 
#
# Total GULP energy -178777.444010 kJ/mol
# GULP energy per Si atom -5586.795125 kJ/mol
# Density = 1.908865 g / cm^3
# Si number density = 19.132200 Si / 1000 Ang^3
#
#
#
# Elastic Constant Matrix: (Units=GPa)
#
#
# Indices 1 2 3 4 5 6 
#
# 1 75.4578 30.7934 13.4330 0.0000 -23.6007 0.0000
# 2 30.7934 63.5013 32.4451 0.0000 -9.1311 0.0000
# 3 13.4330 32.4451 47.7925 0.0000 -3.7357 0.0000
# 4 0.0000 0.0000 0.0000 26.6641 0.0000 -4.3118
# 5 -23.6007 -9.1311 -3.7357 0.0000 19.5001 0.0000
# 6 0.0000 0.0000 0.0000 -4.3118 0.0000 34.5135
#
#
#
# Elastic Compliance Matrix: (Units=1/GPa)
#
#
# Indices 1 2 3 4 5 6 
#
# 1 0.024840 -0.008826 0.001052 0.000000 0.026132 0.000000
# 2 -0.008826 0.028639 -0.017003 0.000000 -0.000528 0.000000
# 3 0.001052 -0.017003 0.032129 0.000000 -0.000533 0.000000
# 4 0.000000 0.000000 0.000000 0.038277 0.000000 0.004782
# 5 0.026132 -0.000528 -0.000533 0.000000 0.082560 0.000000
# 6 0.000000 0.000000 0.000000 0.004782 0.000000 0.029572
#
#
# Mechanical properties :
#
#
# Convention : Reuss Voigt Hill
#
# Bulk Modulus (GPa) = 27.73478 37.78828 32.76153
# Shear Modulus (GPa) = 16.80179 23.47421 20.13800
#
# Velocity S-wave (km/s) = 2.96665 3.50658 3.24785
# Velocity P-wave (km/s) = 5.12470 6.01572 5.58800
#
# Compressibility (1/GPa) = 0.03605581
#
# Stress axis : x y z
#
# Youngs Moduli (GPa) = 40.25755 34.91763 31.12440
#
# Poissons Ratio (x) = 0.30817 -0.03275
# Poissons Ratio (y) = 0.35529 0.52920
# Poissons Ratio (z) = -0.04236 0.59370
#
# Static dielectric constant tensor:
#      x y z
#    x 1.635960 0.000000 -0.014380 
#    y 0.000000 1.631130 0.000000 
#    z -0.014380 0.000000 1.689480 
# 
# From -- ./inp_files/38132.got.cif
#   From: 2010.05.17/outbox.cif.g08.bks.cpg/sg11_20_cif.got.tgz:38132.got - 2010.06.03 12:22:45.
