data_PCOD9160771
_publ_section_title
;
Structure prediction by ZEFSAII (Michael W. Deem and Ramdas Pophale) SiO2 
 PCOD9160771
Probable space group: P 21/M
;
_chemical_formula_sum "Si O2"
_cell_formula_units_Z 28
_cell_length_a 16.172530
_cell_length_b 8.978852
_cell_length_c 17.900694
_cell_angle_alpha 90.000000
_cell_angle_beta 144.725012
_cell_angle_gamma 90.000000
_cell_volume 1501.141415
_symmetry_space_group_name_H-M "P 21/M"
_symmetry_group_IT_number 11
_symmetry_cell_setting 'monoclinic'
loop_
_space_group_symop_operation_xyz
x,y,z
-x,1/2+y,-z
-x,-y,-z
x,1/2-y,z
loop_
_atom_site_type_symbol
_atom_site_label
_atom_site_fract_x
_atom_site_fract_y
_atom_site_fract_z
Si Si1 0.151059 0.429821 0.084729
Si Si2 0.384261 0.918302 0.964854
Si Si3 0.813621 0.068245 0.051586
Si Si4 0.839295 0.081448 0.331263
Si Si5 0.839539 0.928377 0.472288
Si Si6 0.653423 0.570583 0.630467
Si Si7 0.869944 0.931087 0.659526
O O1 0.137320 0.250000 0.071474
O O2 0.273540 0.466548 0.236214
O O3 0.188797 0.497419 0.032007
O O4 0.000000 0.500000 0.000000
O O5 0.434662 0.750000 0.016484
O O6 0.319444 0.979775 0.994268
O O7 0.249790 0.913538 0.809758
O O8 0.500000 0.000000 0.000000
O O9 0.811035 0.250000 0.045250
O O10 0.966013 0.025859 0.202110
O O11 0.857345 0.250000 0.372426
O O12 0.995632 0.026242 0.422251
O O13 0.764510 0.992018 0.343178
O O14 0.828090 0.750000 0.463032
O O15 0.810912 0.981077 0.535217
O O16 0.500000 0.500000 0.500000
O O17 0.640573 0.750000 0.617664
O O18 0.766530 0.522767 0.650167
O O19 0.871234 0.750000 0.658647
#
# Coordination Sequence:
#
# PCOD9160771 Si02
#       7
#     4   4   4   4   4   4   4
#     4  11  22  38  63  93 122 154 195 246 297 353
#     4  10  21  37  57  78 110 153 191 237 292 345
#     4  10  19  37  62  85 111 149 199 246 291 346
#     4   9  17  31  50  74 104 137 172 218 277 325
#     4   9  16  29  53  78 100 131 177 224 266 320
#     4  10  22  40  60  83 116 153 188 235 294 351
#     4   9  16  33  59  81 105 142 187 232 280 340
#
# _framework density 18.652474000000002
#
# number of rings (size 3 to 8) (size 9 to 14) (size 15 to 20)
#    0.000    2.286    2.857    0.429    0.000    2.286 
#    2.571    1.429    0.000    0.000    0.000    0.000 
#    0.000    0.000    0.000    0.000    0.000    0.000 
#
# Total GULP energy -155954.085952 kJ/mol
# GULP energy per Si atom -5569.788784 kJ/mol
# Density = 1.861002 g / cm^3
# Si number density = 18.652474 Si / 1000 Ang^3
#
#
#
# Elastic Constant Matrix: (Units=GPa)
#
#
# Indices 1 2 3 4 5 6 
#
# 1 170.6443 40.8194 43.3375 0.0000 -17.5788 0.0000
# 2 40.8194 22.5247 21.3336 0.0000 -4.3095 0.0000
# 3 43.3375 21.3336 55.4163 0.0000 -9.5015 0.0000
# 4 0.0000 0.0000 0.0000 28.3164 0.0000 -3.4182
# 5 -17.5788 -4.3095 -9.5015 0.0000 40.0634 0.0000
# 6 0.0000 0.0000 0.0000 -3.4182 0.0000 29.3661
#
#
#
# Elastic Compliance Matrix: (Units=1/GPa)
#
#
# Indices 1 2 3 4 5 6 
#
# 1 0.010648 -0.017842 -0.001028 0.000000 0.002509 0.000000
# 2 -0.017842 0.099824 -0.024993 0.000000 -0.003018 0.000000
# 3 -0.001028 -0.024993 0.029117 0.000000 0.003766 0.000000
# 4 0.000000 0.000000 0.000000 0.035818 0.000000 0.004169
# 5 0.002509 -0.003018 0.003766 0.000000 0.026630 0.000000
# 6 0.000000 0.000000 0.000000 0.004169 0.000000 0.034538
#
#
# Mechanical properties :
#
#
# Convention : Reuss Voigt Hill
#
# Bulk Modulus (GPa) = 19.28241 51.06293 35.17267
# Shear Modulus (GPa) = 14.63752 29.08884 21.86318
#
# Velocity S-wave (km/s) = 2.80438 3.95336 3.42736
# Velocity P-wave (km/s) = 4.56576 6.94796 5.87879
#
# Compressibility (1/GPa) = 0.05186073
#
# Stress axis : x y z
#
# Youngs Moduli (GPa) = 93.91771 10.01768 34.34472
#
# Poissons Ratio (x) = 0.17874 0.03531
# Poissons Ratio (y) = 1.67568 0.85839
# Poissons Ratio (z) = 0.09655 0.25038
#
# Static dielectric constant tensor:
#      x y z
#    x 1.663990 0.000000 -0.015210 
#    y 0.000000 1.659300 0.000000 
#    z -0.015210 0.000000 1.691110 
# 
# From -- ./inp_files/60145.got.cif
#   From: 2010.05.17/outbox.cif.g08.bks.cpg/sg11_31_cif.got.tgz:60145.got - 2010.06.03 12:22:45.
