data_PCOD9160020
_publ_section_title
;
Structure prediction by ZEFSAII (Michael W. Deem and Ramdas Pophale) SiO2 
 PCOD9160020
Probable space group: P 21/M
;
_chemical_formula_sum "Si O2"
_cell_formula_units_Z 32
_cell_length_a 8.480129
_cell_length_b 7.484589
_cell_length_c 28.299961
_cell_angle_alpha 90.000000
_cell_angle_beta 128.447790
_cell_angle_gamma 90.000000
_cell_volume 1406.744152
_symmetry_space_group_name_H-M "P 21/M"
_symmetry_group_IT_number 11
_symmetry_cell_setting 'monoclinic'
loop_
_space_group_symop_operation_xyz
x,y,z
-x,1/2+y,-z
-x,-y,-z
x,1/2-y,z
loop_
_atom_site_type_symbol
_atom_site_label
_atom_site_fract_x
_atom_site_fract_y
_atom_site_fract_z
Si Si1 0.096080 0.957837 0.378123
Si Si2 0.322161 0.465618 0.247371
Si Si3 0.690075 0.466973 0.254787
Si Si4 0.924385 0.030688 0.120587
Si Si5 0.601188 0.457825 0.134470
Si Si6 0.195137 0.961517 0.005486
Si Si7 0.423231 0.539885 0.368768
Si Si8 0.128953 0.036044 0.570532
O O1 0.140992 0.750000 0.396669
O O2 0.995509 0.035113 0.407202
O O3 0.294112 0.034440 0.388853
O O4 0.913824 0.968741 0.306739
O O5 0.320790 0.250000 0.247135
O O6 0.536195 0.527674 0.266763
O O7 0.297461 0.522980 0.296762
O O8 0.145758 0.523123 0.178958
O O9 0.691727 0.250000 0.256602
O O10 0.607713 0.529155 0.188732
O O11 0.924165 0.250000 0.118829
O O12 0.768765 0.966160 0.131013
O O13 0.849435 0.969346 0.055437
O O14 0.654539 0.250000 0.149753
O O15 0.388668 0.466484 0.068704
O O16 0.226168 0.750000 0.007663
O O17 0.000000 0.000000 0.000000
O O18 0.451294 0.750000 0.383807
O O19 0.644822 0.465131 0.397359
O O20 0.148759 0.250000 0.581649
O O21 0.000000 0.000000 0.500000
#
# Coordination Sequence:
#
# PCOD9160020 Si02
#       8
#     4   4   4   4   4   4   4   4
#     4  10  21  38  60  85 117 154 191 234 284 335
#     4  10  19  34  57  84 112 146 188 232 280 337
#     4  10  20  34  57  86 115 148 188 234 284 337
#     4   9  19  35  55  78 107 142 182 232 285 335
#     4  10  20  36  56  79 108 142 182 232 286 338
#     4  11  22  37  55  76 105 143 186 232 284 342
#     4  10  21  38  59  85 117 153 189 232 286 335
#     4  10  22  40  60  85 119 153 189 233 278 332
#
# _framework density 22.747564000000001
#
# number of rings (size 3 to 8) (size 9 to 14) (size 15 to 20)
#    0.000    2.000    1.250    2.250    0.000    5.500 
#    0.000    3.750    0.000    0.000    0.000    0.000 
#    0.000    0.000    0.000    0.000    0.000    0.000 
#
# Total GULP energy -178750.941803 kJ/mol
# GULP energy per Si atom -5585.966931 kJ/mol
# Density = 2.269579 g / cm^3
# Si number density = 22.747564 Si / 1000 Ang^3
#
#
#
# Elastic Constant Matrix: (Units=GPa)
#
#
# Indices 1 2 3 4 5 6 
#
# 1 175.8696 5.8409 53.4879 0.0000 -30.6847 0.0000
# 2 5.8409 62.9194 -11.6555 0.0000 -6.8668 0.0000
# 3 53.4879 -11.6555 114.7587 0.0000 -16.9607 0.0000
# 4 0.0000 0.0000 0.0000 23.3882 0.0000 0.3338
# 5 -30.6847 -6.8668 -16.9607 0.0000 19.6138 0.0000
# 6 0.0000 0.0000 0.0000 0.3338 0.0000 7.6573
#
#
#
# Elastic Compliance Matrix: (Units=1/GPa)
#
#
# Indices 1 2 3 4 5 6 
#
# 1 0.008291 0.000024 -0.002229 0.000000 0.011053 0.000000
# 2 0.000024 0.017415 0.003055 0.000000 0.008775 0.000000
# 3 -0.002229 0.003055 0.011128 0.000000 0.007206 0.000000
# 4 0.000000 0.000000 0.000000 0.042783 0.000000 -0.001865
# 5 0.011053 0.008775 0.007206 0.000000 0.077579 0.000000
# 6 0.000000 0.000000 0.000000 -0.001865 0.000000 0.130676
#
#
# Mechanical properties :
#
#
# Convention : Reuss Voigt Hill
#
# Bulk Modulus (GPa) = 25.95143 49.87713 37.91428
# Shear Modulus (GPa) = 16.72146 30.52349 23.62247
#
# Velocity S-wave (km/s) = 2.71419 3.66708 3.22601
# Velocity P-wave (km/s) = 4.61039 6.31696 5.52990
#
# Compressibility (1/GPa) = 0.03853352
#
# Stress axis : x y z
#
# Youngs Moduli (GPa) = 120.60624 57.42258 89.86455
#
# Poissons Ratio (x) = -0.00136 0.20027
# Poissons Ratio (y) = -0.00286 -0.27451
# Poissons Ratio (z) = 0.26879 -0.17541
#
# Static dielectric constant tensor:
#      x y z
#    x 1.849140 0.000000 -0.010630 
#    y 0.000000 1.862360 0.000000 
#    z -0.010630 0.000000 1.825670 
# 
# From -- ./inp_files/70698.got.cif
#   From: 2010.05.17/outbox.cif.g08.bks.cpg/sg11_36_cif.got.tgz:70698.got - 2010.06.03 12:22:45.
