data_PCOD9160998
_publ_section_title
;
Structure prediction by ZEFSAII (Michael W. Deem and Ramdas Pophale) SiO2 
 PCOD9160998
Probable space group: P 21/M
;
_chemical_formula_sum "Si O2"
_cell_formula_units_Z 32
_cell_length_a 15.499968
_cell_length_b 8.839550
_cell_length_c 34.491711
_cell_angle_alpha 90.000000
_cell_angle_beta 27.252187
_cell_angle_gamma 90.000000
_cell_volume 2163.982700
_symmetry_space_group_name_H-M "P 21/M"
_symmetry_group_IT_number 11
_symmetry_cell_setting 'monoclinic'
loop_
_space_group_symop_operation_xyz
x,y,z
-x,1/2+y,-z
-x,-y,-z
x,1/2-y,z
loop_
_atom_site_type_symbol
_atom_site_label
_atom_site_fract_x
_atom_site_fract_y
_atom_site_fract_z
Si Si1 0.603949 0.422187 0.900664
Si Si2 0.604290 0.070839 0.083792
Si Si3 0.906213 0.431560 0.593726
Si Si4 0.437171 0.068699 0.234532
Si Si5 0.282505 0.430590 0.408273
Si Si6 0.207404 0.423850 0.106293
Si Si7 0.024070 0.067756 0.101677
Si Si8 0.371055 0.430680 0.765329
O O1 0.640047 0.250000 0.874572
O O2 0.557857 0.522787 0.881800
O O3 0.761718 0.482239 0.867094
O O4 0.408550 0.424044 0.003386
O O5 0.637755 0.250000 0.067141
O O6 0.539727 0.035776 0.153124
O O7 0.794361 0.984879 0.995407
O O8 0.882267 0.250000 0.600328
O O9 0.772677 0.497590 0.680349
O O10 0.820158 0.510969 0.589808
O O11 0.130087 0.463152 0.502941
O O12 0.425533 0.250000 0.244131
O O13 0.552203 0.998453 0.224672
O O14 0.308961 0.250000 0.395608
O O15 0.482937 0.512263 0.326097
O O16 0.164623 0.250000 0.133239
O O17 0.063418 0.478465 0.130796
O O18 0.012921 0.250000 0.105127
O O19 0.835208 0.993909 0.161108
O O20 0.372816 0.250000 0.766658
#
# Coordination Sequence:
#
# PCOD9160998 Si02
#       8
#     4   4   4   4   4   4   4   4
#     4   9  16  26  43  64  84 108 136 172 217 257
#     4  10  20  32  45  62  85 115 150 183 214 251
#     4   9  16  26  43  64  83 106 137 175 217 257
#     4  10  20  32  45  61  85 117 149 182 216 251
#     4   9  16  27  43  62  84 108 136 173 216 259
#     4   8  15  27  43  62  82 106 136 172 215 258
#     4  10  20  33  47  62  84 115 148 182 217 252
#     4  11  21  31  45  63  85 115 148 182 216 253
#
# _framework density 14.787549
#
# number of rings (size 3 to 8) (size 9 to 14) (size 15 to 20)
#    0.000    2.500    0.000    5.625    0.000    7.500 
#    0.000    0.000    0.000    0.000    0.000    0.000 
#    0.000    1.000    0.000    3.250    0.000    4.750 
#
# Total GULP energy -178172.859560 kJ/mol
# GULP energy per Si atom -5567.901861 kJ/mol
# Density = 1.475389 g / cm^3
# Si number density = 14.787549 Si / 1000 Ang^3
#
#
#
# Elastic Constant Matrix: (Units=GPa)
#
#
# Indices 1 2 3 4 5 6 
#
# 1 71.3210 38.2210 47.0413 0.0000 -0.0545 0.0000
# 2 38.2210 72.7197 40.1293 0.0000 -2.5567 0.0000
# 3 47.0413 40.1293 81.0788 0.0000 -7.5290 0.0000
# 4 0.0000 0.0000 0.0000 22.8868 0.0000 -2.0874
# 5 -0.0545 -2.5567 -7.5290 0.0000 0.1293 0.0000
# 6 0.0000 0.0000 0.0000 -2.0874 0.0000 19.3363
#
#
#
# Elastic Compliance Matrix: (Units=1/GPa)
#
#
# Indices 1 2 3 4 5 6 
#
# 1 0.015052 -0.006481 0.003819 0.000000 0.100631 0.000000
# 2 -0.006481 0.020887 -0.007152 0.000000 -0.006183 0.000000
# 3 0.003819 -0.007152 -0.000152 0.000000 -0.148713 0.000000
# 4 0.000000 0.000000 0.000000 0.044128 0.000000 0.004764
# 5 0.100631 -0.006183 -0.148713 0.000000 -1.005673 0.000000
# 6 0.000000 0.000000 0.000000 0.004764 0.000000 0.052231
#
#
# Mechanical properties :
#
#
# Convention : Reuss Voigt Hill
#
# Bulk Modulus (GPa) = 61.88110 52.87809 57.37959
# Shear Modulus (GPa) = -5.89266 15.11899 4.61317
#
# Velocity S-wave (km/s) = -1.99838 3.20099 1.76816
# Velocity P-wave (km/s) = 6.05086 7.03548 6.56166
#
# Compressibility (1/GPa) = 0.01616002
#
# Stress axis : x y z
#
# Youngs Moduli (GPa) = 66.43558 47.87657 -6576.84914
#
# Poissons Ratio (x) = 0.31029 25.11857
# Poissons Ratio (y) = 0.43057 -47.03665
# Poissons Ratio (z) = -0.25373 0.34241
#
# Static dielectric constant tensor:
#      x y z
#    x 1.480080 0.000000 -0.004570 
#    y 0.000000 1.497730 0.000000 
#    z -0.004570 0.000000 1.509650 
# 
# From -- ./inp_files/73300.got.cif
#   From: 2010.05.17/outbox.cif.g08.bks.cpg/sg11_37_cif.got.tgz:73300.got - 2010.06.03 12:22:45.
