data_PCOD9160551
_publ_section_title
;
Structure prediction by ZEFSAII (Michael W. Deem and Ramdas Pophale) SiO2 
 PCOD9160551
Probable space group: P 21/M
;
_chemical_formula_sum "Si O2"
_cell_formula_units_Z 28
_cell_length_a 17.451281
_cell_length_b 15.106867
_cell_length_c 5.323651
_cell_angle_alpha 90.000000
_cell_angle_beta 68.703506
_cell_angle_gamma 90.000000
_cell_volume 1307.656452
_symmetry_space_group_name_H-M "P 21/M"
_symmetry_group_IT_number 11
_symmetry_cell_setting 'monoclinic'
loop_
_space_group_symop_operation_xyz
x,y,z
-x,1/2+y,-z
-x,-y,-z
x,1/2-y,z
loop_
_atom_site_type_symbol
_atom_site_label
_atom_site_fract_x
_atom_site_fract_y
_atom_site_fract_z
Si Si1 0.988467 0.250000 0.000718
Si Si2 0.749636 0.044352 0.497352
Si Si3 0.900791 0.750000 0.632940
Si Si4 0.571967 0.514765 0.715633
Si Si5 0.878539 0.937208 0.607762
Si Si6 0.282146 0.850898 0.979491
Si Si7 0.462786 0.648763 0.611189
Si Si8 0.954751 0.434509 0.864936
O O1 0.058967 0.250000 0.697005
O O2 0.937979 0.340427 0.014190
O O3 0.031873 0.250000 0.220934
O O4 0.667622 0.988598 0.667293
O O5 0.739210 0.088859 0.237496
O O6 0.827357 0.980161 0.443408
O O7 0.753895 0.117727 0.712388
O O8 0.848938 0.840363 0.721510
O O9 0.546079 0.608743 0.626703
O O10 0.560619 0.427700 0.557032
O O11 0.500000 0.500000 0.000000
O O12 0.973983 0.918219 0.426853
O O13 0.883398 0.011127 0.816374
O O14 0.257844 0.750000 0.954215
O O15 0.382270 0.851828 0.886502
O O16 0.471021 0.750000 0.509982
O O17 0.000000 0.500000 0.000000
#
# Coordination Sequence:
#
# PCOD9160551 Si02
#       8
#     2   4   2   4   4   4   4   4
#     4  10  20  36  62  90 112 149 192 245 282 356
#     4  11  23  38  61  88 124 156 197 248 299 350
#     4  10  20  38  62  84 114 153 198 229 294 350
#     4  10  19  36  58  85 118 155 198 251 298 350
#     4  10  23  39  61  87 118 158 195 244 293 355
#     4  10  21  39  61  86 120 162 198 241 302 361
#     4   9  19  35  59  84 115 160 204 243 298 363
#     4  10  20  39  63  86 116 155 199 240 297 349
#
# _framework density 21.412351000000001
#
# number of rings (size 3 to 8) (size 9 to 14) (size 15 to 20)
#    0.000    2.000    2.857    0.429    2.000    1.143 
#    3.857    0.000    0.000    0.000    0.000    0.000 
#    0.000    0.000    0.000    0.000    0.000    0.000 
#
# Total GULP energy -156038.791024 kJ/mol
# GULP energy per Si atom -5572.813965 kJ/mol
# Density = 2.136362 g / cm^3
# Si number density = 21.412351 Si / 1000 Ang^3
#
#
#
# Elastic Constant Matrix: (Units=GPa)
#
#
# Indices 1 2 3 4 5 6 
#
# 1 73.6649 36.8572 10.7131 0.0000 8.4303 0.0000
# 2 36.8572 153.8603 6.0380 0.0000 7.1008 0.0000
# 3 10.7131 6.0380 65.4244 0.0000 0.5896 0.0000
# 4 0.0000 0.0000 0.0000 22.9723 0.0000 5.8592
# 5 8.4303 7.1008 0.5896 0.0000 29.3137 0.0000
# 6 0.0000 0.0000 0.0000 5.8592 0.0000 21.4114
#
#
#
# Elastic Compliance Matrix: (Units=1/GPa)
#
#
# Indices 1 2 3 4 5 6 
#
# 1 0.016135 -0.003604 -0.002276 0.000000 -0.003721 0.000000
# 2 -0.003604 0.007401 -0.000086 0.000000 -0.000755 0.000000
# 3 -0.002276 -0.000086 0.015662 0.000000 0.000360 0.000000
# 4 0.000000 0.000000 0.000000 0.046797 0.000000 -0.012806
# 5 -0.003721 -0.000755 0.000360 0.000000 0.035360 0.000000
# 6 0.000000 0.000000 0.000000 -0.012806 0.000000 0.050208
#
#
# Mechanical properties :
#
#
# Convention : Reuss Voigt Hill
#
# Bulk Modulus (GPa) = 36.67562 44.46292 40.56927
# Shear Modulus (GPa) = 25.96268 30.69557 28.32913
#
# Velocity S-wave (km/s) = 3.48589 3.79033 3.64129
# Velocity P-wave (km/s) = 5.77645 6.32183 6.05528
#
# Compressibility (1/GPa) = 0.02726607
#
# Stress axis : x y z
#
# Youngs Moduli (GPa) = 61.97659 135.11757 63.84803
#
# Poissons Ratio (x) = 0.48698 0.14531
# Poissons Ratio (y) = 0.22337 0.00549
# Poissons Ratio (z) = 0.14106 0.01163
#
# Static dielectric constant tensor:
#      x y z
#    x 1.826030 0.000000 -0.020920 
#    y 0.000000 1.868990 0.000000 
#    z -0.020920 0.000000 1.841750 
# 
# From -- ./inp_files/7900.got.cif
#   From: 2010.05.17/outbox.cif.g08.bks.cpg/sg11_4_cif.got.tgz:7900.got - 2010.06.03 12:22:45.
