data_PCOD9160312
_publ_section_title
;
Structure prediction by ZEFSAII (Michael W. Deem and Ramdas Pophale) SiO2 
 PCOD9160312
Probable space group: P 21/M
;
_chemical_formula_sum "Si O2"
_cell_formula_units_Z 32
_cell_length_a 27.145877
_cell_length_b 8.618477
_cell_length_c 21.650258
_cell_angle_alpha 90.000000
_cell_angle_beta 159.014062
_cell_angle_gamma 90.000000
_cell_volume 1814.048393
_symmetry_space_group_name_H-M "P 21/M"
_symmetry_group_IT_number 11
_symmetry_cell_setting 'monoclinic'
loop_
_space_group_symop_operation_xyz
x,y,z
-x,1/2+y,-z
-x,-y,-z
x,1/2-y,z
loop_
_atom_site_type_symbol
_atom_site_label
_atom_site_fract_x
_atom_site_fract_y
_atom_site_fract_z
Si Si1 0.986695 0.061566 0.668015
Si Si2 0.410698 0.564160 0.452144
Si Si3 0.282931 0.062029 0.965446
Si Si4 0.390706 0.565148 0.218035
Si Si5 0.106804 0.063725 0.938331
Si Si6 0.904694 0.064213 0.942259
Si Si7 0.595275 0.937383 0.023433
Si Si8 0.701096 0.062428 0.274947
O O1 0.983503 0.250000 0.662864
O O2 0.012449 0.017051 0.769464
O O3 0.843446 0.006437 0.471669
O O4 0.124021 0.014531 0.791303
O O5 0.500000 0.500000 0.500000
O O6 0.419905 0.750000 0.463309
O O7 0.475635 0.498835 0.590938
O O8 0.252847 0.519101 0.256876
O O9 0.287624 0.250000 0.974156
O O10 0.342071 0.012617 0.968622
O O11 0.370224 0.996216 0.124697
O O12 0.390345 0.750000 0.218746
O O13 0.257888 0.503428 0.100319
O O14 0.115985 0.250000 0.949959
O O15 0.057946 0.002787 0.946935
O O16 0.912171 0.250000 0.953136
O O17 0.000000 0.000000 0.000000
O O18 0.600592 0.750000 0.031667
O O19 0.435868 0.984066 0.847317
O O20 0.678992 0.002167 0.179729
O O21 0.703818 0.250000 0.276795
#
# Coordination Sequence:
#
# PCOD9160312 Si02
#       8
#     4   4   4   4   4   4   4   4
#     4   8  16  31  52  75  99 133 174 211 256 312
#     4  11  22  37  60  85 109 144 187 228 270 325
#     4   9  18  34  52  73 103 138 173 216 264 311
#     4  11  21  34  55  83 111 140 180 225 273 326
#     4  10  19  35  58  79 108 145 181 224 273 323
#     4  11  24  40  58  82 113 146 184 227 278 330
#     4   9  18  32  51  74 102 134 169 211 259 310
#     4   9  17  32  52  73 100 135 172 208 252 313
#
# _framework density 17.640101999999999
#
# number of rings (size 3 to 8) (size 9 to 14) (size 15 to 20)
#    0.000    2.250    1.250    3.000    0.000    2.500 
#    2.250    3.125    0.000    0.000    0.000    0.000 
#    0.000    0.000    0.000    0.000    0.000    0.000 
#
# Total GULP energy -178560.971005 kJ/mol
# GULP energy per Si atom -5580.030344 kJ/mol
# Density = 1.759995 g / cm^3
# Si number density = 17.640102 Si / 1000 Ang^3
#
#
#
# Elastic Constant Matrix: (Units=GPa)
#
#
# Indices 1 2 3 4 5 6 
#
# 1 180.7540 35.5977 91.4052 0.0000 -8.7670 0.0000
# 2 35.5977 33.0590 34.0278 0.0000 1.1896 0.0000
# 3 91.4052 34.0278 147.7074 0.0000 -12.9035 0.0000
# 4 0.0000 0.0000 0.0000 21.9564 0.0000 -7.3336
# 5 -8.7670 1.1896 -12.9035 0.0000 17.7376 0.0000
# 6 0.0000 0.0000 0.0000 -7.3336 0.0000 27.3029
#
#
#
# Elastic Compliance Matrix: (Units=1/GPa)
#
#
# Indices 1 2 3 4 5 6 
#
# 1 0.008683 -0.005292 -0.004002 0.000000 0.001735 0.000000
# 2 -0.005292 0.044587 -0.007995 0.000000 -0.011422 0.000000
# 3 -0.004002 -0.007995 0.011707 0.000000 0.007074 0.000000
# 4 0.000000 0.000000 0.000000 0.050034 0.000000 0.013439
# 5 0.001735 -0.011422 0.007074 0.000000 0.063147 0.000000
# 6 0.000000 0.000000 0.000000 0.013439 0.000000 0.040236
#
#
# Mechanical properties :
#
#
# Convention : Reuss Voigt Hill
#
# Bulk Modulus (GPa) = 32.89639 75.95352 54.42495
# Shear Modulus (GPa) = 19.00386 26.76536 22.88461
#
# Velocity S-wave (km/s) = 3.28580 3.89948 3.60572
# Velocity P-wave (km/s) = 5.75191 7.96401 6.94658
#
# Compressibility (1/GPa) = 0.03039847
#
# Stress axis : x y z
#
# Youngs Moduli (GPa) = 115.17108 22.42782 85.42181
#
# Poissons Ratio (x) = 0.11869 0.34189
# Poissons Ratio (y) = 0.60952 0.68291
# Poissons Ratio (z) = 0.46095 0.17930
#
# Static dielectric constant tensor:
#      x y z
#    x 1.582740 0.000000 -0.000350 
#    y 0.000000 1.595820 0.000000 
#    z -0.000350 0.000000 1.595800 
# 
# From -- ./inp_files/67168.got.cif
#   From: 2010.05.17/outbox.cif.g08.bks.cpg/sg11_34_cif.got.tgz:67168.got - 2010.06.03 12:22:45.
