data_PCOD9160960
_publ_section_title
;
Structure prediction by ZEFSAII (Michael W. Deem and Ramdas Pophale) SiO2 
 PCOD9160960
Probable space group: P 21/M
;
_chemical_formula_sum "Si O2"
_cell_formula_units_Z 18
_cell_length_a 21.657388
_cell_length_b 7.873452
_cell_length_c 16.320751
_cell_angle_alpha 90.000000
_cell_angle_beta 165.605587
_cell_angle_gamma 90.000000
_cell_volume 691.838227
_symmetry_space_group_name_H-M "P 21/M"
_symmetry_group_IT_number 11
_symmetry_cell_setting 'monoclinic'
loop_
_space_group_symop_operation_xyz
x,y,z
-x,1/2+y,-z
-x,-y,-z
x,1/2-y,z
loop_
_atom_site_type_symbol
_atom_site_label
_atom_site_fract_x
_atom_site_fract_y
_atom_site_fract_z
Si Si1 0.788720 0.938797 0.666705
Si Si2 0.994526 0.061093 0.642683
Si Si3 0.345256 0.561211 0.223237
Si Si4 0.629298 0.750000 0.215445
Si Si5 0.450126 0.061075 0.098300
O O1 0.848211 0.750000 0.713022
O O2 0.548950 0.926782 0.414905
O O3 0.693615 0.052295 0.470435
O O4 0.000000 0.000000 0.000000
O O5 0.879801 0.250000 0.489756
O O6 0.812585 0.902018 0.411953
O O7 0.203360 0.046289 0.838878
O O8 0.136903 0.052286 0.913706
O O9 0.500000 0.500000 0.500000
O O10 0.246232 0.750000 0.111038
O O11 0.485786 0.597967 0.085186
O O12 0.450241 0.250000 0.060201
#
# Coordination Sequence:
#
# PCOD9160960 Si02
#       5
#     4   4   4   2   4
#     4  10  20  31  40  51  66  80  92 105 117 128
#     4  10  21  35  46  60  75  85  96 111 122 133
#     4  10  20  31  40  51  66  80  92 105 117 128
#     4  12  20  32  52  60  72  84 104 104 124 132
#     4  10  21  35  46  60  75  85  96 111 122 133
#
# _framework density 26.017643
#
# number of rings (size 3 to 8) (size 9 to 14) (size 15 to 20)
#    0.000    1.778    2.222    2.667    3.111    2.667 
#    0.000    0.000    0.000    0.000    0.000    0.000 
#    0.000    0.000    0.000    0.000    0.000    0.000 
#
# Total GULP energy -100249.989512 kJ/mol
# GULP energy per Si atom -5569.443862 kJ/mol
# Density = 2.595843 g / cm^3
# Si number density = 26.017643 Si / 1000 Ang^3
#
#
#
# Elastic Constant Matrix: (Units=GPa)
#
#
# Indices 1 2 3 4 5 6 
#
# 1 146.1242 80.3526 15.7830 0.0000 6.9954 0.0000
# 2 80.3526 306.5749 80.2475 0.0000 -9.7803 0.0000
# 3 15.7830 80.2475 145.6400 0.0000 6.7198 0.0000
# 4 0.0000 0.0000 0.0000 48.4003 0.0000 -7.3986
# 5 6.9954 -9.7803 6.7198 0.0000 99.5996 0.0000
# 6 0.0000 0.0000 0.0000 -7.3986 0.0000 48.3327
#
#
#
# Elastic Compliance Matrix: (Units=1/GPa)
#
#
# Indices 1 2 3 4 5 6 
#
# 1 0.008075 -0.002247 0.000401 0.000000 -0.000815 0.000000
# 2 -0.002247 0.004464 -0.002251 0.000000 0.000748 0.000000
# 3 0.000401 -0.002251 0.008100 0.000000 -0.000796 0.000000
# 4 0.000000 0.000000 0.000000 0.021156 0.000000 0.003238
# 5 -0.000815 0.000748 -0.000796 0.000000 0.010225 0.000000
# 6 0.000000 0.000000 0.000000 0.003238 0.000000 0.021186
#
#
# Mechanical properties :
#
#
# Convention : Reuss Voigt Hill
#
# Bulk Modulus (GPa) = 80.35852 105.67837 93.01845
# Shear Modulus (GPa) = 58.44747 67.39693 62.92220
#
# Velocity S-wave (km/s) = 4.74482 5.09515 4.92310
# Velocity P-wave (km/s) = 7.80839 8.67872 8.25503
#
# Compressibility (1/GPa) = 0.01244423
#
# Stress axis : x y z
#
# Youngs Moduli (GPa) = 123.83881 224.02334 123.46355
#
# Poissons Ratio (x) = 0.50346 -0.04948
# Poissons Ratio (y) = 0.27831 0.27786
# Poissons Ratio (z) = -0.04963 0.50417
#
# Static dielectric constant tensor:
#      x y z
#    x 2.081640 0.000000 -0.147780 
#    y 0.000000 1.943260 0.000000 
#    z -0.147780 0.000000 2.083360 
# 
# From -- ./inp_files/70437.got.cif
#   From: 2010.05.17/outbox.cif.g08.bks.cpg/sg11_36_cif.got.tgz:70437.got - 2010.06.03 12:22:45.
