data_PCOD9160541
_publ_section_title
;
Structure prediction by ZEFSAII (Michael W. Deem and Ramdas Pophale) SiO2 
 PCOD9160541
Probable space group: P 21/M
;
_chemical_formula_sum "Si O2"
_cell_formula_units_Z 32
_cell_length_a 15.720991
_cell_length_b 7.763172
_cell_length_c 12.065626
_cell_angle_alpha 90.000000
_cell_angle_beta 84.709056
_cell_angle_gamma 90.000000
_cell_volume 1466.272295
_symmetry_space_group_name_H-M "P 21/M"
_symmetry_group_IT_number 11
_symmetry_cell_setting 'monoclinic'
loop_
_space_group_symop_operation_xyz
x,y,z
-x,1/2+y,-z
-x,-y,-z
x,1/2-y,z
loop_
_atom_site_type_symbol
_atom_site_label
_atom_site_fract_x
_atom_site_fract_y
_atom_site_fract_z
Si Si1 0.577315 0.957837 0.909413
Si Si2 0.914336 0.542304 0.078080
Si Si3 0.958765 0.539526 0.318589
Si Si4 0.635034 0.452679 0.435632
Si Si5 0.530669 0.540661 0.668205
Si Si6 0.153223 0.551496 0.279025
Si Si7 0.759913 0.948434 0.952210
Si Si8 0.188674 0.450073 0.506935
O O1 0.585100 0.750000 0.900740
O O2 0.559173 0.019101 0.786137
O O3 0.666290 0.027184 0.948411
O O4 0.500000 0.000000 0.000000
O O5 0.908912 0.750000 0.080407
O O6 0.924861 0.483338 0.202740
O O7 0.829923 0.473860 0.026850
O O8 0.000000 0.500000 0.000000
O O9 0.956742 0.750000 0.322261
O O10 0.894975 0.478484 0.421579
O O11 0.057316 0.487179 0.315488
O O12 0.646438 0.250000 0.417197
O O13 0.592177 0.482661 0.561291
O O14 0.564960 0.516349 0.355399
O O15 0.728225 0.534992 0.426202
O O16 0.531279 0.750000 0.666993
O O17 0.146798 0.750000 0.243430
O O18 0.197323 0.451968 0.174394
O O19 0.203489 0.540469 0.387958
O O20 0.747717 0.750000 0.988640
O O21 0.174866 0.250000 0.483053
#
# Coordination Sequence:
#
# PCOD9160541 Si02
#       8
#     4   4   4   4   4   4   4   4
#     4  10  22  39  57  82 115 150 187 232 281 334
#     4  10  19  36  58  82 112 146 187 233 278 329
#     4   9  20  36  54  78 111 149 186 230 281 331
#     4  10  20  35  57  85 111 143 188 235 279 334
#     4   9  19  37  59  81 113 150 185 230 284 337
#     4  11  21  36  58  82 111 146 189 238 278 329
#     4  10  21  36  59  87 114 148 189 231 283 343
#     4  11  22  36  54  79 114 151 184 226 284 343
#
# _framework density 21.824051000000001
#
# number of rings (size 3 to 8) (size 9 to 14) (size 15 to 20)
#    0.000    2.000    1.250    2.250    0.000    3.500 
#    0.000    4.375    0.000    0.000    0.000    0.000 
#    0.000    0.000    0.000    0.000    0.000    0.000 
#
# Total GULP energy -178797.674242 kJ/mol
# GULP energy per Si atom -5587.427320 kJ/mol
# Density = 2.177438 g / cm^3
# Si number density = 21.824051 Si / 1000 Ang^3
#
#
#
# Elastic Constant Matrix: (Units=GPa)
#
#
# Indices 1 2 3 4 5 6 
#
# 1 138.0381 0.3579 17.2169 0.0000 23.1603 0.0000
# 2 0.3579 37.5970 -1.9805 0.0000 5.0157 0.0000
# 3 17.2169 -1.9805 56.2906 0.0000 23.7280 0.0000
# 4 0.0000 0.0000 0.0000 13.4779 0.0000 -1.3173
# 5 23.1603 5.0157 23.7280 0.0000 33.0457 0.0000
# 6 0.0000 0.0000 0.0000 -1.3173 0.0000 20.9224
#
#
#
# Elastic Compliance Matrix: (Units=1/GPa)
#
#
# Indices 1 2 3 4 5 6 
#
# 1 0.008228 0.000702 -0.000023 0.000000 -0.005857 0.000000
# 2 0.000702 0.027805 0.003944 0.000000 -0.007544 0.000000
# 3 -0.000023 0.003944 0.026037 0.000000 -0.019278 0.000000
# 4 0.000000 0.000000 0.000000 0.074655 0.000000 0.004700
# 5 -0.005857 -0.007544 -0.019278 0.000000 0.049353 0.000000
# 6 0.000000 0.000000 0.000000 0.004700 0.000000 0.048092
#
#
# Mechanical properties :
#
#
# Convention : Reuss Voigt Hill
#
# Bulk Modulus (GPa) = 14.02245 29.23491 21.62868
# Shear Modulus (GPa) = 20.10480 27.91129 24.00805
#
# Velocity S-wave (km/s) = 3.03846 3.58008 3.32033
# Velocity P-wave (km/s) = 4.32999 5.52396 4.96301
#
# Compressibility (1/GPa) = 0.07131421
#
# Stress axis : x y z
#
# Youngs Moduli (GPa) = 121.53512 35.96436 38.40716
#
# Poissons Ratio (x) = -0.02524 0.00089
# Poissons Ratio (y) = -0.08529 -0.15146
# Poissons Ratio (z) = 0.00283 -0.14183
#
# Static dielectric constant tensor:
#      x y z
#    x 1.810950 0.000000 0.038850 
#    y 0.000000 1.793290 0.000000 
#    z 0.038850 0.000000 1.762920 
# 
# From -- ./inp_files/38223.got.cif
#   From: 2010.05.17/outbox.cif.g08.bks.cpg/sg11_20_cif.got.tgz:38223.got - 2010.06.03 12:22:45.
