data_PCOD9160695
_publ_section_title
;
Structure prediction by ZEFSAII (Michael W. Deem and Ramdas Pophale) SiO2 
 PCOD9160695
Probable space group: P 21/M
;
_chemical_formula_sum "Si O2"
_cell_formula_units_Z 24
_cell_length_a 14.990769
_cell_length_b 13.640096
_cell_length_c 11.883904
_cell_angle_alpha 90.000000
_cell_angle_beta 150.547823
_cell_angle_gamma 90.000000
_cell_volume 1194.807583
_symmetry_space_group_name_H-M "P 21/M"
_symmetry_group_IT_number 11
_symmetry_cell_setting 'monoclinic'
loop_
_space_group_symop_operation_xyz
x,y,z
-x,1/2+y,-z
-x,-y,-z
x,1/2-y,z
loop_
_atom_site_type_symbol
_atom_site_label
_atom_site_fract_x
_atom_site_fract_y
_atom_site_fract_z
Si Si1 0.180655 0.863171 0.427741
Si Si2 0.672557 0.635231 0.492151
Si Si3 0.499064 0.022920 0.130661
Si Si4 0.787461 0.474092 0.767197
Si Si5 0.894511 0.139325 0.088978
Si Si6 0.093988 0.010840 0.723800
O O1 0.131222 0.750000 0.376269
O O2 0.224290 0.897707 0.348640
O O3 0.026450 0.928836 0.318871
O O4 0.362059 0.889493 0.694093
O O5 0.617897 0.750000 0.439651
O O6 0.570957 0.570021 0.285028
O O7 0.670750 0.569304 0.604448
O O8 0.889697 0.635185 0.702683
O O9 0.500000 0.000000 0.000000
O O10 0.295425 0.052505 0.937712
O O11 0.770081 0.425897 0.869901
O O12 0.000000 0.500000 0.000000
O O13 0.835449 0.250000 0.012856
O O14 0.881263 0.097469 0.198641
O O15 0.000000 0.000000 0.500000
#
# Coordination Sequence:
#
# PCOD9160695 Si02
#       6
#     4   4   4   4   4   4
#     4  11  23  41  64  94 126 163 205 255 312 366
#     4   9  18  34  59  90 122 161 205 248 306 364
#     4  11  22  41  63  86 127 166 207 258 307 365
#     4   9  16  36  63  91 122 164 203 254 310 362
#     4  10  19  36  64  94 123 166 211 251 306 373
#     4  12  23  41  65  91 126 163 208 258 308 365
#
# _framework density 20.086917
#
# number of rings (size 3 to 8) (size 9 to 14) (size 15 to 20)
#    0.000    1.667    6.667    0.500    0.000    3.333 
#    0.000    3.333    0.000    2.000    0.000    0.000 
#    0.000    0.000    0.000    0.000    0.000    0.000 
#
# Total GULP energy -133834.278845 kJ/mol
# GULP energy per Si atom -5576.428285 kJ/mol
# Density = 2.004120 g / cm^3
# Si number density = 20.086917 Si / 1000 Ang^3
#
#
#
# Elastic Constant Matrix: (Units=GPa)
#
#
# Indices 1 2 3 4 5 6 
#
# 1 52.3767 13.8066 31.8520 0.0000 -15.9733 0.0000
# 2 13.8066 107.4360 22.9076 0.0000 -22.0764 0.0000
# 3 31.8520 22.9076 103.8085 0.0000 -12.1043 0.0000
# 4 0.0000 0.0000 0.0000 17.1866 0.0000 0.5711
# 5 -15.9733 -22.0764 -12.1043 0.0000 58.1570 0.0000
# 6 0.0000 0.0000 0.0000 0.5711 0.0000 11.3340
#
#
#
# Elastic Compliance Matrix: (Units=1/GPa)
#
#
# Indices 1 2 3 4 5 6 
#
# 1 0.025072 -0.000677 -0.006939 0.000000 0.005185 0.000000
# 2 -0.000677 0.010463 -0.001701 0.000000 0.003432 0.000000
# 3 -0.006939 -0.001701 0.012135 0.000000 -0.000026 0.000000
# 4 0.000000 0.000000 0.000000 0.058282 0.000000 -0.002937
# 5 0.005185 0.003432 -0.000026 0.000000 0.019916 0.000000
# 6 0.000000 0.000000 0.000000 -0.002937 0.000000 0.088378
#
#
# Mechanical properties :
#
#
# Convention : Reuss Voigt Hill
#
# Bulk Modulus (GPa) = 34.44075 44.52818 39.48447
# Shear Modulus (GPa) = 20.61360 30.33919 25.47639
#
# Velocity S-wave (km/s) = 3.20694 3.89060 3.56519
# Velocity P-wave (km/s) = 5.55839 6.51139 6.05367
#
# Compressibility (1/GPa) = 0.02903537
#
# Stress axis : x y z
#
# Youngs Moduli (GPa) = 39.88516 95.57752 82.40925
#
# Poissons Ratio (x) = 0.06471 0.57183
# Poissons Ratio (y) = 0.02700 0.14017
# Poissons Ratio (z) = 0.27676 0.16257
#
# Static dielectric constant tensor:
#      x y z
#    x 1.713220 0.000000 0.058930 
#    y 0.000000 1.712650 0.000000 
#    z 0.058930 0.000000 1.709080 
# 
# From -- ./inp_files/39709.got.cif
#   From: 2010.05.17/outbox.cif.g08.bks.cpg/sg11_20_cif.got.tgz:39709.got - 2010.06.03 12:22:45.
