data_PCOD9160238
_publ_section_title
;
Structure prediction by ZEFSAII (Michael W. Deem and Ramdas Pophale) SiO2 
 PCOD9160238
Probable space group: P 21/M
;
_chemical_formula_sum "Si O2"
_cell_formula_units_Z 32
_cell_length_a 11.869158
_cell_length_b 8.765251
_cell_length_c 14.239640
_cell_angle_alpha 90.000000
_cell_angle_beta 67.701800
_cell_angle_gamma 90.000000
_cell_volume 1370.657855
_symmetry_space_group_name_H-M "P 21/M"
_symmetry_group_IT_number 11
_symmetry_cell_setting 'monoclinic'
loop_
_space_group_symop_operation_xyz
x,y,z
-x,1/2+y,-z
-x,-y,-z
x,1/2-y,z
loop_
_atom_site_type_symbol
_atom_site_label
_atom_site_fract_x
_atom_site_fract_y
_atom_site_fract_z
Si Si1 0.498366 0.566257 0.606025
Si Si2 0.898756 0.924268 0.429548
Si Si3 0.992043 0.929267 0.777578
Si Si4 0.115443 0.571237 0.014218
Si Si5 0.632516 0.067942 0.856845
Si Si6 0.242942 0.426068 0.711182
Si Si7 0.737106 0.433163 0.631496
Si Si8 0.640825 0.927876 0.059431
O O1 0.500000 0.500000 0.500000
O O2 0.495854 0.750000 0.605911
O O3 0.372884 0.499406 0.688758
O O4 0.617171 0.505021 0.621588
O O5 0.936505 0.750000 0.434265
O O6 0.782447 0.919900 0.394171
O O7 0.994786 0.011480 0.333097
O O8 0.852722 0.006172 0.537129
O O9 0.970654 0.750000 0.788888
O O10 0.898670 0.018783 0.872649
O O11 0.873633 0.027101 0.223485
O O12 0.107394 0.750000 0.011397
O O13 0.000000 0.500000 0.000000
O O14 0.642293 0.250000 0.875215
O O15 0.725637 0.027409 0.745104
O O16 0.495043 0.041385 0.861682
O O17 0.638688 0.973674 0.950170
O O18 0.233978 0.250000 0.747136
O O19 0.244988 0.515994 0.935038
O O20 0.731792 0.250000 0.625374
O O21 0.665120 0.750000 0.061365
#
# Coordination Sequence:
#
# PCOD9160238 Si02
#       8
#     4   4   4   4   4   4   4   4
#     4  12  21  29  42  66 104 149 197 245 298 357
#     4   9  18  32  50  75 110 153 196 241 295 356
#     4  10  19  35  56  81 113 153 195 236 293 359
#     4  12  25  42  65  95 129 163 206 258 312 371
#     4   9  21  41  65  92 123 161 206 257 311 368
#     4   9  18  31  46  67 101 148 191 233 289 352
#     4  11  21  33  52  80 113 152 200 252 303 362
#     4  10  21  42  68  93 123 161 205 256 315 374
#
# _framework density 23.346451999999999
#
# number of rings (size 3 to 8) (size 9 to 14) (size 15 to 20)
#    0.750    1.000    1.250    4.500    0.000    2.500 
#    0.000    3.750    0.000    0.750    0.000    0.000 
#    0.000    0.000    0.000    0.000    0.000    0.000 
#
# Total GULP energy -178984.414531 kJ/mol
# GULP energy per Si atom -5593.262954 kJ/mol
# Density = 2.329331 g / cm^3
# Si number density = 23.346452 Si / 1000 Ang^3
#
#
#
# Elastic Constant Matrix: (Units=GPa)
#
#
# Indices 1 2 3 4 5 6 
#
# 1 94.5133 39.8100 24.5407 0.0000 -10.9521 0.0000
# 2 39.8100 121.6043 21.3661 0.0000 -11.4436 0.0000
# 3 24.5407 21.3661 106.1626 0.0000 -7.4732 0.0000
# 4 0.0000 0.0000 0.0000 26.6258 0.0000 -6.8922
# 5 -10.9521 -11.4436 -7.4732 0.0000 42.6363 0.0000
# 6 0.0000 0.0000 0.0000 -6.8922 0.0000 26.4494
#
#
#
# Elastic Compliance Matrix: (Units=1/GPa)
#
#
# Indices 1 2 3 4 5 6 
#
# 1 0.012900 -0.003669 -0.002106 0.000000 0.001960 0.000000
# 2 -0.003669 0.009742 -0.001007 0.000000 0.001496 0.000000
# 3 -0.002106 -0.001007 0.010177 0.000000 0.000973 0.000000
# 4 0.000000 0.000000 0.000000 0.040274 0.000000 0.010495
# 5 0.001960 0.001496 0.000973 0.000000 0.024530 0.000000
# 6 0.000000 0.000000 0.000000 0.010495 0.000000 0.040543
#
#
# Mechanical properties :
#
#
# Convention : Reuss Voigt Hill
#
# Bulk Modulus (GPa) = 51.93154 54.85710 53.39432
# Shear Modulus (GPa) = 31.61606 34.91319 33.26462
#
# Velocity S-wave (km/s) = 3.68395 3.87129 3.77878
# Velocity P-wave (km/s) = 6.35512 6.59776 6.47758
#
# Compressibility (1/GPa) = 0.01925612
#
# Stress axis : x y z
#
# Youngs Moduli (GPa) = 77.52177 102.64662 98.25645
#
# Poissons Ratio (x) = 0.37657 0.20689
# Poissons Ratio (y) = 0.28440 0.09898
# Poissons Ratio (z) = 0.16323 0.10340
#
# Static dielectric constant tensor:
#      x y z
#    x 1.846230 0.000000 0.123710 
#    y 0.000000 1.775710 0.000000 
#    z 0.123710 0.000000 1.830800 
# 
# From -- ./inp_files/53924.got.cif
#   From: 2010.05.17/outbox.cif.g08.bks.cpg/sg11_27_cif.got.tgz:53924.got - 2010.06.03 12:22:45.
