data_PCOD9160651
_publ_section_title
;
Structure prediction by ZEFSAII (Michael W. Deem and Ramdas Pophale) SiO2 
 PCOD9160651
Probable space group: P 21/M
;
_chemical_formula_sum "Si O2"
_cell_formula_units_Z 32
_cell_length_a 16.185854
_cell_length_b 21.646796
_cell_length_c 9.067587
_cell_angle_alpha 90.000000
_cell_angle_beta 31.969320
_cell_angle_gamma 90.000000
_cell_volume 1682.125141
_symmetry_space_group_name_H-M "P 21/M"
_symmetry_group_IT_number 11
_symmetry_cell_setting 'monoclinic'
loop_
_space_group_symop_operation_xyz
x,y,z
-x,1/2+y,-z
-x,-y,-z
x,1/2-y,z
loop_
_atom_site_type_symbol
_atom_site_label
_atom_site_fract_x
_atom_site_fract_y
_atom_site_fract_z
Si Si1 0.134852 0.050939 0.798052
Si Si2 0.417451 0.438207 0.564221
Si Si3 0.657908 0.400023 0.948248
Si Si4 0.480835 0.819261 0.417711
Si Si5 0.672603 0.979326 0.785457
Si Si6 0.874551 0.820519 0.328417
Si Si7 0.437892 0.351147 0.028590
Si Si8 0.828041 0.178395 0.930137
O O1 0.243968 0.045072 0.775579
O O2 0.232447 0.033982 0.504474
O O3 0.102400 0.124263 0.824139
O O4 0.000000 0.000000 0.000000
O O5 0.500000 0.500000 0.500000
O O6 0.513283 0.418063 0.273039
O O7 0.427765 0.377544 0.651345
O O8 0.580507 0.366338 0.924254
O O9 0.773360 0.360465 0.873069
O O10 0.737825 0.463829 0.778016
O O11 0.526653 0.750000 0.402917
O O12 0.302941 0.829717 0.743196
O O13 0.501198 0.819174 0.210881
O O14 0.641650 0.914624 0.909638
O O15 0.500000 0.000000 0.000000
O O16 0.903809 0.750000 0.231681
O O17 0.701457 0.822009 0.662839
O O18 0.002582 0.835249 0.260494
O O19 0.825329 0.250000 0.892141
#
# Coordination Sequence:
#
# PCOD9160651 Si02
#       8
#     4   4   4   4   4   4   4   4
#     4  11  24  39  59  92 119 154 201 245 297 360
#     4  11  22  38  61  88 117 158 190 245 301 343
#     4  10  19  36  62  84 113 155 200 241 285 354
#     4  10  22  37  60  91 118 152 203 250 289 352
#     4   9  17  35  58  83 113 149 194 239 284 345
#     4  10  21  40  61  83 119 159 192 240 301 355
#     4  10  19  36  61  87 114 151 198 240 290 347
#     4   9  21  38  57  85 118 153 196 242 299 352
#
# _framework density 19.023555999999999
#
# number of rings (size 3 to 8) (size 9 to 14) (size 15 to 20)
#    0.000    2.000    3.750    1.125    5.250    1.500 
#    2.250    1.250    0.000    0.750    0.000    0.000 
#    0.000    0.000    0.000    0.000    0.000    0.000 
#
# Total GULP energy -178256.818320 kJ/mol
# GULP energy per Si atom -5570.525572 kJ/mol
# Density = 1.898026 g / cm^3
# Si number density = 19.023556 Si / 1000 Ang^3
#
#
#
# Elastic Constant Matrix: (Units=GPa)
#
#
# Indices 1 2 3 4 5 6 
#
# 1 94.3102 69.0311 12.8355 0.0000 -4.2877 0.0000
# 2 69.0311 131.5568 25.3572 0.0000 -7.1515 0.0000
# 3 12.8355 25.3572 24.1895 0.0000 5.2272 0.0000
# 4 0.0000 0.0000 0.0000 25.4802 0.0000 1.8233
# 5 -4.2877 -7.1515 5.2272 0.0000 27.3496 0.0000
# 6 0.0000 0.0000 0.0000 1.8233 0.0000 35.6881
#
#
#
# Elastic Compliance Matrix: (Units=1/GPa)
#
#
# Indices 1 2 3 4 5 6 
#
# 1 0.017220 -0.009085 0.000330 0.000000 0.000261 0.000000
# 2 -0.009085 0.014906 -0.011827 0.000000 0.004734 0.000000
# 3 0.000330 -0.011827 0.056556 0.000000 -0.013850 0.000000
# 4 0.000000 0.000000 0.000000 0.039390 0.000000 -0.002012
# 5 0.000261 0.004734 -0.013850 0.000000 0.040489 0.000000
# 6 0.000000 0.000000 0.000000 -0.002012 0.000000 0.028123
#
#
# Mechanical properties :
#
#
# Convention : Reuss Voigt Hill
#
# Bulk Modulus (GPa) = 21.04504 51.61155 36.32830
# Shear Modulus (GPa) = 19.70917 27.22574 23.46746
#
# Velocity S-wave (km/s) = 3.22225 3.78717 3.51607
# Velocity P-wave (km/s) = 4.99305 6.80535 5.96839
#
# Compressibility (1/GPa) = 0.04751713
#
# Stress axis : x y z
#
# Youngs Moduli (GPa) = 58.07075 67.08901 17.68156
#
# Poissons Ratio (x) = 0.60953 -0.00584
# Poissons Ratio (y) = 0.52760 0.20912
# Poissons Ratio (z) = -0.01917 0.79347
#
# Static dielectric constant tensor:
#      x y z
#    x 1.659430 0.000000 0.003220 
#    y 0.000000 1.721930 0.000000 
#    z 0.003220 0.000000 1.664080 
# 
# From -- ./inp_files/23086.got.cif
#   From: 2010.05.17/outbox.cif.g08.bks.cpg/sg11_12_cif.got.tgz:23086.got - 2010.06.03 12:22:45.
