data_PCOD9160570
_publ_section_title
;
Structure prediction by ZEFSAII (Michael W. Deem and Ramdas Pophale) SiO2 
 PCOD9160570
Probable space group: P 21/M
;
_chemical_formula_sum "Si O2"
_cell_formula_units_Z 28
_cell_length_a 18.716493
_cell_length_b 9.149584
_cell_length_c 13.399834
_cell_angle_alpha 90.000000
_cell_angle_beta 141.864322
_cell_angle_gamma 90.000000
_cell_volume 1417.034210
_symmetry_space_group_name_H-M "P 21/M"
_symmetry_group_IT_number 11
_symmetry_cell_setting 'monoclinic'
loop_
_space_group_symop_operation_xyz
x,y,z
-x,1/2+y,-z
-x,-y,-z
x,1/2-y,z
loop_
_atom_site_type_symbol
_atom_site_label
_atom_site_fract_x
_atom_site_fract_y
_atom_site_fract_z
Si Si1 0.687422 0.076298 0.050347
Si Si2 0.677018 0.081919 0.266173
Si Si3 0.139742 0.421560 0.398371
Si Si4 0.945960 0.423131 0.344412
Si Si5 0.495388 0.913972 0.744556
Si Si6 0.383323 0.575580 0.417094
Si Si7 0.123182 0.573156 0.168015
O O1 0.686880 0.250000 0.041919
O O2 0.650994 0.039770 0.124100
O O3 0.817405 0.020590 0.184497
O O4 0.604261 0.016750 0.874317
O O5 0.723003 0.250000 0.315029
O O6 0.567846 0.082185 0.218779
O O7 0.766712 0.975244 0.418070
O O8 0.156125 0.250000 0.391843
O O9 0.140900 0.519328 0.301130
O O10 0.020245 0.440205 0.326556
O O11 0.940617 0.250000 0.360802
O O12 0.000000 0.500000 0.500000
O O13 0.536136 0.750000 0.769186
O O14 0.404748 0.949952 0.558869
O O15 0.500000 0.500000 0.500000
O O16 0.390510 0.750000 0.404539
O O17 0.247262 0.533059 0.249157
O O18 0.113411 0.750000 0.151241
O O19 0.000000 0.500000 0.000000
#
# Coordination Sequence:
#
# PCOD9160570 Si02
#       7
#     4   4   4   4   4   4   4
#     4  10  21  35  55  85 120 160 200 242 295 350
#     4  10  19  36  59  82 117 159 198 241 294 351
#     4  11  22  36  60  92 120 154 202 249 300 361
#     4  10  21  36  55  82 119 158 201 248 295 352
#     4  10  21  38  58  84 118 155 198 244 296 357
#     4  10  23  43  67  93 124 161 204 259 318 375
#     4  11  24  45  69  94 126 162 206 261 317 378
#
# _framework density 19.75958
#
# number of rings (size 3 to 8) (size 9 to 14) (size 15 to 20)
#    0.000    1.714    2.857    1.286    0.000    5.143 
#    0.000    4.286    0.000    0.000    0.000    0.000 
#    0.000    0.000    0.000    0.000    0.000    0.000 
#
# Total GULP energy -156051.466837 kJ/mol
# GULP energy per Si atom -5573.266673 kJ/mol
# Density = 1.971461 g / cm^3
# Si number density = 19.759580 Si / 1000 Ang^3
#
#
#
# Elastic Constant Matrix: (Units=GPa)
#
#
# Indices 1 2 3 4 5 6 
#
# 1 58.0949 36.3556 24.4053 0.0000 23.3770 0.0000
# 2 36.3556 41.4392 45.4453 0.0000 12.8070 0.0000
# 3 24.4053 45.4453 111.6960 0.0000 23.0425 0.0000
# 4 0.0000 0.0000 0.0000 37.6916 0.0000 -0.0283
# 5 23.3770 12.8070 23.0425 0.0000 24.2111 0.0000
# 6 0.0000 0.0000 0.0000 -0.0283 0.0000 25.0508
#
#
#
# Elastic Compliance Matrix: (Units=1/GPa)
#
#
# Indices 1 2 3 4 5 6 
#
# 1 0.087708 -0.091032 0.031619 0.000000 -0.066625 0.000000
# 2 -0.091032 0.139238 -0.049398 0.000000 0.061257 0.000000
# 3 0.031619 -0.049398 0.028681 0.000000 -0.031696 0.000000
# 4 0.000000 0.000000 0.000000 0.026531 0.000000 0.000030
# 5 -0.066625 0.061257 -0.031696 0.000000 0.103396 0.000000
# 6 0.000000 0.000000 0.000000 0.000030 0.000000 0.039919
#
#
# Mechanical properties :
#
#
# Convention : Reuss Voigt Hill
#
# Bulk Modulus (GPa) = 26.31327 47.07138 36.69232
# Shear Modulus (GPa) = 7.62468 24.39230 16.00849
#
# Velocity S-wave (km/s) = 1.96650 3.51729 2.84943
# Velocity P-wave (km/s) = 4.30137 6.35365 5.42543
#
# Compressibility (1/GPa) = 0.03800364
#
# Stress axis : x y z
#
# Youngs Moduli (GPa) = 11.40152 7.18193 34.86570
#
# Poissons Ratio (x) = 0.65379 -1.10240
# Poissons Ratio (y) = 1.03791 1.72230
# Poissons Ratio (z) = -0.36050 0.35477
#
# Static dielectric constant tensor:
#      x y z
#    x 1.735190 0.000000 0.042640 
#    y 0.000000 1.684510 0.000000 
#    z 0.042640 0.000000 1.711770 
# 
# From -- ./inp_files/54611.got.cif
#   From: 2010.05.17/outbox.cif.g08.bks.cpg/sg11_28_cif.got.tgz:54611.got - 2010.06.03 12:22:45.
