data_PCOD9160145
_publ_section_title
;
Structure prediction by ZEFSAII (Michael W. Deem and Ramdas Pophale) SiO2 
 PCOD9160145
Probable space group: P 21/M
;
_chemical_formula_sum "Si O2"
_cell_formula_units_Z 28
_cell_length_a 23.380508
_cell_length_b 11.484893
_cell_length_c 30.193374
_cell_angle_alpha 90.000000
_cell_angle_beta 169.719517
_cell_angle_gamma 90.000000
_cell_volume 1446.940284
_symmetry_space_group_name_H-M "P 21/M"
_symmetry_group_IT_number 11
_symmetry_cell_setting 'monoclinic'
loop_
_space_group_symop_operation_xyz
x,y,z
-x,1/2+y,-z
-x,-y,-z
x,1/2-y,z
loop_
_atom_site_type_symbol
_atom_site_label
_atom_site_fract_x
_atom_site_fract_y
_atom_site_fract_z
Si Si1 0.275899 0.884067 0.025269
Si Si2 0.620316 0.113905 0.064126
Si Si3 0.369820 0.113408 0.613577
Si Si4 0.702319 0.052887 0.587573
Si Si5 0.198861 0.629025 0.242210
Si Si6 0.304741 0.446660 0.205994
Si Si7 0.789731 0.882048 0.338620
O O1 0.165723 0.750000 0.943873
O O2 0.413849 0.917227 0.178724
O O3 0.560334 0.888046 0.206514
O O4 0.991197 0.968458 0.794308
O O5 0.588168 0.250000 0.057773
O O6 0.997413 0.095742 0.341653
O O7 0.423362 0.114003 0.868200
O O8 0.500000 0.000000 0.000000
O O9 0.415154 0.250000 0.639878
O O10 0.488388 0.044347 0.661266
O O11 0.418376 0.974639 0.392140
O O12 0.536537 0.111312 0.418885
O O13 0.826035 0.123726 0.723931
O O14 0.362463 0.750000 0.354304
O O15 0.861348 0.623478 0.960038
O O16 0.000000 0.500000 0.000000
O O17 0.943121 0.750000 0.456446
O O18 0.000000 0.000000 0.500000
#
# Coordination Sequence:
#
# PCOD9160145 Si02
#       7
#     4   4   4   4   4   4   4
#     4  10  19  34  60  88 114 148 195 247 297 349
#     4  10  21  38  62  92 125 159 202 254 313 373
#     4  10  20  36  60  88 117 153 199 251 302 364
#     4  10  20  36  57  82 109 147 193 239 291 346
#     4  10  21  37  54  78 114 150 189 239 293 352
#     4  10  21  36  55  83 117 153 196 245 298 353
#     4  10  21  37  59  89 121 156 198 249 305 367
#
# _framework density 19.351178000000001
#
# number of rings (size 3 to 8) (size 9 to 14) (size 15 to 20)
#    0.000    2.000    1.429    2.143    0.000    6.286 
#    0.000    1.429    0.000    3.429    0.000    0.000 
#    0.000    0.000    0.000    0.000    0.000    0.000 
#
# Total GULP energy -155939.661221 kJ/mol
# GULP energy per Si atom -5569.273615 kJ/mol
# Density = 1.930713 g / cm^3
# Si number density = 19.351178 Si / 1000 Ang^3
#
#
#
# Elastic Constant Matrix: (Units=GPa)
#
#
# Indices 1 2 3 4 5 6 
#
# 1 94.3323 46.5992 34.6174 0.0000 -16.2375 0.0000
# 2 46.5992 107.1788 50.3888 0.0000 -3.9793 0.0000
# 3 34.6174 50.3888 102.7508 0.0000 -20.7552 0.0000
# 4 0.0000 0.0000 0.0000 104.0699 0.0000 65.2247
# 5 -16.2375 -3.9793 -20.7552 0.0000 37.8308 0.0000
# 6 0.0000 0.0000 0.0000 65.2247 0.0000 49.3638
#
#
#
# Elastic Compliance Matrix: (Units=1/GPa)
#
#
# Indices 1 2 3 4 5 6 
#
# 1 0.014693 -0.005660 -0.001148 0.000000 0.005081 0.000000
# 2 -0.005660 0.014476 -0.006045 0.000000 -0.004223 0.000000
# 3 -0.001148 -0.006045 0.014458 0.000000 0.006803 0.000000
# 4 0.000000 0.000000 0.000000 0.055903 0.000000 -0.073866
# 5 0.005081 -0.004223 0.006803 0.000000 0.031903 0.000000
# 6 0.000000 0.000000 0.000000 -0.073866 0.000000 0.117857
#
#
# Mechanical properties :
#
#
# Convention : Reuss Voigt Hill
#
# Bulk Modulus (GPa) = 55.80235 63.05252 59.42744
# Shear Modulus (GPa) = 17.79550 49.76332 33.77941
#
# Velocity S-wave (km/s) = 3.03579 5.07659 4.18257
# Velocity P-wave (km/s) = 6.41774 8.18635 7.35540
#
# Compressibility (1/GPa) = 0.01792039
#
# Stress axis : x y z
#
# Youngs Moduli (GPa) = 68.06166 69.07856 69.16546
#
# Poissons Ratio (x) = 0.39095 0.07942
# Poissons Ratio (y) = 0.38520 0.41814
# Poissons Ratio (z) = 0.07815 0.41761
#
# Static dielectric constant tensor:
#      x y z
#    x 1.673180 0.000000 -0.046960 
#    y 0.000000 1.691600 0.000000 
#    z -0.046960 0.000000 1.675780 
# 
# From -- ./inp_files/47116.got.cif
#   From: 2010.05.17/outbox.cif.g08.bks.cpg/sg11_24_cif.got.tgz:47116.got - 2010.06.03 12:22:45.
