data_PCOD9160614
_publ_section_title
;
Structure prediction by ZEFSAII (Michael W. Deem and Ramdas Pophale) SiO2 
 PCOD9160614
Probable space group: P 21/M
;
_chemical_formula_sum "Si O2"
_cell_formula_units_Z 20
_cell_length_a 5.145526
_cell_length_b 8.441746
_cell_length_c 22.432062
_cell_angle_alpha 90.000000
_cell_angle_beta 83.482264
_cell_angle_gamma 90.000000
_cell_volume 968.088803
_symmetry_space_group_name_H-M "P 21/M"
_symmetry_group_IT_number 11
_symmetry_cell_setting 'monoclinic'
loop_
_space_group_symop_operation_xyz
x,y,z
-x,1/2+y,-z
-x,-y,-z
x,1/2-y,z
loop_
_atom_site_type_symbol
_atom_site_label
_atom_site_fract_x
_atom_site_fract_y
_atom_site_fract_z
Si Si1 0.732723 0.559821 0.535310
Si Si2 0.824751 0.936296 0.126543
Si Si3 0.599596 0.557616 0.671786
Si Si4 0.939937 0.058120 0.255244
Si Si5 0.360296 0.063013 0.062979
O O1 0.500000 0.500000 0.500000
O O2 0.733484 0.750000 0.536420
O O3 0.689190 0.502736 0.604356
O O4 0.000000 0.500000 0.500000
O O5 0.776312 0.750000 0.122637
O O6 0.893841 0.983921 0.192120
O O7 0.565605 0.025262 0.110463
O O8 0.080426 0.982505 0.081499
O O9 0.612078 0.750000 0.670502
O O10 0.304132 0.515867 0.696054
O O11 0.795829 0.505859 0.718832
O O12 0.945624 0.250000 0.248272
O O13 0.318366 0.250000 0.059819
O O14 0.500000 0.000000 0.000000
#
# Coordination Sequence:
#
# PCOD9160614 Si02
#       5
#     4   4   4   4   4
#     4  11  22  39  61  89 121 159 202 251 304 363
#     4  12  25  42  63  94 129 161 198 251 308 361
#     4   9  19  35  58  83 114 155 202 245 294 359
#     4  10  19  36  60  85 112 155 205 247 291 355
#     4  12  25  44  67  93 124 164 207 250 298 358
#
# _framework density 20.659264
#
# number of rings (size 3 to 8) (size 9 to 14) (size 15 to 20)
#    0.000    1.200    0.000    7.200    0.000    4.800 
#    0.000    6.000    0.000    0.000    0.000    0.000 
#    0.000    0.000    0.000    0.000    0.000    0.000 
#
# Total GULP energy -111927.432239 kJ/mol
# GULP energy per Si atom -5596.371612 kJ/mol
# Density = 2.061224 g / cm^3
# Si number density = 20.659264 Si / 1000 Ang^3
#
#
#
# Elastic Constant Matrix: (Units=GPa)
#
#
# Indices 1 2 3 4 5 6 
#
# 1 63.7216 -8.4090 -27.3996 0.0000 2.1099 0.0000
# 2 -8.4090 53.9268 3.4170 0.0000 -4.0629 0.0000
# 3 -27.3996 3.4170 60.3730 0.0000 0.5379 0.0000
# 4 0.0000 0.0000 0.0000 33.4603 0.0000 -0.6033
# 5 2.1099 -4.0629 0.5379 0.0000 41.6870 0.0000
# 6 0.0000 0.0000 0.0000 -0.6033 0.0000 27.5498
#
#
#
# Elastic Compliance Matrix: (Units=1/GPa)
#
#
# Indices 1 2 3 4 5 6 
#
# 1 0.019869 0.002469 0.008885 0.000000 -0.000880 0.000000
# 2 0.002469 0.019057 0.000026 0.000000 0.001732 0.000000
# 3 0.008885 0.000026 0.020601 0.000000 -0.000713 0.000000
# 4 0.000000 0.000000 0.000000 0.029898 0.000000 0.000655
# 5 -0.000880 0.001732 -0.000713 0.000000 0.024211 0.000000
# 6 0.000000 0.000000 0.000000 0.000655 0.000000 0.036312
#
#
# Mechanical properties :
#
#
# Convention : Reuss Voigt Hill
#
# Bulk Modulus (GPa) = 12.15233 12.58201 12.36717
# Shear Modulus (GPa) = 32.33809 34.56697 33.45253
#
# Velocity S-wave (km/s) = 3.96069 4.09491 4.02836
# Velocity P-wave (km/s) = 5.17794 5.33490 5.25701
#
# Compressibility (1/GPa) = 0.08228877
#
# Stress axis : x y z
#
# Youngs Moduli (GPa) = 50.33016 52.47284 48.54123
#
# Poissons Ratio (x) = -0.12955 -0.43130
# Poissons Ratio (y) = -0.12426 -0.00128
# Poissons Ratio (z) = -0.44720 -0.00139
#
# Static dielectric constant tensor:
#      x y z
#    x 1.699240 0.000000 0.004680 
#    y 0.000000 1.710030 0.000000 
#    z 0.004680 0.000000 1.726730 
# 
# From -- ./inp_files/62466.got.cif
#   From: 2010.05.17/outbox.cif.g08.bks.cpg/sg11_32_cif.got.tgz:62466.got - 2010.06.03 12:22:45.
