data_PCOD9160101
_publ_section_title
;
Structure prediction by ZEFSAII (Michael W. Deem and Ramdas Pophale) SiO2 
 PCOD9160101
Probable space group: P 21/M
;
_chemical_formula_sum "Si O2"
_cell_formula_units_Z 24
_cell_length_a 10.356795
_cell_length_b 9.006592
_cell_length_c 14.381966
_cell_angle_alpha 90.000000
_cell_angle_beta 89.638901
_cell_angle_gamma 90.000000
_cell_volume 1341.514905
_symmetry_space_group_name_H-M "P 21/M"
_symmetry_group_IT_number 11
_symmetry_cell_setting 'monoclinic'
loop_
_space_group_symop_operation_xyz
x,y,z
-x,1/2+y,-z
-x,-y,-z
x,1/2-y,z
loop_
_atom_site_type_symbol
_atom_site_label
_atom_site_fract_x
_atom_site_fract_y
_atom_site_fract_z
Si Si1 0.004978 0.573305 0.100843
Si Si2 0.501016 0.427230 0.101819
Si Si3 0.735883 0.573299 0.209474
Si Si4 0.154601 0.926754 0.398471
Si Si5 0.761819 0.572395 0.786559
Si Si6 0.150851 0.072175 0.594759
O O1 0.026251 0.750000 0.093945
O O2 0.868796 0.549767 0.152851
O O3 0.119205 0.499951 0.159012
O O4 0.000000 0.500000 0.000000
O O5 0.508978 0.250000 0.091538
O O6 0.621160 0.486840 0.160679
O O7 0.369455 0.462737 0.157819
O O8 0.500000 0.500000 0.000000
O O9 0.708346 0.750000 0.207365
O O10 0.765029 0.530367 0.315998
O O11 0.171820 0.750000 0.393524
O O12 0.001075 0.958327 0.384560
O O13 0.233550 0.006474 0.317035
O O14 0.186901 0.988048 0.500424
O O15 0.776559 0.750000 0.783345
O O16 0.161233 0.250000 0.580861
#
# Coordination Sequence:
#
# PCOD9160101 Si02
#       6
#     4   4   4   4   4   4
#     4  11  22  37  57  86 116 146 191 242 291 347
#     4  11  25  42  60  84 115 155 200 240 289 348
#     4  10  21  39  60  84 117 152 191 239 290 343
#     4  10  19  34  58  89 119 151 191 237 289 346
#     4  11  23  39  58  84 117 154 194 240 289 343
#     4   9  18  35  57  86 120 152 186 235 293 345
#
# _framework density 17.890222000000001
#
# number of rings (size 3 to 8) (size 9 to 14) (size 15 to 20)
#    0.000    1.667    1.667    3.000    0.000    9.333 
#    0.000    0.833    0.000    0.000    0.000    0.000 
#    0.000    0.000    0.000    0.000    0.000    0.000 
#
# Total GULP energy -134105.986687 kJ/mol
# GULP energy per Si atom -5587.749445 kJ/mol
# Density = 1.784950 g / cm^3
# Si number density = 17.890222 Si / 1000 Ang^3
#
#
#
# Elastic Constant Matrix: (Units=GPa)
#
#
# Indices 1 2 3 4 5 6 
#
# 1 103.7642 69.7848 75.7005 0.0000 -3.6840 0.0000
# 2 69.7848 72.0973 74.2489 0.0000 -15.3354 0.0000
# 3 75.7005 74.2489 172.1944 0.0000 -10.7904 0.0000
# 4 0.0000 0.0000 0.0000 37.9960 0.0000 2.5686
# 5 -3.6840 -15.3354 -10.7904 0.0000 27.5178 0.0000
# 6 0.0000 0.0000 0.0000 2.5686 0.0000 30.0033
#
#
#
# Elastic Compliance Matrix: (Units=1/GPa)
#
#
# Indices 1 2 3 4 5 6 
#
# 1 0.032197 -0.033756 -0.000521 0.000000 -0.014706 0.000000
# 2 -0.033756 0.063300 -0.010792 0.000000 0.026525 0.000000
# 3 -0.000521 -0.010792 0.010568 0.000000 -0.001940 0.000000
# 4 0.000000 0.000000 0.000000 0.026472 0.000000 -0.002266
# 5 -0.014706 0.026525 -0.001940 0.000000 0.048393 0.000000
# 6 0.000000 0.000000 0.000000 -0.002266 0.000000 0.033524
#
#
# Mechanical properties :
#
#
# Convention : Reuss Voigt Hill
#
# Bulk Modulus (GPa) = 62.78606 87.50270 75.14438
# Shear Modulus (GPa) = 16.13418 27.65818 21.89618
#
# Velocity S-wave (km/s) = 3.00633 3.93618 3.50225
# Velocity P-wave (km/s) = 6.87183 8.34716 7.64517
#
# Compressibility (1/GPa) = 0.01592710
#
# Stress axis : x y z
#
# Youngs Moduli (GPa) = 31.05874 15.79779 94.62236
#
# Poissons Ratio (x) = 0.53327 0.04927
# Poissons Ratio (y) = 1.04842 1.02120
# Poissons Ratio (z) = 0.01617 0.17050
#
# Static dielectric constant tensor:
#      x y z
#    x 1.586930 0.000000 -0.001440 
#    y 0.000000 1.594900 0.000000 
#    z -0.001440 0.000000 1.602990 
# 
# From -- ./inp_files/20500.got.cif
#   From: 2010.05.17/outbox.cif.g08.bks.cpg/sg11_11_cif.got.tgz:20500.got - 2010.06.03 12:22:45.
