data_PCOD9160139
_publ_section_title
;
Structure prediction by ZEFSAII (Michael W. Deem and Ramdas Pophale) SiO2 
 PCOD9160139
Probable space group: P 21/M
;
_chemical_formula_sum "Si O2"
_cell_formula_units_Z 24
_cell_length_a 12.032336
_cell_length_b 23.064148
_cell_length_c 5.283929
_cell_angle_alpha 90.000000
_cell_angle_beta 65.007516
_cell_angle_gamma 90.000000
_cell_volume 1329.066199
_symmetry_space_group_name_H-M "P 21/M"
_symmetry_group_IT_number 11
_symmetry_cell_setting 'monoclinic'
loop_
_space_group_symop_operation_xyz
x,y,z
-x,1/2+y,-z
-x,-y,-z
x,1/2-y,z
loop_
_atom_site_type_symbol
_atom_site_label
_atom_site_fract_x
_atom_site_fract_y
_atom_site_fract_z
Si Si1 0.321091 0.070477 0.917949
Si Si2 0.262738 0.611319 0.978906
Si Si3 0.081539 0.506307 0.171676
Si Si4 0.312230 0.682604 0.433655
Si Si5 0.463707 0.420548 0.286676
Si Si6 0.590298 0.683138 0.347482
O O1 0.315448 0.140490 0.884298
O O2 0.396964 0.051732 0.594454
O O3 0.401220 0.059494 0.090104
O O4 0.190262 0.041025 0.062011
O O5 0.150094 0.567938 0.106583
O O6 0.272913 0.652703 0.211926
O O7 0.259593 0.648052 0.724304
O O8 0.390249 0.574893 0.853714
O O9 0.000000 0.500000 0.500000
O O10 0.000000 0.500000 0.000000
O O11 0.278114 0.750000 0.472892
O O12 0.460166 0.679423 0.325793
O O13 0.436600 0.351528 0.365114
O O14 0.623855 0.750000 0.345069
#
# Coordination Sequence:
#
# PCOD9160139 Si02
#       6
#     4   4   4   4   4   4
#     4  10  20  37  57  86 120 149 194 240 289 356
#     4  11  20  38  59  90 123 155 192 244 298 359
#     4  12  27  43  61  81 112 170 212 251 288 339
#     4  10  19  34  59  95 127 150 180 232 308 378
#     4   9  18  33  55  92 117 144 179 235 310 346
#     4   8  17  31  55  88 124 147 175 226 300 369
#
# _framework density 18.057791000000002
#
# number of rings (size 3 to 8) (size 9 to 14) (size 15 to 20)
#    1.000    1.000    1.667    2.500    0.000    2.667 
#    0.000    0.000    0.000    6.000    0.000    0.000 
#    0.000    0.000    0.000    0.000    0.000    0.000 
#
# Total GULP energy -133855.816786 kJ/mol
# GULP energy per Si atom -5577.325699 kJ/mol
# Density = 1.801669 g / cm^3
# Si number density = 18.057791 Si / 1000 Ang^3
#
#
#
# Elastic Constant Matrix: (Units=GPa)
#
#
# Indices 1 2 3 4 5 6 
#
# 1 86.3940 35.5093 65.6947 0.0000 -1.9335 0.0000
# 2 35.5093 111.9004 51.4014 0.0000 -14.8407 0.0000
# 3 65.6947 51.4014 157.1409 0.0000 7.1927 0.0000
# 4 0.0000 0.0000 0.0000 18.8044 0.0000 1.1714
# 5 -1.9335 -14.8407 7.1927 0.0000 30.3736 0.0000
# 6 0.0000 0.0000 0.0000 1.1714 0.0000 18.1649
#
#
#
# Elastic Compliance Matrix: (Units=1/GPa)
#
#
# Indices 1 2 3 4 5 6 
#
# 1 0.017653 -0.002318 -0.006694 0.000000 0.001576 0.000000
# 2 -0.002318 0.012035 -0.003265 0.000000 0.006506 0.000000
# 3 -0.006694 -0.003265 0.010436 0.000000 -0.004493 0.000000
# 4 0.000000 0.000000 0.000000 0.053394 0.000000 -0.003443
# 5 0.001576 0.006506 -0.004493 0.000000 0.037267 0.000000
# 6 0.000000 0.000000 0.000000 -0.003443 0.000000 0.055273
#
#
# Mechanical properties :
#
#
# Convention : Reuss Voigt Hill
#
# Bulk Modulus (GPa) = 64.22911 73.40515 68.81713
# Shear Modulus (GPa) = 23.16939 26.99056 25.07998
#
# Velocity S-wave (km/s) = 3.58588 3.87030 3.73080
# Velocity P-wave (km/s) = 7.26571 7.79170 7.53330
#
# Compressibility (1/GPa) = 0.01556926
#
# Stress axis : x y z
#
# Youngs Moduli (GPa) = 56.64746 83.09170 95.82168
#
# Poissons Ratio (x) = 0.19259 0.64144
# Poissons Ratio (y) = 0.13130 0.31290
# Poissons Ratio (z) = 0.37920 0.27133
#
# Static dielectric constant tensor:
#      x y z
#    x 1.581520 0.000000 0.009760 
#    y 0.000000 1.654410 0.000000 
#    z 0.009760 0.000000 1.615880 
# 
# From -- ./inp_files/4819.got.cif
#   From: 2010.05.17/outbox.cif.g08.bks.cpg/sg11_3_cif.got.tgz:4819.got - 2010.06.03 12:22:45.
