data_PCOD9160546
_publ_section_title
;
Structure prediction by ZEFSAII (Michael W. Deem and Ramdas Pophale) SiO2 
 PCOD9160546
Probable space group: P 21/M
;
_chemical_formula_sum "Si O2"
_cell_formula_units_Z 32
_cell_length_a 11.348016
_cell_length_b 7.711983
_cell_length_c 14.959970
_cell_angle_alpha 90.000000
_cell_angle_beta 78.683329
_cell_angle_gamma 90.000000
_cell_volume 1283.777729
_symmetry_space_group_name_H-M "P 21/M"
_symmetry_group_IT_number 11
_symmetry_cell_setting 'monoclinic'
loop_
_space_group_symop_operation_xyz
x,y,z
-x,1/2+y,-z
-x,-y,-z
x,1/2-y,z
loop_
_atom_site_type_symbol
_atom_site_label
_atom_site_fract_x
_atom_site_fract_y
_atom_site_fract_z
Si Si1 0.104173 0.462781 0.306613
Si Si2 0.530823 0.457182 0.136230
Si Si3 0.204767 0.958747 0.956165
Si Si4 0.312638 0.948853 0.632367
Si Si5 0.892207 0.038016 0.208507
Si Si6 0.554674 0.447187 0.652661
Si Si7 0.720972 0.543136 0.868620
Si Si8 0.796599 0.946526 0.530502
O O1 0.102947 0.250000 0.310251
O O2 0.220385 0.518505 0.232152
O O3 0.113904 0.520653 0.407552
O O4 0.994508 0.521231 0.261175
O O5 0.538314 0.250000 0.123040
O O6 0.661450 0.525618 0.090361
O O7 0.495696 0.491590 0.244312
O O8 0.414268 0.526600 0.099891
O O9 0.204779 0.750000 0.951763
O O10 0.112453 0.020211 0.893767
O O11 0.192410 0.007256 0.061095
O O12 0.344971 0.750000 0.644485
O O13 0.233779 0.012076 0.727239
O O14 0.438213 0.045675 0.605749
O O15 0.228392 0.957472 0.558007
O O16 0.898238 0.250000 0.208114
O O17 0.596427 0.250000 0.652293
O O18 0.666617 0.553874 0.599220
O O19 0.711621 0.750000 0.862822
O O20 0.831092 0.750000 0.503486
#
# Coordination Sequence:
#
# PCOD9160546 Si02
#       8
#     4   4   4   4   4   4   4   4
#     4   9  19  37  60  83 112 154 196 235 284 340
#     4  10  19  36  58  83 114 155 190 229 292 349
#     4  10  20  35  57  84 116 151 191 233 284 342
#     4  11  22  39  61  86 118 152 190 234 285 343
#     4   9  19  37  60  83 112 154 196 235 284 340
#     4  12  23  36  59  89 118 149 189 235 286 343
#     4  10  20  35  57  84 116 151 191 233 284 342
#     4  11  22  39  61  86 118 152 190 234 285 343
#
# _framework density 24.926431000000001
#
# number of rings (size 3 to 8) (size 9 to 14) (size 15 to 20)
#    0.000    1.750    2.500    2.625    0.000    2.000 
#    0.000    0.000    0.000    5.250    0.000    0.000 
#    0.000    0.000    0.000    0.000    0.000    0.000 
#
# Total GULP energy -178940.989917 kJ/mol
# GULP energy per Si atom -5591.905935 kJ/mol
# Density = 2.486970 g / cm^3
# Si number density = 24.926431 Si / 1000 Ang^3
#
#
#
# Elastic Constant Matrix: (Units=GPa)
#
#
# Indices 1 2 3 4 5 6 
#
# 1 75.6723 5.0921 8.6426 0.0000 33.5372 0.0000
# 2 5.0921 53.8820 -10.5136 0.0000 0.8736 0.0000
# 3 8.6426 -10.5136 112.5241 0.0000 34.6844 0.0000
# 4 0.0000 0.0000 0.0000 21.6749 0.0000 11.4401
# 5 33.5372 0.8736 34.6844 0.0000 45.8683 0.0000
# 6 0.0000 0.0000 0.0000 11.4401 0.0000 8.7861
#
#
#
# Elastic Compliance Matrix: (Units=1/GPa)
#
#
# Indices 1 2 3 4 5 6 
#
# 1 0.020915 -0.000913 0.003933 0.000000 -0.018249 0.000000
# 2 -0.000913 0.019117 0.002298 0.000000 -0.001434 0.000000
# 3 0.003933 0.002298 0.012648 0.000000 -0.012483 0.000000
# 4 0.000000 0.000000 0.000000 0.147516 0.000000 -0.192077
# 5 -0.018249 -0.001434 -0.012483 0.000000 0.044611 0.000000
# 6 0.000000 0.000000 0.000000 -0.192077 0.000000 0.363915
#
#
# Mechanical properties :
#
#
# Convention : Reuss Voigt Hill
#
# Bulk Modulus (GPa) = 15.79360 27.61340 21.70350
# Shear Modulus (GPa) = 8.07507 31.18968 19.63238
#
# Velocity S-wave (km/s) = 1.80183 3.54117 2.80949
# Velocity P-wave (km/s) = 3.26782 5.27464 4.38751
#
# Compressibility (1/GPa) = 0.06331677
#
# Stress axis : x y z
#
# Youngs Moduli (GPa) = 47.81290 52.30913 79.06700
#
# Poissons Ratio (x) = 0.04777 -0.31100
# Poissons Ratio (y) = 0.04366 -0.18173
# Poissons Ratio (z) = -0.18806 -0.12023
#
# Static dielectric constant tensor:
#      x y z
#    x 2.022930 0.000000 0.035030 
#    y 0.000000 1.889350 0.000000 
#    z 0.035030 0.000000 1.968820 
# 
# From -- ./inp_files/38182.got.cif
#   From: 2010.05.17/outbox.cif.g08.bks.cpg/sg11_20_cif.got.tgz:38182.got - 2010.06.03 12:22:45.
