data_PCOD9160048
_publ_section_title
;
Structure prediction by ZEFSAII (Michael W. Deem and Ramdas Pophale) SiO2 
 PCOD9160048
Probable space group: P 21/M
;
_chemical_formula_sum "Si O2"
_cell_formula_units_Z 28
_cell_length_a 9.409775
_cell_length_b 30.057333
_cell_length_c 5.053341
_cell_angle_alpha 90.000000
_cell_angle_beta 70.525085
_cell_angle_gamma 90.000000
_cell_volume 1347.479369
_symmetry_space_group_name_H-M "P 21/M"
_symmetry_group_IT_number 11
_symmetry_cell_setting 'monoclinic'
loop_
_space_group_symop_operation_xyz
x,y,z
-x,1/2+y,-z
-x,-y,-z
x,1/2-y,z
loop_
_atom_site_type_symbol
_atom_site_label
_atom_site_fract_x
_atom_site_fract_y
_atom_site_fract_z
Si Si1 0.942742 0.548512 0.428281
Si Si2 0.108903 0.577408 0.805897
Si Si3 0.623173 0.019828 0.232791
Si Si4 0.457854 0.347563 0.813019
Si Si5 0.357449 0.064190 0.125546
Si Si6 0.351000 0.750000 0.694678
Si Si7 0.329043 0.654479 0.821782
Si Si8 0.448336 0.250000 0.926786
O O1 0.766384 0.560145 0.567699
O O2 0.000000 0.500000 0.500000
O O3 0.023786 0.581909 0.584323
O O4 0.001604 0.557577 0.098964
O O5 0.244456 0.542260 0.689631
O O6 0.195332 0.620543 0.854781
O O7 0.529037 0.055176 0.116397
O O8 0.500000 0.000000 0.500000
O O9 0.681000 0.979437 0.021442
O O10 0.533893 0.352641 0.476839
O O11 0.380398 0.298784 0.899640
O O12 0.358565 0.389977 0.961799
O O13 0.596608 0.347436 0.935815
O O14 0.270637 0.704264 0.807190
O O15 0.406619 0.750000 0.358805
O O16 0.497180 0.750000 0.802449
#
# Coordination Sequence:
#
# PCOD9160048 Si02
#       8
#     4   4   4   4   4   2   4   2
#     4  12  26  42  56  80 119 162 194 232 286 352
#     4  12  24  40  60  81 117 154 194 237 282 343
#     4  11  23  37  60  83 111 148 193 249 281 328
#     4  10  19  34  57  87 112 145 184 242 285 343
#     4  11  24  37  57  84 114 149 195 238 287 338
#     4   8  16  30  54  84 114 142 174 239 289 336
#     4  10  19  35  58  87 115 143 191 236 290 336
#     4   8  16  30  52  82 116 138 176 229 299 336
#
# _framework density 20.779539
#
# number of rings (size 3 to 8) (size 9 to 14) (size 15 to 20)
#    0.000    1.429    2.857    3.000    4.000    0.000 
#    0.000    0.000    0.000    1.714    0.000    0.000 
#    0.000    0.000    0.000    0.000    0.000    0.000 
#
# Total GULP energy -156394.059042 kJ/mol
# GULP energy per Si atom -5585.502109 kJ/mol
# Density = 2.073224 g / cm^3
# Si number density = 20.779539 Si / 1000 Ang^3
#
#
#
# Elastic Constant Matrix: (Units=GPa)
#
#
# Indices 1 2 3 4 5 6 
#
# 1 60.3737 6.4416 7.6272 0.0000 0.5494 0.0000
# 2 6.4416 112.1939 1.9958 0.0000 -20.4922 0.0000
# 3 7.6272 1.9958 75.9532 0.0000 -4.9430 0.0000
# 4 0.0000 0.0000 0.0000 24.6064 0.0000 1.6654
# 5 0.5494 -20.4922 -4.9430 0.0000 31.3363 0.0000
# 6 0.0000 0.0000 0.0000 1.6654 0.0000 16.3052
#
#
#
# Elastic Compliance Matrix: (Units=1/GPa)
#
#
# Indices 1 2 3 4 5 6 
#
# 1 0.016924 -0.001187 -0.001756 0.000000 -0.001350 0.000000
# 2 -0.001187 0.010208 0.000290 0.000000 0.006742 0.000000
# 3 -0.001756 0.000290 0.013488 0.000000 0.002348 0.000000
# 4 0.000000 0.000000 0.000000 0.040923 0.000000 -0.004180
# 5 -0.001350 0.006742 0.002348 0.000000 0.036715 0.000000
# 6 0.000000 0.000000 0.000000 -0.004180 0.000000 0.061757
#
#
# Mechanical properties :
#
#
# Convention : Reuss Voigt Hill
#
# Bulk Modulus (GPa) = 28.31872 31.18332 29.75102
# Shear Modulus (GPa) = 25.36892 29.94666 27.65779
#
# Velocity S-wave (km/s) = 3.49787 3.80038 3.65226
# Velocity P-wave (km/s) = 5.47460 5.85632 5.66867
#
# Compressibility (1/GPa) = 0.03531233
#
# Stress axis : x y z
#
# Youngs Moduli (GPa) = 59.08659 97.96710 74.14254
#
# Poissons Ratio (x) = 0.11629 0.13021
# Poissons Ratio (y) = 0.07014 -0.02148
# Poissons Ratio (z) = 0.10377 -0.02838
#
# Static dielectric constant tensor:
#      x y z
#    x 1.747400 0.000000 0.036810 
#    y 0.000000 1.832550 0.000000 
#    z 0.036810 0.000000 1.782460 
# 
# From -- ./inp_files/3226.got.cif
#   From: 2010.05.17/outbox.cif.g08.bks.cpg/sg11_2_cif.got.tgz:3226.got - 2010.06.03 12:22:45.
