data_PCOD9160591
_publ_section_title
;
Structure prediction by ZEFSAII (Michael W. Deem and Ramdas Pophale) SiO2 
 PCOD9160591
Probable space group: P 21/M
;
_chemical_formula_sum "Si O2"
_cell_formula_units_Z 26
_cell_length_a 6.282638
_cell_length_b 11.996313
_cell_length_c 17.642608
_cell_angle_alpha 90.000000
_cell_angle_beta 59.232948
_cell_angle_gamma 90.000000
_cell_volume 1142.547532
_symmetry_space_group_name_H-M "P 21/M"
_symmetry_group_IT_number 11
_symmetry_cell_setting 'monoclinic'
loop_
_space_group_symop_operation_xyz
x,y,z
-x,1/2+y,-z
-x,-y,-z
x,1/2-y,z
loop_
_atom_site_type_symbol
_atom_site_label
_atom_site_fract_x
_atom_site_fract_y
_atom_site_fract_z
Si Si1 0.771136 0.953262 0.933457
Si Si2 0.464961 0.081433 0.174418
Si Si3 0.290585 0.626745 0.457551
Si Si4 0.218981 0.120091 0.839933
Si Si5 0.073644 0.750000 0.935365
Si Si6 0.828670 0.873661 0.330731
Si Si7 0.867134 0.949083 0.638127
O O1 0.741519 0.908448 0.852842
O O2 0.864594 0.850269 0.965823
O O3 0.963829 0.055195 0.902913
O O4 0.500000 0.000000 0.000000
O O5 0.703444 0.154200 0.110623
O O6 0.347744 0.112860 0.277076
O O7 0.562362 0.953766 0.164621
O O8 0.264699 0.750000 0.426300
O O9 0.579093 0.617513 0.426362
O O10 0.236364 0.526855 0.409934
O O11 0.092499 0.619098 0.560832
O O12 0.203849 0.250000 0.864873
O O13 0.247348 0.116153 0.743270
O O14 0.935631 0.750000 0.321105
O O15 0.014531 0.967178 0.322472
#
# Coordination Sequence:
#
# PCOD9160591 Si02
#       7
#     4   4   4   4   2   4   4
#     4  11  25  47  70  98 133 172 217 270 329 394
#     4  11  23  44  68  95 132 177 215 268 331 393
#     4  10  22  37  55  88 124 164 219 273 311 372
#     4  10  22  39  65 101 128 165 219 272 328 394
#     4  10  26  46  68 100 134 172 216 274 320 398
#     4  10  19  36  59  87 127 162 211 270 319 373
#     4  11  21  36  63  86 124 169 214 258 327 383
#
# _framework density 22.756166
#
# number of rings (size 3 to 8) (size 9 to 14) (size 15 to 20)
#    0.000    1.538    3.077    1.385    2.154    3.692 
#    2.769    0.000    6.769    0.000    0.000    0.000 
#    0.000    0.000    0.000    0.000    0.000    0.000 
#
# Total GULP energy -144869.122389 kJ/mol
# GULP energy per Si atom -5571.889323 kJ/mol
# Density = 2.270437 g / cm^3
# Si number density = 22.756166 Si / 1000 Ang^3
#
#
#
# Elastic Constant Matrix: (Units=GPa)
#
#
# Indices 1 2 3 4 5 6 
#
# 1 57.1482 24.5420 20.2516 0.0000 -8.3550 0.0000
# 2 24.5420 126.1901 14.6857 0.0000 -10.9670 0.0000
# 3 20.2516 14.6857 87.6203 0.0000 -17.0685 0.0000
# 4 0.0000 0.0000 0.0000 12.8787 0.0000 8.8975
# 5 -8.3550 -10.9670 -17.0685 0.0000 36.2846 0.0000
# 6 0.0000 0.0000 0.0000 8.8975 0.0000 7.9353
#
#
#
# Elastic Compliance Matrix: (Units=1/GPa)
#
#
# Indices 1 2 3 4 5 6 
#
# 1 0.020588 -0.003393 -0.003816 0.000000 0.001920 0.000000
# 2 -0.003393 0.008774 -0.000354 0.000000 0.001704 0.000000
# 3 -0.003816 -0.000354 0.013389 0.000000 0.005313 0.000000
# 4 0.000000 0.000000 0.000000 0.344546 0.000000 -0.386322
# 5 0.001920 0.001704 0.005313 0.000000 0.031016 0.000000
# 6 0.000000 0.000000 0.000000 -0.386322 0.000000 0.559183
#
#
# Mechanical properties :
#
#
# Convention : Reuss Voigt Hill
#
# Bulk Modulus (GPa) = 36.19954 43.32413 39.76183
# Shear Modulus (GPa) = 4.99086 25.51833 15.25460
#
# Velocity S-wave (km/s) = 1.48255 3.35234 2.59192
# Velocity P-wave (km/s) = 4.34427 5.83643 5.14474
#
# Compressibility (1/GPa) = 0.02762466
#
# Stress axis : x y z
#
# Youngs Moduli (GPa) = 48.57089 113.97584 74.68747
#
# Poissons Ratio (x) = 0.38674 0.28499
# Poissons Ratio (y) = 0.16481 0.02647
# Poissons Ratio (z) = 0.18534 0.04039
#
# Static dielectric constant tensor:
#      x y z
#    x 1.821560 0.000000 0.022830 
#    y 0.000000 1.802090 0.000000 
#    z 0.022830 0.000000 1.981600 
# 
# From -- ./inp_files/8919.got.cif
#   From: 2010.05.17/outbox.cif.g08.bks.cpg/sg11_5_cif.got.tgz:8919.got - 2010.06.03 12:22:45.
