data_PCOD9160820
_publ_section_title
;
Structure prediction by ZEFSAII (Michael W. Deem and Ramdas Pophale) SiO2 
 PCOD9160820
Probable space group: P 21/M
;
_chemical_formula_sum "Si O2"
_cell_formula_units_Z 28
_cell_length_a 14.411302
_cell_length_b 12.835339
_cell_length_c 8.212719
_cell_angle_alpha 90.000000
_cell_angle_beta 127.592896
_cell_angle_gamma 90.000000
_cell_volume 1203.713048
_symmetry_space_group_name_H-M "P 21/M"
_symmetry_group_IT_number 11
_symmetry_cell_setting 'monoclinic'
loop_
_space_group_symop_operation_xyz
x,y,z
-x,1/2+y,-z
-x,-y,-z
x,1/2-y,z
loop_
_atom_site_type_symbol
_atom_site_label
_atom_site_fract_x
_atom_site_fract_y
_atom_site_fract_z
Si Si1 0.664420 0.579672 0.107017
Si Si2 0.193619 0.479296 0.008377
Si Si3 0.181576 0.423898 0.422325
Si Si4 0.402997 0.865942 0.814585
Si Si5 0.032606 0.630035 0.265624
Si Si6 0.046639 0.639353 0.665129
Si Si7 0.629145 0.018702 0.562751
O O1 0.718107 0.597821 0.988146
O O2 0.754947 0.607177 0.342964
O O3 0.642334 0.455799 0.113675
O O4 0.541451 0.634871 0.994429
O O5 0.081381 0.414405 0.953163
O O6 0.132340 0.548039 0.804403
O O7 0.276868 0.554899 0.202128
O O8 0.058395 0.366619 0.315735
O O9 0.289788 0.419422 0.410710
O O10 0.135933 0.544857 0.360208
O O11 0.352981 0.750000 0.777054
O O12 0.386911 0.910792 0.614222
O O13 0.058708 0.750000 0.248696
O O14 0.007378 0.630059 0.434612
O O15 0.106680 0.750000 0.744355
O O16 0.500000 0.000000 0.500000
#
# Coordination Sequence:
#
# PCOD9160820 Si02
#       7
#     4   4   4   4   4   4   4
#     4  10  19  37  65  88 121 158 209 263 304 361
#     4  11  20  39  61  89 125 164 198 250 314 363
#     4  10  20  39  61  89 121 160 200 254 312 367
#     4  10  23  40  61  89 121 167 216 257 306 367
#     4  10  20  36  64  97 122 155 207 259 309 368
#     4  10  20  35  60  92 122 154 202 260 310 364
#     4  11  24  41  61  82 125 168 205 252 309 364
#
# _framework density 23.261358000000001
#
# number of rings (size 3 to 8) (size 9 to 14) (size 15 to 20)
#    0.000    1.714    4.286    0.857    0.000    6.857 
#    0.000    2.857    0.000    3.429    0.000    0.000 
#    0.000    0.000    0.000    0.000    0.000    0.000 
#
# Total GULP energy -155940.713703 kJ/mol
# GULP energy per Si atom -5569.311204 kJ/mol
# Density = 2.320841 g / cm^3
# Si number density = 23.261358 Si / 1000 Ang^3
#
#
#
# Elastic Constant Matrix: (Units=GPa)
#
#
# Indices 1 2 3 4 5 6 
#
# 1 130.0775 0.3553 12.6749 0.0000 7.1386 0.0000
# 2 0.3553 91.4619 13.1593 0.0000 2.8793 0.0000
# 3 12.6749 13.1593 84.0087 0.0000 22.5931 0.0000
# 4 0.0000 0.0000 0.0000 6.5603 0.0000 -11.3636
# 5 7.1386 2.8793 22.5931 0.0000 29.3413 0.0000
# 6 0.0000 0.0000 0.0000 -11.3636 0.0000 -5.7758
#
#
#
# Elastic Compliance Matrix: (Units=1/GPa)
#
#
# Indices 1 2 3 4 5 6 
#
# 1 0.007841 0.000134 -0.000867 0.000000 -0.001253 0.000000
# 2 0.000134 0.011190 -0.001853 0.000000 0.000296 0.000000
# 3 -0.000867 -0.001853 0.015410 0.000000 -0.011473 0.000000
# 4 0.000000 0.000000 0.000000 0.034581 0.000000 -0.068036
# 5 -0.001253 0.000296 -0.011473 0.000000 0.043192 0.000000
# 6 0.000000 0.000000 0.000000 -0.068036 0.000000 -0.039278
#
#
# Mechanical properties :
#
#
# Convention : Reuss Voigt Hill
#
# Bulk Modulus (GPa) = 34.16538 39.76967 36.96752
# Shear Modulus (GPa) = 56.90609 24.64906 40.77758
#
# Velocity S-wave (km/s) = 4.95145 3.25877 4.19145
# Velocity P-wave (km/s) = 6.88540 5.59405 6.27304
#
# Compressibility (1/GPa) = 0.02926940
#
# Stress axis : x y z
#
# Youngs Moduli (GPa) = 127.54119 89.36362 64.89244
#
# Poissons Ratio (x) = -0.01195 0.05625
# Poissons Ratio (y) = -0.01705 0.12022
# Poissons Ratio (z) = 0.11056 0.16556
#
# Static dielectric constant tensor:
#      x y z
#    x 1.922780 0.000000 -0.079780 
#    y 0.000000 1.879650 0.000000 
#    z -0.079780 0.000000 1.955960 
# 
# From -- ./inp_files/22278.got.cif
#   From: 2010.05.17/outbox.cif.g08.bks.cpg/sg11_12_cif.got.tgz:22278.got - 2010.06.03 12:22:45.
