data_PCOD9160123
_publ_section_title
;
Structure prediction by ZEFSAII (Michael W. Deem and Ramdas Pophale) SiO2 
 PCOD9160123
Probable space group: P 21/M
;
_chemical_formula_sum "Si O2"
_cell_formula_units_Z 24
_cell_length_a 10.948788
_cell_length_b 14.012776
_cell_length_c 12.698096
_cell_angle_alpha 90.000000
_cell_angle_beta 141.517040
_cell_angle_gamma 90.000000
_cell_volume 1212.316378
_symmetry_space_group_name_H-M "P 21/M"
_symmetry_group_IT_number 11
_symmetry_cell_setting 'monoclinic'
loop_
_space_group_symop_operation_xyz
x,y,z
-x,1/2+y,-z
-x,-y,-z
x,1/2-y,z
loop_
_atom_site_type_symbol
_atom_site_label
_atom_site_fract_x
_atom_site_fract_y
_atom_site_fract_z
Si Si1 0.461250 0.359598 0.676476
Si Si2 0.333527 0.145855 0.834623
Si Si3 0.822226 0.449529 0.323516
Si Si4 0.536323 0.642657 0.847673
Si Si5 0.957549 0.640186 0.706824
Si Si6 0.170017 0.516661 0.030926
O O1 0.502766 0.250000 0.674805
O O2 0.418138 0.358925 0.773743
O O3 0.263951 0.388309 0.479380
O O4 0.653188 0.423691 0.795986
O O5 0.223109 0.250000 0.763310
O O6 0.252088 0.039362 0.794505
O O7 0.469566 0.150698 0.028707
O O8 0.666752 0.413188 0.304760
O O9 0.000000 0.500000 0.500000
O O10 0.911311 0.368408 0.309916
O O11 0.542335 0.750000 0.808614
O O12 0.720943 0.579465 0.936401
O O13 0.951624 0.750000 0.738617
O O14 0.065818 0.575210 0.866089
O O15 0.000000 0.500000 0.000000
#
# Coordination Sequence:
#
# PCOD9160123 Si02
#       6
#     4   4   4   4   4   4
#     4  10  21  40  63  94 126 154 197 254 308 371
#     4  10  19  34  59  87 120 155 191 239 303 370
#     4  12  20  35  61  93 130 156 191 241 314 380
#     4  11  23  38  57  87 125 160 201 255 310 368
#     4  11  23  39  65  96 123 160 206 250 307 377
#     4  12  25  42  64  85 117 168 219 260 305 352
#
# _framework density 19.796811999999999
#
# number of rings (size 3 to 8) (size 9 to 14) (size 15 to 20)
#    0.000    1.000    5.000    2.500    0.000    4.000 
#    0.000    0.000    0.000    0.000    0.000    0.000 
#    0.000    0.000    0.000    0.000    0.000    0.000 
#
# Total GULP energy -133636.509327 kJ/mol
# GULP energy per Si atom -5568.187889 kJ/mol
# Density = 1.975175 g / cm^3
# Si number density = 19.796812 Si / 1000 Ang^3
#
#
#
# Elastic Constant Matrix: (Units=GPa)
#
#
# Indices 1 2 3 4 5 6 
#
# 1 79.6530 37.4582 53.0652 0.0000 23.0900 0.0000
# 2 37.4582 136.7284 64.1133 0.0000 21.1018 0.0000
# 3 53.0652 64.1133 98.6597 0.0000 34.5743 0.0000
# 4 0.0000 0.0000 0.0000 25.0599 0.0000 4.3097
# 5 23.0900 21.1018 34.5743 0.0000 21.5973 0.0000
# 6 0.0000 0.0000 0.0000 4.3097 0.0000 12.3912
#
#
#
# Elastic Compliance Matrix: (Units=1/GPa)
#
#
# Indices 1 2 3 4 5 6 
#
# 1 0.020474 -0.000782 -0.007064 0.000000 -0.009817 0.000000
# 2 -0.000782 0.010571 -0.007113 0.000000 0.001894 0.000000
# 3 -0.007064 -0.007113 0.030696 0.000000 -0.034639 0.000000
# 4 0.000000 0.000000 0.000000 0.042443 0.000000 -0.014762
# 5 -0.009817 0.001894 -0.034639 0.000000 0.110399 0.000000
# 6 0.000000 0.000000 0.000000 -0.014762 0.000000 0.085837
#
#
# Mechanical properties :
#
#
# Convention : Reuss Voigt Hill
#
# Bulk Modulus (GPa) = 31.42243 69.36830 50.39536
# Shear Modulus (GPa) = 14.66517 22.50330 18.58423
#
# Velocity S-wave (km/s) = 2.72469 3.37518 3.06722
# Velocity P-wave (km/s) = 5.07991 7.09262 6.16891
#
# Compressibility (1/GPa) = 0.03182440
#
# Stress axis : x y z
#
# Youngs Moduli (GPa) = 48.84304 94.60019 32.57740
#
# Poissons Ratio (x) = 0.07394 0.23013
# Poissons Ratio (y) = 0.03818 0.23171
# Poissons Ratio (z) = 0.34503 0.67285
#
# Static dielectric constant tensor:
#      x y z
#    x 1.673810 0.000000 -0.050590 
#    y 0.000000 1.730530 0.000000 
#    z -0.050590 0.000000 1.346250 
# 
# From -- ./inp_files/50446.got.cif
#   From: 2010.05.17/outbox.cif.g08.bks.cpg/sg11_26_cif.got.tgz:50446.got - 2010.06.03 12:22:45.
