data_PCOD9160601
_publ_section_title
;
Structure prediction by ZEFSAII (Michael W. Deem and Ramdas Pophale) SiO2 
 PCOD9160601
Probable space group: P 21/M
;
_chemical_formula_sum "Si O2"
_cell_formula_units_Z 32
_cell_length_a 24.606798
_cell_length_b 7.863813
_cell_length_c 24.582436
_cell_angle_alpha 90.000000
_cell_angle_beta 161.068553
_cell_angle_gamma 90.000000
_cell_volume 1543.274154
_symmetry_space_group_name_H-M "P 21/M"
_symmetry_group_IT_number 11
_symmetry_cell_setting 'monoclinic'
loop_
_space_group_symop_operation_xyz
x,y,z
-x,1/2+y,-z
-x,-y,-z
x,1/2-y,z
loop_
_atom_site_type_symbol
_atom_site_label
_atom_site_fract_x
_atom_site_fract_y
_atom_site_fract_z
Si Si1 0.206362 0.453162 0.141307
Si Si2 0.546103 0.953518 0.104920
Si Si3 0.836396 0.545765 0.775526
Si Si4 0.029273 0.053016 0.351996
Si Si5 0.617945 0.959038 0.359126
Si Si6 0.332694 0.958160 0.005204
Si Si7 0.436346 0.046261 0.569173
Si Si8 0.079320 0.555729 0.518093
O O1 0.207760 0.250000 0.144622
O O2 0.201320 0.519287 0.199037
O O3 0.375599 0.510569 0.272552
O O4 0.030883 0.506735 0.947862
O O5 0.567016 0.750000 0.128779
O O6 0.721702 0.035713 0.287464
O O7 0.405421 0.006031 0.015036
O O8 0.500000 0.000000 0.000000
O O9 0.820059 0.750000 0.761670
O O10 0.701968 0.480007 0.604652
O O11 0.031691 0.250000 0.337239
O O12 0.204950 0.980182 0.497593
O O13 0.855944 0.977722 0.166089
O O14 0.023891 0.046147 0.412397
O O15 0.617376 0.750000 0.357162
O O16 0.594353 0.015683 0.398705
O O17 0.464721 0.012938 0.175711
O O18 0.327541 0.750000 0.001139
O O19 0.416222 0.250000 0.551876
O O20 0.032981 0.750000 0.464235
O O21 0.000000 0.500000 0.500000
#
# Coordination Sequence:
#
# PCOD9160601 Si02
#       8
#     4   4   4   4   4   4   4   4
#     4  10  20  34  54  81 117 157 192 236 294 347
#     4  11  21  36  57  85 119 148 182 227 279 343
#     4   9  19  35  55  83 116 151 194 242 290 343
#     4  10  19  36  60  82 109 143 181 228 283 341
#     4   9  18  34  56  84 112 144 187 236 285 336
#     4   9  18  33  57  84 108 139 178 224 280 336
#     4  10  20  34  57  85 113 149 197 245 288 340
#     4  12  24  38  57  83 113 147 186 232 287 343
#
# _framework density 20.735137000000002
#
# number of rings (size 3 to 8) (size 9 to 14) (size 15 to 20)
#    0.000    2.000    1.250    3.000    0.000    3.000 
#    0.000    5.000    0.000    1.500    0.000    0.000 
#    0.000    0.000    0.000    0.000    0.000    0.000 
#
# Total GULP energy -178735.704740 kJ/mol
# GULP energy per Si atom -5585.490773 kJ/mol
# Density = 2.068794 g / cm^3
# Si number density = 20.735137 Si / 1000 Ang^3
#
#
#
# Elastic Constant Matrix: (Units=GPa)
#
#
# Indices 1 2 3 4 5 6 
#
# 1 126.1543 -3.2434 91.8001 0.0000 7.2291 0.0000
# 2 -3.2434 24.9862 -6.6740 0.0000 -1.7433 0.0000
# 3 91.8001 -6.6740 179.1022 0.0000 22.9789 0.0000
# 4 0.0000 0.0000 0.0000 16.0397 0.0000 1.3267
# 5 7.2291 -1.7433 22.9789 0.0000 14.7715 0.0000
# 6 0.0000 0.0000 0.0000 1.3267 0.0000 13.3670
#
#
#
# Elastic Compliance Matrix: (Units=1/GPa)
#
#
# Indices 1 2 3 4 5 6 
#
# 1 0.012928 0.000086 -0.007262 0.000000 0.004980 0.000000
# 2 0.000086 0.040534 0.001072 0.000000 0.003074 0.000000
# 3 -0.007262 0.001072 0.011086 0.000000 -0.013565 0.000000
# 4 0.000000 0.000000 0.000000 0.062861 0.000000 -0.006239
# 5 0.004980 0.003074 -0.013565 0.000000 0.086726 0.000000
# 6 0.000000 0.000000 0.000000 -0.006239 0.000000 0.075431
#
#
# Mechanical properties :
#
#
# Convention : Reuss Voigt Hill
#
# Bulk Modulus (GPa) = 19.10596 54.88980 36.99788
# Shear Modulus (GPa) = 15.66312 25.39296 20.52804
#
# Velocity S-wave (km/s) = 2.75142 3.50327 3.14986
# Velocity P-wave (km/s) = 4.39637 6.54929 5.57769
#
# Compressibility (1/GPa) = 0.05233968
#
# Stress axis : x y z
#
# Youngs Moduli (GPa) = 77.35037 24.67061 90.20336
#
# Poissons Ratio (x) = -0.00212 0.65508
# Poissons Ratio (y) = -0.00664 -0.09670
# Poissons Ratio (z) = 0.56174 -0.02645
#
# Static dielectric constant tensor:
#      x y z
#    x 1.721020 0.000000 -0.001950 
#    y 0.000000 1.753480 0.000000 
#    z -0.001950 0.000000 1.730650 
# 
# From -- ./inp_files/69990.got.cif
#   From: 2010.05.17/outbox.cif.g08.bks.cpg/sg11_35_cif.got.tgz:69990.got - 2010.06.03 12:22:45.
