data_PCOD9160747
_publ_section_title
;
Structure prediction by ZEFSAII (Michael W. Deem and Ramdas Pophale) SiO2 
 PCOD9160747
Probable space group: P 21/M
;
_chemical_formula_sum "Si O2"
_cell_formula_units_Z 32
_cell_length_a 12.595724
_cell_length_b 18.226003
_cell_length_c 14.509371
_cell_angle_alpha 90.000000
_cell_angle_beta 29.098174
_cell_angle_gamma 90.000000
_cell_volume 1619.847597
_symmetry_space_group_name_H-M "P 21/M"
_symmetry_group_IT_number 11
_symmetry_cell_setting 'monoclinic'
loop_
_space_group_symop_operation_xyz
x,y,z
-x,1/2+y,-z
-x,-y,-z
x,1/2-y,z
loop_
_atom_site_type_symbol
_atom_site_label
_atom_site_fract_x
_atom_site_fract_y
_atom_site_fract_z
Si Si1 0.370673 0.162106 0.348584
Si Si2 0.395455 0.915395 0.481869
Si Si3 0.025196 0.336261 0.234647
Si Si4 0.728697 0.582759 0.388706
Si Si5 0.802563 0.662506 0.707993
Si Si6 0.224182 0.568399 0.027000
Si Si7 0.612741 0.079989 0.905869
Si Si8 0.450146 0.091290 0.839372
O O1 0.386132 0.250000 0.333208
O O2 0.299613 0.135639 0.502647
O O3 0.202633 0.137415 0.394204
O O4 0.603175 0.125560 0.146314
O O5 0.164181 0.877441 0.675678
O O6 0.578639 0.894483 0.416801
O O7 0.464241 0.894022 0.326806
O O8 0.357062 0.002634 0.515370
O O9 0.981937 0.250000 0.268999
O O10 0.041720 0.365471 0.328275
O O11 0.260094 0.352727 0.012526
O O12 0.982895 0.575462 0.169998
O O13 0.827709 0.750000 0.688251
O O14 0.563260 0.639609 0.926052
O O15 0.206482 0.579885 0.151734
O O16 0.332145 0.488523 0.930126
O O17 0.634448 0.092075 0.780210
O O18 0.500000 0.000000 0.000000
#
# Coordination Sequence:
#
# PCOD9160747 Si02
#       8
#     4   4   4   4   4   4   4   4
#     4  10  21  39  61  87 118 150 188 239 293 346
#     4  11  24  39  57  83 116 156 201 243 283 336
#     4  10  21  39  61  87 118 150 188 239 293 346
#     4  11  24  39  57  83 116 156 201 243 283 336
#     4   8  16  33  57  83 115 149 179 225 295 355
#     4  10  19  37  60  86 114 152 189 233 293 351
#     4   8  16  29  53  86 116 138 183 236 281 343
#     4  10  19  37  60  86 114 152 189 233 293 351
#
# _framework density 19.754943000000001
#
# number of rings (size 3 to 8) (size 9 to 14) (size 15 to 20)
#    0.000    2.250    2.500    0.000    0.000    4.000 
#    0.000    1.250    0.000    4.500    0.000    0.000 
#    0.000    0.000    0.000    0.000    0.000    0.000 
#
# Total GULP energy -178379.044695 kJ/mol
# GULP energy per Si atom -5574.345147 kJ/mol
# Density = 1.970998 g / cm^3
# Si number density = 19.754943 Si / 1000 Ang^3
#
#
#
# Elastic Constant Matrix: (Units=GPa)
#
#
# Indices 1 2 3 4 5 6 
#
# 1 70.4357 5.0289 5.0578 0.0000 -9.2763 0.0000
# 2 5.0289 17.7480 -8.4163 0.0000 0.1632 0.0000
# 3 5.0578 -8.4163 31.2695 0.0000 -0.1783 0.0000
# 4 0.0000 0.0000 0.0000 17.4984 0.0000 5.6557
# 5 -9.2763 0.1632 -0.1783 0.0000 37.7593 0.0000
# 6 0.0000 0.0000 0.0000 5.6557 0.0000 20.7693
#
#
#
# Elastic Compliance Matrix: (Units=1/GPa)
#
#
# Indices 1 2 3 4 5 6 
#
# 1 0.015458 -0.006408 -0.004203 0.000000 0.003805 0.000000
# 2 -0.006408 0.067246 0.019126 0.000000 -0.001775 0.000000
# 3 -0.004203 0.019126 0.037802 0.000000 -0.000937 0.000000
# 4 0.000000 0.000000 0.000000 0.062663 0.000000 -0.017064
# 5 0.003805 -0.001775 -0.000937 0.000000 0.027422 0.000000
# 6 0.000000 0.000000 0.000000 -0.017064 0.000000 0.052795
#
#
# Mechanical properties :
#
#
# Convention : Reuss Voigt Hill
#
# Bulk Modulus (GPa) = 7.27088 13.64380 10.45734
# Shear Modulus (GPa) = 17.11140 23.05759 20.08450
#
# Velocity S-wave (km/s) = 2.94629 3.42011 3.19200
# Velocity P-wave (km/s) = 3.90675 4.74528 4.34629
#
# Compressibility (1/GPa) = 0.13753494
#
# Stress axis : x y z
#
# Youngs Moduli (GPa) = 64.69191 14.87072 26.45334
#
# Poissons Ratio (x) = 0.09530 0.11120
# Poissons Ratio (y) = 0.41457 -0.50595
# Poissons Ratio (z) = 0.27193 -0.28442
#
# Static dielectric constant tensor:
#      x y z
#    x 1.731180 0.000000 0.007090 
#    y 0.000000 1.669860 0.000000 
#    z 0.007090 0.000000 1.677490 
# 
# From -- ./inp_files/50648.got.cif
#   From: 2010.05.17/outbox.cif.g08.bks.cpg/sg11_26_cif.got.tgz:50648.got - 2010.06.03 12:22:45.
