data_PCOD9160791
_publ_section_title
;
Structure prediction by ZEFSAII (Michael W. Deem and Ramdas Pophale) SiO2 
 PCOD9160791
Probable space group: P 21/M
;
_chemical_formula_sum "Si O2"
_cell_formula_units_Z 26
_cell_length_a 8.230521
_cell_length_b 19.613813
_cell_length_c 11.113360
_cell_angle_alpha 90.000000
_cell_angle_beta 44.868550
_cell_angle_gamma 90.000000
_cell_volume 1265.671729
_symmetry_space_group_name_H-M "P 21/M"
_symmetry_group_IT_number 11
_symmetry_cell_setting 'monoclinic'
loop_
_space_group_symop_operation_xyz
x,y,z
-x,1/2+y,-z
-x,-y,-z
x,1/2-y,z
loop_
_atom_site_type_symbol
_atom_site_label
_atom_site_fract_x
_atom_site_fract_y
_atom_site_fract_z
Si Si1 0.336603 0.490369 0.972312
Si Si2 0.314778 0.750000 0.704739
Si Si3 0.609722 0.391910 0.227636
Si Si4 0.110645 0.394433 0.584677
Si Si5 0.166966 0.527150 0.681909
Si Si6 0.791847 0.250000 0.523617
Si Si7 0.867185 0.750000 0.437125
Si Si8 0.683839 0.097318 0.642910
O O1 0.311195 0.566199 0.929628
O O2 0.460575 0.439736 0.813110
O O3 0.500000 0.500000 0.000000
O O4 0.094012 0.460238 0.140230
O O5 0.270989 0.820135 0.800830
O O6 0.210464 0.750000 0.622860
O O7 0.594598 0.750000 0.553437
O O8 0.331191 0.384839 0.380217
O O9 0.670917 0.443753 0.301926
O O10 0.179638 0.446911 0.650429
O O11 0.045582 0.319841 0.665006
O O12 0.891317 0.419787 0.626319
O O13 0.236440 0.564488 0.523508
O O14 0.672742 0.179068 0.627987
O O15 0.033092 0.250000 0.476049
#
# Coordination Sequence:
#
# PCOD9160791 Si02
#       8
#     4   2   4   4   4   2   2   4
#     4  12  25  41  62  99 135 172 220 272 324 396
#     4  10  20  42  65  96 133 171 220 275 336 395
#     4  11  23  40  64  97 131 168 221 270 331 396
#     4  10  19  37  62  91 126 168 212 266 326 388
#     4  12  22  38  66  95 130 168 214 276 325 384
#     4  10  20  40  68  95 127 174 221 275 333 402
#     4   8  20  32  59  95 126 165 221 262 325 405
#     4  11  22  42  66  96 127 170 223 268 331 394
#
# _framework density 20.542452999999998
#
# number of rings (size 3 to 8) (size 9 to 14) (size 15 to 20)
#    0.000    1.231    4.615    2.308    0.000    0.000 
#    0.000    3.077    0.000    0.000    0.000    0.000 
#    0.000    0.000    0.000    0.000    0.000    0.000 
#
# Total GULP energy -145037.970391 kJ/mol
# GULP energy per Si atom -5578.383477 kJ/mol
# Density = 2.049570 g / cm^3
# Si number density = 20.542453 Si / 1000 Ang^3
#
#
#
# Elastic Constant Matrix: (Units=GPa)
#
#
# Indices 1 2 3 4 5 6 
#
# 1 85.2882 44.5540 19.8010 0.0000 4.9646 0.0000
# 2 44.5540 144.1685 33.4365 0.0000 26.7159 0.0000
# 3 19.8010 33.4365 107.8622 0.0000 -8.8508 0.0000
# 4 0.0000 0.0000 0.0000 -4.6580 0.0000 5.0251
# 5 4.9646 26.7159 -8.8508 0.0000 26.9586 0.0000
# 6 0.0000 0.0000 0.0000 5.0251 0.0000 30.0658
#
#
#
# Elastic Compliance Matrix: (Units=1/GPa)
#
#
# Indices 1 2 3 4 5 6 
#
# 1 0.014195 -0.004371 -0.001141 0.000000 0.001343 0.000000
# 2 -0.004371 0.011275 -0.003641 0.000000 -0.011564 0.000000
# 3 -0.001141 -0.003641 0.011225 0.000000 0.007504 0.000000
# 4 0.000000 0.000000 0.000000 -0.181887 0.000000 0.030400
# 5 0.001343 -0.011564 0.007504 0.000000 0.050770 0.000000
# 6 0.000000 0.000000 0.000000 0.030400 0.000000 0.028179
#
#
# Mechanical properties :
#
#
# Convention : Reuss Voigt Hill
#
# Bulk Modulus (GPa) = 54.38291 59.21132 56.79711
# Shear Modulus (GPa) = -119.59802 26.44175 -46.57814
#
# Velocity S-wave (km/s) = -7.63848 3.59162 -4.76690
# Velocity P-wave (km/s) = 7.15990 6.78867 1.60906
#
# Compressibility (1/GPa) = 0.01838813
#
# Stress axis : x y z
#
# Youngs Moduli (GPa) = 70.44692 88.69440 89.08634
#
# Poissons Ratio (x) = 0.38771 0.10161
# Poissons Ratio (y) = 0.30794 0.32441
# Poissons Ratio (z) = 0.08035 0.32298
#
# Static dielectric constant tensor:
#      x y z
#    x 1.739480 0.000000 0.001040 
#    y 0.000000 1.800710 0.000000 
#    z 0.001040 0.000000 1.795070 
# 
# From -- ./inp_files/14587.got.cif
#   From: 2010.05.17/outbox.cif.g08.bks.cpg/sg11_8_cif.got.tgz:14587.got - 2010.06.03 12:22:45.
