data_PCOD9160478
_publ_section_title
;
Structure prediction by ZEFSAII (Michael W. Deem and Ramdas Pophale) SiO2 
 PCOD9160478
Probable space group: P 21/M
;
_chemical_formula_sum "Si O2"
_cell_formula_units_Z 22
_cell_length_a 21.034336
_cell_length_b 7.780848
_cell_length_c 25.121205
_cell_angle_alpha 90.000000
_cell_angle_beta 16.163842
_cell_angle_gamma 90.000000
_cell_volume 1144.569284
_symmetry_space_group_name_H-M "P 21/M"
_symmetry_group_IT_number 11
_symmetry_cell_setting 'monoclinic'
loop_
_space_group_symop_operation_xyz
x,y,z
-x,1/2+y,-z
-x,-y,-z
x,1/2-y,z
loop_
_atom_site_type_symbol
_atom_site_label
_atom_site_fract_x
_atom_site_fract_y
_atom_site_fract_z
Si Si1 0.056263 0.951318 0.366800
Si Si2 0.077632 0.250000 0.710932
Si Si3 0.877447 0.553498 0.805282
Si Si4 0.082725 0.750000 0.045232
Si Si5 0.610269 0.250000 0.295580
Si Si6 0.697872 0.942228 0.300402
Si Si7 0.347863 0.957533 0.232063
O O1 0.098863 0.750000 0.322335
O O2 0.242387 0.015459 0.260257
O O3 0.067905 0.044607 0.301352
O O4 0.814541 0.972122 0.591047
O O5 0.338556 0.250000 0.520657
O O6 0.029355 0.418539 0.714984
O O7 0.915779 0.250000 0.892884
O O8 0.903859 0.750000 0.802671
O O9 0.612372 0.499154 0.024769
O O10 0.929813 0.910989 0.147193
O O11 0.315907 0.750000 0.825178
O O12 0.711368 0.416281 0.244057
O O13 0.643647 0.750000 0.322969
O O14 0.500000 0.000000 0.500000
O O15 0.328219 0.750000 0.248666
#
# Coordination Sequence:
#
# PCOD9160478 Si02
#       7
#     4   2   4   2   2   4   4
#     4  10  19  35  62  91 117 153 202 266 321 365
#     4  12  26  42  58  92 126 176 204 244 302 370
#     4  11  24  42  60  83 122 166 210 250 307 371
#     4  10  24  42  66  98 128 163 202 252 305 357
#     4  12  22  44  66  98 132 157 208 250 301 367
#     4  10  19  38  68  97 127 159 194 256 302 343
#     4   9  20  36  59  90 119 152 203 264 320 366
#
# _framework density 19.221204
#
# number of rings (size 3 to 8) (size 9 to 14) (size 15 to 20)
#    0.545    1.091    3.636    1.636    1.273    2.909 
#    1.636    0.000    0.000    0.000    0.000    0.000 
#    0.000    0.000    0.000    0.000    0.000    0.000 
#
# Total GULP energy -122806.914728 kJ/mol
# GULP energy per Si atom -5582.132488 kJ/mol
# Density = 1.917746 g / cm^3
# Si number density = 19.221204 Si / 1000 Ang^3
#
#
#
# Elastic Constant Matrix: (Units=GPa)
#
#
# Indices 1 2 3 4 5 6 
#
# 1 6.7941 15.7990 18.7799 0.0000 -12.0333 0.0000
# 2 15.7990 93.7826 11.8034 0.0000 -12.5458 0.0000
# 3 18.7799 11.8034 21.6336 0.0000 7.0124 0.0000
# 4 0.0000 0.0000 0.0000 83.6144 0.0000 -100.3138
# 5 -12.0333 -12.5458 7.0124 0.0000 19.3603 0.0000
# 6 0.0000 0.0000 0.0000 -100.3138 0.0000 191.6322
#
#
#
# Elastic Compliance Matrix: (Units=1/GPa)
#
#
# Indices 1 2 3 4 5 6 
#
# 1 -0.032604 -0.005373 0.044111 0.000000 -0.039724 0.000000
# 2 -0.005373 0.013070 -0.004679 0.000000 0.006824 0.000000
# 3 0.044111 -0.004679 0.002924 0.000000 0.023326 0.000000
# 4 0.000000 0.000000 0.000000 0.032151 0.000000 0.016830
# 5 -0.039724 0.006824 0.023326 0.000000 0.022936 0.000000
# 6 0.000000 0.000000 0.000000 0.016830 0.000000 0.014028
#
#
# Mechanical properties :
#
#
# Convention : Reuss Voigt Hill
#
# Bulk Modulus (GPa) = 19.41447 23.88610 21.65029
# Shear Modulus (GPa) = 3211.77892 63.97658 1637.87775
#
# Velocity S-wave (km/s) = 40.92168 5.77552 29.22277
# Velocity P-wave (km/s) = 47.35927 7.54516 33.91040
#
# Compressibility (1/GPa) = 0.05150797
#
# Stress axis : x y z
#
# Youngs Moduli (GPa) = -30.67118 76.51131 341.98984
#
# Poissons Ratio (x) = 0.41112 -15.08547
# Poissons Ratio (y) = -0.16480 1.60006
# Poissons Ratio (z) = 1.35293 0.35797
#
# Static dielectric constant tensor:
#      x y z
#    x 1.653330 0.000000 -0.000080 
#    y 0.000000 1.677530 0.000000 
#    z -0.000080 0.000000 1.668820 
# 
# From -- ./inp_files/69410.got.cif
#   From: 2010.05.17/outbox.cif.g08.bks.cpg/sg11_35_cif.got.tgz:69410.got - 2010.06.03 12:22:45.
