data_PCOD9160318
_publ_section_title
;
Structure prediction by ZEFSAII (Michael W. Deem and Ramdas Pophale) SiO2 
 PCOD9160318
Probable space group: P 21/M
;
_chemical_formula_sum "Si O2"
_cell_formula_units_Z 24
_cell_length_a 19.854897
_cell_length_b 11.553478
_cell_length_c 13.917082
_cell_angle_alpha 90.000000
_cell_angle_beta 18.647166
_cell_angle_gamma 90.000000
_cell_volume 1020.762554
_symmetry_space_group_name_H-M "P 21/M"
_symmetry_group_IT_number 11
_symmetry_cell_setting 'monoclinic'
loop_
_space_group_symop_operation_xyz
x,y,z
-x,1/2+y,-z
-x,-y,-z
x,1/2-y,z
loop_
_atom_site_type_symbol
_atom_site_label
_atom_site_fract_x
_atom_site_fract_y
_atom_site_fract_z
Si Si1 0.443564 0.574680 0.775245
Si Si2 0.754673 0.552165 0.598887
Si Si3 0.845151 0.878736 0.137034
Si Si4 0.703489 0.125407 0.816265
Si Si5 0.187120 0.878310 0.931680
Si Si6 0.675730 0.380328 0.530413
O O1 0.684646 0.620945 0.443345
O O2 0.323469 0.613357 0.032772
O O3 0.337028 0.612997 0.821805
O O4 0.489961 0.438292 0.720932
O O5 0.536538 0.620576 0.900102
O O6 0.702228 0.452440 0.591948
O O7 0.810960 0.484354 0.620683
O O8 0.950486 0.620481 0.292780
O O9 0.822064 0.750000 0.120968
O O10 0.791659 0.995438 0.149308
O O11 0.091099 0.886109 0.831885
O O12 0.799756 0.250000 0.662551
O O13 0.227356 0.750000 0.831412
O O14 0.626339 0.250000 0.619639
#
# Coordination Sequence:
#
# PCOD9160318 Si02
#       6
#     4   4   4   4   4   4
#     4  11  22  35  55  87 119 152 189 234 288 343
#     4   9  20  36  57  83 109 148 194 236 286 340
#     4  10  21  39  61  85 116 154 196 240 285 339
#     4  10  19  35  58  80 109 148 192 239 284 336
#     4  11  23  39  59  85 119 155 192 236 289 348
#     4   9  19  36  57  82 113 150 197 245 284 332
#
# _framework density 23.511835000000001
#
# number of rings (size 3 to 8) (size 9 to 14) (size 15 to 20)
#    0.000    2.000    0.000    3.500    0.000    2.667 
#    0.000    5.833    0.000    0.000    0.000    0.000 
#    0.000    0.000    0.000    0.000    0.000    0.000 
#
# Total GULP energy -133981.711601 kJ/mol
# GULP energy per Si atom -5582.571317 kJ/mol
# Density = 2.345832 g / cm^3
# Si number density = 23.511835 Si / 1000 Ang^3
#
#
#
# Elastic Constant Matrix: (Units=GPa)
#
#
# Indices 1 2 3 4 5 6 
#
# 1 86.2517 53.9321 7.3806 0.0000 6.2535 0.0000
# 2 53.9321 201.1455 3.7843 0.0000 0.8908 0.0000
# 3 7.3806 3.7843 26.2234 0.0000 3.7149 0.0000
# 4 0.0000 0.0000 0.0000 15.5643 0.0000 0.0018
# 5 6.2535 0.8908 3.7149 0.0000 26.1388 0.0000
# 6 0.0000 0.0000 0.0000 0.0018 0.0000 18.1456
#
#
#
# Elastic Compliance Matrix: (Units=1/GPa)
#
#
# Indices 1 2 3 4 5 6 
#
# 1 0.014447 -0.003802 -0.003109 0.000000 -0.002885 0.000000
# 2 -0.003802 0.005986 0.000109 0.000000 0.000690 0.000000
# 3 -0.003109 0.000109 0.039687 0.000000 -0.004900 0.000000
# 4 0.000000 0.000000 0.000000 0.064250 0.000000 -0.000006
# 5 -0.002885 0.000690 -0.004900 0.000000 0.039620 0.000000
# 6 0.000000 0.000000 0.000000 -0.000006 0.000000 0.055110
#
#
# Mechanical properties :
#
#
# Convention : Reuss Voigt Hill
#
# Bulk Modulus (GPa) = 21.49835 49.31273 35.40554
# Shear Modulus (GPa) = 20.14427 28.53797 24.34112
#
# Velocity S-wave (km/s) = 2.93024 3.48770 3.22105
# Velocity P-wave (km/s) = 4.54003 6.10228 5.37818
#
# Compressibility (1/GPa) = 0.04651520
#
# Stress axis : x y z
#
# Youngs Moduli (GPa) = 69.22026 167.05921 25.19697
#
# Poissons Ratio (x) = 0.63520 0.07833
# Poissons Ratio (y) = 0.26319 -0.00273
# Poissons Ratio (z) = 0.21518 -0.01813
#
# Static dielectric constant tensor:
#      x y z
#    x 1.933090 0.000000 0.030490 
#    y 0.000000 1.960630 0.000000 
#    z 0.030490 0.000000 1.895360 
# 
# From -- ./inp_files/16915.got.cif
#   From: 2010.05.17/outbox.cif.g08.bks.cpg/sg11_9_cif.got.tgz:16915.got - 2010.06.03 12:22:45.
