data_PCOD9160507
_publ_section_title
;
Structure prediction by ZEFSAII (Michael W. Deem and Ramdas Pophale) SiO2 
 PCOD9160507
Probable space group: P 21/M
;
_chemical_formula_sum "Si O2"
_cell_formula_units_Z 28
_cell_length_a 10.679049
_cell_length_b 19.908835
_cell_length_c 15.359305
_cell_angle_alpha 90.000000
_cell_angle_beta 158.283718
_cell_angle_gamma 90.000000
_cell_volume 1208.271039
_symmetry_space_group_name_H-M "P 21/M"
_symmetry_group_IT_number 11
_symmetry_cell_setting 'monoclinic'
loop_
_space_group_symop_operation_xyz
x,y,z
-x,1/2+y,-z
-x,-y,-z
x,1/2-y,z
loop_
_atom_site_type_symbol
_atom_site_label
_atom_site_fract_x
_atom_site_fract_y
_atom_site_fract_z
Si Si1 0.503376 0.673007 0.509345
Si Si2 0.584632 0.618200 0.033211
Si Si3 0.692815 0.323381 0.976561
Si Si4 0.187200 0.327475 0.005669
Si Si5 0.654863 0.456200 0.868264
Si Si6 0.412026 0.067243 0.295428
Si Si7 0.779846 0.001449 0.271257
O O1 0.456184 0.750000 0.513650
O O2 0.422574 0.613000 0.524082
O O3 0.902330 0.667297 0.747262
O O4 0.221754 0.666608 0.252787
O O5 0.489686 0.668430 0.049010
O O6 0.711909 0.653970 0.028291
O O7 0.256428 0.573115 0.796451
O O8 0.819322 0.561689 0.232646
O O9 0.641793 0.250000 0.906208
O O10 0.554956 0.379869 0.822398
O O11 0.280191 0.250000 0.084716
O O12 0.349811 0.380899 0.175772
O O13 0.468100 0.497680 0.671310
O O14 0.589060 0.490976 0.919015
O O15 0.049211 0.453917 0.101111
O O16 0.000000 0.000000 0.500000
#
# Coordination Sequence:
#
# PCOD9160507 Si02
#       7
#     4   4   4   4   4   4   4
#     4   9  20  36  56  82 112 150 190 228 278 330
#     4  10  21  36  57  83 112 145 187 227 281 338
#     4   9  18  37  59  79 112 150 186 232 276 333
#     4  11  22  35  57  88 116 147 185 231 283 335
#     4   9  19  35  56  83 106 145 193 221 275 334
#     4  10  19  36  56  78 116 147 182 233 274 331
#     4  10  21  37  57  80 113 146 184 233 280 326
#
# _framework density 23.173605999999999
#
# number of rings (size 3 to 8) (size 9 to 14) (size 15 to 20)
#    0.000    2.286    1.429    0.857    2.000    1.714 
#    0.000    6.429    0.000    7.714    0.000    0.000 
#    0.000    0.000    0.000    0.000    0.000    0.000 
#
# Total GULP energy -156166.997320 kJ/mol
# GULP energy per Si atom -5577.392761 kJ/mol
# Density = 2.312086 g / cm^3
# Si number density = 23.173606 Si / 1000 Ang^3
#
#
#
# Elastic Constant Matrix: (Units=GPa)
#
#
# Indices 1 2 3 4 5 6 
#
# 1 64.1046 0.4872 -5.0447 0.0000 8.1916 0.0000
# 2 0.4872 108.3031 16.8277 0.0000 -8.5003 0.0000
# 3 -5.0447 16.8277 38.7251 0.0000 -15.7072 0.0000
# 4 0.0000 0.0000 0.0000 17.7825 0.0000 0.8429
# 5 8.1916 -8.5003 -15.7072 0.0000 26.0999 0.0000
# 6 0.0000 0.0000 0.0000 0.8429 0.0000 30.0695
#
#
#
# Elastic Compliance Matrix: (Units=1/GPa)
#
#
# Indices 1 2 3 4 5 6 
#
# 1 0.016278 -0.000517 0.000271 0.000000 -0.005114 0.000000
# 2 -0.000517 0.009932 -0.003976 0.000000 0.001004 0.000000
# 3 0.000271 -0.003976 0.035754 0.000000 0.020137 0.000000
# 4 0.000000 0.000000 0.000000 0.056310 0.000000 -0.001578
# 5 -0.005114 0.001004 0.020137 0.000000 0.052365 0.000000
# 6 0.000000 0.000000 0.000000 -0.001578 0.000000 0.033301
#
#
# Mechanical properties :
#
#
# Convention : Reuss Voigt Hill
#
# Bulk Modulus (GPa) = 18.68454 26.18592 22.43523
# Shear Modulus (GPa) = 21.71798 28.04791 24.88294
#
# Velocity S-wave (km/s) = 3.06467 3.48277 3.28039
# Velocity P-wave (km/s) = 4.53909 5.24379 4.90411
#
# Compressibility (1/GPa) = 0.05352018
#
# Stress axis : x y z
#
# Youngs Moduli (GPa) = 61.43162 100.68199 27.96907
#
# Poissons Ratio (x) = 0.05202 -0.00757
# Poissons Ratio (y) = 0.03174 0.11121
# Poissons Ratio (z) = -0.01663 0.40031
#
# Static dielectric constant tensor:
#      x y z
#    x 1.872260 0.000000 0.065330 
#    y 0.000000 1.868190 0.000000 
#    z 0.065330 0.000000 1.961310 
# 
# From -- ./inp_files/59719.got.cif
#   From: 2010.05.17/outbox.cif.g08.bks.cpg/sg11_30_cif.got.tgz:59719.got - 2010.06.03 12:22:45.
