data_PCOD9160076
_publ_section_title
;
Structure prediction by ZEFSAII (Michael W. Deem and Ramdas Pophale) SiO2 
 PCOD9160076
Probable space group: P 21/M
;
_chemical_formula_sum "Si O2"
_cell_formula_units_Z 32
_cell_length_a 7.779397
_cell_length_b 14.458434
_cell_length_c 12.989547
_cell_angle_alpha 90.000000
_cell_angle_beta 95.444750
_cell_angle_gamma 90.000000
_cell_volume 1454.444977
_symmetry_space_group_name_H-M "P 21/M"
_symmetry_group_IT_number 11
_symmetry_cell_setting 'monoclinic'
loop_
_space_group_symop_operation_xyz
x,y,z
-x,1/2+y,-z
-x,-y,-z
x,1/2-y,z
loop_
_atom_site_type_symbol
_atom_site_label
_atom_site_fract_x
_atom_site_fract_y
_atom_site_fract_z
Si Si1 0.390688 0.928380 0.062503
Si Si2 0.480334 0.141804 0.565833
Si Si3 0.113460 0.966057 0.912021
Si Si4 0.687027 0.358691 0.365092
Si Si5 0.117868 0.353530 0.617885
Si Si6 0.281075 0.155030 0.851102
Si Si7 0.971780 0.952765 0.676994
Si Si8 0.606558 0.981517 0.722854
O O1 0.517213 0.851673 0.114452
O O2 0.332429 0.984443 0.161152
O O3 0.500000 0.000000 0.000000
O O4 0.243629 0.895787 0.975863
O O5 0.503024 0.250000 0.594916
O O6 0.587892 0.126283 0.467605
O O7 0.272150 0.126706 0.545928
O O8 0.552473 0.070704 0.653412
O O9 0.205913 0.061675 0.888789
O O10 0.033606 0.937560 0.799160
O O11 0.000000 0.000000 0.000000
O O12 0.684460 0.250000 0.341145
O O13 0.884701 0.394637 0.377788
O O14 0.565666 0.418357 0.280933
O O15 0.040603 0.250000 0.594828
O O16 0.229279 0.345431 0.729297
O O17 0.996461 0.441420 0.635191
O O18 0.209548 0.250000 0.893246
O O19 0.768285 0.933889 0.675148
#
# Coordination Sequence:
#
# PCOD9160076 Si02
#       8
#     4   4   4   4   4   4   4   4
#     4  10  19  34  58  85 116 155 195 240 299 358
#     4  10  21  40  66  93 124 159 199 258 319 370
#     4  10  19  37  56  80 119 156 191 241 300 351
#     4  11  25  45  62  85 126 166 209 260 306 360
#     4   9  17  34  59  89 125 155 189 248 314 368
#     4   9  17  31  54  82 112 147 191 239 297 358
#     4  11  23  39  65  91 122 165 203 251 310 368
#     4  12  22  39  68  94 119 163 212 251 303 371
#
# _framework density 22.001521
#
# number of rings (size 3 to 8) (size 9 to 14) (size 15 to 20)
#    0.000    1.750    3.750    1.875    0.000    1.500 
#    0.000    6.875    0.000    0.000    0.000    0.000 
#    0.000    0.000    0.000    0.000    0.000    0.000 
#
# Total GULP energy -178340.165012 kJ/mol
# GULP energy per Si atom -5573.130157 kJ/mol
# Density = 2.195144 g / cm^3
# Si number density = 22.001521 Si / 1000 Ang^3
#
#
#
# Elastic Constant Matrix: (Units=GPa)
#
#
# Indices 1 2 3 4 5 6 
#
# 1 52.6610 2.8303 -8.4654 0.0000 -16.3908 0.0000
# 2 2.8303 51.3191 14.6423 0.0000 3.3739 0.0000
# 3 -8.4654 14.6423 79.1978 0.0000 -8.1773 0.0000
# 4 0.0000 0.0000 0.0000 9.6405 0.0000 -0.6358
# 5 -16.3908 3.3739 -8.1773 0.0000 31.0415 0.0000
# 6 0.0000 0.0000 0.0000 -0.6358 0.0000 6.6957
#
#
#
# Elastic Compliance Matrix: (Units=1/GPa)
#
#
# Indices 1 2 3 4 5 6 
#
# 1 0.024507 -0.003684 0.004809 0.000000 0.014608 0.000000
# 2 -0.003684 0.021465 -0.004938 0.000000 -0.005579 0.000000
# 3 0.004809 -0.004938 0.014773 0.000000 0.006968 0.000000
# 4 0.000000 0.000000 0.000000 0.104383 0.000000 0.009912
# 5 0.014608 -0.005579 0.006968 0.000000 0.042370 0.000000
# 6 0.000000 0.000000 0.000000 0.009912 0.000000 0.150291
#
#
# Mechanical properties :
#
#
# Convention : Reuss Voigt Hill
#
# Bulk Modulus (GPa) = 18.82592 22.35468 20.59030
# Shear Modulus (GPa) = 13.05065 21.08691 17.06878
#
# Velocity S-wave (km/s) = 2.43815 3.09921 2.78834
# Velocity P-wave (km/s) = 4.06218 4.79472 4.44357
#
# Compressibility (1/GPa) = 0.05311827
#
# Stress axis : x y z
#
# Youngs Moduli (GPa) = 40.80450 46.58774 67.69084
#
# Poissons Ratio (x) = 0.17163 -0.32552
# Poissons Ratio (y) = 0.15032 0.33428
# Poissons Ratio (z) = -0.19623 0.23006
#
# Static dielectric constant tensor:
#      x y z
#    x 1.820030 0.000000 0.152330 
#    y 0.000000 1.814310 0.000000 
#    z 0.152330 0.000000 1.676970 
# 
# From -- ./inp_files/47435.got.cif
#   From: 2010.05.17/outbox.cif.g08.bks.cpg/sg11_24_cif.got.tgz:47435.got - 2010.06.03 12:22:45.
