data_PCOD9160592
_publ_section_title
;
Structure prediction by ZEFSAII (Michael W. Deem and Ramdas Pophale) SiO2 
 PCOD9160592
Probable space group: P 21/M
;
_chemical_formula_sum "Si O2"
_cell_formula_units_Z 28
_cell_length_a 12.151161
_cell_length_b 8.076072
_cell_length_c 15.687760
_cell_angle_alpha 90.000000
_cell_angle_beta 61.117868
_cell_angle_gamma 90.000000
_cell_volume 1348.007117
_symmetry_space_group_name_H-M "P 21/M"
_symmetry_group_IT_number 11
_symmetry_cell_setting 'monoclinic'
loop_
_space_group_symop_operation_xyz
x,y,z
-x,1/2+y,-z
-x,-y,-z
x,1/2-y,z
loop_
_atom_site_type_symbol
_atom_site_label
_atom_site_fract_x
_atom_site_fract_y
_atom_site_fract_z
Si Si1 0.611217 0.060615 0.019472
Si Si2 0.647733 0.559638 0.189692
Si Si3 0.627034 0.450371 0.693575
Si Si4 0.074631 0.558778 0.887873
Si Si5 0.872147 0.450836 0.498300
Si Si6 0.753028 0.943897 0.817856
Si Si7 0.037627 0.551108 0.712093
O O1 0.592237 0.250000 0.053077
O O2 0.626562 0.948993 0.096006
O O3 0.500000 0.000000 0.000000
O O4 0.729646 0.043968 0.912746
O O5 0.667265 0.750000 0.208890
O O6 0.514739 0.495813 0.277006
O O7 0.775520 0.461326 0.157464
O O8 0.624682 0.250000 0.694021
O O9 0.743910 0.507615 0.592165
O O10 0.660251 0.506688 0.776832
O O11 0.038677 0.750000 0.894956
O O12 0.047924 0.482317 0.804171
O O13 0.000000 0.500000 0.000000
O O14 0.869915 0.250000 0.498787
O O15 0.878853 0.511051 0.397664
O O16 0.000000 0.500000 0.500000
O O17 0.737151 0.750000 0.843523
O O18 0.894618 0.972173 0.735359
O O19 0.060423 0.750000 0.709371
#
# Coordination Sequence:
#
# PCOD9160592 Si02
#       7
#     4   4   4   4   4   4   4
#     4  12  23  35  53  82 116 154 195 241 299 363
#     4  11  23  40  58  83 120 159 200 252 303 355
#     4  10  21  35  56  84 119 156 193 241 301 360
#     4  11  23  42  65  88 117 160 206 253 304 363
#     4  10  19  36  59  88 120 157 198 246 304 364
#     4  11  20  33  56  85 118 154 193 243 299 359
#     4   9  20  37  59  86 118 154 197 248 305 358
#
# _framework density 20.771401999999998
#
# number of rings (size 3 to 8) (size 9 to 14) (size 15 to 20)
#    0.000    1.429    2.857    3.429    0.000    1.714 
#    0.000    4.286    0.000    0.000    0.000    0.000 
#    0.000    0.000    0.000    0.000    0.000    0.000 
#
# Total GULP energy -156263.863286 kJ/mol
# GULP energy per Si atom -5580.852260 kJ/mol
# Density = 2.072413 g / cm^3
# Si number density = 20.771402 Si / 1000 Ang^3
#
#
#
# Elastic Constant Matrix: (Units=GPa)
#
#
# Indices 1 2 3 4 5 6 
#
# 1 74.9430 -2.9380 40.5966 0.0000 -3.3781 0.0000
# 2 -2.9380 27.9631 7.1700 0.0000 -6.4550 0.0000
# 3 40.5966 7.1700 148.6206 0.0000 -14.7757 0.0000
# 4 0.0000 0.0000 0.0000 18.2352 0.0000 -3.5874
# 5 -3.3781 -6.4550 -14.7757 0.0000 28.7306 0.0000
# 6 0.0000 0.0000 0.0000 -3.5874 0.0000 22.9442
#
#
#
# Elastic Compliance Matrix: (Units=1/GPa)
#
#
# Indices 1 2 3 4 5 6 
#
# 1 0.015878 0.002861 -0.004453 0.000000 0.000219 0.000000
# 2 0.002861 0.038383 -0.001836 0.000000 0.008016 0.000000
# 3 -0.004453 -0.001836 0.008368 0.000000 0.003368 0.000000
# 4 0.000000 0.000000 0.000000 0.056579 0.000000 0.008846
# 5 0.000219 0.008016 0.003368 0.000000 0.038365 0.000000
# 6 0.000000 0.000000 0.000000 0.008846 0.000000 0.044967
#
#
# Mechanical properties :
#
#
# Convention : Reuss Voigt Hill
#
# Bulk Modulus (GPa) = 17.93023 37.90934 27.91979
# Shear Modulus (GPa) = 21.93090 27.76188 24.84639
#
# Velocity S-wave (km/s) = 3.25287 3.65984 3.46234
# Velocity P-wave (km/s) = 4.77065 6.01246 5.42719
#
# Compressibility (1/GPa) = 0.05577172
#
# Stress axis : x y z
#
# Youngs Moduli (GPa) = 62.98070 26.05307 119.49732
#
# Poissons Ratio (x) = -0.07453 0.53216
# Poissons Ratio (y) = -0.18017 0.21943
# Poissons Ratio (z) = 0.28047 0.04784
#
# Static dielectric constant tensor:
#      x y z
#    x 1.762550 0.000000 -0.037410 
#    y 0.000000 1.729210 0.000000 
#    z -0.037410 0.000000 1.804140 
# 
# From -- ./inp_files/49126.got.cif
#   From: 2010.05.17/outbox.cif.g08.bks.cpg/sg11_25_cif.got.tgz:49126.got - 2010.06.03 12:22:45.
