data_PCOD9160759
_publ_section_title
;
Structure prediction by ZEFSAII (Michael W. Deem and Ramdas Pophale) SiO2 
 PCOD9160759
Probable space group: P 21/M
;
_chemical_formula_sum "Si O2"
_cell_formula_units_Z 16
_cell_length_a 20.301954
_cell_length_b 5.427810
_cell_length_c 17.925962
_cell_angle_alpha 90.000000
_cell_angle_beta 159.923502
_cell_angle_gamma 90.000000
_cell_volume 678.088598
_symmetry_space_group_name_H-M "P 21/M"
_symmetry_group_IT_number 11
_symmetry_cell_setting 'monoclinic'
loop_
_space_group_symop_operation_xyz
x,y,z
-x,1/2+y,-z
-x,-y,-z
x,1/2-y,z
loop_
_atom_site_type_symbol
_atom_site_label
_atom_site_fract_x
_atom_site_fract_y
_atom_site_fract_z
Si Si1 0.101737 0.750000 0.854673
Si Si2 0.974859 0.250000 0.384177
Si Si3 0.560572 0.750000 0.606199
Si Si4 0.096231 0.250000 0.934862
Si Si5 0.634328 0.250000 0.439206
Si Si6 0.638111 0.750000 0.356223
Si Si7 0.082761 0.750000 0.530861
Si Si8 0.540169 0.250000 0.996402
O O1 0.171690 0.750000 0.843576
O O2 0.869406 0.750000 0.604934
O O3 0.154709 0.499121 0.953349
O O4 0.075801 0.513994 0.474571
O O5 0.091175 0.250000 0.596797
O O6 0.500000 0.500000 0.500000
O O7 0.461746 0.750000 0.582310
O O8 0.788470 0.750000 0.865130
O O9 0.865865 0.250000 0.696091
O O10 0.580637 0.497069 0.336453
O O11 0.559358 0.750000 0.188030
O O12 0.221459 0.750000 0.754374
O O13 0.500000 0.500000 0.000000
#
# Coordination Sequence:
#
# PCOD9160759 Si02
#       8
#     2   2   2   2   2   2   2   2
#     4  10  19  37  61  83 113 155 199 243 293 357
#     4  10  20  35  54  75 108 148 196 252 299 351
#     4  12  26  44  69  98 127 159 195 244 304 368
#     4  10  23  40  63  93 120 156 197 235 296 359
#     4  10  23  43  64  92 127 159 204 253 296 365
#     4  10  21  38  61  86 121 165 203 253 309 349
#     4  10  21  34  49  76 108 147 197 250 306 350
#     4  12  23  35  55  83 118 159 207 254 301 359
#
# _framework density 23.595735000000001
#
# number of rings (size 3 to 8) (size 9 to 14) (size 15 to 20)
#    0.000    1.500    0.000    5.250    0.000    5.000 
#    0.000    0.000    0.000    0.000    0.000    0.000 
#    0.000    0.000    0.000    0.000    0.000    0.000 
#
# Total GULP energy -89225.750834 kJ/mol
# GULP energy per Si atom -5576.609427 kJ/mol
# Density = 2.354203 g / cm^3
# Si number density = 23.595735 Si / 1000 Ang^3
#
#
#
# Elastic Constant Matrix: (Units=GPa)
#
#
# Indices 1 2 3 4 5 6 
#
# 1 100.4531 72.6653 37.3965 0.0000 -11.9151 0.0000
# 2 72.6653 262.6466 92.1021 0.0000 -31.7158 0.0000
# 3 37.3965 92.1021 162.5222 0.0000 -20.6457 0.0000
# 4 0.0000 0.0000 0.0000 24.9210 0.0000 -22.5095
# 5 -11.9151 -31.7158 -20.6457 0.0000 46.6770 0.0000
# 6 0.0000 0.0000 0.0000 -22.5095 0.0000 29.2538
#
#
#
# Elastic Compliance Matrix: (Units=1/GPa)
#
#
# Indices 1 2 3 4 5 6 
#
# 1 0.012636 -0.003026 -0.001106 0.000000 0.000680 0.000000
# 2 -0.003026 0.005691 -0.002263 0.000000 0.002094 0.000000
# 3 -0.001106 -0.002263 0.007903 0.000000 0.001676 0.000000
# 4 0.000000 0.000000 0.000000 0.131562 0.000000 0.101231
# 5 0.000680 0.002094 0.001676 0.000000 0.023761 0.000000
# 6 0.000000 0.000000 0.000000 0.101231 0.000000 0.112076
#
#
# Mechanical properties :
#
#
# Convention : Reuss Voigt Hill
#
# Bulk Modulus (GPa) = 74.40653 103.32774 88.86713
# Shear Modulus (GPa) = 16.08236 41.73423 28.90829
#
# Velocity S-wave (km/s) = 2.61354 4.21018 3.50401
# Velocity P-wave (km/s) = 6.38042 8.21706 7.35628
#
# Compressibility (1/GPa) = 0.01343968
#
# Stress axis : x y z
#
# Youngs Moduli (GPa) = 79.13680 175.71999 126.53743
#
# Poissons Ratio (x) = 0.53171 0.14000
# Poissons Ratio (y) = 0.23946 0.28633
# Poissons Ratio (z) = 0.08756 0.39763
#
# Static dielectric constant tensor:
#      x y z
#    x 1.956290 0.000000 0.092710 
#    y 0.000000 2.201710 0.000000 
#    z 0.092710 0.000000 1.979430 
# 
# From -- ./inp_files/20033.got.cif
#   From: 2010.05.17/outbox.cif.g08.bks.cpg/sg11_11_cif.got.tgz:20033.got - 2010.06.03 12:22:45.
