data_PCOD9160567
_publ_section_title
;
Structure prediction by ZEFSAII (Michael W. Deem and Ramdas Pophale) SiO2 
 PCOD9160567
Probable space group: P 21/M
;
_chemical_formula_sum "Si O2"
_cell_formula_units_Z 28
_cell_length_a 18.605271
_cell_length_b 13.621084
_cell_length_c 6.743295
_cell_angle_alpha 90.000000
_cell_angle_beta 119.221616
_cell_angle_gamma 90.000000
_cell_volume 1491.432824
_symmetry_space_group_name_H-M "P 21/M"
_symmetry_group_IT_number 11
_symmetry_cell_setting 'monoclinic'
loop_
_space_group_symop_operation_xyz
x,y,z
-x,1/2+y,-z
-x,-y,-z
x,1/2-y,z
loop_
_atom_site_type_symbol
_atom_site_label
_atom_site_fract_x
_atom_site_fract_y
_atom_site_fract_z
Si Si1 0.194041 0.136826 0.511349
Si Si2 0.215933 0.865084 0.520238
Si Si3 0.320625 0.134372 0.015279
Si Si4 0.208996 0.495223 0.153749
Si Si5 0.097735 0.502898 0.630076
Si Si6 0.400958 0.867027 0.873582
Si Si7 0.513395 0.525692 0.742252
O O1 0.187904 0.250000 0.463885
O O2 0.185135 0.080685 0.294435
O O3 0.127736 0.100806 0.581544
O O4 0.279375 0.116881 0.743954
O O5 0.198876 0.750000 0.484138
O O6 0.228667 0.910291 0.316807
O O7 0.143335 0.920366 0.542652
O O8 0.302300 0.878625 0.754485
O O9 0.307293 0.250000 0.046747
O O10 0.415617 0.106698 0.133576
O O11 0.278691 0.059778 0.116300
O O12 0.136713 0.517067 0.899884
O O13 0.000000 0.500000 0.500000
O O14 0.418113 0.750000 0.892010
O O15 0.431601 0.925930 0.721551
O O16 0.452994 0.926729 0.107216
O O17 0.500000 0.500000 0.500000
#
# Coordination Sequence:
#
# PCOD9160567 Si02
#       7
#     4   4   4   4   4   4   4
#     4   9  19  35  56  81 109 142 180 225 277 330
#     4  10  22  40  60  81 109 149 191 229 276 333
#     4  10  20  35  56  83 113 145 184 232 282 326
#     4  10  19  36  59  82 110 144 183 225 273 331
#     4  10  22  38  56  82 114 143 177 226 278 331
#     4  10  22  39  56  79 114 151 189 235 281 328
#     4  11  22  36  56  83 114 149 191 235 277 327
#
# _framework density 18.773892
#
# number of rings (size 3 to 8) (size 9 to 14) (size 15 to 20)
#    0.000    2.000    0.000    4.286    0.000    6.286 
#    0.000    5.000    0.000    0.000    0.000    0.000 
#    0.000    0.000    0.000    0.000    0.000    0.000 
#
# Total GULP energy -156098.306450 kJ/mol
# GULP energy per Si atom -5574.939516 kJ/mol
# Density = 1.873116 g / cm^3
# Si number density = 18.773892 Si / 1000 Ang^3
#
#
#
# Elastic Constant Matrix: (Units=GPa)
#
#
# Indices 1 2 3 4 5 6 
#
# 1 81.8532 26.6816 25.7413 0.0000 11.5215 0.0000
# 2 26.6816 122.3310 35.1897 0.0000 -6.5637 0.0000
# 3 25.7413 35.1897 72.6653 0.0000 -17.6425 0.0000
# 4 0.0000 0.0000 0.0000 17.7935 0.0000 -2.5914
# 5 11.5215 -6.5637 -17.6425 0.0000 28.1519 0.0000
# 6 0.0000 0.0000 0.0000 -2.5914 0.0000 17.5424
#
#
#
# Elastic Compliance Matrix: (Units=1/GPa)
#
#
# Indices 1 2 3 4 5 6 
#
# 1 0.017254 -0.002091 -0.008176 0.000000 -0.012673 0.000000
# 2 -0.002091 0.009766 -0.003807 0.000000 0.000747 0.000000
# 3 -0.008176 -0.003807 0.022526 0.000000 0.016575 0.000000
# 4 0.000000 0.000000 0.000000 0.057436 0.000000 0.008485
# 5 -0.012673 0.000747 0.016575 0.000000 0.051270 0.000000
# 6 0.000000 0.000000 0.000000 0.008485 0.000000 0.058258
#
#
# Mechanical properties :
#
#
# Convention : Reuss Voigt Hill
#
# Bulk Modulus (GPa) = 46.73632 50.23053 48.48343
# Shear Modulus (GPa) = 19.85772 25.31336 22.58554
#
# Velocity S-wave (km/s) = 3.25581 3.67594 3.47223
# Velocity P-wave (km/s) = 6.25156 6.69555 6.47736
#
# Compressibility (1/GPa) = 0.02139663
#
# Stress axis : x y z
#
# Youngs Moduli (GPa) = 57.95853 102.39702 44.39270
#
# Poissons Ratio (x) = 0.21413 0.36296
# Poissons Ratio (y) = 0.12120 0.16901
# Poissons Ratio (z) = 0.47388 0.38985
#
# Static dielectric constant tensor:
#      x y z
#    x 1.654660 0.000000 -0.004430 
#    y 0.000000 1.669340 0.000000 
#    z -0.004430 0.000000 1.639490 
# 
# From -- ./inp_files/8132.got.cif
#   From: 2010.05.17/outbox.cif.g08.bks.cpg/sg11_5_cif.got.tgz:8132.got - 2010.06.03 12:22:45.
