data_PCOD9160973
_publ_section_title
;
Structure prediction by ZEFSAII (Michael W. Deem and Ramdas Pophale) SiO2 
 PCOD9160973
Probable space group: P 21/M
;
_chemical_formula_sum "Si O2"
_cell_formula_units_Z 28
_cell_length_a 11.369069
_cell_length_b 13.884158
_cell_length_c 8.118594
_cell_angle_alpha 90.000000
_cell_angle_beta 114.225453
_cell_angle_gamma 90.000000
_cell_volume 1168.666376
_symmetry_space_group_name_H-M "P 21/M"
_symmetry_group_IT_number 11
_symmetry_cell_setting 'monoclinic'
loop_
_space_group_symop_operation_xyz
x,y,z
-x,1/2+y,-z
-x,-y,-z
x,1/2-y,z
loop_
_atom_site_type_symbol
_atom_site_label
_atom_site_fract_x
_atom_site_fract_y
_atom_site_fract_z
Si Si1 0.003600 0.138041 0.126720
Si Si2 0.447260 0.974080 0.152359
Si Si3 0.255465 0.135769 0.095367
Si Si4 0.113320 0.137131 0.661222
Si Si5 0.708660 0.501002 0.430354
Si Si6 0.242169 0.865119 0.845367
Si Si7 0.148782 0.639619 0.305061
O O1 0.021679 0.250000 0.180441
O O2 0.923024 0.134854 0.910318
O O3 0.143448 0.102046 0.156115
O O4 0.902875 0.097001 0.198994
O O5 0.570261 0.948311 0.334063
O O6 0.379667 0.070211 0.180454
O O7 0.500000 0.000000 0.000000
O O8 0.337825 0.895247 0.048917
O O9 0.277721 0.250000 0.130644
O O10 0.198191 0.123305 0.877171
O O11 0.120423 0.250000 0.623362
O O12 0.965569 0.118460 0.628121
O O13 0.179054 0.074994 0.556956
O O14 0.711156 0.418068 0.290612
O O15 0.740322 0.437985 0.607408
O O16 0.239792 0.750000 0.828147
O O17 0.191540 0.750000 0.353363
#
# Coordination Sequence:
#
# PCOD9160973 Si02
#       7
#     4   4   4   4   4   4   4
#     4   8  17  34  55  76  97 135 178 209 255 310
#     4  10  20  31  44  76 109 133 167 201 260 310
#     4   9  16  31  51  71  98 135 174 208 245 307
#     4   9  17  31  51  72 101 136 170 209 251 303
#     4  11  20  33  50  82 107 132 171 213 258 305
#     4  10  20  34  51  77 108 133 169 220 262 295
#     4   9  18  33  53  76 101 132 171 211 258 309
#
# _framework density 23.958935
#
# number of rings (size 3 to 8) (size 9 to 14) (size 15 to 20)
#    0.000    2.571    2.857    2.571    0.000    4.000 
#    0.000    0.714    0.000    0.000    0.000    1.000 
#    0.000    0.000    0.000    0.000    0.000    0.000 
#
# Total GULP energy -156620.248404 kJ/mol
# GULP energy per Si atom -5593.580300 kJ/mol
# Density = 2.390440 g / cm^3
# Si number density = 23.958935 Si / 1000 Ang^3
#
#
#
# Elastic Constant Matrix: (Units=GPa)
#
#
# Indices 1 2 3 4 5 6 
#
# 1 91.5592 18.8556 6.7256 0.0000 2.9586 0.0000
# 2 18.8556 96.0254 14.4224 0.0000 5.0366 0.0000
# 3 6.7256 14.4224 58.7632 0.0000 -2.9138 0.0000
# 4 0.0000 0.0000 0.0000 26.3044 0.0000 -0.4082
# 5 2.9586 5.0366 -2.9138 0.0000 24.9236 0.0000
# 6 0.0000 0.0000 0.0000 -0.4082 0.0000 32.8082
#
#
#
# Elastic Compliance Matrix: (Units=1/GPa)
#
#
# Indices 1 2 3 4 5 6 
#
# 1 0.011443 -0.002064 -0.000855 0.000000 -0.001041 0.000000
# 2 -0.002064 0.011343 -0.002665 0.000000 -0.002359 0.000000
# 3 -0.000855 -0.002665 0.017905 0.000000 0.002733 0.000000
# 4 0.000000 0.000000 0.000000 0.038024 0.000000 0.000473
# 5 -0.001041 -0.002359 0.002733 0.000000 0.041042 0.000000
# 6 0.000000 0.000000 0.000000 0.000473 0.000000 0.030486
#
#
# Mechanical properties :
#
#
# Convention : Reuss Voigt Hill
#
# Bulk Modulus (GPa) = 33.87037 36.26166 35.06602
# Shear Modulus (GPa) = 29.19672 30.56352 29.88012
#
# Velocity S-wave (km/s) = 3.49465 3.57552 3.53532
# Velocity P-wave (km/s) = 5.51824 5.67570 5.59752
#
# Compressibility (1/GPa) = 0.02952433
#
# Stress axis : x y z
#
# Youngs Moduli (GPa) = 87.38670 88.15892 55.85084
#
# Poissons Ratio (x) = 0.18196 0.04774
# Poissons Ratio (y) = 0.18037 0.14883
# Poissons Ratio (z) = 0.07470 0.23492
#
# Static dielectric constant tensor:
#      x y z
#    x 1.918920 0.000000 -0.002090 
#    y 0.000000 1.867970 0.000000 
#    z -0.002090 0.000000 1.986120 
# 
# From -- ./inp_files/17804.got.cif
#   From: 2010.05.17/outbox.cif.g08.bks.cpg/sg11_9_cif.got.tgz:17804.got - 2010.06.03 12:22:45.
