data_PCOD9160290
_publ_section_title
;
Structure prediction by ZEFSAII (Michael W. Deem and Ramdas Pophale) SiO2 
 PCOD9160290
Probable space group: P 21/M
;
_chemical_formula_sum "Si O2"
_cell_formula_units_Z 32
_cell_length_a 12.390615
_cell_length_b 17.209491
_cell_length_c 10.294282
_cell_angle_alpha 90.000000
_cell_angle_beta 53.864700
_cell_angle_gamma 90.000000
_cell_volume 1772.832202
_symmetry_space_group_name_H-M "P 21/M"
_symmetry_group_IT_number 11
_symmetry_cell_setting 'monoclinic'
loop_
_space_group_symop_operation_xyz
x,y,z
-x,1/2+y,-z
-x,-y,-z
x,1/2-y,z
loop_
_atom_site_type_symbol
_atom_site_label
_atom_site_fract_x
_atom_site_fract_y
_atom_site_fract_z
Si Si1 0.374884 0.157068 0.400744
Si Si2 0.595699 0.584788 0.063044
Si Si3 0.893678 0.103555 0.840011
Si Si4 0.902741 0.580499 0.786390
Si Si5 0.652124 0.657626 0.289024
Si Si6 0.033801 0.157895 0.995805
Si Si7 0.585709 0.398392 0.045249
Si Si8 0.907289 0.841056 0.517458
O O1 0.361039 0.250000 0.420196
O O2 0.386789 0.128510 0.540316
O O3 0.499631 0.137049 0.222662
O O4 0.237182 0.129596 0.431247
O O5 0.581944 0.615237 0.218888
O O6 0.584480 0.491660 0.066301
O O7 0.746338 0.604992 0.910357
O O8 0.489874 0.618340 0.036201
O O9 0.988952 0.149037 0.673366
O O10 0.941296 0.119666 0.952573
O O11 0.908126 0.012187 0.797001
O O12 0.739229 0.126574 0.934488
O O13 0.949924 0.610669 0.613570
O O14 0.977766 0.619455 0.854538
O O15 0.626299 0.750000 0.297604
O O16 0.811950 0.646738 0.158662
O O17 0.008882 0.250000 0.019956
O O18 0.895597 0.750000 0.560564
#
# Coordination Sequence:
#
# PCOD9160290 Si02
#       8
#     4   4   4   4   4   4   4   4
#     4  10  20  35  57  82 108 145 191 229 267 328
#     4   9  19  36  57  81 113 145 184 229 274 329
#     4  11  22  36  57  85 118 149 181 230 291 341
#     4  10  20  36  59  85 111 147 194 236 273 330
#     4   9  18  34  57  83 107 141 190 236 269 317
#     4  10  19  35  57  83 113 146 187 236 283 329
#     4  10  21  37  55  82 115 147 180 225 281 334
#     4  11  21  37  58  84 113 146 191 235 275 329
#
# _framework density 18.050212999999999
#
# number of rings (size 3 to 8) (size 9 to 14) (size 15 to 20)
#    0.000    2.000    2.500    1.500    0.000    2.500 
#    0.000    1.250    0.000    1.500    0.000    0.000 
#    0.000    0.000    0.000    0.000    0.000    0.000 
#
# Total GULP energy -178603.590816 kJ/mol
# GULP energy per Si atom -5581.362213 kJ/mol
# Density = 1.800913 g / cm^3
# Si number density = 18.050213 Si / 1000 Ang^3
#
#
#
# Elastic Constant Matrix: (Units=GPa)
#
#
# Indices 1 2 3 4 5 6 
#
# 1 96.0858 18.1951 26.1245 0.0000 22.7641 0.0000
# 2 18.1951 20.1403 0.4100 0.0000 6.3718 0.0000
# 3 26.1245 0.4100 64.1600 0.0000 19.0075 0.0000
# 4 0.0000 0.0000 0.0000 28.1440 0.0000 7.9047
# 5 22.7641 6.3718 19.0075 0.0000 34.7032 0.0000
# 6 0.0000 0.0000 0.0000 7.9047 0.0000 28.2989
#
#
#
# Elastic Compliance Matrix: (Units=1/GPa)
#
#
# Indices 1 2 3 4 5 6 
#
# 1 0.015144 -0.011924 -0.004531 0.000000 -0.005263 0.000000
# 2 -0.011924 0.062598 0.006617 0.000000 -0.007296 0.000000
# 3 -0.004531 0.006617 0.020135 0.000000 -0.009271 0.000000
# 4 0.000000 0.000000 0.000000 0.038557 0.000000 -0.010770
# 5 -0.005263 -0.007296 -0.009271 0.000000 0.038686 0.000000
# 6 0.000000 0.000000 0.000000 -0.010770 0.000000 0.038345
#
#
# Mechanical properties :
#
#
# Convention : Reuss Voigt Hill
#
# Bulk Modulus (GPa) = 12.78776 29.98282 21.38529
# Shear Modulus (GPa) = 19.28947 27.27297 23.28122
#
# Velocity S-wave (km/s) = 3.27258 3.89131 3.59528
# Velocity P-wave (km/s) = 4.62381 6.06931 5.39519
#
# Compressibility (1/GPa) = 0.07819976
#
# Stress axis : x y z
#
# Youngs Moduli (GPa) = 66.03196 15.97500 49.66421
#
# Poissons Ratio (x) = 0.19049 0.22503
# Poissons Ratio (y) = 0.78738 -0.32861
# Poissons Ratio (z) = 0.29919 -0.10570
#
# Static dielectric constant tensor:
#      x y z
#    x 1.614770 0.000000 0.004640 
#    y 0.000000 1.611750 0.000000 
#    z 0.004640 0.000000 1.605520 
# 
# From -- ./inp_files/18815.got.cif
#   From: 2010.05.17/outbox.cif.g08.bks.cpg/sg11_10_cif.got.tgz:18815.got - 2010.06.03 12:22:45.
