data_PCOD9160158
_publ_section_title
;
Structure prediction by ZEFSAII (Michael W. Deem and Ramdas Pophale) SiO2 
 PCOD9160158
Probable space group: P 21/M
;
_chemical_formula_sum "Si O2"
_cell_formula_units_Z 32
_cell_length_a 12.020058
_cell_length_b 13.836114
_cell_length_c 13.776836
_cell_angle_alpha 90.000000
_cell_angle_beta 43.734438
_cell_angle_gamma 90.000000
_cell_volume 1583.971319
_symmetry_space_group_name_H-M "P 21/M"
_symmetry_group_IT_number 11
_symmetry_cell_setting 'monoclinic'
loop_
_space_group_symop_operation_xyz
x,y,z
-x,1/2+y,-z
-x,-y,-z
x,1/2-y,z
loop_
_atom_site_type_symbol
_atom_site_label
_atom_site_fract_x
_atom_site_fract_y
_atom_site_fract_z
Si Si1 0.910168 0.954748 0.768921
Si Si2 0.431325 0.133126 0.012327
Si Si3 0.915954 0.137571 0.628861
Si Si4 0.566872 0.860673 0.214364
Si Si5 0.389773 0.639642 0.918633
Si Si6 0.717393 0.643699 0.589048
Si Si7 0.237599 0.569724 0.471730
Si Si8 0.847382 0.992887 0.028020
O O1 0.744500 0.902581 0.844412
O O2 0.906699 0.953894 0.886962
O O3 0.075458 0.905012 0.630660
O O4 0.912925 0.063323 0.721188
O O5 0.433166 0.250000 0.016302
O O6 0.568022 0.098300 0.001141
O O7 0.459623 0.106414 0.881781
O O8 0.864926 0.250000 0.678430
O O9 0.814963 0.088103 0.607042
O O10 0.103575 0.141941 0.477620
O O11 0.614232 0.750000 0.180238
O O12 0.402805 0.872714 0.376862
O O13 0.714178 0.923241 0.158982
O O14 0.338291 0.750000 0.962680
O O15 0.563215 0.638457 0.755843
O O16 0.257112 0.585702 0.938902
O O17 0.708410 0.750000 0.544903
O O18 0.718380 0.541819 0.532922
O O19 0.000000 0.000000 0.000000
#
# Coordination Sequence:
#
# PCOD9160158 Si02
#       8
#     4   4   4   4   4   4   4   4
#     4  10  22  36  60  89 121 159 195 234 292 359
#     4   9  19  35  56  89 123 151 184 236 301 363
#     4  10  20  32  53  89 133 157 181 228 298 369
#     4  10  22  38  60  86 120 156 192 244 303 356
#     4  10  19  34  61  87 111 149 197 243 294 354
#     4   9  17  31  51  80 116 154 186 228 280 344
#     4  11  19  34  56  89 120 157 187 231 294 367
#     4  11  25  43  60  83 115 161 207 257 295 335
#
# _framework density 20.202385
#
# number of rings (size 3 to 8) (size 9 to 14) (size 15 to 20)
#    0.000    2.000    1.250    3.375    1.750    4.000 
#    0.000    0.625    0.000    0.000    0.000    0.000 
#    0.000    0.000    0.000    0.000    0.000    0.000 
#
# Total GULP energy -178459.720106 kJ/mol
# GULP energy per Si atom -5576.866253 kJ/mol
# Density = 2.015640 g / cm^3
# Si number density = 20.202385 Si / 1000 Ang^3
#
#
#
# Elastic Constant Matrix: (Units=GPa)
#
#
# Indices 1 2 3 4 5 6 
#
# 1 111.9572 30.7135 31.7904 0.0000 -32.9060 0.0000
# 2 30.7135 64.4696 11.3699 0.0000 -20.2731 0.0000
# 3 31.7904 11.3699 102.9407 0.0000 -32.8925 0.0000
# 4 0.0000 0.0000 0.0000 22.8576 0.0000 0.1650
# 5 -32.9060 -20.2731 -32.8925 0.0000 25.3982 0.0000
# 6 0.0000 0.0000 0.0000 0.1650 0.0000 5.4937
#
#
#
# Elastic Compliance Matrix: (Units=1/GPa)
#
#
# Indices 1 2 3 4 5 6 
#
# 1 0.014856 -0.000592 0.002519 0.000000 0.022038 0.000000
# 2 -0.000592 0.022437 0.005429 0.000000 0.024173 0.000000
# 3 0.002519 0.005429 0.018363 0.000000 0.031378 0.000000
# 4 0.000000 0.000000 0.000000 0.043759 0.000000 -0.001315
# 5 0.022038 0.024173 0.031378 0.000000 0.127858 0.000000
# 6 0.000000 0.000000 0.000000 -0.001315 0.000000 0.182068
#
#
# Mechanical properties :
#
#
# Convention : Reuss Voigt Hill
#
# Bulk Modulus (GPa) = 14.21093 47.45725 30.83409
# Shear Modulus (GPa) = 11.95930 24.44949 18.20440
#
# Velocity S-wave (km/s) = 2.43569 3.48261 3.00509
# Velocity P-wave (km/s) = 3.86778 6.30185 5.22843
#
# Compressibility (1/GPa) = 0.07036839
#
# Stress axis : x y z
#
# Youngs Moduli (GPa) = 67.31129 44.56884 54.45718
#
# Poissons Ratio (x) = 0.02638 -0.13719
# Poissons Ratio (y) = 0.03984 -0.29562
# Poissons Ratio (z) = -0.16957 -0.24194
#
# Static dielectric constant tensor:
#      x y z
#    x 1.682500 0.000000 -0.008920 
#    y 0.000000 1.777850 0.000000 
#    z -0.008920 0.000000 1.759140 
# 
# From -- ./inp_files/50359.got.cif
#   From: 2010.05.17/outbox.cif.g08.bks.cpg/sg11_26_cif.got.tgz:50359.got - 2010.06.03 12:22:45.
