data_PCOD9160131
_publ_section_title
;
Structure prediction by ZEFSAII (Michael W. Deem and Ramdas Pophale) SiO2 
 PCOD9160131
Probable space group: P 21/M
;
_chemical_formula_sum "Si O2"
_cell_formula_units_Z 32
_cell_length_a 13.904731
_cell_length_b 14.322792
_cell_length_c 19.472880
_cell_angle_alpha 90.000000
_cell_angle_beta 19.934807
_cell_angle_gamma 90.000000
_cell_volume 1322.245393
_symmetry_space_group_name_H-M "P 21/M"
_symmetry_group_IT_number 11
_symmetry_cell_setting 'monoclinic'
loop_
_space_group_symop_operation_xyz
x,y,z
-x,1/2+y,-z
-x,-y,-z
x,1/2-y,z
loop_
_atom_site_type_symbol
_atom_site_label
_atom_site_fract_x
_atom_site_fract_y
_atom_site_fract_z
Si Si1 0.884958 0.647848 0.636052
Si Si2 0.696668 0.941525 0.252177
Si Si3 0.965267 0.859265 0.208619
Si Si4 0.820486 0.147983 0.339522
Si Si5 0.585286 0.648561 0.981847
Si Si6 0.638041 0.146387 0.309928
Si Si7 0.456240 0.355892 0.783957
Si Si8 0.479745 0.991413 0.880851
O O1 0.867379 0.750000 0.615482
O O2 0.679929 0.644289 0.839867
O O3 0.749434 0.570185 0.679173
O O4 0.201641 0.637794 0.450884
O O5 0.887280 0.902861 0.186323
O O6 0.382760 0.930452 0.495308
O O7 0.689938 0.877314 0.189807
O O8 0.719826 0.050806 0.216900
O O9 0.049059 0.750000 0.145766
O O10 0.683708 0.859664 0.444921
O O11 0.213658 0.923687 0.071772
O O12 0.687995 0.250000 0.444888
O O13 0.821004 0.142930 0.257280
O O14 0.119334 0.146605 0.174989
O O15 0.447220 0.750000 0.087114
O O16 0.430996 0.559081 0.115933
O O17 0.673940 0.250000 0.254176
O O18 0.394544 0.250000 0.848524
O O19 0.395242 0.437727 0.877780
#
# Coordination Sequence:
#
# PCOD9160131 Si02
#       8
#     4   4   4   4   4   4   4   4
#     4  10  22  41  63  83 107 148 198 241 282 342
#     4  11  18  34  59  83 113 156 197 232 282 337
#     4  10  21  35  56  87 122 155 188 234 291 349
#     4   9  15  28  54  84 112 146 193 241 280 325
#     4  10  19  34  59  89 114 143 193 248 288 329
#     4   9  18  31  52  87 122 152 192 239 281 334
#     4  11  24  41  62  85 112 149 200 246 278 333
#     4  12  23  38  57  86 121 156 183 230 300 352
#
# _framework density 24.201256000000001
#
# number of rings (size 3 to 8) (size 9 to 14) (size 15 to 20)
#    0.000    1.750    1.250    6.375    0.000    0.500 
#    0.000    1.875    0.000    0.750    0.000    0.000 
#    0.000    0.000    0.000    0.000    0.000    0.000 
#
# Total GULP energy -178963.717291 kJ/mol
# GULP energy per Si atom -5592.616165 kJ/mol
# Density = 2.414617 g / cm^3
# Si number density = 24.201256 Si / 1000 Ang^3
#
#
#
# Elastic Constant Matrix: (Units=GPa)
#
#
# Indices 1 2 3 4 5 6 
#
# 1 41.1645 14.8940 11.0900 0.0000 -9.5045 0.0000
# 2 14.8940 196.8332 38.5379 0.0000 -10.5205 0.0000
# 3 11.0900 38.5379 62.9255 0.0000 -18.1771 0.0000
# 4 0.0000 0.0000 0.0000 36.2826 0.0000 -1.7167
# 5 -9.5045 -10.5205 -18.1771 0.0000 25.9240 0.0000
# 6 0.0000 0.0000 0.0000 -1.7167 0.0000 34.4114
#
#
#
# Elastic Compliance Matrix: (Units=1/GPa)
#
#
# Indices 1 2 3 4 5 6 
#
# 1 0.027105 -0.001297 -0.001585 0.000000 0.008300 0.000000
# 2 -0.001297 0.005835 -0.003509 0.000000 -0.000568 0.000000
# 3 -0.001585 -0.003509 0.022247 0.000000 0.013594 0.000000
# 4 0.000000 0.000000 0.000000 0.027627 0.000000 0.001378
# 5 0.008300 -0.000568 0.013594 0.000000 0.050918 0.000000
# 6 0.000000 0.000000 0.000000 0.001378 0.000000 0.029129
#
#
# Mechanical properties :
#
#
# Convention : Reuss Voigt Hill
#
# Bulk Modulus (GPa) = 23.58209 47.77409 35.67809
# Shear Modulus (GPa) = 26.34636 35.08369 30.71502
#
# Velocity S-wave (km/s) = 3.30303 3.81158 3.56638
# Velocity P-wave (km/s) = 4.93072 6.25732 5.63320
#
# Compressibility (1/GPa) = 0.04240507
#
# Stress axis : x y z
#
# Youngs Moduli (GPa) = 36.89290 171.37074 44.94959
#
# Poissons Ratio (x) = 0.22227 0.07125
# Poissons Ratio (y) = 0.04785 0.15774
# Poissons Ratio (z) = 0.05848 0.60138
#
# Static dielectric constant tensor:
#      x y z
#    x 1.896450 0.000000 0.032100 
#    y 0.000000 2.006240 0.000000 
#    z 0.032100 0.000000 1.968620 
# 
# From -- ./inp_files/65762.got.cif
#   From: 2010.05.17/outbox.cif.g08.bks.cpg/sg11_33_cif.got.tgz:65762.got - 2010.06.03 12:22:45.
