data_PCOD9160600
_publ_section_title
;
Structure prediction by ZEFSAII (Michael W. Deem and Ramdas Pophale) SiO2 
 PCOD9160600
Probable space group: P 21/M
;
_chemical_formula_sum "Si O2"
_cell_formula_units_Z 32
_cell_length_a 21.480745
_cell_length_b 8.118336
_cell_length_c 16.647142
_cell_angle_alpha 90.000000
_cell_angle_beta 28.295190
_cell_angle_gamma 90.000000
_cell_volume 1376.092034
_symmetry_space_group_name_H-M "P 21/M"
_symmetry_group_IT_number 11
_symmetry_cell_setting 'monoclinic'
loop_
_space_group_symop_operation_xyz
x,y,z
-x,1/2+y,-z
-x,-y,-z
x,1/2-y,z
loop_
_atom_site_type_symbol
_atom_site_label
_atom_site_fract_x
_atom_site_fract_y
_atom_site_fract_z
Si Si1 0.150111 0.446831 0.330313
Si Si2 0.183234 0.053348 0.472263
Si Si3 0.423107 0.562277 0.304823
Si Si4 0.708740 0.558055 0.158300
Si Si5 0.003434 0.449446 0.188588
Si Si6 0.691797 0.433107 0.001769
Si Si7 0.138016 0.948735 0.805522
Si Si8 0.419550 0.944761 0.502134
O O1 0.160896 0.250000 0.313813
O O2 0.200577 0.500910 0.360704
O O3 0.000000 0.500000 0.500000
O O4 0.221407 0.520079 0.172317
O O5 0.194472 0.250000 0.462910
O O6 0.293791 0.972439 0.401596
O O7 0.042603 0.006612 0.671556
O O8 0.464811 0.750000 0.242723
O O9 0.540869 0.444291 0.146219
O O10 0.405987 0.544550 0.420185
O O11 0.709316 0.750000 0.180505
O O12 0.700809 0.548099 0.069771
O O13 0.567833 0.485674 0.349981
O O14 0.855273 0.486384 0.003409
O O15 0.010878 0.250000 0.180330
O O16 0.889974 0.499935 0.254768
O O17 0.724157 0.250000 0.993600
O O18 0.148158 0.750000 0.795918
O O19 0.274209 0.013855 0.689869
O O20 0.000000 0.000000 0.000000
O O21 0.424634 0.750000 0.515775
#
# Coordination Sequence:
#
# PCOD9160600 Si02
#       8
#     4   4   4   4   4   4   4   4
#     4  11  24  40  55  76 109 150 191 236 289 344
#     4  11  23  36  55  83 112 141 184 238 289 332
#     4  10  19  36  60  82 107 146 189 231 280 336
#     4   9  18  34  59  84 107 148 194 236 282 333
#     4  10  20  36  58  83 111 144 190 234 278 341
#     4  11  22  36  55  82 115 148 187 236 285 336
#     4  10  20  36  56  82 113 147 184 227 279 337
#     4   8  15  32  56  80 108 141 182 224 271 332
#
# _framework density 23.254259000000001
#
# number of rings (size 3 to 8) (size 9 to 14) (size 15 to 20)
#    0.000    2.000    1.250    3.750    0.000    5.500 
#    0.000    1.250    0.000    0.000    0.000    0.000 
#    0.000    0.000    0.000    0.000    0.000    0.000 
#
# Total GULP energy -178708.488133 kJ/mol
# GULP energy per Si atom -5584.640254 kJ/mol
# Density = 2.320133 g / cm^3
# Si number density = 23.254259 Si / 1000 Ang^3
#
#
#
# Elastic Constant Matrix: (Units=GPa)
#
#
# Indices 1 2 3 4 5 6 
#
# 1 60.6394 8.8264 27.0381 0.0000 -29.0699 0.0000
# 2 8.8264 41.1471 12.6203 0.0000 -0.5764 0.0000
# 3 27.0381 12.6203 152.1878 0.0000 -13.9313 0.0000
# 4 0.0000 0.0000 0.0000 30.6855 0.0000 -0.3386
# 5 -29.0699 -0.5764 -13.9313 0.0000 47.6865 0.0000
# 6 0.0000 0.0000 0.0000 -0.3386 0.0000 23.6634
#
#
#
# Elastic Compliance Matrix: (Units=1/GPa)
#
#
# Indices 1 2 3 4 5 6 
#
# 1 0.025379 -0.004378 -0.002810 0.000000 0.014597 0.000000
# 2 -0.004378 0.025697 -0.001612 0.000000 -0.002829 0.000000
# 3 -0.002810 -0.001612 0.007239 0.000000 0.000383 0.000000
# 4 0.000000 0.000000 0.000000 0.032594 0.000000 0.000466
# 5 0.014597 -0.002829 0.000383 0.000000 0.029946 0.000000
# 6 0.000000 0.000000 0.000000 0.000466 0.000000 0.042266
#
#
# Mechanical properties :
#
#
# Convention : Reuss Voigt Hill
#
# Bulk Modulus (GPa) = 24.56078 38.99376 31.77727
# Shear Modulus (GPa) = 25.73458 34.10640 29.92049
#
# Velocity S-wave (km/s) = 3.33026 3.83387 3.59091
# Velocity P-wave (km/s) = 5.03709 6.03348 5.55766
#
# Compressibility (1/GPa) = 0.04071532
#
# Stress axis : x y z
#
# Youngs Moduli (GPa) = 39.40321 38.91517 138.14648
#
# Poissons Ratio (x) = 0.17036 0.38813
# Poissons Ratio (y) = 0.17250 0.22271
# Poissons Ratio (z) = 0.11071 0.06274
#
# Static dielectric constant tensor:
#      x y z
#    x 1.929040 0.000000 -0.000100 
#    y 0.000000 1.840990 0.000000 
#    z -0.000100 0.000000 1.929150 
# 
# From -- ./inp_files/67090.got.cif
#   From: 2010.05.17/outbox.cif.g08.bks.cpg/sg11_34_cif.got.tgz:67090.got - 2010.06.03 12:22:45.
