data_PCOD9160807
_publ_section_title
;
Structure prediction by ZEFSAII (Michael W. Deem and Ramdas Pophale) SiO2 
 PCOD9160807
Probable space group: P 21/M
;
_chemical_formula_sum "Si O2"
_cell_formula_units_Z 28
_cell_length_a 9.454707
_cell_length_b 14.339349
_cell_length_c 11.883743
_cell_angle_alpha 90.000000
_cell_angle_beta 124.797700
_cell_angle_gamma 90.000000
_cell_volume 1323.015572
_symmetry_space_group_name_H-M "P 21/M"
_symmetry_group_IT_number 11
_symmetry_cell_setting 'monoclinic'
loop_
_space_group_symop_operation_xyz
x,y,z
-x,1/2+y,-z
-x,-y,-z
x,1/2-y,z
loop_
_atom_site_type_symbol
_atom_site_label
_atom_site_fract_x
_atom_site_fract_y
_atom_site_fract_z
Si Si1 0.961850 0.860171 0.296165
Si Si2 0.119283 0.046156 0.959273
Si Si3 0.646460 0.079244 0.057049
Si Si4 0.518718 0.859772 0.795843
Si Si5 0.587424 0.853176 0.480979
Si Si6 0.688093 0.057767 0.506271
Si Si7 0.394861 0.351610 0.777644
O O1 0.982449 0.750000 0.328652
O O2 0.118007 0.912834 0.426103
O O3 0.965908 0.879275 0.163945
O O4 0.779646 0.900592 0.260583
O O5 0.174086 0.964234 0.896537
O O6 0.295314 0.094077 0.088324
O O7 0.000000 0.000000 0.000000
O O8 0.609047 0.135261 0.153622
O O9 0.577838 0.125976 0.912315
O O10 0.500000 0.000000 0.000000
O O11 0.538465 0.750000 0.774388
O O12 0.430055 0.921349 0.657214
O O13 0.646404 0.750000 0.547932
O O14 0.396670 0.873501 0.440059
O O15 0.595759 0.851010 0.350632
O O16 0.680963 0.951679 0.549578
O O17 0.360656 0.250000 0.811217
#
# Coordination Sequence:
#
# PCOD9160807 Si02
#       7
#     4   4   4   4   4   4   4
#     4  11  23  42  64  96 129 170 220 267 323 391
#     4  11  25  40  64  96 134 174 223 276 336 385
#     4  10  19  37  63  90 123 167 222 263 322 388
#     4  11  22  43  67  93 134 181 221 271 332 397
#     4  10  22  41  63  92 127 169 218 263 321 392
#     4  11  25  40  67  96 132 175 212 265 329 395
#     4  10  20  38  65  93 122 165 219 271 316 381
#
# _framework density 21.163772999999999
#
# number of rings (size 3 to 8) (size 9 to 14) (size 15 to 20)
#    0.000    1.429    2.857    3.857    6.000    0.571 
#    0.000    2.143    0.000    0.857    0.000    0.000 
#    0.000    0.000    0.000    0.000    0.000    0.000 
#
# Total GULP energy -155879.570348 kJ/mol
# GULP energy per Si atom -5567.127512 kJ/mol
# Density = 2.111560 g / cm^3
# Si number density = 21.163773 Si / 1000 Ang^3
#
#
#
# Elastic Constant Matrix: (Units=GPa)
#
#
# Indices 1 2 3 4 5 6 
#
# 1 65.3147 18.3255 10.1798 0.0000 -16.0553 0.0000
# 2 18.3255 107.2138 9.4932 0.0000 8.5305 0.0000
# 3 10.1798 9.4932 62.1622 0.0000 8.6787 0.0000
# 4 0.0000 0.0000 0.0000 17.5406 0.0000 -6.3135
# 5 -16.0553 8.5305 8.6787 0.0000 29.9097 0.0000
# 6 0.0000 0.0000 0.0000 -6.3135 0.0000 23.7854
#
#
#
# Elastic Compliance Matrix: (Units=1/GPa)
#
#
# Indices 1 2 3 4 5 6 
#
# 1 0.020535 -0.004180 -0.004617 0.000000 0.013555 0.000000
# 2 -0.004180 0.010470 -0.000192 0.000000 -0.005174 0.000000
# 3 -0.004617 -0.000192 0.017937 0.000000 -0.007628 0.000000
# 4 0.000000 0.000000 0.000000 0.063033 0.000000 0.016731
# 5 0.013555 -0.005174 -0.007628 0.000000 0.044399 0.000000
# 6 0.000000 0.000000 0.000000 0.016731 0.000000 0.046484
#
#
# Mechanical properties :
#
#
# Convention : Reuss Voigt Hill
#
# Bulk Modulus (GPa) = 32.29451 34.52085 33.40768
# Shear Modulus (GPa) = 21.63034 27.35996 24.49515
#
# Velocity S-wave (km/s) = 3.20041 3.59942 3.40576
# Velocity P-wave (km/s) = 5.38046 5.79837 5.59332
#
# Compressibility (1/GPa) = 0.03096502
#
# Stress axis : x y z
#
# Youngs Moduli (GPa) = 48.69822 95.50882 55.74954
#
# Poissons Ratio (x) = 0.39918 0.25739
# Poissons Ratio (y) = 0.20354 0.01071
# Poissons Ratio (z) = 0.22483 0.01835
#
# Static dielectric constant tensor:
#      x y z
#    x 1.815230 0.000000 0.092070 
#    y 0.000000 1.822220 0.000000 
#    z 0.092070 0.000000 2.112930 
# 
# From -- ./inp_files/31971.got.cif
#   From: 2010.05.17/outbox.cif.g08.bks.cpg/sg11_16_cif.got.tgz:31971.got - 2010.06.03 12:22:45.
