data_PCOD9160810
_publ_section_title
;
Structure prediction by ZEFSAII (Michael W. Deem and Ramdas Pophale) SiO2 
 PCOD9160810
Probable space group: P 21/M
;
_chemical_formula_sum "Si O2"
_cell_formula_units_Z 32
_cell_length_a 13.016789
_cell_length_b 18.968703
_cell_length_c 8.787696
_cell_angle_alpha 90.000000
_cell_angle_beta 130.143792
_cell_angle_gamma 90.000000
_cell_volume 1658.645611
_symmetry_space_group_name_H-M "P 21/M"
_symmetry_group_IT_number 11
_symmetry_cell_setting 'monoclinic'
loop_
_space_group_symop_operation_xyz
x,y,z
-x,1/2+y,-z
-x,-y,-z
x,1/2-y,z
loop_
_atom_site_type_symbol
_atom_site_label
_atom_site_fract_x
_atom_site_fract_y
_atom_site_fract_z
Si Si1 0.118460 0.166645 0.479865
Si Si2 0.784728 0.668753 0.778595
Si Si3 0.897319 0.447993 0.314773
Si Si4 0.494455 0.670476 0.368269
Si Si5 0.370887 0.951069 0.402375
Si Si6 0.394155 0.105431 0.823705
Si Si7 0.627634 0.440406 0.253873
Si Si8 0.872451 0.526978 0.971286
O O1 0.109504 0.250000 0.504340
O O2 0.158548 0.159069 0.339387
O O3 0.240339 0.130944 0.693204
O O4 0.981702 0.123529 0.371413
O O5 0.807852 0.750000 0.845788
O O6 0.623774 0.658852 0.602352
O O7 0.853841 0.611425 0.953282
O O8 0.760522 0.432963 0.277272
O O9 0.865553 0.488668 0.127092
O O10 0.000000 0.500000 0.500000
O O11 0.448785 0.750000 0.342368
O O12 0.382827 0.613674 0.299162
O O13 0.546020 0.656451 0.247521
O O14 0.355543 0.920246 0.555667
O O15 0.500000 0.000000 0.500000
O O16 0.248992 0.000668 0.247638
O O17 0.395802 0.025116 0.763770
O O18 0.497428 0.099248 0.061913
O O19 0.000000 0.500000 0.000000
#
# Coordination Sequence:
#
# PCOD9160810 Si02
#       8
#     4   4   4   4   4   4   4   4
#     4  10  20  40  65  91 124 173 217 254 314 386
#     4   9  18  36  64  95 122 156 214 270 310 371
#     4  12  24  40  61  94 136 169 213 269 319 395
#     4  10  20  38  64  93 125 166 211 258 316 378
#     4  12  22  40  65  93 125 164 217 267 313 382
#     4  10  19  37  63  96 123 161 208 264 313 382
#     4  11  23  36  62  99 129 157 210 270 325 366
#     4  12  23  39  65  97 124 168 218 263 324 376
#
# _framework density 19.292847999999999
#
# number of rings (size 3 to 8) (size 9 to 14) (size 15 to 20)
#    0.000    1.250    5.000    3.375    1.750    0.000 
#    0.000    6.250    0.000    0.000    0.000    0.000 
#    0.000    0.000    0.000    0.000    0.000    0.000 
#
# Total GULP energy -178626.896429 kJ/mol
# GULP energy per Si atom -5582.090513 kJ/mol
# Density = 1.924894 g / cm^3
# Si number density = 19.292848 Si / 1000 Ang^3
#
#
#
# Elastic Constant Matrix: (Units=GPa)
#
#
# Indices 1 2 3 4 5 6 
#
# 1 70.4841 13.8108 20.9519 0.0000 3.9901 0.0000
# 2 13.8108 111.7094 22.5125 0.0000 10.4629 0.0000
# 3 20.9519 22.5125 81.8839 0.0000 3.4845 0.0000
# 4 0.0000 0.0000 0.0000 28.4976 0.0000 2.5661
# 5 3.9901 10.4629 3.4845 0.0000 23.2265 0.0000
# 6 0.0000 0.0000 0.0000 2.5661 0.0000 24.5339
#
#
#
# Elastic Compliance Matrix: (Units=1/GPa)
#
#
# Indices 1 2 3 4 5 6 
#
# 1 0.015563 -0.001038 -0.003626 0.000000 -0.001662 0.000000
# 2 -0.001038 0.009911 -0.002292 0.000000 -0.003943 0.000000
# 3 -0.003626 -0.002292 0.013788 0.000000 -0.000413 0.000000
# 4 0.000000 0.000000 0.000000 0.035424 0.000000 -0.003705
# 5 -0.001662 -0.003943 -0.000413 0.000000 0.045178 0.000000
# 6 0.000000 0.000000 0.000000 -0.003705 0.000000 0.041147
#
#
# Mechanical properties :
#
#
# Convention : Reuss Voigt Hill
#
# Bulk Modulus (GPa) = 39.44585 42.06976 40.75781
# Shear Modulus (GPa) = 27.26688 29.03842 28.15265
#
# Velocity S-wave (km/s) = 3.76349 3.88382 3.82413
# Velocity P-wave (km/s) = 6.27498 6.47806 6.37733
#
# Compressibility (1/GPa) = 0.02535121
#
# Stress axis : x y z
#
# Youngs Moduli (GPa) = 64.25540 100.89621 72.52750
#
# Poissons Ratio (x) = 0.10469 0.26299
# Poissons Ratio (y) = 0.06667 0.16621
# Poissons Ratio (z) = 0.23300 0.23122
#
# Static dielectric constant tensor:
#      x y z
#    x 1.671580 0.000000 -0.002240 
#    y 0.000000 1.670740 0.000000 
#    z -0.002240 0.000000 1.688620 
# 
# From -- ./inp_files/19422.got.cif
#   From: 2010.05.17/outbox.cif.g08.bks.cpg/sg11_10_cif.got.tgz:19422.got - 2010.06.03 12:22:45.
