data_PCOD9160681
_publ_section_title
;
Structure prediction by ZEFSAII (Michael W. Deem and Ramdas Pophale) SiO2 
 PCOD9160681
Probable space group: P 21/M
;
_chemical_formula_sum "Si O2"
_cell_formula_units_Z 16
_cell_length_a 13.246142
_cell_length_b 5.422152
_cell_length_c 17.070490
_cell_angle_alpha 90.000000
_cell_angle_beta 36.953871
_cell_angle_gamma 90.000000
_cell_volume 737.064873
_symmetry_space_group_name_H-M "P 21/M"
_symmetry_group_IT_number 11
_symmetry_cell_setting 'monoclinic'
loop_
_space_group_symop_operation_xyz
x,y,z
-x,1/2+y,-z
-x,-y,-z
x,1/2-y,z
loop_
_atom_site_type_symbol
_atom_site_label
_atom_site_fract_x
_atom_site_fract_y
_atom_site_fract_z
Si Si1 0.384769 0.750000 0.309040
Si Si2 0.937578 0.250000 0.608961
Si Si3 0.974893 0.250000 0.967026
Si Si4 0.271721 0.250000 0.655103
Si Si5 0.351622 0.750000 0.512094
Si Si6 0.403606 0.750000 0.852479
Si Si7 0.504871 0.750000 0.949650
Si Si8 0.122408 0.250000 0.334820
O O1 0.236282 0.750000 0.334828
O O2 0.318876 0.750000 0.439065
O O3 0.494082 0.500538 0.230712
O O4 0.947049 0.494880 0.653132
O O5 0.077874 0.250000 0.454896
O O6 0.107619 0.250000 0.812453
O O7 0.777623 0.250000 0.071854
O O8 0.000000 0.500000 0.000000
O O9 0.282930 0.500163 0.595897
O O10 0.444941 0.250000 0.599440
O O11 0.368783 0.750000 0.967004
O O12 0.682165 0.750000 0.796911
O O13 0.500000 0.500000 0.000000
#
# Coordination Sequence:
#
# PCOD9160681 Si02
#       8
#     2   2   2   2   2   2   2   2
#     4  12  21  40  65  94 121 161 218 266 320 374
#     4  10  19  36  63  85 121 148 199 272 305 355
#     4  12  25  44  69  97 129 174 216 267 320 374
#     4  10  21  40  56  87 126 152 200 249 314 382
#     4  10  21  36  63  86 117 160 190 254 324 376
#     4  12  25  42  66  94 128 166 225 269 306 394
#     4  12  24  42  63  90 130 179 211 258 322 385
#     4  10  20  38  59  89 116 156 205 255 317 360
#
# _framework density 21.707720999999999
#
# number of rings (size 3 to 8) (size 9 to 14) (size 15 to 20)
#    0.000    1.000    2.500    5.250    0.000    2.000 
#    4.500    0.000    0.000    0.000    0.000    0.000 
#    0.000    0.000    0.000    0.000    0.000    0.000 
#
# Total GULP energy -89406.292130 kJ/mol
# GULP energy per Si atom -5587.893258 kJ/mol
# Density = 2.165831 g / cm^3
# Si number density = 21.707721 Si / 1000 Ang^3
#
#
#
# Elastic Constant Matrix: (Units=GPa)
#
#
# Indices 1 2 3 4 5 6 
#
# 1 95.0958 64.9913 46.5957 0.0000 -3.8678 0.0000
# 2 64.9913 260.7131 75.6070 0.0000 1.6150 0.0000
# 3 46.5957 75.6070 126.2313 0.0000 -17.4372 0.0000
# 4 0.0000 0.0000 0.0000 47.3519 0.0000 2.9292
# 5 -3.8678 1.6150 -17.4372 0.0000 34.1759 0.0000
# 6 0.0000 0.0000 0.0000 2.9292 0.0000 22.7148
#
#
#
# Elastic Compliance Matrix: (Units=1/GPa)
#
#
# Indices 1 2 3 4 5 6 
#
# 1 0.013985 -0.002395 -0.003758 0.000000 -0.000222 0.000000
# 2 -0.002395 0.005153 -0.002446 0.000000 -0.001762 0.000000
# 3 -0.003758 -0.002446 0.011545 0.000000 0.005581 0.000000
# 4 0.000000 0.000000 0.000000 0.021288 0.000000 -0.002745
# 5 -0.000222 -0.001762 0.005581 0.000000 0.032166 0.000000
# 6 0.000000 0.000000 0.000000 -0.002745 0.000000 0.044378
#
#
# Mechanical properties :
#
#
# Convention : Reuss Voigt Hill
#
# Bulk Modulus (GPa) = 74.15783 95.15870 84.65826
# Shear Modulus (GPa) = 33.28706 40.50495 36.89600
#
# Velocity S-wave (km/s) = 3.92014 4.32432 4.12718
# Velocity P-wave (km/s) = 7.39771 8.29846 7.86100
#
# Compressibility (1/GPa) = 0.01348475
#
# Stress axis : x y z
#
# Youngs Moduli (GPa) = 71.50497 194.06846 86.61664
#
# Poissons Ratio (x) = 0.46477 0.32555
# Poissons Ratio (y) = 0.17125 0.21184
# Poissons Ratio (z) = 0.26875 0.47464
#
# Static dielectric constant tensor:
#      x y z
#    x 1.806200 0.000000 0.000480 
#    y 0.000000 1.843280 0.000000 
#    z 0.000480 0.000000 1.781090 
# 
# From -- ./inp_files/27165.got.cif
#   From: 2010.05.17/outbox.cif.g08.bks.cpg/sg11_14_cif.got.tgz:27165.got - 2010.06.03 12:22:45.
