data_PCOD9160676
_publ_section_title
;
Structure prediction by ZEFSAII (Michael W. Deem and Ramdas Pophale) SiO2 
 PCOD9160676
Probable space group: P 21/M
;
_chemical_formula_sum "Si O2"
_cell_formula_units_Z 32
_cell_length_a 17.533725
_cell_length_b 13.878609
_cell_length_c 10.775177
_cell_angle_alpha 90.000000
_cell_angle_beta 148.466880
_cell_angle_gamma 90.000000
_cell_volume 1371.320755
_symmetry_space_group_name_H-M "P 21/M"
_symmetry_group_IT_number 11
_symmetry_cell_setting 'monoclinic'
loop_
_space_group_symop_operation_xyz
x,y,z
-x,1/2+y,-z
-x,-y,-z
x,1/2-y,z
loop_
_atom_site_type_symbol
_atom_site_label
_atom_site_fract_x
_atom_site_fract_y
_atom_site_fract_z
Si Si1 0.710436 0.648050 0.642495
Si Si2 0.516058 0.140389 0.176035
Si Si3 0.239559 0.521377 0.103007
Si Si4 0.741640 0.139573 0.281425
Si Si5 0.084295 0.137931 0.716010
Si Si6 0.035666 0.419229 0.152319
Si Si7 0.211011 0.361871 0.618671
Si Si8 0.549432 0.444987 0.806558
O O1 0.682303 0.750000 0.666804
O O2 0.869428 0.650847 0.801467
O O3 0.585827 0.627051 0.368673
O O4 0.701979 0.552892 0.713741
O O5 0.507307 0.250000 0.212054
O O6 0.380622 0.129355 0.891617
O O7 0.666528 0.127028 0.310668
O O8 0.498758 0.056228 0.251237
O O9 0.163592 0.445865 0.902219
O O10 0.120071 0.592958 0.996600
O O11 0.365484 0.573883 0.202708
O O12 0.708448 0.250000 0.198729
O O13 0.914141 0.129128 0.511507
O O14 0.661414 0.072129 0.073033
O O15 0.127557 0.250000 0.805471
O O16 0.121035 0.124550 0.621871
O O17 0.146156 0.430907 0.422722
O O18 0.000000 0.500000 0.000000
O O19 0.186564 0.250000 0.545357
#
# Coordination Sequence:
#
# PCOD9160676 Si02
#       8
#     4   4   4   4   4   4   4   4
#     4  11  25  46  68  90 127 182 231 272 327 398
#     4  10  22  38  60  97 136 173 218 273 335 393
#     4  11  24  41  64  94 133 167 222 277 335 389
#     4  10  22  37  56  91 132 169 213 268 330 396
#     4  10  21  37  61  93 130 170 210 264 341 400
#     4  10  23  40  62  92 125 168 218 271 315 389
#     4  10  19  36  62  91 125 168 213 262 326 398
#     4  12  23  39  67  97 130 172 222 276 332 391
#
# _framework density 23.335169
#
# number of rings (size 3 to 8) (size 9 to 14) (size 15 to 20)
#    0.000    1.500    1.250    3.375    3.500    2.500 
#    0.000    1.875    0.000    3.000    0.000    0.000 
#    0.000    0.000    0.000    0.000    0.000    0.000 
#
# Total GULP energy -178748.839375 kJ/mol
# GULP energy per Si atom -5585.901230 kJ/mol
# Density = 2.328206 g / cm^3
# Si number density = 23.335169 Si / 1000 Ang^3
#
#
#
# Elastic Constant Matrix: (Units=GPa)
#
#
# Indices 1 2 3 4 5 6 
#
# 1 88.7375 15.1595 21.7537 0.0000 24.6248 0.0000
# 2 15.1595 85.6789 27.6911 0.0000 9.9001 0.0000
# 3 21.7537 27.6911 69.6703 0.0000 14.7820 0.0000
# 4 0.0000 0.0000 0.0000 1.7514 0.0000 6.3494
# 5 24.6248 9.9001 14.7820 0.0000 41.1973 0.0000
# 6 0.0000 0.0000 0.0000 6.3494 0.0000 15.6156
#
#
#
# Elastic Compliance Matrix: (Units=1/GPa)
#
#
# Indices 1 2 3 4 5 6 
#
# 1 0.014052 -0.000832 -0.002508 0.000000 -0.007299 0.000000
# 2 -0.000832 0.013518 -0.004902 0.000000 -0.000992 0.000000
# 3 -0.002508 -0.004902 0.017878 0.000000 -0.003738 0.000000
# 4 0.000000 0.000000 0.000000 -1.204305 0.000000 0.489682
# 5 -0.007299 -0.000992 -0.003738 0.000000 0.030216 0.000000
# 6 0.000000 0.000000 0.000000 0.489682 0.000000 -0.135071
#
#
# Mechanical properties :
#
#
# Convention : Reuss Voigt Hill
#
# Bulk Modulus (GPa) = 34.52789 41.47724 38.00256
# Shear Modulus (GPa) = -4.04016 23.67835 9.81909
#
# Velocity S-wave (km/s) = -1.31724 3.18890 2.05353
# Velocity P-wave (km/s) = 3.53767 5.60107 4.68439
#
# Compressibility (1/GPa) = 0.02896209
#
# Stress axis : x y z
#
# Youngs Moduli (GPa) = 71.16557 73.97645 55.93482
#
# Poissons Ratio (x) = 0.06157 0.14029
# Poissons Ratio (y) = 0.05923 0.27422
# Poissons Ratio (z) = 0.17848 0.36267
#
# Static dielectric constant tensor:
#      x y z
#    x 1.870770 0.000000 -0.017400 
#    y 0.000000 1.890460 0.000000 
#    z -0.017400 0.000000 1.881910 
# 
# From -- ./inp_files/41686.got.cif
#   From: 2010.05.17/outbox.cif.g08.bks.cpg/sg11_21_cif.got.tgz:41686.got - 2010.06.03 12:22:45.
