data_PCOD9160364
_publ_section_title
;
Structure prediction by ZEFSAII (Michael W. Deem and Ramdas Pophale) SiO2 
 PCOD9160364
Probable space group: P 21/M
;
_chemical_formula_sum "Si O2"
_cell_formula_units_Z 28
_cell_length_a 15.362325
_cell_length_b 8.745740
_cell_length_c 12.148755
_cell_angle_alpha 90.000000
_cell_angle_beta 119.216529
_cell_angle_gamma 90.000000
_cell_volume 1424.592710
_symmetry_space_group_name_H-M "P 21/M"
_symmetry_group_IT_number 11
_symmetry_cell_setting 'monoclinic'
loop_
_space_group_symop_operation_xyz
x,y,z
-x,1/2+y,-z
-x,-y,-z
x,1/2-y,z
loop_
_atom_site_type_symbol
_atom_site_label
_atom_site_fract_x
_atom_site_fract_y
_atom_site_fract_z
Si Si1 0.817886 0.925335 0.253614
Si Si2 0.708020 0.572775 0.966257
Si Si3 0.811446 0.069205 0.644809
Si Si4 0.987243 0.928629 0.612719
Si Si5 0.111990 0.066954 0.081047
Si Si6 0.684990 0.567333 0.381462
Si Si7 0.503788 0.068176 0.878696
O O1 0.857218 0.750000 0.276658
O O2 0.772532 0.957516 0.345178
O O3 0.903230 0.041895 0.271352
O O4 0.731317 0.931171 0.110564
O O5 0.688465 0.750000 0.923727
O O6 0.809274 0.525173 0.966507
O O7 0.609418 0.474544 0.889055
O O8 0.805926 0.250000 0.656908
O O9 0.906826 0.022775 0.630416
O O10 0.833876 0.988018 0.774145
O O11 0.717327 0.011156 0.514979
O O12 0.038668 0.250000 0.405410
O O13 0.000000 0.000000 0.500000
O O14 0.101569 0.250000 0.074841
O O15 0.000000 0.000000 0.000000
O O16 0.678351 0.750000 0.395264
O O17 0.585135 0.514211 0.257138
O O18 0.493114 0.250000 0.883130
O O19 0.500000 0.000000 0.000000
#
# Coordination Sequence:
#
# PCOD9160364 Si02
#       7
#     4   4   4   4   4   4   4
#     4  10  19  35  58  86 124 160 198 251 309 371
#     4  10  22  41  64  92 125 163 206 257 315 372
#     4  12  25  41  62  88 123 166 213 262 315 373
#     4  12  23  35  54  84 120 157 201 250 310 378
#     4  11  24  44  70  96 128 168 213 262 313 375
#     4  10  21  38  60  88 125 163 202 254 313 369
#     4  11  22  38  63  94 129 167 208 259 315 377
#
# _framework density 19.65474
#
# number of rings (size 3 to 8) (size 9 to 14) (size 15 to 20)
#    0.000    1.143    2.857    4.286    0.000    4.000 
#    0.000    0.714    0.000    0.000    0.000    0.000 
#    0.000    0.000    0.000    0.000    0.000    0.000 
#
# Total GULP energy -156376.323250 kJ/mol
# GULP energy per Si atom -5584.868688 kJ/mol
# Density = 1.961000 g / cm^3
# Si number density = 19.654740 Si / 1000 Ang^3
#
#
#
# Elastic Constant Matrix: (Units=GPa)
#
#
# Indices 1 2 3 4 5 6 
#
# 1 74.3622 32.5725 38.5949 0.0000 12.3670 0.0000
# 2 32.5725 46.6433 32.4431 0.0000 12.0920 0.0000
# 3 38.5949 32.4431 122.1278 0.0000 11.4201 0.0000
# 4 0.0000 0.0000 0.0000 32.0081 0.0000 5.1488
# 5 12.3670 12.0920 11.4201 0.0000 36.4206 0.0000
# 6 0.0000 0.0000 0.0000 5.1488 0.0000 30.1910
#
#
#
# Elastic Compliance Matrix: (Units=1/GPa)
#
#
# Indices 1 2 3 4 5 6 
#
# 1 0.020531 -0.011544 -0.003222 0.000000 -0.002128 0.000000
# 2 -0.011544 0.034499 -0.004957 0.000000 -0.005980 0.000000
# 3 -0.003222 -0.004957 0.010577 0.000000 -0.000577 0.000000
# 4 0.000000 0.000000 0.000000 0.032123 0.000000 -0.005478
# 5 -0.002128 -0.005980 -0.000577 0.000000 0.030346 0.000000
# 6 0.000000 0.000000 0.000000 -0.005478 0.000000 0.034057
#
#
# Mechanical properties :
#
#
# Convention : Reuss Voigt Hill
#
# Bulk Modulus (GPa) = 38.22704 50.03936 44.13320
# Shear Modulus (GPa) = 23.77545 29.02547 26.40046
#
# Velocity S-wave (km/s) = 3.48178 3.84704 3.66896
# Velocity P-wave (km/s) = 5.97120 6.72662 6.36014
#
# Compressibility (1/GPa) = 0.02615949
#
# Stress axis : x y z
#
# Youngs Moduli (GPa) = 48.70738 28.98608 94.54186
#
# Poissons Ratio (x) = 0.33462 0.30466
# Poissons Ratio (y) = 0.56229 0.46868
# Poissons Ratio (z) = 0.15696 0.14369
#
# Static dielectric constant tensor:
#      x y z
#    x 1.704690 0.000000 0.017380 
#    y 0.000000 1.655310 0.000000 
#    z 0.017380 0.000000 1.765800 
# 
# From -- ./inp_files/38491.got.cif
#   From: 2010.05.17/outbox.cif.g08.bks.cpg/sg11_20_cif.got.tgz:38491.got - 2010.06.03 12:22:45.
