data_PCOD9160877
_publ_section_title
;
Structure prediction by ZEFSAII (Michael W. Deem and Ramdas Pophale) SiO2 
 PCOD9160877
Probable space group: P 21/M
;
_chemical_formula_sum "Si O2"
_cell_formula_units_Z 32
_cell_length_a 10.416535
_cell_length_b 29.800211
_cell_length_c 8.570627
_cell_angle_alpha 90.000000
_cell_angle_beta 148.001322
_cell_angle_gamma 90.000000
_cell_volume 1409.772005
_symmetry_space_group_name_H-M "P 21/M"
_symmetry_group_IT_number 11
_symmetry_cell_setting 'monoclinic'
loop_
_space_group_symop_operation_xyz
x,y,z
-x,1/2+y,-z
-x,-y,-z
x,1/2-y,z
loop_
_atom_site_type_symbol
_atom_site_label
_atom_site_fract_x
_atom_site_fract_y
_atom_site_fract_z
Si Si1 0.200250 0.406730 0.848494
Si Si2 0.873795 0.032303 0.748165
Si Si3 0.247869 0.018534 0.675120
Si Si4 0.077925 0.675715 0.345204
Si Si5 0.410466 0.882823 0.504066
Si Si6 0.708822 0.701433 0.723724
Si Si7 0.910542 0.801658 0.591485
Si Si8 0.396041 0.801867 0.952439
O O1 0.239784 0.430389 0.724477
O O2 0.060976 0.439073 0.831593
O O3 0.038754 0.362918 0.670320
O O4 0.449813 0.393900 0.190018
O O5 0.697339 0.068541 0.650912
O O6 0.749289 0.998179 0.498605
O O7 0.000000 0.000000 0.000000
O O8 0.000000 0.000000 0.500000
O O9 0.500000 0.000000 0.000000
O O10 0.187756 0.648960 0.313952
O O11 0.291237 0.696936 0.667819
O O12 0.863189 0.702762 0.043145
O O13 0.579199 0.847445 0.587347
O O14 0.569222 0.750000 0.574470
O O15 0.868274 0.701092 0.732010
O O16 0.927633 0.750000 0.545413
O O17 0.174519 0.821610 0.825883
O O18 0.662206 0.821199 0.260623
O O19 0.424436 0.750000 0.029708
#
# Coordination Sequence:
#
# PCOD9160877 Si02
#       8
#     4   4   4   4   4   4   4   4
#     4   9  20  39  59  87 124 164 205 256 313 380
#     4  10  21  39  65  93 127 166 211 268 327 382
#     4  10  19  38  65  89 119 166 207 244 311 383
#     4  10  22  37  61  87 123 161 211 266 313 378
#     4  10  21  39  62  89 131 163 211 272 326 376
#     4  10  22  39  62  89 121 171 218 260 323 397
#     4   9  21  39  59  83 119 159 203 260 322 378
#     4  10  21  39  61  88 120 159 208 265 317 370
#
# _framework density 22.698706999999999
#
# number of rings (size 3 to 8) (size 9 to 14) (size 15 to 20)
#    0.000    2.250    1.250    0.375    5.250    1.500 
#    2.250    0.000    0.000    0.000    0.000    0.000 
#    0.000    0.000    0.000    0.000    0.000    0.000 
#
# Total GULP energy -178177.161190 kJ/mol
# GULP energy per Si atom -5568.036287 kJ/mol
# Density = 2.264704 g / cm^3
# Si number density = 22.698707 Si / 1000 Ang^3
#
#
#
# Elastic Constant Matrix: (Units=GPa)
#
#
# Indices 1 2 3 4 5 6 
#
# 1 59.0052 20.6255 27.1248 0.0000 4.6176 0.0000
# 2 20.6255 78.4912 33.3535 0.0000 -4.0723 0.0000
# 3 27.1248 33.3535 101.5865 0.0000 2.8495 0.0000
# 4 0.0000 0.0000 0.0000 28.7423 0.0000 -0.3807
# 5 4.6176 -4.0723 2.8495 0.0000 36.0256 0.0000
# 6 0.0000 0.0000 0.0000 -0.3807 0.0000 22.0327
#
#
#
# Elastic Compliance Matrix: (Units=1/GPa)
#
#
# Indices 1 2 3 4 5 6 
#
# 1 0.020366 -0.003735 -0.004136 0.000000 -0.002705 0.000000
# 2 -0.003735 0.015645 -0.004212 0.000000 0.002580 0.000000
# 3 -0.004136 -0.004212 0.012357 0.000000 -0.000923 0.000000
# 4 0.000000 0.000000 0.000000 0.034800 0.000000 0.000601
# 5 -0.002705 0.002580 -0.000923 0.000000 0.028470 0.000000
# 6 0.000000 0.000000 0.000000 0.000601 0.000000 0.045398
#
#
# Mechanical properties :
#
#
# Convention : Reuss Voigt Hill
#
# Bulk Modulus (GPa) = 41.31644 44.58782 42.95213
# Shear Modulus (GPa) = 26.41755 27.89205 27.15480
#
# Velocity S-wave (km/s) = 3.41520 3.50922 3.46253
# Velocity P-wave (km/s) = 5.81318 6.00878 5.91179
#
# Compressibility (1/GPa) = 0.02420344
#
# Stress axis : x y z
#
# Youngs Moduli (GPa) = 49.10116 63.91689 80.92597
#
# Poissons Ratio (x) = 0.23870 0.33471
# Poissons Ratio (y) = 0.18337 0.34086
# Poissons Ratio (z) = 0.20308 0.26922
#
# Static dielectric constant tensor:
#      x y z
#    x 1.902790 0.000000 0.059380 
#    y 0.000000 1.868240 0.000000 
#    z 0.059380 0.000000 1.819140 
# 
# From -- ./inp_files/19881.got.cif
#   From: 2010.05.17/outbox.cif.g08.bks.cpg/sg11_10_cif.got.tgz:19881.got - 2010.06.03 12:22:45.
