data_PCOD9160409
_publ_section_title
;
Structure prediction by ZEFSAII (Michael W. Deem and Ramdas Pophale) SiO2 
 PCOD9160409
Probable space group: P 21/M
;
_chemical_formula_sum "Si O2"
_cell_formula_units_Z 32
_cell_length_a 14.502473
_cell_length_b 14.344109
_cell_length_c 21.262945
_cell_angle_alpha 90.000000
_cell_angle_beta 23.112737
_cell_angle_gamma 90.000000
_cell_volume 1736.299861
_symmetry_space_group_name_H-M "P 21/M"
_symmetry_group_IT_number 11
_symmetry_cell_setting 'monoclinic'
loop_
_space_group_symop_operation_xyz
x,y,z
-x,1/2+y,-z
-x,-y,-z
x,1/2-y,z
loop_
_atom_site_type_symbol
_atom_site_label
_atom_site_fract_x
_atom_site_fract_y
_atom_site_fract_z
Si Si1 0.497229 0.527296 0.927542
Si Si2 0.911589 0.854656 0.674032
Si Si3 0.841960 0.139045 0.941268
Si Si4 0.462809 0.638281 0.347887
Si Si5 0.764758 0.650535 0.910940
Si Si6 0.820456 0.356823 0.259043
Si Si7 0.842306 0.520711 0.038487
Si Si8 0.390395 0.362823 0.602212
O O1 0.748334 0.565277 0.746919
O O2 0.500000 0.500000 0.000000
O O3 0.309977 0.605593 0.023358
O O4 0.394356 0.432174 0.963486
O O5 0.885769 0.750000 0.662611
O O6 0.799726 0.849999 0.814263
O O7 0.186052 0.876057 0.509024
O O8 0.814555 0.250000 0.969480
O O9 0.118978 0.118238 0.758306
O O10 0.775216 0.072968 0.042210
O O11 0.508116 0.750000 0.314077
O O12 0.619996 0.580267 0.200862
O O13 0.536671 0.609326 0.372742
O O14 0.664042 0.750000 0.993871
O O15 0.027669 0.645080 0.772353
O O16 0.799644 0.250000 0.248845
O O17 0.568525 0.396745 0.436623
O O18 0.982664 0.417031 0.112878
O O19 0.000000 0.500000 0.000000
O O20 0.418963 0.250000 0.583670
#
# Coordination Sequence:
#
# PCOD9160409 Si02
#       8
#     4   4   4   4   4   4   4   4
#     4  10  20  36  58  89 116 150 202 249 305 355
#     4   9  17  32  58  86 114 151 195 244 294 352
#     4  11  23  40  60  86 125 164 203 247 306 374
#     4  10  19  36  60  89 121 154 204 254 297 355
#     4   9  16  30  55  86 116 145 185 243 301 348
#     4  10  19  35  59  88 121 150 194 250 300 351
#     4  12  24  37  55  92 122 165 203 239 304 361
#     4   9  18  35  61  89 119 157 194 244 305 363
#
# _framework density 18.429997
#
# number of rings (size 3 to 8) (size 9 to 14) (size 15 to 20)
#    0.000    2.000    3.750    0.750    0.000    1.500 
#    4.500    0.625    0.000    0.750    0.000    0.000 
#    0.000    0.000    0.000    0.000    0.000    0.000 
#
# Total GULP energy -178253.762120 kJ/mol
# GULP energy per Si atom -5570.430066 kJ/mol
# Density = 1.838805 g / cm^3
# Si number density = 18.429997 Si / 1000 Ang^3
#
#
#
# Elastic Constant Matrix: (Units=GPa)
#
#
# Indices 1 2 3 4 5 6 
#
# 1 55.7396 27.4067 32.6395 0.0000 -10.4212 0.0000
# 2 27.4067 106.2732 66.1671 0.0000 -9.1778 0.0000
# 3 32.6395 66.1671 118.1058 0.0000 -14.5933 0.0000
# 4 0.0000 0.0000 0.0000 24.1926 0.0000 -3.5871
# 5 -10.4212 -9.1778 -14.5933 0.0000 26.8475 0.0000
# 6 0.0000 0.0000 0.0000 -3.5871 0.0000 24.8589
#
#
#
# Elastic Compliance Matrix: (Units=1/GPa)
#
#
# Indices 1 2 3 4 5 6 
#
# 1 0.022751 -0.002916 -0.003951 0.000000 0.005687 0.000000
# 2 -0.002916 0.014832 -0.007522 0.000000 -0.000150 0.000000
# 3 -0.003951 -0.007522 0.014221 0.000000 0.003625 0.000000
# 4 0.000000 0.000000 0.000000 0.042239 0.000000 0.006095
# 5 0.005687 -0.000150 0.003625 0.000000 0.041374 0.000000
# 6 0.000000 0.000000 0.000000 0.006095 0.000000 0.041107
#
#
# Mechanical properties :
#
#
# Convention : Reuss Voigt Hill
#
# Bulk Modulus (GPa) = 43.43013 59.17169 51.30091
# Shear Modulus (GPa) = 23.47665 25.44015 24.45840
#
# Velocity S-wave (km/s) = 3.57294 3.71936 3.64689
# Velocity P-wave (km/s) = 6.37474 7.11482 6.75493
#
# Compressibility (1/GPa) = 0.02302549
#
# Stress axis : x y z
#
# Youngs Moduli (GPa) = 43.95358 67.42085 70.31849
#
# Poissons Ratio (x) = 0.19661 0.27783
# Poissons Ratio (y) = 0.12818 0.52895
# Poissons Ratio (z) = 0.17366 0.50715
#
# Static dielectric constant tensor:
#      x y z
#    x 0.860370 0.000000 -0.087300 
#    y 0.000000 1.705280 0.000000 
#    z -0.087300 0.000000 1.616500 
# 
# From -- ./inp_files/65751.got.cif
#   From: 2010.05.17/outbox.cif.g08.bks.cpg/sg11_33_cif.got.tgz:65751.got - 2010.06.03 12:22:45.
