data_PCOD9160850
_publ_section_title
;
Structure prediction by ZEFSAII (Michael W. Deem and Ramdas Pophale) SiO2 
 PCOD9160850
Probable space group: P 21/M
;
_chemical_formula_sum "Si O2"
_cell_formula_units_Z 32
_cell_length_a 9.691351
_cell_length_b 20.261768
_cell_length_c 11.799188
_cell_angle_alpha 90.000000
_cell_angle_beta 129.692920
_cell_angle_gamma 90.000000
_cell_volume 1782.831347
_symmetry_space_group_name_H-M "P 21/M"
_symmetry_group_IT_number 11
_symmetry_cell_setting 'monoclinic'
loop_
_space_group_symop_operation_xyz
x,y,z
-x,1/2+y,-z
-x,-y,-z
x,1/2-y,z
loop_
_atom_site_type_symbol
_atom_site_label
_atom_site_fract_x
_atom_site_fract_y
_atom_site_fract_z
Si Si1 0.766767 0.436874 0.821027
Si Si2 0.853405 0.415210 0.609972
Si Si3 0.620256 0.573208 0.278815
Si Si4 0.360550 0.325899 0.111672
Si Si5 0.875369 0.911168 0.851953
Si Si6 0.188626 0.174143 0.778617
Si Si7 0.680823 0.422878 0.286061
Si Si8 0.940882 0.934462 0.628254
O O1 0.781634 0.412133 0.699685
O O2 0.576964 0.417900 0.774109
O O3 0.787500 0.516592 0.827402
O O4 0.934194 0.411537 0.982978
O O5 0.704675 0.416608 0.434551
O O6 0.953655 0.485966 0.650656
O O7 0.993720 0.357588 0.659532
O O8 0.672281 0.627964 0.214822
O O9 0.628713 0.498695 0.234226
O O10 0.773404 0.576815 0.456682
O O11 0.410866 0.250000 0.158633
O O12 0.253851 0.357301 0.160654
O O13 0.531298 0.371070 0.173068
O O14 0.233019 0.328564 0.935010
O O15 0.906157 0.904876 0.733925
O O16 0.197619 0.250000 0.745848
O O17 0.874553 0.410985 0.331262
#
# Coordination Sequence:
#
# PCOD9160850 Si02
#       8
#     4   4   4   4   4   4   4   4
#     4  10  21  34  63  91 114 149 199 242 288 345
#     4  10  19  38  61  87 119 153 199 241 291 352
#     4  11  21  38  61  92 121 152 197 252 295 343
#     4  11  25  42  59  85 120 160 198 238 300 361
#     4  10  21  38  57  91 120 149 190 245 294 346
#     4  11  23  41  60  82 120 161 197 244 294 353
#     4  11  21  37  63  91 119 156 195 250 294 346
#     4  10  21  35  62  94 121 144 195 251 300 338
#
# _framework density 17.948976999999999
#
# number of rings (size 3 to 8) (size 9 to 14) (size 15 to 20)
#    0.000    1.500    5.000    0.750    3.500    2.500 
#    0.000    2.500    0.000    0.000    0.000    0.000 
#    0.000    0.000    0.000    0.000    0.000    0.000 
#
# Total GULP energy -178687.235522 kJ/mol
# GULP energy per Si atom -5583.976110 kJ/mol
# Density = 1.790812 g / cm^3
# Si number density = 17.948977 Si / 1000 Ang^3
#
#
#
# Elastic Constant Matrix: (Units=GPa)
#
#
# Indices 1 2 3 4 5 6 
#
# 1 90.8254 42.6607 11.0100 0.0000 4.9966 0.0000
# 2 42.6607 100.1320 28.8058 0.0000 1.6583 0.0000
# 3 11.0100 28.8058 26.2263 0.0000 -4.9664 0.0000
# 4 0.0000 0.0000 0.0000 21.0198 0.0000 -1.2227
# 5 4.9966 1.6583 -4.9664 0.0000 31.4627 0.0000
# 6 0.0000 0.0000 0.0000 -1.2227 0.0000 24.3874
#
#
#
# Elastic Compliance Matrix: (Units=1/GPa)
#
#
# Indices 1 2 3 4 5 6 
#
# 1 0.013880 -0.006005 0.000424 0.000000 -0.001821 0.000000
# 2 -0.006005 0.017560 -0.017278 0.000000 -0.002699 0.000000
# 3 0.000424 -0.017278 0.058847 0.000000 0.010132 0.000000
# 4 0.000000 0.000000 0.000000 0.047713 0.000000 0.002392
# 5 -0.001821 -0.002699 0.010132 0.000000 0.033814 0.000000
# 6 0.000000 0.000000 0.000000 0.002392 0.000000 0.041125
#
#
# Mechanical properties :
#
#
# Convention : Reuss Voigt Hill
#
# Bulk Modulus (GPa) = 22.43654 42.45964 32.44809
# Shear Modulus (GPa) = 18.28062 24.35445 21.31754
#
# Velocity S-wave (km/s) = 3.19482 3.68757 3.45000
# Velocity P-wave (km/s) = 5.11239 6.46823 5.82986
#
# Compressibility (1/GPa) = 0.04457014
#
# Stress axis : x y z
#
# Youngs Moduli (GPa) = 72.04865 56.94624 16.99313
#
# Poissons Ratio (x) = 0.34197 -0.00721
# Poissons Ratio (y) = 0.43267 0.29360
# Poissons Ratio (z) = -0.03057 0.98390
#
# Static dielectric constant tensor:
#      x y z
#    x 1.598660 0.000000 -0.007880 
#    y 0.000000 1.598230 0.000000 
#    z -0.007880 0.000000 1.612170 
# 
# From -- ./inp_files/19346.got.cif
#   From: 2010.05.17/outbox.cif.g08.bks.cpg/sg11_10_cif.got.tgz:19346.got - 2010.06.03 12:22:45.
