data_PCOD9160125
_publ_section_title
;
Structure prediction by ZEFSAII (Michael W. Deem and Ramdas Pophale) SiO2 
 PCOD9160125
Probable space group: P 21/M
;
_chemical_formula_sum "Si O2"
_cell_formula_units_Z 28
_cell_length_a 7.685673
_cell_length_b 25.792548
_cell_length_c 5.648227
_cell_angle_alpha 90.000000
_cell_angle_beta 95.197915
_cell_angle_gamma 90.000000
_cell_volume 1115.061085
_symmetry_space_group_name_H-M "P 21/M"
_symmetry_group_IT_number 11
_symmetry_cell_setting 'monoclinic'
loop_
_space_group_symop_operation_xyz
x,y,z
-x,1/2+y,-z
-x,-y,-z
x,1/2-y,z
loop_
_atom_site_type_symbol
_atom_site_label
_atom_site_fract_x
_atom_site_fract_y
_atom_site_fract_z
Si Si1 0.660537 0.359680 0.030206
Si Si2 0.088082 0.355094 0.093187
Si Si3 0.055155 0.336894 0.594442
Si Si4 0.911985 0.048630 0.616165
Si Si5 0.763757 0.971056 0.912418
Si Si6 0.400656 0.962698 0.739127
Si Si7 0.349689 0.690963 0.469886
O O1 0.600155 0.338276 0.768170
O O2 0.598464 0.418241 0.058975
O O3 0.599650 0.331176 0.264828
O O4 0.874270 0.357021 0.060598
O O5 0.141772 0.329488 0.349365
O O6 0.154829 0.414447 0.096784
O O7 0.142478 0.325875 0.858517
O O8 0.019324 0.399137 0.608682
O O9 0.863752 0.311183 0.560660
O O10 0.728469 0.060406 0.469480
O O11 0.873533 0.022377 0.860712
O O12 0.000000 0.000000 0.500000
O O13 0.601869 0.971116 0.706634
O O14 0.682557 0.986015 0.155505
O O15 0.407715 0.750000 0.458974
#
# Coordination Sequence:
#
# PCOD9160125 Si02
#       7
#     4   4   4   4   4   4   4
#     4  10  20  37  56  82 113 143 185 234 289 338
#     4  10  19  36  52  79 105 149 188 223 269 334
#     4  10  20  33  57  79 114 136 189 228 284 327
#     4  12  20  34  55  77 113 153 190 233 271 337
#     4  11  23  34  51  77 115 158 200 225 275 333
#     4  11  23  36  49  79 117 156 192 240 275 328
#     4  10  19  34  59  88 110 135 181 245 298 336
#
# _framework density 25.110731000000001
#
# number of rings (size 3 to 8) (size 9 to 14) (size 15 to 20)
#    0.000    1.429    4.286    3.429    0.000    1.714 
#    0.000    0.000    0.000    0.000    0.000   24.000 
#    0.000    0.000    0.000    0.000    0.000    0.000 
#
# Total GULP energy -156470.523199 kJ/mol
# GULP energy per Si atom -5588.232971 kJ/mol
# Density = 2.505358 g / cm^3
# Si number density = 25.110731 Si / 1000 Ang^3
#
#
#
# Elastic Constant Matrix: (Units=GPa)
#
#
# Indices 1 2 3 4 5 6 
#
# 1 21.8972 -2.4820 20.8817 0.0000 -2.9488 0.0000
# 2 -2.4820 52.5288 21.7878 0.0000 -12.7729 0.0000
# 3 20.8817 21.7878 199.4848 0.0000 -12.8206 0.0000
# 4 0.0000 0.0000 0.0000 27.0538 0.0000 -3.3888
# 5 -2.9488 -12.7729 -12.8206 0.0000 27.9521 0.0000
# 6 0.0000 0.0000 0.0000 -3.3888 0.0000 11.3097
#
#
#
# Elastic Compliance Matrix: (Units=1/GPa)
#
#
# Indices 1 2 3 4 5 6 
#
# 1 0.052729 0.006316 -0.005839 0.000000 0.005771 0.000000
# 2 0.006316 0.022792 -0.002512 0.000000 0.009929 0.000000
# 3 -0.005839 -0.002512 0.005961 0.000000 0.000970 0.000000
# 4 0.000000 0.000000 0.000000 0.038405 0.000000 0.011507
# 5 0.005771 0.009929 0.000970 0.000000 0.041366 0.000000
# 6 0.000000 0.000000 0.000000 0.011507 0.000000 0.091867
#
#
# Mechanical properties :
#
#
# Convention : Reuss Voigt Hill
#
# Bulk Modulus (GPa) = 12.91778 39.36507 26.14143
# Shear Modulus (GPa) = 17.66824 28.84467 23.25646
#
# Velocity S-wave (km/s) = 2.65545 3.39292 3.04658
# Velocity P-wave (km/s) = 3.81541 5.57314 4.77584
#
# Compressibility (1/GPa) = 0.07741269
#
# Stress axis : x y z
#
# Youngs Moduli (GPa) = 18.96495 43.87495 167.76185
#
# Poissons Ratio (x) = -0.27713 0.97948
# Poissons Ratio (y) = -0.11979 0.42149
# Poissons Ratio (z) = 0.11073 0.11023
#
# Static dielectric constant tensor:
#      x y z
#    x 2.126410 0.000000 -0.033260 
#    y 0.000000 1.912290 0.000000 
#    z -0.033260 0.000000 2.154530 
# 
# From -- ./inp_files/3045.got.cif
#   From: 2010.05.17/outbox.cif.g08.bks.cpg/sg11_2_cif.got.tgz:3045.got - 2010.06.03 12:22:45.
