data_PCOD9160433
_publ_section_title
;
Structure prediction by ZEFSAII (Michael W. Deem and Ramdas Pophale) SiO2 
 PCOD9160433
Probable space group: P 21/M
;
_chemical_formula_sum "Si O2"
_cell_formula_units_Z 32
_cell_length_a 11.561814
_cell_length_b 8.729918
_cell_length_c 21.700131
_cell_angle_alpha 90.000000
_cell_angle_beta 52.447563
_cell_angle_gamma 90.000000
_cell_volume 1736.440385
_symmetry_space_group_name_H-M "P 21/M"
_symmetry_group_IT_number 11
_symmetry_cell_setting 'monoclinic'
loop_
_space_group_symop_operation_xyz
x,y,z
-x,1/2+y,-z
-x,-y,-z
x,1/2-y,z
loop_
_atom_site_type_symbol
_atom_site_label
_atom_site_fract_x
_atom_site_fract_y
_atom_site_fract_z
Si Si1 0.980733 0.433811 0.574377
Si Si2 0.157748 0.928943 0.937407
Si Si3 0.279423 0.065190 0.541720
Si Si4 0.370215 0.069889 0.113088
Si Si5 0.308536 0.431601 0.272064
Si Si6 0.562151 0.934794 0.385745
Si Si7 0.682316 0.926927 0.003332
Si Si8 0.607795 0.566021 0.230010
O O1 0.979864 0.250000 0.572186
O O2 0.119333 0.482774 0.571210
O O3 0.000000 0.500000 0.500000
O O4 0.828346 0.492329 0.650552
O O5 0.146318 0.750000 0.928407
O O6 0.243560 0.961312 0.972775
O O7 0.252226 0.006588 0.852699
O O8 0.000000 0.000000 0.000000
O O9 0.285060 0.250000 0.537394
O O10 0.326356 0.018404 0.595831
O O11 0.404661 0.000697 0.456022
O O12 0.309946 0.250000 0.283688
O O13 0.295846 0.044737 0.202652
O O14 0.509980 0.960405 0.063719
O O15 0.277524 0.046362 0.081174
O O16 0.582483 0.750000 0.904153
O O17 0.461637 0.500506 0.245633
O O18 0.552887 0.750000 0.389602
O O19 0.606880 0.980884 0.302294
O O20 0.713134 0.750000 0.009568
O O21 0.603818 0.750000 0.228015
#
# Coordination Sequence:
#
# PCOD9160433 Si02
#       8
#     4   4   4   4   4   4   4   4
#     4  11  23  38  57  83 118 155 194 238 292 346
#     4  12  25  42  61  84 116 153 194 242 297 352
#     4   9  19  37  58  82 115 152 191 233 281 339
#     4   9  19  35  57  85 116 151 189 235 286 342
#     4  11  22  37  58  85 119 154 193 238 287 345
#     4   9  19  36  60  86 114 148 189 235 282 336
#     4  10  19  35  60  86 115 148 190 237 286 344
#     4  11  22  38  61  88 116 148 192 241 290 346
#
# _framework density 18.428502999999999
#
# number of rings (size 3 to 8) (size 9 to 14) (size 15 to 20)
#    0.000    1.750    1.250    3.375    0.000    5.000 
#    2.250    0.000    0.000    0.000    0.000    0.000 
#    0.000    0.000    0.000    0.000    0.000    0.000 
#
# Total GULP energy -178658.394919 kJ/mol
# GULP energy per Si atom -5583.074841 kJ/mol
# Density = 1.838656 g / cm^3
# Si number density = 18.428503 Si / 1000 Ang^3
#
#
#
# Elastic Constant Matrix: (Units=GPa)
#
#
# Indices 1 2 3 4 5 6 
#
# 1 59.9150 21.1203 64.1009 0.0000 -1.7687 0.0000
# 2 21.1203 55.3876 46.7828 0.0000 3.2271 0.0000
# 3 64.1009 46.7828 160.1881 0.0000 8.3081 0.0000
# 4 0.0000 0.0000 0.0000 30.7068 0.0000 -2.6952
# 5 -1.7687 3.2271 8.3081 0.0000 30.3788 0.0000
# 6 0.0000 0.0000 0.0000 -2.6952 0.0000 27.1774
#
#
#
# Elastic Compliance Matrix: (Units=1/GPa)
#
#
# Indices 1 2 3 4 5 6 
#
# 1 0.030081 -0.001829 -0.011771 0.000000 0.005165 0.000000
# 2 -0.001829 0.024090 -0.006254 0.000000 -0.000955 0.000000
# 3 -0.011771 -0.006254 0.012964 0.000000 -0.003566 0.000000
# 4 0.000000 0.000000 0.000000 0.032852 0.000000 0.003258
# 5 0.005165 -0.000955 -0.003566 0.000000 0.034295 0.000000
# 6 0.000000 0.000000 0.000000 0.003258 0.000000 0.037118
#
#
# Mechanical properties :
#
#
# Convention : Reuss Voigt Hill
#
# Bulk Modulus (GPa) = 36.46002 59.94431 48.20216
# Shear Modulus (GPa) = 22.70138 27.21837 24.95988
#
# Velocity S-wave (km/s) = 3.51360 3.84731 3.68423
# Velocity P-wave (km/s) = 6.02395 7.23425 6.65666
#
# Compressibility (1/GPa) = 0.02742731
#
# Stress axis : x y z
#
# Youngs Moduli (GPa) = 33.24402 41.51077 77.13490
#
# Poissons Ratio (x) = 0.07593 0.90793
# Poissons Ratio (y) = 0.06081 0.48240
# Poissons Ratio (z) = 0.39131 0.25961
#
# Static dielectric constant tensor:
#      x y z
#    x 1.671860 0.000000 0.019290 
#    y 0.000000 1.623000 0.000000 
#    z 0.019290 0.000000 1.623400 
# 
# From -- ./inp_files/64380.got.cif
#   From: 2010.05.17/outbox.cif.g08.bks.cpg/sg11_33_cif.got.tgz:64380.got - 2010.06.03 12:22:45.
