data_PCOD9160191
_publ_section_title
;
Structure prediction by ZEFSAII (Michael W. Deem and Ramdas Pophale) SiO2 
 PCOD9160191
Probable space group: P 21/M
;
_chemical_formula_sum "Si O2"
_cell_formula_units_Z 32
_cell_length_a 11.364527
_cell_length_b 16.475486
_cell_length_c 17.878463
_cell_angle_alpha 90.000000
_cell_angle_beta 26.556209
_cell_angle_gamma 90.000000
_cell_volume 1496.582650
_symmetry_space_group_name_H-M "P 21/M"
_symmetry_group_IT_number 11
_symmetry_cell_setting 'monoclinic'
loop_
_space_group_symop_operation_xyz
x,y,z
-x,1/2+y,-z
-x,-y,-z
x,1/2-y,z
loop_
_atom_site_type_symbol
_atom_site_label
_atom_site_fract_x
_atom_site_fract_y
_atom_site_fract_z
Si Si1 0.073796 0.578997 0.407010
Si Si2 0.550292 0.024820 0.121660
Si Si3 0.343400 0.837598 0.378695
Si Si4 0.073368 0.346471 0.660922
Si Si5 0.693790 0.991522 0.193046
Si Si6 0.905895 0.158999 0.315394
Si Si7 0.157309 0.008740 0.726433
Si Si8 0.465262 0.160869 0.055413
O O1 0.360328 0.550679 0.214054
O O2 0.133308 0.648678 0.432692
O O3 0.904868 0.610005 0.432829
O O4 0.000000 0.500000 0.500000
O O5 0.556090 0.045638 0.207031
O O6 0.436542 0.095353 0.135829
O O7 0.849816 0.011069 0.926001
O O8 0.468280 0.750000 0.301380
O O9 0.195599 0.843728 0.541648
O O10 0.568439 0.904638 0.245988
O O11 0.158415 0.250000 0.614974
O O12 0.189061 0.409591 0.657566
O O13 0.758265 0.344532 0.855875
O O14 0.674088 0.997562 0.293294
O O15 0.000000 0.000000 0.000000
O O16 0.835433 0.250000 0.326011
O O17 0.223286 0.152700 0.136205
O O18 0.802225 0.077116 0.337127
O O19 0.437754 0.250000 0.105005
#
# Coordination Sequence:
#
# PCOD9160191 Si02
#       8
#     4   4   4   4   4   4   4   4
#     4  11  20  32  52  78 111 145 178 221 278 332
#     4   9  18  33  52  75 102 137 183 222 267 329
#     4  10  21  36  55  78 106 141 182 226 271 329
#     4  10  20  32  51  80 108 139 183 227 271 329
#     4   9  20  37  54  74 102 140 187 228 269 323
#     4  10  20  34  54  82 110 139 176 218 276 340
#     4  10  19  35  55  75 105 143 178 225 276 319
#     4   9  17  31  52  77 108 140 172 221 278 331
#
# _framework density 21.382045999999999
#
# number of rings (size 3 to 8) (size 9 to 14) (size 15 to 20)
#    0.000    2.250    0.000    3.375    0.000    3.000 
#    0.000   10.000    0.000    0.000    0.000    0.875 
#    0.000    0.000    0.000    0.000    0.000    0.000 
#
# Total GULP energy -178333.798146 kJ/mol
# GULP energy per Si atom -5572.931192 kJ/mol
# Density = 2.133338 g / cm^3
# Si number density = 21.382046 Si / 1000 Ang^3
#
#
#
# Elastic Constant Matrix: (Units=GPa)
#
#
# Indices 1 2 3 4 5 6 
#
# 1 97.8226 55.9877 3.5967 0.0000 30.1449 0.0000
# 2 55.9877 124.0745 24.1222 0.0000 31.1978 0.0000
# 3 3.5967 24.1222 65.9822 0.0000 -1.4637 0.0000
# 4 0.0000 0.0000 0.0000 21.7142 0.0000 -5.7932
# 5 30.1449 31.1978 -1.4637 0.0000 29.9598 0.0000
# 6 0.0000 0.0000 0.0000 -5.7932 0.0000 -5.8727
#
#
#
# Elastic Compliance Matrix: (Units=1/GPa)
#
#
# Indices 1 2 3 4 5 6 
#
# 1 0.016439 -0.004558 0.000509 0.000000 -0.011770 0.000000
# 2 -0.004558 0.013517 -0.004909 0.000000 -0.009730 0.000000
# 3 0.000509 -0.004909 0.017043 0.000000 0.005432 0.000000
# 4 0.000000 0.000000 0.000000 0.036458 0.000000 -0.035964
# 5 -0.011770 -0.009730 0.005432 0.000000 0.055618 0.000000
# 6 0.000000 0.000000 0.000000 -0.035964 0.000000 -0.134801
#
#
# Mechanical properties :
#
#
# Convention : Reuss Voigt Hill
#
# Bulk Modulus (GPa) = 34.38283 50.58807 42.48545
# Shear Modulus (GPa) = 156.81529 22.77177 89.79353
#
# Velocity S-wave (km/s) = 8.57315 3.26697 6.48737
# Velocity P-wave (km/s) = 10.68240 6.15965 8.71937
#
# Compressibility (1/GPa) = 0.02908428
#
# Stress axis : x y z
#
# Youngs Moduli (GPa) = 60.82921 73.98005 58.67491
#
# Poissons Ratio (x) = 0.33717 -0.02986
# Poissons Ratio (y) = 0.27723 0.28804
# Poissons Ratio (z) = -0.03096 0.36317
#
# Static dielectric constant tensor:
#      x y z
#    x 1.795120 0.000000 0.016230 
#    y 0.000000 1.784760 0.000000 
#    z 0.016230 0.000000 1.841030 
# 
# From -- ./inp_files/59456.got.cif
#   From: 2010.05.17/outbox.cif.g08.bks.cpg/sg11_30_cif.got.tgz:59456.got - 2010.06.03 12:22:45.
