data_PCOD9160604
_publ_section_title
;
Structure prediction by ZEFSAII (Michael W. Deem and Ramdas Pophale) SiO2 
 PCOD9160604
Probable space group: P 21/M
;
_chemical_formula_sum "Si O2"
_cell_formula_units_Z 28
_cell_length_a 12.055588
_cell_length_b 17.109590
_cell_length_c 5.370711
_cell_angle_alpha 90.000000
_cell_angle_beta 100.800203
_cell_angle_gamma 90.000000
_cell_volume 1088.173129
_symmetry_space_group_name_H-M "P 21/M"
_symmetry_group_IT_number 11
_symmetry_cell_setting 'monoclinic'
loop_
_space_group_symop_operation_xyz
x,y,z
-x,1/2+y,-z
-x,-y,-z
x,1/2-y,z
loop_
_atom_site_type_symbol
_atom_site_label
_atom_site_fract_x
_atom_site_fract_y
_atom_site_fract_z
Si Si1 0.901504 0.000864 0.758503
Si Si2 0.710243 0.167573 0.970036
Si Si3 0.139120 0.836128 0.468003
Si Si4 0.679878 0.494204 0.004905
Si Si5 0.539867 0.915300 0.625033
Si Si6 0.314343 0.250000 0.862019
Si Si7 0.766998 0.601773 0.420377
Si Si8 0.464793 0.250000 0.428017
O O1 0.881070 0.917309 0.614599
O O2 0.918385 0.079666 0.604797
O O3 0.781370 0.007113 0.850342
O O4 0.000000 0.000000 0.000000
O O5 0.649600 0.250000 0.968334
O O6 0.798141 0.161306 0.238323
O O7 0.633018 0.092419 0.970423
O O8 0.776030 0.167403 0.735265
O O9 0.079272 0.750000 0.436256
O O10 0.740476 0.518879 0.279980
O O11 0.586325 0.558630 0.912416
O O12 0.656957 0.889384 0.544252
O O13 0.471306 0.834249 0.576899
O O14 0.500000 0.000000 0.500000
O O15 0.237840 0.172909 0.775502
O O16 0.406794 0.250000 0.677175
O O17 0.375114 0.250000 0.155881
#
# Coordination Sequence:
#
# PCOD9160604 Si02
#       8
#     4   4   4   4   4   2   4   2
#     4  10  21  36  56  85 119 156 203 253 303 358
#     4   9  17  31  54  78 108 149 190 231 286 352
#     4   9  17  32  53  75 107 150 188 230 290 348
#     4  10  19  36  60  82 117 158 202 245 307 361
#     4  10  22  39  63  90 123 160 204 252 308 373
#     4  10  20  38  66  88 121 162 210 253 308 370
#     4  10  20  38  62  87 117 163 202 251 309 363
#     4  10  20  40  64  92 123 166 198 257 316 362
#
# _framework density 25.731197000000002
#
# number of rings (size 3 to 8) (size 9 to 14) (size 15 to 20)
#    0.000    2.286    2.857    0.000    0.000    1.143 
#    2.571    0.000    3.143    0.000    0.000    0.000 
#    0.000    0.000    0.000    0.000    0.000    0.000 
#
# Total GULP energy -156180.063823 kJ/mol
# GULP energy per Si atom -5577.859422 kJ/mol
# Density = 2.567263 g / cm^3
# Si number density = 25.731197 Si / 1000 Ang^3
#
#
#
# Elastic Constant Matrix: (Units=GPa)
#
#
# Indices 1 2 3 4 5 6 
#
# 1 73.1556 17.4317 23.7837 0.0000 -6.2965 0.0000
# 2 17.4317 169.0178 18.3960 0.0000 23.1260 0.0000
# 3 23.7837 18.3960 121.1267 0.0000 10.5412 0.0000
# 4 0.0000 0.0000 0.0000 43.8605 0.0000 -7.5897
# 5 -6.2965 23.1260 10.5412 0.0000 41.4236 0.0000
# 6 0.0000 0.0000 0.0000 -7.5897 0.0000 -16.1425
#
#
#
# Elastic Compliance Matrix: (Units=1/GPa)
#
#
# Indices 1 2 3 4 5 6 
#
# 1 0.015479 -0.001827 -0.003125 0.000000 0.004168 0.000000
# 2 -0.001827 0.006676 -0.000314 0.000000 -0.003925 0.000000
# 3 -0.003125 -0.000314 0.009146 0.000000 -0.002627 0.000000
# 4 0.000000 0.000000 0.000000 0.021084 0.000000 -0.009913
# 5 0.004168 -0.003925 -0.002627 0.000000 0.027634 0.000000
# 6 0.000000 0.000000 0.000000 -0.009913 0.000000 -0.057288
#
#
# Mechanical properties :
#
#
# Convention : Reuss Voigt Hill
#
# Bulk Modulus (GPa) = 48.14404 53.61367 50.87885
# Shear Modulus (GPa) = 124.42271 34.07426 79.24849
#
# Velocity S-wave (km/s) = 6.96131 3.64296 5.55567
# Velocity P-wave (km/s) = 9.13039 6.21097 7.80833
#
# Compressibility (1/GPa) = 0.02077100
#
# Stress axis : x y z
#
# Youngs Moduli (GPa) = 64.60218 149.78791 109.34170
#
# Poissons Ratio (x) = 0.27361 0.34166
# Poissons Ratio (y) = 0.11800 0.03430
# Poissons Ratio (z) = 0.20186 0.04699
#
# Static dielectric constant tensor:
#      x y z
#    x 2.037260 0.000000 0.012660 
#    y 0.000000 2.176930 0.000000 
#    z 0.012660 0.000000 2.077790 
# 
# From -- ./inp_files/6671.got.cif
#   From: 2010.05.17/outbox.cif.g08.bks.cpg/sg11_4_cif.got.tgz:6671.got - 2010.06.03 12:22:45.
