data_PCOD9160489
_publ_section_title
;
Structure prediction by ZEFSAII (Michael W. Deem and Ramdas Pophale) SiO2 
 PCOD9160489
Probable space group: P 21/M
;
_chemical_formula_sum "Si O2"
_cell_formula_units_Z 28
_cell_length_a 12.217281
_cell_length_b 17.822028
_cell_length_c 9.199587
_cell_angle_alpha 90.000000
_cell_angle_beta 40.970963
_cell_angle_gamma 90.000000
_cell_volume 1313.377616
_symmetry_space_group_name_H-M "P 21/M"
_symmetry_group_IT_number 11
_symmetry_cell_setting 'monoclinic'
loop_
_space_group_symop_operation_xyz
x,y,z
-x,1/2+y,-z
-x,-y,-z
x,1/2-y,z
loop_
_atom_site_type_symbol
_atom_site_label
_atom_site_fract_x
_atom_site_fract_y
_atom_site_fract_z
Si Si1 0.758555 0.834599 0.922398
Si Si2 0.612622 0.013437 0.744002
Si Si3 0.750186 0.840111 0.256535
Si Si4 0.442447 0.599935 0.752330
Si Si5 0.400278 0.834708 0.122437
Si Si6 0.906164 0.159429 0.921395
Si Si7 0.071475 0.075336 0.494193
O O1 0.819337 0.750000 0.879562
O O2 0.743538 0.867897 0.097671
O O3 0.580644 0.832612 0.019872
O O4 0.878253 0.876145 0.693506
O O5 0.682387 0.097192 0.702204
O O6 0.488378 0.986916 0.740896
O O7 0.761623 0.953367 0.591700
O O8 0.500000 0.000000 0.000000
O O9 0.732449 0.750000 0.273860
O O10 0.595309 0.869235 0.505515
O O11 0.932188 0.856207 0.141396
O O12 0.426421 0.641687 0.927172
O O13 0.264855 0.619288 0.858119
O O14 0.329244 0.750000 0.201012
O O15 0.884114 0.250000 0.934078
O O16 0.954504 0.122342 0.718165
O O17 0.000000 0.000000 0.500000
#
# Coordination Sequence:
#
# PCOD9160489 Si02
#       7
#     4   4   4   4   4   4   4
#     4  10  21  39  64  93 130 171 210 266 330 384
#     4  10  19  36  60  91 127 157 206 266 321 367
#     4  10  21  40  64  92 131 173 215 262 320 387
#     4  11  20  38  66  95 128 164 214 265 321 381
#     4  10  19  35  63  92 119 158 213 264 317 385
#     4  11  23  39  65  96 126 170 220 265 314 387
#     4  12  22  38  65  91 132 166 213 275 325 378
#
# _framework density 21.319078999999999
#
# number of rings (size 3 to 8) (size 9 to 14) (size 15 to 20)
#    0.000    1.429    4.286    3.429    0.000    2.286 
#    0.000    5.000    0.000    6.857    0.000    0.000 
#    0.000    0.000    0.000    0.000    0.000    0.000 
#
# Total GULP energy -156236.311862 kJ/mol
# GULP energy per Si atom -5579.868281 kJ/mol
# Density = 2.127056 g / cm^3
# Si number density = 21.319079 Si / 1000 Ang^3
#
#
#
# Elastic Constant Matrix: (Units=GPa)
#
#
# Indices 1 2 3 4 5 6 
#
# 1 75.2239 20.6119 48.2612 0.0000 -9.7215 0.0000
# 2 20.6119 95.0578 25.8566 0.0000 -1.0900 0.0000
# 3 48.2612 25.8566 55.6553 0.0000 -12.0931 0.0000
# 4 0.0000 0.0000 0.0000 10.9624 0.0000 -15.0892
# 5 -9.7215 -1.0900 -12.0931 0.0000 30.9690 0.0000
# 6 0.0000 0.0000 0.0000 -15.0892 0.0000 25.6015
#
#
#
# Elastic Compliance Matrix: (Units=1/GPa)
#
#
# Indices 1 2 3 4 5 6 
#
# 1 0.030022 0.000704 -0.026562 0.000000 -0.000923 0.000000
# 2 0.000704 0.012164 -0.006689 0.000000 -0.001963 0.000000
# 3 -0.026562 -0.006689 0.046162 0.000000 0.009452 0.000000
# 4 0.000000 0.000000 0.000000 0.483333 0.000000 0.284871
# 5 -0.000923 -0.001963 0.009452 0.000000 0.035623 0.000000
# 6 0.000000 0.000000 0.000000 0.284871 0.000000 0.206960
#
#
# Mechanical properties :
#
#
# Convention : Reuss Voigt Hill
#
# Bulk Modulus (GPa) = 42.99804 46.15515 44.57660
# Shear Modulus (GPa) = 5.63630 22.25375 13.94502
#
# Velocity S-wave (km/s) = 1.62773 3.23436 2.56033
# Velocity P-wave (km/s) = 4.87291 5.97033 5.44932
#
# Compressibility (1/GPa) = 0.02325687
#
# Stress axis : x y z
#
# Youngs Moduli (GPa) = 33.30852 82.20985 21.66300
#
# Poissons Ratio (x) = -0.05791 0.57540
# Poissons Ratio (y) = -0.02347 0.14489
# Poissons Ratio (z) = 0.88473 0.54986
#
# Static dielectric constant tensor:
#      x y z
#    x 1.841830 0.000000 -0.011050 
#    y 0.000000 1.816310 0.000000 
#    z -0.011050 0.000000 1.707630 
# 
# From -- ./inp_files/19127.got.cif
#   From: 2010.05.17/outbox.cif.g08.bks.cpg/sg11_10_cif.got.tgz:19127.got - 2010.06.03 12:22:45.
