data_PCOD9160971
_publ_section_title
;
Structure prediction by ZEFSAII (Michael W. Deem and Ramdas Pophale) SiO2 
 PCOD9160971
Probable space group: P 21/M
;
_chemical_formula_sum "Si O2"
_cell_formula_units_Z 28
_cell_length_a 15.305366
_cell_length_b 7.737967
_cell_length_c 19.798504
_cell_angle_alpha 90.000000
_cell_angle_beta 37.634085
_cell_angle_gamma 90.000000
_cell_volume 1431.763947
_symmetry_space_group_name_H-M "P 21/M"
_symmetry_group_IT_number 11
_symmetry_cell_setting 'monoclinic'
loop_
_space_group_symop_operation_xyz
x,y,z
-x,1/2+y,-z
-x,-y,-z
x,1/2-y,z
loop_
_atom_site_type_symbol
_atom_site_label
_atom_site_fract_x
_atom_site_fract_y
_atom_site_fract_z
Si Si1 0.839303 0.051645 0.543730
Si Si2 0.413295 0.542687 0.904734
Si Si3 0.521052 0.546158 0.702166
Si Si4 0.811865 0.456746 0.848944
Si Si5 0.430290 0.544723 0.471645
Si Si6 0.886564 0.041098 0.370388
Si Si7 0.739302 0.458453 0.744315
O O1 0.885716 0.250000 0.521006
O O2 0.909126 0.971706 0.433685
O O3 0.833972 0.974846 0.622603
O O4 0.671006 0.048868 0.625116
O O5 0.398549 0.750000 0.914234
O O6 0.411158 0.487947 0.827411
O O7 0.572959 0.499346 0.832243
O O8 0.293582 0.473229 0.028936
O O9 0.549089 0.750000 0.695171
O O10 0.484462 0.519217 0.646561
O O11 0.791001 0.250000 0.858527
O O12 0.776128 0.526475 0.795930
O O13 0.978992 0.491358 0.757027
O O14 0.500000 0.500000 0.500000
O O15 0.424277 0.750000 0.470349
O O16 0.266606 0.479233 0.563460
O O17 0.881778 0.250000 0.377907
O O18 0.754047 0.250000 0.734514
#
# Coordination Sequence:
#
# PCOD9160971 Si02
#       7
#     4   4   4   4   4   4   4
#     4   8  15  29  45  63  92 125 159 202 244 280
#     4   9  18  31  46  67  96 129 166 205 238 271
#     4   9  16  28  48  72  96 123 155 191 234 279
#     4  10  20  31  44  66  97 131 166 203 239 276
#     4  10  20  35  56  80 101 118 144 186 234 286
#     4   9  19  33  47  67  96 126 154 188 235 288
#     4   9  17  29  46  67  91 125 169 211 245 276
#
# _framework density 19.556297000000001
#
# number of rings (size 3 to 8) (size 9 to 14) (size 15 to 20)
#    0.000    2.857    0.000    2.143    0.000    5.143 
#    0.000    0.000    0.000    0.857    0.000    0.000 
#    0.000    0.000    0.000    0.000    0.000    0.000 
#
# Total GULP energy -156092.347299 kJ/mol
# GULP energy per Si atom -5574.726689 kJ/mol
# Density = 1.951179 g / cm^3
# Si number density = 19.556297 Si / 1000 Ang^3
#
#
#
# Elastic Constant Matrix: (Units=GPa)
#
#
# Indices 1 2 3 4 5 6 
#
# 1 101.8888 5.0260 60.4030 0.0000 23.6914 0.0000
# 2 5.0260 35.9152 13.1893 0.0000 6.8222 0.0000
# 3 60.4030 13.1893 161.5017 0.0000 13.9530 0.0000
# 4 0.0000 0.0000 0.0000 15.4447 0.0000 -2.8138
# 5 23.6914 6.8222 13.9530 0.0000 22.8089 0.0000
# 6 0.0000 0.0000 0.0000 -2.8138 0.0000 18.2959
#
#
#
# Elastic Compliance Matrix: (Units=1/GPa)
#
#
# Indices 1 2 3 4 5 6 
#
# 1 0.015918 0.002275 -0.004912 0.000000 -0.014210 0.000000
# 2 0.002275 0.030316 -0.002470 0.000000 -0.009920 0.000000
# 3 -0.004912 -0.002470 0.008157 0.000000 0.000850 0.000000
# 4 0.000000 0.000000 0.000000 0.066613 0.000000 0.010245
# 5 -0.014210 -0.009920 0.000850 0.000000 0.061050 0.000000
# 6 0.000000 0.000000 0.000000 0.010245 0.000000 0.056233
#
#
# Mechanical properties :
#
#
# Convention : Reuss Voigt Hill
#
# Bulk Modulus (GPa) = 22.63485 50.72693 36.68089
# Shear Modulus (GPa) = 18.99507 26.02239 22.50873
#
# Velocity S-wave (km/s) = 3.11995 3.65175 3.39628
# Velocity P-wave (km/s) = 4.95763 6.61631 5.84610
#
# Compressibility (1/GPa) = 0.04417966
#
# Stress axis : x y z
#
# Youngs Moduli (GPa) = 62.82030 32.98552 122.59196
#
# Poissons Ratio (x) = -0.07506 0.60214
# Poissons Ratio (y) = -0.14294 0.30278
# Poissons Ratio (z) = 0.30856 0.08147
#
# Static dielectric constant tensor:
#      x y z
#    x 1.695200 0.000000 0.033070 
#    y 0.000000 1.714240 0.000000 
#    z 0.033070 0.000000 1.737580 
# 
# From -- ./inp_files/42297.got.cif
#   From: 2010.05.17/outbox.cif.g08.bks.cpg/sg11_22_cif.got.tgz:42297.got - 2010.06.03 12:22:45.
