data_PCOD9160405
_publ_section_title
;
Structure prediction by ZEFSAII (Michael W. Deem and Ramdas Pophale) SiO2 
 PCOD9160405
Probable space group: P 21/M
;
_chemical_formula_sum "Si O2"
_cell_formula_units_Z 32
_cell_length_a 15.676408
_cell_length_b 19.139829
_cell_length_c 9.897363
_cell_angle_alpha 90.000000
_cell_angle_beta 141.658396
_cell_angle_gamma 90.000000
_cell_volume 1842.213657
_symmetry_space_group_name_H-M "P 21/M"
_symmetry_group_IT_number 11
_symmetry_cell_setting 'monoclinic'
loop_
_space_group_symop_operation_xyz
x,y,z
-x,1/2+y,-z
-x,-y,-z
x,1/2-y,z
loop_
_atom_site_type_symbol
_atom_site_label
_atom_site_fract_x
_atom_site_fract_y
_atom_site_fract_z
Si Si1 0.465057 0.168754 0.593767
Si Si2 0.228830 0.330977 0.804333
Si Si3 0.639758 0.460299 0.832195
Si Si4 0.493874 0.331005 0.317429
Si Si5 0.194028 0.168226 0.440266
Si Si6 0.924532 0.976460 0.770919
Si Si7 0.649301 0.461718 0.526030
Si Si8 0.093206 0.468523 0.731973
O O1 0.501356 0.250000 0.649970
O O2 0.590174 0.119052 0.792355
O O3 0.437939 0.153046 0.400514
O O4 0.328680 0.157426 0.513352
O O5 0.189937 0.250000 0.782193
O O6 0.232131 0.340493 0.646184
O O7 0.128602 0.388291 0.744179
O O8 0.375780 0.342188 0.059798
O O9 0.680513 0.468284 0.724814
O O10 0.499325 0.503165 0.679479
O O11 0.762841 0.489928 0.073661
O O12 0.531856 0.250000 0.362209
O O13 0.623069 0.381175 0.458316
O O14 0.150506 0.250000 0.367871
O O15 0.085977 0.107186 0.267872
O O16 0.767882 0.002776 0.588147
O O17 0.006407 0.016417 0.757180
O O18 0.000000 0.000000 0.000000
O O19 0.000000 0.500000 0.500000
#
# Coordination Sequence:
#
# PCOD9160405 Si02
#       8
#     4   4   4   4   4   4   4   4
#     4   9  18  34  60  90 114 146 201 254 294 345
#     4  10  21  39  60  84 118 160 199 242 300 363
#     4  10  19  35  60  84 117 151 196 240 292 347
#     4   9  18  34  60  88 114 151 199 248 294 347
#     4  10  21  39  59  86 119 156 199 244 300 362
#     4  12  24  39  60  90 124 157 199 250 301 353
#     4  10  19  35  59  87 115 151 194 243 293 344
#     4  12  24  41  58  88 123 160 203 242 296 363
#
# _framework density 17.370405999999999
#
# number of rings (size 3 to 8) (size 9 to 14) (size 15 to 20)
#    0.000    1.750    5.000    0.000    1.750    0.000 
#    2.250    4.375    0.000    0.000    0.000    0.000 
#    0.000    0.000    0.000    0.000    0.000    0.000 
#
# Total GULP energy -178408.867804 kJ/mol
# GULP energy per Si atom -5575.277119 kJ/mol
# Density = 1.733087 g / cm^3
# Si number density = 17.370406 Si / 1000 Ang^3
#
#
#
# Elastic Constant Matrix: (Units=GPa)
#
#
# Indices 1 2 3 4 5 6 
#
# 1 61.0672 32.9134 21.2936 0.0000 -6.1492 0.0000
# 2 32.9134 116.6303 50.0472 0.0000 -2.7463 0.0000
# 3 21.2936 50.0472 105.8319 0.0000 -8.4580 0.0000
# 4 0.0000 0.0000 0.0000 30.1104 0.0000 4.3084
# 5 -6.1492 -2.7463 -8.4580 0.0000 22.4483 0.0000
# 6 0.0000 0.0000 0.0000 4.3084 0.0000 28.3568
#
#
#
# Elastic Compliance Matrix: (Units=1/GPa)
#
#
# Indices 1 2 3 4 5 6 
#
# 1 0.019948 -0.004961 -0.001319 0.000000 0.004360 0.000000
# 2 -0.004961 0.011999 -0.004812 0.000000 -0.001704 0.000000
# 3 -0.001319 -0.004812 0.012284 0.000000 0.003678 0.000000
# 4 0.000000 0.000000 0.000000 0.033949 0.000000 -0.005158
# 5 0.004360 -0.001704 0.003678 0.000000 0.046919 0.000000
# 6 0.000000 0.000000 0.000000 -0.005158 0.000000 0.036049
#
#
# Mechanical properties :
#
#
# Convention : Reuss Voigt Hill
#
# Bulk Modulus (GPa) = 45.35833 54.67086 50.01460
# Shear Modulus (GPa) = 26.22184 28.13478 27.17831
#
# Velocity S-wave (km/s) = 3.88953 4.02891 3.95984
# Velocity P-wave (km/s) = 6.80738 7.29279 7.05426
#
# Compressibility (1/GPa) = 0.02204667
#
# Stress axis : x y z
#
# Youngs Moduli (GPa) = 50.13001 83.34104 81.40635
#
# Poissons Ratio (x) = 0.41342 0.10740
# Poissons Ratio (y) = 0.24868 0.39175
# Poissons Ratio (z) = 0.06614 0.40106
#
# Static dielectric constant tensor:
#      x y z
#    x 1.557990 0.000000 -0.001150 
#    y 0.000000 1.639340 0.000000 
#    z -0.001150 0.000000 1.566040 
# 
# From -- ./inp_files/23080.got.cif
#   From: 2010.05.17/outbox.cif.g08.bks.cpg/sg11_12_cif.got.tgz:23080.got - 2010.06.03 12:22:45.
