data_PCOD9160901
_publ_section_title
;
Structure prediction by ZEFSAII (Michael W. Deem and Ramdas Pophale) SiO2 
 PCOD9160901
Probable space group: P 21/M
;
_chemical_formula_sum "Si O2"
_cell_formula_units_Z 28
_cell_length_a 9.112185
_cell_length_b 14.031385
_cell_length_c 11.889074
_cell_angle_alpha 90.000000
_cell_angle_beta 58.919701
_cell_angle_gamma 90.000000
_cell_volume 1301.878326
_symmetry_space_group_name_H-M "P 21/M"
_symmetry_group_IT_number 11
_symmetry_cell_setting 'monoclinic'
loop_
_space_group_symop_operation_xyz
x,y,z
-x,1/2+y,-z
-x,-y,-z
x,1/2-y,z
loop_
_atom_site_type_symbol
_atom_site_label
_atom_site_fract_x
_atom_site_fract_y
_atom_site_fract_z
Si Si1 0.710096 0.106679 0.699482
Si Si2 0.062341 0.562674 0.814888
Si Si3 0.445874 0.888791 0.017273
Si Si4 0.319292 0.537001 0.529029
Si Si5 0.107949 0.148887 0.532513
Si Si6 0.232870 0.107659 0.240086
Si Si7 0.931778 0.139679 0.936837
O O1 0.904436 0.143483 0.634654
O O2 0.662835 0.104654 0.587058
O O3 0.723116 0.996844 0.730797
O O4 0.577821 0.145859 0.844516
O O5 0.222128 0.583865 0.671790
O O6 0.896860 0.596599 0.811637
O O7 0.043953 0.447809 0.841958
O O8 0.073407 0.615584 0.928847
O O9 0.593829 0.848768 0.878484
O O10 0.259421 0.874032 0.036941
O O11 0.500000 0.000000 0.000000
O O12 0.500000 0.500000 0.500000
O O13 0.201105 0.445873 0.540348
O O14 0.173011 0.250000 0.554140
O O15 0.141563 0.151063 0.385076
O O16 0.984628 0.250000 0.896192
#
# Coordination Sequence:
#
# PCOD9160901 Si02
#       7
#     4   4   4   4   4   4   4
#     4  10  19  39  63  91 121 163 213 251 316 390
#     4  11  22  42  67  93 130 180 212 264 330 387
#     4  10  20  37  66  93 122 162 209 271 317 381
#     4  11  23  39  64  91 127 172 213 257 328 394
#     4  11  22  39  64  94 126 165 217 269 317 389
#     4  10  19  39  64  93 123 163 216 255 325 383
#     4  11  25  41  65  97 131 171 218 267 328 389
#
# _framework density 21.507384999999999
#
# number of rings (size 3 to 8) (size 9 to 14) (size 15 to 20)
#    0.000    1.429    5.714    0.857    6.000    3.429 
#    0.000    0.714    0.000    1.714    0.000    0.000 
#    0.000    0.000    0.000    0.000    0.000    0.000 
#
# Total GULP energy -156237.205402 kJ/mol
# GULP energy per Si atom -5579.900193 kJ/mol
# Density = 2.145843 g / cm^3
# Si number density = 21.507385 Si / 1000 Ang^3
#
#
#
# Elastic Constant Matrix: (Units=GPa)
#
#
# Indices 1 2 3 4 5 6 
#
# 1 48.7056 -18.9700 27.6209 0.0000 10.3210 0.0000
# 2 -18.9700 96.4324 1.2706 0.0000 -0.8348 0.0000
# 3 27.6209 1.2706 177.8284 0.0000 -1.4131 0.0000
# 4 0.0000 0.0000 0.0000 -28.8965 0.0000 5.9459
# 5 10.3210 -0.8348 -1.4131 0.0000 36.7921 0.0000
# 6 0.0000 0.0000 0.0000 5.9459 0.0000 0.6803
#
#
#
# Elastic Compliance Matrix: (Units=1/GPa)
#
#
# Indices 1 2 3 4 5 6 
#
# 1 0.026541 0.005212 -0.004219 0.000000 -0.007489 0.000000
# 2 0.005212 0.011396 -0.000901 0.000000 -0.001238 0.000000
# 3 -0.004219 -0.000901 0.006296 0.000000 0.001405 0.000000
# 4 0.000000 0.000000 0.000000 -0.012366 0.000000 0.108085
# 5 -0.007489 -0.001238 0.001405 0.000000 0.029307 0.000000
# 6 0.000000 0.000000 0.000000 0.108085 0.000000 0.525283
#
#
# Mechanical properties :
#
#
# Convention : Reuss Voigt Hill
#
# Bulk Modulus (GPa) = 22.51357 38.08993 30.30175
# Shear Modulus (GPa) = 8.31837 22.58482 15.45160
#
# Velocity S-wave (km/s) = 1.96878 3.24403 2.68327
# Velocity P-wave (km/s) = 3.95710 5.63740 4.87026
#
# Compressibility (1/GPa) = 0.04441766
#
# Stress axis : x y z
#
# Youngs Moduli (GPa) = 37.67734 87.74713 158.82236
#
# Poissons Ratio (x) = -0.45733 0.67010
# Poissons Ratio (y) = -0.19637 0.14307
# Poissons Ratio (z) = 0.15897 0.07904
#
# Static dielectric constant tensor:
#      x y z
#    x 1.765390 0.000000 -0.016690 
#    y 0.000000 1.874060 0.000000 
#    z -0.016690 0.000000 1.864730 
# 
# From -- ./inp_files/31793.got.cif
#   From: 2010.05.17/outbox.cif.g08.bks.cpg/sg11_16_cif.got.tgz:31793.got - 2010.06.03 12:22:45.
