data_PCOD9160655
_publ_section_title
;
Structure prediction by ZEFSAII (Michael W. Deem and Ramdas Pophale) SiO2 
 PCOD9160655
Probable space group: P 21/M
;
_chemical_formula_sum "Si O2"
_cell_formula_units_Z 32
_cell_length_a 7.466543
_cell_length_b 20.665021
_cell_length_c 9.749412
_cell_angle_alpha 90.000000
_cell_angle_beta 63.036337
_cell_angle_gamma 90.000000
_cell_volume 1340.772080
_symmetry_space_group_name_H-M "P 21/M"
_symmetry_group_IT_number 11
_symmetry_cell_setting 'monoclinic'
loop_
_space_group_symop_operation_xyz
x,y,z
-x,1/2+y,-z
-x,-y,-z
x,1/2-y,z
loop_
_atom_site_type_symbol
_atom_site_label
_atom_site_fract_x
_atom_site_fract_y
_atom_site_fract_z
Si Si1 0.991465 0.323660 0.163004
Si Si2 0.574057 0.508443 0.748341
Si Si3 0.678588 0.081884 0.961376
Si Si4 0.852169 0.874999 0.616154
Si Si5 0.557518 0.322284 0.325907
Si Si6 0.587934 0.821814 0.082157
Si Si7 0.540471 0.882347 0.370591
Si Si8 0.016430 0.171009 0.713126
O O1 0.004235 0.250000 0.213859
O O2 0.040091 0.368974 0.275125
O O3 0.770067 0.329481 0.176899
O O4 0.171771 0.328640 0.992542
O O5 0.673702 0.473173 0.845290
O O6 0.746974 0.555242 0.629412
O O7 0.494671 0.454343 0.671822
O O8 0.379251 0.546892 0.876132
O O9 0.482568 0.124846 0.998564
O O10 0.857748 0.130548 0.858722
O O11 0.650146 0.830836 0.681184
O O12 0.994512 0.850239 0.444096
O O13 0.551297 0.250000 0.387325
O O14 0.570046 0.370455 0.449234
O O15 0.538176 0.750000 0.053030
O O16 0.482598 0.836995 0.262321
O O17 0.765091 0.857912 0.325116
O O18 0.006456 0.250000 0.730728
#
# Coordination Sequence:
#
# PCOD9160655 Si02
#       8
#     4   4   4   4   4   4   4   4
#     4  10  21  37  61  93 123 165 212 263 329 372
#     4  10  23  42  61  87 128 174 211 253 313 378
#     4  10  22  42  60  90 126 163 214 259 308 385
#     4  11  22  42  62  93 132 163 211 264 314 382
#     4  10  22  40  63  93 128 164 211 270 326 379
#     4  10  19  36  61  87 120 161 209 267 316 370
#     4  10  22  41  61  89 128 164 209 261 314 382
#     4  11  24  41  65  97 125 161 210 267 330 375
#
# _framework density 23.866844
#
# number of rings (size 3 to 8) (size 9 to 14) (size 15 to 20)
#    0.000    1.750    1.250    3.375    3.500    4.000 
#    2.250    1.250    0.000    0.000    0.000    0.000 
#    0.000    0.000    0.000    0.000    0.000    0.000 
#
# Total GULP energy -178700.156651 kJ/mol
# GULP energy per Si atom -5584.379895 kJ/mol
# Density = 2.381252 g / cm^3
# Si number density = 23.866844 Si / 1000 Ang^3
#
#
#
# Elastic Constant Matrix: (Units=GPa)
#
#
# Indices 1 2 3 4 5 6 
#
# 1 50.5635 14.3123 22.5955 0.0000 -21.6630 0.0000
# 2 14.3123 137.2535 29.2184 0.0000 -7.9681 0.0000
# 3 22.5955 29.2184 100.9385 0.0000 -12.6247 0.0000
# 4 0.0000 0.0000 0.0000 33.7000 0.0000 -4.9881
# 5 -21.6630 -7.9681 -12.6247 0.0000 45.6790 0.0000
# 6 0.0000 0.0000 0.0000 -4.9881 0.0000 30.6226
#
#
#
# Elastic Compliance Matrix: (Units=1/GPa)
#
#
# Indices 1 2 3 4 5 6 
#
# 1 0.026892 -0.001242 -0.004239 0.000000 0.011365 0.000000
# 2 -0.001242 0.007847 -0.001964 0.000000 0.000237 0.000000
# 3 -0.004239 -0.001964 0.011529 0.000000 0.000833 0.000000
# 4 0.000000 0.000000 0.000000 0.030407 0.000000 0.004953
# 5 0.011365 0.000237 0.000833 0.000000 0.027554 0.000000
# 6 0.000000 0.000000 0.000000 0.004953 0.000000 0.033462
#
#
# Mechanical properties :
#
#
# Convention : Reuss Voigt Hill
#
# Bulk Modulus (GPa) = 31.86900 46.77863 39.32382
# Shear Modulus (GPa) = 30.66739 36.84226 33.75482
#
# Velocity S-wave (km/s) = 3.58849 3.93320 3.76479
# Velocity P-wave (km/s) = 5.52734 6.34580 5.95066
#
# Compressibility (1/GPa) = 0.03137846
#
# Stress axis : x y z
#
# Youngs Moduli (GPa) = 37.18548 127.43539 86.74068
#
# Poissons Ratio (x) = 0.15828 0.36769
# Poissons Ratio (y) = 0.04619 0.17034
# Poissons Ratio (z) = 0.15763 0.25026
#
# Static dielectric constant tensor:
#      x y z
#    x 1.949340 0.000000 0.012810 
#    y 0.000000 1.927660 0.000000 
#    z 0.012810 0.000000 1.961160 
# 
# From -- ./inp_files/32821.got.cif
#   From: 2010.05.17/outbox.cif.g08.bks.cpg/sg11_17_cif.got.tgz:32821.got - 2010.06.03 12:22:45.
