data_PCOD9160041
_publ_section_title
;
Structure prediction by ZEFSAII (Michael W. Deem and Ramdas Pophale) SiO2 
 PCOD9160041
Probable space group: P 21/M
;
_chemical_formula_sum "Si O2"
_cell_formula_units_Z 28
_cell_length_a 25.325006
_cell_length_b 8.816250
_cell_length_c 20.003522
_cell_angle_alpha 90.000000
_cell_angle_beta 21.030643
_cell_angle_gamma 90.000000
_cell_volume 1602.779151
_symmetry_space_group_name_H-M "P 21/M"
_symmetry_group_IT_number 11
_symmetry_cell_setting 'monoclinic'
loop_
_space_group_symop_operation_xyz
x,y,z
-x,1/2+y,-z
-x,-y,-z
x,1/2-y,z
loop_
_atom_site_type_symbol
_atom_site_label
_atom_site_fract_x
_atom_site_fract_y
_atom_site_fract_z
Si Si1 0.308190 0.928527 0.291051
Si Si2 0.904661 0.430656 0.673017
Si Si3 0.974973 0.931382 0.323860
Si Si4 0.132893 0.567866 0.799603
Si Si5 0.349694 0.071923 0.096699
Si Si6 0.926805 0.932226 0.928413
Si Si7 0.341422 0.566983 0.667399
O O1 0.273762 0.750000 0.327203
O O2 0.192663 0.011501 0.474621
O O3 0.304382 0.001323 0.221667
O O4 0.475856 0.945333 0.116692
O O5 0.913992 0.250000 0.657526
O O6 0.740554 0.487750 0.853460
O O7 0.000000 0.500000 0.500000
O O8 0.959987 0.477002 0.680692
O O9 0.981573 0.750000 0.310304
O O10 0.058332 0.007339 0.163910
O O11 0.128412 0.750000 0.808521
O O12 0.282322 0.523221 0.662186
O O13 0.078973 0.527206 0.788636
O O14 0.000000 0.500000 0.000000
O O15 0.313356 0.250000 0.140483
O O16 0.911081 0.750000 0.948331
O O17 0.787121 0.005615 0.131442
O O18 0.500000 0.500000 0.500000
O O19 0.347786 0.750000 0.663766
#
# Coordination Sequence:
#
# PCOD9160041 Si02
#       7
#     4   4   4   4   4   4   4
#     4  10  20  34  54  77 102 136 175 220 273 327
#     4  11  22  35  54  78 106 142 186 231 280 335
#     4  11  23  37  54  79 110 143 182 230 280 332
#     4   8  16  31  53  79 106 137 175 216 256 308
#     4  10  20  34  53  78 104 132 175 226 274 325
#     4  10  20  36  57  81 109 144 184 225 273 327
#     4  10  19  34  57  86 117 147 181 221 265 317
#
# _framework density 17.469654999999999
#
# number of rings (size 3 to 8) (size 9 to 14) (size 15 to 20)
#    0.000    2.000    1.429    2.571    0.000    4.571 
#    0.000    1.429    0.000    1.714    0.000    0.000 
#    0.000    0.000    0.000    0.000    0.000    0.000 
#
# Total GULP energy -156108.157318 kJ/mol
# GULP energy per Si atom -5575.291333 kJ/mol
# Density = 1.742989 g / cm^3
# Si number density = 17.469655 Si / 1000 Ang^3
#
#
#
# Elastic Constant Matrix: (Units=GPa)
#
#
# Indices 1 2 3 4 5 6 
#
# 1 126.8225 50.6818 54.4512 0.0000 -7.9099 0.0000
# 2 50.6818 51.7876 34.4060 0.0000 -2.7518 0.0000
# 3 54.4512 34.4060 75.5787 0.0000 -8.3980 0.0000
# 4 0.0000 0.0000 0.0000 31.8306 0.0000 -2.0811
# 5 -7.9099 -2.7518 -8.3980 0.0000 27.0708 0.0000
# 6 0.0000 0.0000 0.0000 -2.0811 0.0000 25.9115
#
#
#
# Elastic Compliance Matrix: (Units=1/GPa)
#
#
# Indices 1 2 3 4 5 6 
#
# 1 0.014542 -0.010467 -0.005549 0.000000 0.001464 0.000000
# 2 -0.010467 0.035249 -0.008749 0.000000 -0.002189 0.000000
# 3 -0.005549 -0.008749 0.021680 0.000000 0.004215 0.000000
# 4 0.000000 0.000000 0.000000 0.031582 0.000000 0.002536
# 5 0.001464 -0.002189 0.004215 0.000000 0.038453 0.000000
# 6 0.000000 0.000000 0.000000 0.002536 0.000000 0.038797
#
#
# Mechanical properties :
#
#
# Convention : Reuss Voigt Hill
#
# Bulk Modulus (GPa) = 45.57627 59.25187 52.41407
# Shear Modulus (GPa) = 21.08402 24.60591 22.84496
#
# Velocity S-wave (km/s) = 3.47781 3.75706 3.62013
# Velocity P-wave (km/s) = 6.50172 7.26714 6.89506
#
# Compressibility (1/GPa) = 0.02194124
#
# Stress axis : x y z
#
# Youngs Moduli (GPa) = 68.76813 28.36952 46.12442
#
# Poissons Ratio (x) = 0.29693 0.25595
# Poissons Ratio (y) = 0.71977 0.40355
# Poissons Ratio (z) = 0.38161 0.24821
#
# Static dielectric constant tensor:
#      x y z
#    x 1.631450 0.000000 -0.032550 
#    y 0.000000 1.585910 0.000000 
#    z -0.032550 0.000000 1.582970 
# 
# From -- ./inp_files/61245.got.cif
#   From: 2010.05.17/outbox.cif.g08.bks.cpg/sg11_31_cif.got.tgz:61245.got - 2010.06.03 12:22:45.
