data_PCOD9160894
_publ_section_title
;
Structure prediction by ZEFSAII (Michael W. Deem and Ramdas Pophale) SiO2 
 PCOD9160894
Probable space group: P 21/M
;
_chemical_formula_sum "Si O2"
_cell_formula_units_Z 32
_cell_length_a 29.036935
_cell_length_b 12.482521
_cell_length_c 8.793033
_cell_angle_alpha 90.000000
_cell_angle_beta 148.018020
_cell_angle_gamma 90.000000
_cell_volume 1688.040350
_symmetry_space_group_name_H-M "P 21/M"
_symmetry_group_IT_number 11
_symmetry_cell_setting 'monoclinic'
loop_
_space_group_symop_operation_xyz
x,y,z
-x,1/2+y,-z
-x,-y,-z
x,1/2-y,z
loop_
_atom_site_type_symbol
_atom_site_label
_atom_site_fract_x
_atom_site_fract_y
_atom_site_fract_z
Si Si1 0.348078 0.877223 0.713327
Si Si2 0.828880 0.867584 0.094847
Si Si3 0.152822 0.125140 0.421169
Si Si4 0.439880 0.044972 0.196959
Si Si5 0.393776 0.873286 0.488684
Si Si6 0.004995 0.372111 0.216782
Si Si7 0.831673 0.005752 0.814883
Si Si8 0.296377 0.446088 0.020687
O O1 0.358190 0.750000 0.771500
O O2 0.380128 0.898664 0.629310
O O3 0.247522 0.913604 0.437720
O O4 0.399147 0.950764 0.978391
O O5 0.834300 0.750000 0.038026
O O6 0.914430 0.879737 0.439423
O O7 0.741590 0.872989 0.951707
O O8 0.826756 0.963936 0.971718
O O9 0.173063 0.250000 0.515865
O O10 0.052834 0.109412 0.189668
O O11 0.209667 0.040310 0.676989
O O12 0.174961 0.097763 0.311745
O O13 0.500000 0.000000 0.500000
O O14 0.505083 0.112785 0.275057
O O15 0.363438 0.098972 0.082597
O O16 0.367352 0.750000 0.391378
O O17 0.338454 0.951957 0.223656
O O18 0.973653 0.250000 0.131612
O O19 0.924660 0.444310 0.036336
#
# Coordination Sequence:
#
# PCOD9160894 Si02
#       8
#     4   4   4   4   4   4   4   4
#     4  11  23  41  63  89 124 155 192 246 300 354
#     4  10  21  37  59  86 124 162 201 247 290 345
#     4  10  21  37  58  86 123 158 199 249 294 344
#     4  10  22  40  64  86 118 154 200 237 297 360
#     4  10  22  40  63  90 121 151 192 249 297 353
#     4   9  20  37  58  86 118 161 202 241 298 351
#     4  12  20  37  61  89 121 158 204 242 299 349
#     4  10  19  39  60  87 119 157 197 242 296 353
#
# _framework density 18.956893000000001
#
# number of rings (size 3 to 8) (size 9 to 14) (size 15 to 20)
#    0.000    1.750    2.500    3.000    0.000    3.000 
#    0.000    3.750    0.000    3.000    0.000    0.000 
#    0.000    0.000    0.000    0.000    0.000    0.000 
#
# Total GULP energy -178179.874925 kJ/mol
# GULP energy per Si atom -5568.121091 kJ/mol
# Density = 1.891375 g / cm^3
# Si number density = 18.956893 Si / 1000 Ang^3
#
#
#
# Elastic Constant Matrix: (Units=GPa)
#
#
# Indices 1 2 3 4 5 6 
#
# 1 119.4164 25.7372 32.6722 0.0000 11.1660 0.0000
# 2 25.7372 49.1349 33.3877 0.0000 0.9967 0.0000
# 3 32.6722 33.3877 62.6772 0.0000 9.7085 0.0000
# 4 0.0000 0.0000 0.0000 23.0337 0.0000 1.5025
# 5 11.1660 0.9967 9.7085 0.0000 30.2412 0.0000
# 6 0.0000 0.0000 0.0000 1.5025 0.0000 22.9042
#
#
#
# Elastic Compliance Matrix: (Units=1/GPa)
#
#
# Indices 1 2 3 4 5 6 
#
# 1 0.010171 -0.003050 -0.003274 0.000000 -0.002604 0.000000
# 2 -0.003050 0.033443 -0.017078 0.000000 0.005507 0.000000
# 3 -0.003274 -0.017078 0.027870 0.000000 -0.007176 0.000000
# 4 0.000000 0.000000 0.000000 0.043601 0.000000 -0.002860
# 5 -0.002604 0.005507 -0.007176 0.000000 0.036151 0.000000
# 6 0.000000 0.000000 0.000000 -0.002860 0.000000 0.043848
#
#
# Mechanical properties :
#
#
# Convention : Reuss Voigt Hill
#
# Bulk Modulus (GPa) = 40.51816 46.09141 43.30478
# Shear Modulus (GPa) = 19.99101 24.53123 22.26112
#
# Velocity S-wave (km/s) = 3.25091 3.60120 3.43053
# Velocity P-wave (km/s) = 5.95915 6.45431 6.21166
#
# Compressibility (1/GPa) = 0.02468029
#
# Stress axis : x y z
#
# Youngs Moduli (GPa) = 98.32298 29.90202 35.88117
#
# Poissons Ratio (x) = 0.09121 0.11746
# Poissons Ratio (y) = 0.29990 0.61276
# Poissons Ratio (z) = 0.32186 0.51065
#
# Static dielectric constant tensor:
#      x y z
#    x 1.704350 0.000000 0.007710 
#    y 0.000000 1.633900 0.000000 
#    z 0.007710 0.000000 1.660790 
# 
# From -- ./inp_files/29281.got.cif
#   From: 2010.05.17/outbox.cif.g08.bks.cpg/sg11_15_cif.got.tgz:29281.got - 2010.06.03 12:22:45.
