data_PCOD9160379
_publ_section_title
;
Structure prediction by ZEFSAII (Michael W. Deem and Ramdas Pophale) SiO2 
 PCOD9160379
Probable space group: P 21/M
;
_chemical_formula_sum "Si O2"
_cell_formula_units_Z 32
_cell_length_a 22.231765
_cell_length_b 8.126770
_cell_length_c 10.739473
_cell_angle_alpha 90.000000
_cell_angle_beta 49.585277
_cell_angle_gamma 90.000000
_cell_volume 1477.309989
_symmetry_space_group_name_H-M "P 21/M"
_symmetry_group_IT_number 11
_symmetry_cell_setting 'monoclinic'
loop_
_space_group_symop_operation_xyz
x,y,z
-x,1/2+y,-z
-x,-y,-z
x,1/2-y,z
loop_
_atom_site_type_symbol
_atom_site_label
_atom_site_fract_x
_atom_site_fract_y
_atom_site_fract_z
Si Si1 0.836353 0.935710 0.255153
Si Si2 0.438918 0.053157 0.189053
Si Si3 0.735500 0.559120 0.644929
Si Si4 0.132098 0.549461 0.126728
Si Si5 0.273730 0.937185 0.796438
Si Si6 0.439392 0.552490 0.473346
Si Si7 0.022211 0.553325 0.785659
Si Si8 0.882761 0.443236 0.581630
O O1 0.830706 0.750000 0.212544
O O2 0.784626 0.943122 0.450706
O O3 0.791675 0.058972 0.224409
O O4 0.925462 0.974844 0.175897
O O5 0.435428 0.250000 0.194748
O O6 0.351478 0.991424 0.266777
O O7 0.457123 0.002001 0.307544
O O8 0.500000 0.000000 0.000000
O O9 0.728828 0.750000 0.693608
O O10 0.791219 0.465811 0.666979
O O11 0.133175 0.750000 0.125348
O O12 0.104701 0.486594 0.298281
O O13 0.068694 0.491378 0.110561
O O14 0.221296 0.490284 0.978395
O O15 0.293907 0.750000 0.804212
O O16 0.353320 0.013264 0.634314
O O17 0.500000 0.500000 0.500000
O O18 0.436733 0.750000 0.472507
O O19 0.031313 0.750000 0.782324
O O20 0.064179 0.488858 0.601495
O O21 0.900584 0.250000 0.563427
#
# Coordination Sequence:
#
# PCOD9160379 Si02
#       8
#     4   4   4   4   4   4   4   4
#     4  10  19  35  59  83 110 149 193 240 293 346
#     4  11  23  41  64  95 128 161 206 260 315 378
#     4   9  19  35  57  84 113 145 189 239 290 351
#     4  10  21  37  54  79 115 154 195 242 293 352
#     4  10  22  39  60  84 114 152 197 243 295 357
#     4  11  24  43  67  95 129 169 208 257 318 384
#     4  10  20  34  54  83 114 150 196 245 294 352
#     4   9  19  34  55  81 113 152 194 238 294 355
#
# _framework density 21.660992
#
# number of rings (size 3 to 8) (size 9 to 14) (size 15 to 20)
#    0.000    2.000    1.250    1.875    0.000    5.000 
#    0.000    1.250    0.000    0.000    0.000    0.000 
#    0.000    0.000    0.000    0.000    0.000    0.000 
#
# Total GULP energy -178601.447949 kJ/mol
# GULP energy per Si atom -5581.295248 kJ/mol
# Density = 2.161169 g / cm^3
# Si number density = 21.660992 Si / 1000 Ang^3
#
#
#
# Elastic Constant Matrix: (Units=GPa)
#
#
# Indices 1 2 3 4 5 6 
#
# 1 104.8956 -7.1748 51.1684 0.0000 -9.0880 0.0000
# 2 -7.1748 30.8087 5.2386 0.0000 -0.9399 0.0000
# 3 51.1684 5.2386 115.7908 0.0000 -14.9316 0.0000
# 4 0.0000 0.0000 0.0000 17.3580 0.0000 -0.9373
# 5 -9.0880 -0.9399 -14.9316 0.0000 34.4805 0.0000
# 6 0.0000 0.0000 0.0000 -0.9373 0.0000 28.6495
#
#
#
# Elastic Compliance Matrix: (Units=1/GPa)
#
#
# Indices 1 2 3 4 5 6 
#
# 1 0.012637 0.003931 -0.005633 0.000000 0.000998 0.000000
# 2 0.003931 0.033935 -0.003198 0.000000 0.000576 0.000000
# 3 -0.005633 -0.003198 0.011722 0.000000 0.003504 0.000000
# 4 0.000000 0.000000 0.000000 0.057712 0.000000 0.001888
# 5 0.000998 0.000576 0.003504 0.000000 0.030798 0.000000
# 6 0.000000 0.000000 0.000000 0.001888 0.000000 0.034966
#
#
# Mechanical properties :
#
#
# Convention : Reuss Voigt Hill
#
# Bulk Modulus (GPa) = 20.62133 38.88438 29.75286
# Shear Modulus (GPa) = 24.06901 29.58180 26.82540
#
# Velocity S-wave (km/s) = 3.33704 3.69951 3.52294
# Velocity P-wave (km/s) = 4.93847 6.01987 5.50578
#
# Compressibility (1/GPa) = 0.04849347
#
# Stress axis : x y z
#
# Youngs Moduli (GPa) = 79.13519 29.46787 85.30805
#
# Poissons Ratio (x) = -0.11584 0.48056
# Poissons Ratio (y) = -0.31109 0.27283
# Poissons Ratio (z) = 0.44579 0.09424
#
# Static dielectric constant tensor:
#      x y z
#    x 1.766780 0.000000 0.009130 
#    y 0.000000 1.766020 0.000000 
#    z 0.009130 0.000000 1.861130 
# 
# From -- ./inp_files/42829.got.cif
#   From: 2010.05.17/outbox.cif.g08.bks.cpg/sg11_22_cif.got.tgz:42829.got - 2010.06.03 12:22:45.
