data_PCOD9160527
_publ_section_title
;
Structure prediction by ZEFSAII (Michael W. Deem and Ramdas Pophale) SiO2 
 PCOD9160527
Probable space group: P 21/M
;
_chemical_formula_sum "Si O2"
_cell_formula_units_Z 22
_cell_length_a 14.216373
_cell_length_b 14.455120
_cell_length_c 6.239966
_cell_angle_alpha 90.000000
_cell_angle_beta 128.740936
_cell_angle_gamma 90.000000
_cell_volume 1000.179953
_symmetry_space_group_name_H-M "P 21/M"
_symmetry_group_IT_number 11
_symmetry_cell_setting 'monoclinic'
loop_
_space_group_symop_operation_xyz
x,y,z
-x,1/2+y,-z
-x,-y,-z
x,1/2-y,z
loop_
_atom_site_type_symbol
_atom_site_label
_atom_site_fract_x
_atom_site_fract_y
_atom_site_fract_z
Si Si1 0.241366 0.750000 0.279146
Si Si2 0.300555 0.549930 0.250269
Si Si3 0.186284 0.387635 0.319878
Si Si4 0.008740 0.250000 0.835486
Si Si5 0.846579 0.750000 0.344651
Si Si6 0.657714 0.750000 0.678697
Si Si7 0.497045 0.750000 0.794106
Si Si8 0.451496 0.052760 0.133390
O O1 0.251649 0.654346 0.160495
O O2 0.121891 0.750000 0.250459
O O3 0.354487 0.750000 0.607346
O O4 0.211684 0.492528 0.284087
O O5 0.432611 0.557789 0.545735
O O6 0.335558 0.492706 0.083946
O O7 0.164470 0.341759 0.521996
O O8 0.308438 0.338928 0.407433
O O9 0.079936 0.339943 0.029650
O O10 0.027996 0.250000 0.608024
O O11 0.748176 0.750000 0.013000
O O12 0.524686 0.750000 0.577092
O O13 0.561314 0.657983 0.962593
O O14 0.500000 0.000000 0.000000
#
# Coordination Sequence:
#
# PCOD9160527 Si02
#       8
#     2   4   4   2   2   2   2   4
#     4  10  23  40  55  74 125 161 179 228 292 336
#     4  10  21  38  56  82 115 149 189 231 277 341
#     4   9  18  34  61  87 103 139 197 239 270 326
#     4   9  20  39  56  84 116 146 187 244 280 322
#     4   8  18  32  58  85 106 139 183 246 287 309
#     4   9  16  31  56  88 115 129 178 245 280 317
#     4  10  19  36  57  85 116 147 187 233 271 342
#     4  10  22  36  56  85 119 152 184 223 284 344
#
# _framework density 21.996043
#
# number of rings (size 3 to 8) (size 9 to 14) (size 15 to 20)
#    0.000    2.909    1.818    0.000    2.545    1.455 
#    0.000    9.091    0.000    0.000    0.000    0.000 
#    0.000    0.000    0.000    0.000    0.000    0.000 
#
# Total GULP energy -122533.770616 kJ/mol
# GULP energy per Si atom -5569.716846 kJ/mol
# Density = 2.194598 g / cm^3
# Si number density = 21.996043 Si / 1000 Ang^3
#
#
#
# Elastic Constant Matrix: (Units=GPa)
#
#
# Indices 1 2 3 4 5 6 
#
# 1 160.3748 62.8935 35.6726 0.0000 -3.8379 0.0000
# 2 62.8935 190.2308 25.4987 0.0000 -14.1478 0.0000
# 3 35.6726 25.4987 40.8957 0.0000 -19.7329 0.0000
# 4 0.0000 0.0000 0.0000 7.5217 0.0000 7.8488
# 5 -3.8379 -14.1478 -19.7329 0.0000 28.0096 0.0000
# 6 0.0000 0.0000 0.0000 7.8488 0.0000 10.1545
#
#
#
# Elastic Compliance Matrix: (Units=1/GPa)
#
#
# Indices 1 2 3 4 5 6 
#
# 1 0.009136 -0.002203 -0.009891 0.000000 -0.006829 0.000000
# 2 -0.002203 0.006273 -0.000919 0.000000 0.002219 0.000000
# 3 -0.009891 -0.000919 0.049654 0.000000 0.033162 0.000000
# 4 0.000000 0.000000 0.000000 0.687200 0.000000 -0.531159
# 5 -0.006829 0.002219 0.033162 0.000000 0.059250 0.000000
# 6 0.000000 0.000000 0.000000 -0.531159 0.000000 0.509028
#
#
# Mechanical properties :
#
#
# Convention : Reuss Voigt Hill
#
# Bulk Modulus (GPa) = 25.61586 71.07011 48.34299
# Shear Modulus (GPa) = 3.67761 26.96628 15.32194
#
# Velocity S-wave (km/s) = 1.29444 3.50517 2.64214
# Velocity P-wave (km/s) = 3.72895 6.98299 5.59764
#
# Compressibility (1/GPa) = 0.03903831
#
# Stress axis : x y z
#
# Youngs Moduli (GPa) = 109.46021 159.40704 20.13920
#
# Poissons Ratio (x) = 0.35110 0.19919
# Poissons Ratio (y) = 0.24109 0.01852
# Poissons Ratio (z) = 1.08263 0.14655
#
# Static dielectric constant tensor:
#      x y z
#    x 1.843840 0.000000 -0.009500 
#    y 0.000000 1.958950 0.000000 
#    z -0.009500 0.000000 1.851370 
# 
# From -- ./inp_files/6529.got.cif
#   From: 2010.05.17/outbox.cif.g08.bks.cpg/sg11_4_cif.got.tgz:6529.got - 2010.06.03 12:22:45.
