data_PCOD9160060
_publ_section_title
;
Structure prediction by ZEFSAII (Michael W. Deem and Ramdas Pophale) SiO2 
 PCOD9160060
Probable space group: P 21/M
;
_chemical_formula_sum "Si O2"
_cell_formula_units_Z 28
_cell_length_a 16.280682
_cell_length_b 8.950737
_cell_length_c 19.980297
_cell_angle_alpha 90.000000
_cell_angle_beta 148.081972
_cell_angle_gamma 90.000000
_cell_volume 1539.384485
_symmetry_space_group_name_H-M "P 21/M"
_symmetry_group_IT_number 11
_symmetry_cell_setting 'monoclinic'
loop_
_space_group_symop_operation_xyz
x,y,z
-x,1/2+y,-z
-x,-y,-z
x,1/2-y,z
loop_
_atom_site_type_symbol
_atom_site_label
_atom_site_fract_x
_atom_site_fract_y
_atom_site_fract_z
Si Si1 0.527294 0.569869 0.592050
Si Si2 0.442522 0.079446 0.061381
Si Si3 0.031751 0.429475 0.448692
Si Si4 0.661055 0.078957 0.884927
Si Si5 0.831581 0.926478 0.885573
Si Si6 0.728181 0.921490 0.199364
Si Si7 0.658143 0.924055 0.416137
O O1 0.500000 0.500000 0.500000
O O2 0.522082 0.750000 0.585042
O O3 0.697799 0.524783 0.739748
O O4 0.399780 0.512972 0.558211
O O5 0.457132 0.250000 0.095626
O O6 0.345376 0.979358 0.044671
O O7 0.610608 0.005051 0.167795
O O8 0.357770 0.081592 0.931307
O O9 0.033326 0.250000 0.455749
O O10 0.886671 0.487952 0.305431
O O11 0.000000 0.500000 0.500000
O O12 0.189851 0.475666 0.519626
O O13 0.714771 0.250000 0.916764
O O14 0.486672 0.071414 0.734992
O O15 0.761545 0.971447 0.908549
O O16 0.848003 0.750000 0.889796
O O17 0.000000 0.000000 0.000000
O O18 0.754439 0.750000 0.239140
O O19 0.682638 0.750000 0.452295
#
# Coordination Sequence:
#
# PCOD9160060 Si02
#       7
#     4   4   4   4   4   4   4
#     4  10  21  38  62  88 115 151 191 235 290 348
#     4  10  20  35  55  78 106 144 187 230 277 330
#     4  11  22  36  56  82 113 149 187 232 280 331
#     4  10  19  34  58  83 109 143 182 227 278 331
#     4  10  21  38  59  86 116 147 189 236 285 343
#     4  10  21  36  53  76 109 145 185 231 277 329
#     4   9  20  37  56  81 112 146 187 230 274 331
#
# _framework density 18.189088999999999
#
# number of rings (size 3 to 8) (size 9 to 14) (size 15 to 20)
#    0.000    2.000    0.000    3.429    0.000    6.286 
#    2.571    0.000    0.000    0.000    0.000    0.000 
#    0.000    0.000    0.000    0.000    0.000    0.000 
#
# Total GULP energy -156215.627118 kJ/mol
# GULP energy per Si atom -5579.129540 kJ/mol
# Density = 1.814769 g / cm^3
# Si number density = 18.189089 Si / 1000 Ang^3
#
#
#
# Elastic Constant Matrix: (Units=GPa)
#
#
# Indices 1 2 3 4 5 6 
#
# 1 91.2900 33.1898 49.2742 0.0000 13.7167 0.0000
# 2 33.1898 64.4928 34.7797 0.0000 2.1559 0.0000
# 3 49.2742 34.7797 73.4116 0.0000 29.6658 0.0000
# 4 0.0000 0.0000 0.0000 30.3289 0.0000 0.7963
# 5 13.7167 2.1559 29.6658 0.0000 28.5744 0.0000
# 6 0.0000 0.0000 0.0000 0.7963 0.0000 35.7602
#
#
#
# Elastic Compliance Matrix: (Units=1/GPa)
#
#
# Indices 1 2 3 4 5 6 
#
# 1 0.018128 -0.002480 -0.013010 0.000000 0.004992 0.000000
# 2 -0.002480 0.025669 -0.017563 0.000000 0.017488 0.000000
# 3 -0.013010 -0.017563 0.047575 0.000000 -0.041822 0.000000
# 4 0.000000 0.000000 0.000000 0.032991 0.000000 -0.000735
# 5 0.004992 0.017488 -0.041822 0.000000 0.074700 0.000000
# 6 0.000000 0.000000 0.000000 -0.000735 0.000000 0.027980
#
#
# Mechanical properties :
#
#
# Convention : Reuss Voigt Hill
#
# Bulk Modulus (GPa) = 39.57898 51.52021 45.54959
# Shear Modulus (GPa) = 16.57989 26.39608 21.48799
#
# Velocity S-wave (km/s) = 3.02243 3.81360 3.44083
# Velocity P-wave (km/s) = 5.82984 6.91214 6.39393
#
# Compressibility (1/GPa) = 0.02526594
#
# Stress axis : x y z
#
# Youngs Moduli (GPa) = 55.16408 38.95790 21.01952
#
# Poissons Ratio (x) = 0.09662 0.27345
# Poissons Ratio (y) = 0.13681 0.36917
# Poissons Ratio (z) = 0.71766 0.68422
#
# Static dielectric constant tensor:
#      x y z
#    x 1.627430 0.000000 -0.000500 
#    y 0.000000 1.624420 0.000000 
#    z -0.000500 0.000000 1.637740 
# 
# From -- ./inp_files/65422.got.cif
#   From: 2010.05.17/outbox.cif.g08.bks.cpg/sg11_33_cif.got.tgz:65422.got - 2010.06.03 12:22:45.
