data_PCOD9160911
_publ_section_title
;
Structure prediction by ZEFSAII (Michael W. Deem and Ramdas Pophale) SiO2 
 PCOD9160911
Probable space group: P 21/M
;
_chemical_formula_sum "Si O2"
_cell_formula_units_Z 24
_cell_length_a 16.672933
_cell_length_b 14.168843
_cell_length_c 11.158728
_cell_angle_alpha 90.000000
_cell_angle_beta 29.820680
_cell_angle_gamma 90.000000
_cell_volume 1310.896212
_symmetry_space_group_name_H-M "P 21/M"
_symmetry_group_IT_number 11
_symmetry_cell_setting 'monoclinic'
loop_
_space_group_symop_operation_xyz
x,y,z
-x,1/2+y,-z
-x,-y,-z
x,1/2-y,z
loop_
_atom_site_type_symbol
_atom_site_label
_atom_site_fract_x
_atom_site_fract_y
_atom_site_fract_z
Si Si1 0.416877 0.855977 0.408381
Si Si2 0.180205 0.032179 0.738444
Si Si3 0.871396 0.012750 0.773366
Si Si4 0.751171 0.858818 0.110612
Si Si5 0.880171 0.638711 0.429714
Si Si6 0.609170 0.944431 0.952184
O O1 0.348666 0.750000 0.503297
O O2 0.565489 0.863475 0.308451
O O3 0.290932 0.939314 0.591371
O O4 0.500207 0.874809 0.171940
O O5 0.234463 0.100107 0.775450
O O6 0.176998 0.085445 0.615868
O O7 0.000000 0.000000 0.000000
O O8 0.945725 0.097813 0.754327
O O9 0.699502 0.015613 0.928228
O O10 0.000000 0.000000 0.500000
O O11 0.853528 0.923736 0.886131
O O12 0.803273 0.750000 0.036533
O O13 0.887494 0.750000 0.402551
O O14 0.749089 0.612010 0.701418
O O15 0.500000 0.000000 0.000000
#
# Coordination Sequence:
#
# PCOD9160911 Si02
#       6
#     4   4   4   4   4   4
#     4  10  22  40  64  88 117 157 204 254 304 361
#     4  12  23  39  60  88 126 161 199 247 299 359
#     4   9  20  37  60  88 120 156 194 245 299 348
#     4  10  21  40  63  88 118 161 204 242 302 363
#     4  11  22  39  60  88 125 164 201 246 302 360
#     4  10  19  39  67  87 119 154 202 259 306 347
#
# _framework density 18.308085999999999
#
# number of rings (size 3 to 8) (size 9 to 14) (size 15 to 20)
#    0.000    1.667    3.333    1.500    0.000    5.333 
#    0.000    1.667    0.000    0.000    0.000    0.000 
#    0.000    0.000    0.000    0.000    0.000    0.000 
#
# Total GULP energy -133898.251784 kJ/mol
# GULP energy per Si atom -5579.093824 kJ/mol
# Density = 1.826642 g / cm^3
# Si number density = 18.308086 Si / 1000 Ang^3
#
#
#
# Elastic Constant Matrix: (Units=GPa)
#
#
# Indices 1 2 3 4 5 6 
#
# 1 107.8828 54.7118 15.3735 0.0000 7.2836 0.0000
# 2 54.7118 140.1477 47.3341 0.0000 -13.1932 0.0000
# 3 15.3735 47.3341 72.4087 0.0000 5.7355 0.0000
# 4 0.0000 0.0000 0.0000 31.0352 0.0000 -4.6273
# 5 7.2836 -13.1932 5.7355 0.0000 22.5558 0.0000
# 6 0.0000 0.0000 0.0000 -4.6273 0.0000 21.5805
#
#
#
# Elastic Compliance Matrix: (Units=1/GPa)
#
#
# Indices 1 2 3 4 5 6 
#
# 1 0.012873 -0.006598 0.002260 0.000000 -0.008591 0.000000
# 2 -0.006598 0.013774 -0.008584 0.000000 0.012370 0.000000
# 3 0.002260 -0.008584 0.019796 0.000000 -0.010784 0.000000
# 4 0.000000 0.000000 0.000000 0.033286 0.000000 0.007137
# 5 -0.008591 0.012370 -0.010784 0.000000 0.057086 0.000000
# 6 0.000000 0.000000 0.000000 0.007137 0.000000 0.047868
#
#
# Mechanical properties :
#
#
# Convention : Reuss Voigt Hill
#
# Bulk Modulus (GPa) = 48.53965 61.69754 55.11860
# Shear Modulus (GPa) = 22.99986 28.56896 25.78441
#
# Velocity S-wave (km/s) = 3.54823 3.95455 3.75689
# Velocity P-wave (km/s) = 6.58459 7.39081 6.99932
#
# Compressibility (1/GPa) = 0.02060171
#
# Stress axis : x y z
#
# Youngs Moduli (GPa) = 77.68122 72.59823 50.51543
#
# Poissons Ratio (x) = 0.47897 -0.11417
# Poissons Ratio (y) = 0.51251 0.43360
# Poissons Ratio (z) = -0.17557 0.62315
#
# Static dielectric constant tensor:
#      x y z
#    x 1.651410 0.000000 0.005440 
#    y 0.000000 1.612270 0.000000 
#    z 0.005440 0.000000 1.624220 
# 
# From -- ./inp_files/17021.got.cif
#   From: 2010.05.17/outbox.cif.g08.bks.cpg/sg11_9_cif.got.tgz:17021.got - 2010.06.03 12:22:45.
