data_PCOD9160610
_publ_section_title
;
Structure prediction by ZEFSAII (Michael W. Deem and Ramdas Pophale) SiO2 
 PCOD9160610
Probable space group: P 21/M
;
_chemical_formula_sum "Si O2"
_cell_formula_units_Z 32
_cell_length_a 10.489402
_cell_length_b 16.812835
_cell_length_c 16.622369
_cell_angle_alpha 90.000000
_cell_angle_beta 143.521546
_cell_angle_gamma 90.000000
_cell_volume 1742.815451
_symmetry_space_group_name_H-M "P 21/M"
_symmetry_group_IT_number 11
_symmetry_cell_setting 'monoclinic'
loop_
_space_group_symop_operation_xyz
x,y,z
-x,1/2+y,-z
-x,-y,-z
x,1/2-y,z
loop_
_atom_site_type_symbol
_atom_site_label
_atom_site_fract_x
_atom_site_fract_y
_atom_site_fract_z
Si Si1 0.261244 0.153408 0.192369
Si Si2 0.781488 0.153695 0.913400
Si Si3 0.369083 0.077954 0.785631
Si Si4 0.844734 0.346815 0.763112
Si Si5 0.421683 0.891340 0.790285
Si Si6 0.947156 0.156449 0.514370
Si Si7 0.381460 0.846383 0.509323
Si Si8 0.694687 0.657312 0.074834
O O1 0.270469 0.250000 0.191316
O O2 0.391438 0.122356 0.181198
O O3 0.393965 0.127805 0.338327
O O4 0.013742 0.130504 0.066242
O O5 0.765994 0.250000 0.908129
O O6 0.584647 0.116744 0.860521
O O7 0.784244 0.127136 0.821582
O O8 0.336936 0.107239 0.860695
O O9 0.165631 0.107716 0.630449
O O10 0.388748 0.983810 0.790124
O O11 0.840444 0.250000 0.762631
O O12 0.684749 0.375080 0.612091
O O13 0.086123 0.367887 0.859109
O O14 0.205344 0.857714 0.639785
O O15 0.502786 0.851452 0.913600
O O16 0.997014 0.250000 0.545395
O O17 0.802708 0.134133 0.518995
O O18 0.386765 0.750000 0.508518
O O19 0.719079 0.750000 0.110213
#
# Coordination Sequence:
#
# PCOD9160610 Si02
#       8
#     4   4   4   4   4   4   4   4
#     4   9  17  33  56  79 106 146 200 239 268 328
#     4  10  20  35  55  81 111 148 188 231 281 340
#     4  12  24  36  54  87 127 148 174 237 313 348
#     4   9  16  30  55  81 102 136 195 241 262 315
#     4  11  22  36  57  85 116 150 191 239 291 335
#     4  10  19  36  60  84 109 148 196 237 277 338
#     4   8  14  27  53  82  98 125 184 245 269 297
#     4  11  20  37  60  83 108 149 202 240 270 334
#
# _framework density 18.361094999999999
#
# number of rings (size 3 to 8) (size 9 to 14) (size 15 to 20)
#    0.000    2.000    2.500    3.750    0.000    0.500 
#    0.000    1.250    0.000    6.000    0.000    0.000 
#    0.000    0.000    0.000    0.000    0.000    0.000 
#
# Total GULP energy -178589.036844 kJ/mol
# GULP energy per Si atom -5580.907401 kJ/mol
# Density = 1.831930 g / cm^3
# Si number density = 18.361095 Si / 1000 Ang^3
#
#
#
# Elastic Constant Matrix: (Units=GPa)
#
#
# Indices 1 2 3 4 5 6 
#
# 1 54.2860 3.3409 20.8110 0.0000 1.4519 0.0000
# 2 3.3409 24.6282 -1.4591 0.0000 2.3386 0.0000
# 3 20.8110 -1.4591 108.4600 0.0000 -5.4309 0.0000
# 4 0.0000 0.0000 0.0000 21.6366 0.0000 -3.5324
# 5 1.4519 2.3386 -5.4309 0.0000 22.0011 0.0000
# 6 0.0000 0.0000 0.0000 -3.5324 0.0000 10.9052
#
#
#
# Elastic Compliance Matrix: (Units=1/GPa)
#
#
# Indices 1 2 3 4 5 6 
#
# 1 0.020184 -0.002783 -0.004012 0.000000 -0.002026 0.000000
# 2 -0.002783 0.041414 0.000891 0.000000 -0.003998 0.000000
# 3 -0.004012 0.000891 0.010136 0.000000 0.002672 0.000000
# 4 0.000000 0.000000 0.000000 0.048799 0.000000 0.015807
# 5 -0.002026 -0.003998 0.002672 0.000000 0.046671 0.000000
# 6 0.000000 0.000000 0.000000 0.015807 0.000000 0.096819
#
#
# Mechanical properties :
#
#
# Convention : Reuss Voigt Hill
#
# Bulk Modulus (GPa) = 16.68743 25.86223 21.27483
# Shear Modulus (GPa) = 16.90297 21.88733 19.39515
#
# Velocity S-wave (km/s) = 3.03741 3.45635 3.25363
# Velocity P-wave (km/s) = 4.62702 5.48128 5.07217
#
# Compressibility (1/GPa) = 0.05992533
#
# Stress axis : x y z
#
# Youngs Moduli (GPa) = 49.54313 24.14653 98.66260
#
# Poissons Ratio (x) = 0.06721 0.39582
# Poissons Ratio (y) = 0.13790 -0.08790
# Poissons Ratio (z) = 0.19876 -0.02151
#
# Static dielectric constant tensor:
#      x y z
#    x 1.596950 0.000000 -0.010750 
#    y 0.000000 1.616410 0.000000 
#    z -0.010750 0.000000 1.658710 
# 
# From -- ./inp_files/59650.got.cif
#   From: 2010.05.17/outbox.cif.g08.bks.cpg/sg11_30_cif.got.tgz:59650.got - 2010.06.03 12:22:45.
