data_PCOD9160045
_publ_section_title
;
Structure prediction by ZEFSAII (Michael W. Deem and Ramdas Pophale) SiO2 
 PCOD9160045
Probable space group: P 21/M
;
_chemical_formula_sum "Si O2"
_cell_formula_units_Z 24
_cell_length_a 23.455697
_cell_length_b 7.934359
_cell_length_c 12.322606
_cell_angle_alpha 90.000000
_cell_angle_beta 28.349486
_cell_angle_gamma 90.000000
_cell_volume 1088.974770
_symmetry_space_group_name_H-M "P 21/M"
_symmetry_group_IT_number 11
_symmetry_cell_setting 'monoclinic'
loop_
_space_group_symop_operation_xyz
x,y,z
-x,1/2+y,-z
-x,-y,-z
x,1/2-y,z
loop_
_atom_site_type_symbol
_atom_site_label
_atom_site_fract_x
_atom_site_fract_y
_atom_site_fract_z
Si Si1 0.614783 0.449542 0.040507
Si Si2 0.136967 0.558311 0.777599
Si Si3 0.028775 0.952452 0.328479
Si Si4 0.638567 0.044928 0.470075
Si Si5 0.301603 0.544396 0.862454
Si Si6 0.810910 0.948117 0.543387
O O1 0.637916 0.250000 0.997783
O O2 0.694181 0.530513 0.813491
O O3 0.473389 0.482932 0.272453
O O4 0.655711 0.514602 0.091079
O O5 0.127704 0.750000 0.829331
O O6 0.234585 0.480176 0.695472
O O7 0.192820 0.541660 0.564404
O O8 0.000000 0.500000 0.000000
O O9 0.027592 0.750000 0.323320
O O10 0.924919 0.013444 0.422000
O O11 0.163385 0.008486 0.077205
O O12 0.000000 0.000000 0.500000
O O13 0.637521 0.250000 0.474599
O O14 0.626296 0.989966 0.365048
O O15 0.305040 0.750000 0.859158
O O16 0.828862 0.750000 0.489912
#
# Coordination Sequence:
#
# PCOD9160045 Si02
#       6
#     4   4   4   4   4   4
#     4  11  22  37  60  90 123 158 200 251 301 356
#     4  11  24  43  67  91 120 157 200 251 302 358
#     4  10  19  34  57  86 119 154 192 241 298 355
#     4  10  22  41  62  85 118 161 202 245 301 360
#     4   9  18  35  59  86 121 156 193 243 299 357
#     4  11  23  39  62  90 124 163 202 247 301 359
#
# _framework density 22.039076999999999
#
# number of rings (size 3 to 8) (size 9 to 14) (size 15 to 20)
#    0.000    1.667    1.667    3.000    0.000    5.333 
#    0.000    1.667    0.000    0.000    0.000    0.000 
#    0.000    0.000    0.000    0.000    0.000    0.000 
#
# Total GULP energy -134138.286352 kJ/mol
# GULP energy per Si atom -5589.095265 kJ/mol
# Density = 2.198891 g / cm^3
# Si number density = 22.039077 Si / 1000 Ang^3
#
#
#
# Elastic Constant Matrix: (Units=GPa)
#
#
# Indices 1 2 3 4 5 6 
#
# 1 79.3189 -7.1067 20.7595 0.0000 -2.6339 0.0000
# 2 -7.1067 21.4343 -11.4785 0.0000 -7.5723 0.0000
# 3 20.7595 -11.4785 112.3673 0.0000 -8.9096 0.0000
# 4 0.0000 0.0000 0.0000 22.1459 0.0000 -0.3246
# 5 -2.6339 -7.5723 -8.9096 0.0000 33.7476 0.0000
# 6 0.0000 0.0000 0.0000 -0.3246 0.0000 16.7232
#
#
#
# Elastic Compliance Matrix: (Units=1/GPa)
#
#
# Indices 1 2 3 4 5 6 
#
# 1 0.013525 0.003919 -0.001987 0.000000 0.001410 0.000000
# 2 0.003919 0.056433 0.006199 0.000000 0.014605 0.000000
# 3 -0.001987 0.006199 0.010211 0.000000 0.003932 0.000000
# 4 0.000000 0.000000 0.000000 0.045168 0.000000 0.000877
# 5 0.001410 0.014605 0.003932 0.000000 0.034057 0.000000
# 6 0.000000 0.000000 0.000000 0.000877 0.000000 0.059814
#
#
# Mechanical properties :
#
#
# Convention : Reuss Voigt Hill
#
# Bulk Modulus (GPa) = 10.37012 24.16323 17.26667
# Shear Modulus (GPa) = 21.26845 28.58643 24.92744
#
# Velocity S-wave (km/s) = 3.10987 3.60541 3.36677
# Velocity P-wave (km/s) = 4.19650 5.32161 4.79219
#
# Compressibility (1/GPa) = 0.09643091
#
# Stress axis : x y z
#
# Youngs Moduli (GPa) = 73.93597 17.72027 97.93020
#
# Poissons Ratio (x) = -0.06944 0.19455
# Poissons Ratio (y) = -0.28974 -0.60704
# Poissons Ratio (z) = 0.14688 -0.10984
#
# Static dielectric constant tensor:
#      x y z
#    x 1.825300 0.000000 -0.027190 
#    y 0.000000 1.803760 0.000000 
#    z -0.027190 0.000000 1.783290 
# 
# From -- ./inp_files/43883.got.cif
#   From: 2010.05.17/outbox.cif.g08.bks.cpg/sg11_22_cif.got.tgz:43883.got - 2010.06.03 12:22:45.
