data_PCOD9160272
_publ_section_title
;
Structure prediction by ZEFSAII (Michael W. Deem and Ramdas Pophale) SiO2 
 PCOD9160272
Probable space group: P 21/M
;
_chemical_formula_sum "Si O2"
_cell_formula_units_Z 28
_cell_length_a 10.025100
_cell_length_b 11.629679
_cell_length_c 13.514187
_cell_angle_alpha 90.000000
_cell_angle_beta 57.174669
_cell_angle_gamma 90.000000
_cell_volume 1324.020462
_symmetry_space_group_name_H-M "P 21/M"
_symmetry_group_IT_number 11
_symmetry_cell_setting 'monoclinic'
loop_
_space_group_symop_operation_xyz
x,y,z
-x,1/2+y,-z
-x,-y,-z
x,1/2-y,z
loop_
_atom_site_type_symbol
_atom_site_label
_atom_site_fract_x
_atom_site_fract_y
_atom_site_fract_z
Si Si1 0.635283 0.119312 0.824679
Si Si2 0.145179 0.378610 0.728847
Si Si3 0.534020 0.876132 0.626732
Si Si4 0.188029 0.513856 0.425172
Si Si5 0.328905 0.450616 0.840651
Si Si6 0.796218 0.118739 0.955028
Si Si7 0.729803 0.121305 0.413248
O O1 0.692897 0.250000 0.788947
O O2 0.454909 0.112094 0.860067
O O3 0.659217 0.092140 0.930103
O O4 0.743496 0.040640 0.710420
O O5 0.175201 0.250000 0.670409
O O6 0.235059 0.378000 0.798104
O O7 0.192285 0.502690 0.660492
O O8 0.959337 0.386477 0.828578
O O9 0.502886 0.750000 0.677946
O O10 0.717473 0.905416 0.567269
O O11 0.453609 0.881744 0.550333
O O12 0.437719 0.964976 0.731291
O O13 0.000000 0.500000 0.500000
O O14 0.755018 0.388288 0.520369
O O15 0.213170 0.528074 0.953397
O O16 0.777279 0.250000 0.999038
O O17 0.788082 0.250000 0.357489
#
# Coordination Sequence:
#
# PCOD9160272 Si02
#       7
#     4   4   4   4   4   4   4
#     4  10  21  36  53  77 110 148 190 235 283 342
#     4  10  21  37  59  89 118 148 190 238 287 343
#     4   9  20  36  55  81 111 147 194 242 292 350
#     4  11  22  36  57  83 114 152 194 245 297 348
#     4  10  19  35  57  81 110 146 188 236 284 340
#     4  10  20  35  56  81 113 150 187 231 286 340
#     4  10  21  39  60  84 117 157 196 239 291 347
#
# _framework density 21.147708999999999
#
# number of rings (size 3 to 8) (size 9 to 14) (size 15 to 20)
#    0.000    2.000    0.000    3.429    0.000    2.286 
#    0.000    5.000    0.000    3.429    0.000    0.000 
#    0.000    0.000    0.000    0.000    0.000    0.000 
#
# Total GULP energy -156084.014601 kJ/mol
# GULP energy per Si atom -5574.429093 kJ/mol
# Density = 2.109958 g / cm^3
# Si number density = 21.147709 Si / 1000 Ang^3
#
#
#
# Elastic Constant Matrix: (Units=GPa)
#
#
# Indices 1 2 3 4 5 6 
#
# 1 75.1811 11.6166 -7.3865 0.0000 -5.6640 0.0000
# 2 11.6166 124.5013 28.2711 0.0000 4.6222 0.0000
# 3 -7.3865 28.2711 27.7805 0.0000 5.2800 0.0000
# 4 0.0000 0.0000 0.0000 -193.0097 0.0000 -135.7483
# 5 -5.6640 4.6222 5.2800 0.0000 24.8774 0.0000
# 6 0.0000 0.0000 0.0000 -135.7483 0.0000 -63.7355
#
#
#
# Elastic Compliance Matrix: (Units=1/GPa)
#
#
# Indices 1 2 3 4 5 6 
#
# 1 0.014559 -0.002890 0.006336 0.000000 0.002507 0.000000
# 2 -0.002890 0.011022 -0.011953 0.000000 -0.000169 0.000000
# 3 0.006336 -0.011953 0.051215 0.000000 -0.007207 0.000000
# 4 0.000000 0.000000 0.000000 0.010404 0.000000 -0.022159
# 5 0.002507 -0.000169 -0.007207 0.000000 0.042329 0.000000
# 6 0.000000 0.000000 0.000000 -0.022159 0.000000 0.031507
#
#
# Mechanical properties :
#
#
# Convention : Reuss Voigt Hill
#
# Bulk Modulus (GPa) = 16.72764 32.49616 24.61190
# Shear Modulus (GPa) = 25.25529 -33.37610 -4.06041
#
# Velocity S-wave (km/s) = 3.45952 -3.97701 -1.38715
# Velocity P-wave (km/s) = 4.88720 2.38521 3.01625
#
# Compressibility (1/GPa) = 0.05978129
#
# Stress axis : x y z
#
# Youngs Moduli (GPa) = 68.68529 90.72542 19.52548
#
# Poissons Ratio (x) = 0.26222 -0.12371
# Poissons Ratio (y) = 0.19852 0.23339
# Poissons Ratio (z) = -0.43518 1.08446
#
# Static dielectric constant tensor:
#      x y z
#    x 1.790380 0.000000 0.027480 
#    y 0.000000 1.777500 0.000000 
#    z 0.027480 0.000000 1.779020 
# 
# From -- ./inp_files/47131.got.cif
#   From: 2010.05.17/outbox.cif.g08.bks.cpg/sg11_24_cif.got.tgz:47131.got - 2010.06.03 12:22:45.
