data_PCOD9160224
_publ_section_title
;
Structure prediction by ZEFSAII (Michael W. Deem and Ramdas Pophale) SiO2 
 PCOD9160224
Probable space group: P 21/M
;
_chemical_formula_sum "Si O2"
_cell_formula_units_Z 28
_cell_length_a 20.363825
_cell_length_b 9.362344
_cell_length_c 14.437901
_cell_angle_alpha 90.000000
_cell_angle_beta 151.652620
_cell_angle_gamma 90.000000
_cell_volume 1306.993684
_symmetry_space_group_name_H-M "P 21/M"
_symmetry_group_IT_number 11
_symmetry_cell_setting 'monoclinic'
loop_
_space_group_symop_operation_xyz
x,y,z
-x,1/2+y,-z
-x,-y,-z
x,1/2-y,z
loop_
_atom_site_type_symbol
_atom_site_label
_atom_site_fract_x
_atom_site_fract_y
_atom_site_fract_z
Si Si1 0.781784 0.583569 0.709070
Si Si2 0.490702 0.914132 0.634403
Si Si3 0.010195 0.916895 0.154938
Si Si4 0.689656 0.907202 0.233705
Si Si5 0.794927 0.577528 0.041463
Si Si6 0.141598 0.918753 0.693145
Si Si7 0.573806 0.095417 0.229381
O O1 0.762648 0.750000 0.664786
O O2 0.635491 0.512732 0.553015
O O3 0.858456 0.503818 0.719059
O O4 0.889713 0.570371 0.927740
O O5 0.466816 0.750000 0.575452
O O6 0.480593 0.918432 0.734221
O O7 0.649396 0.952693 0.808945
O O8 0.047409 0.750000 0.207001
O O9 0.931452 0.959057 0.151495
O O10 0.756872 0.750000 0.314273
O O11 0.769893 0.036005 0.285597
O O12 0.656219 0.958732 0.295380
O O13 0.552965 0.896222 0.000350
O O14 0.796085 0.750000 0.060232
O O15 0.795632 0.489438 0.136817
O O16 0.127881 0.750000 0.684955
O O17 0.000000 0.000000 0.500000
O O18 0.647477 0.250000 0.315218
#
# Coordination Sequence:
#
# PCOD9160224 Si02
#       7
#     4   4   4   4   4   4   4
#     4  10  21  37  59  90 122 153 196 244 288 346
#     4  10  20  36  59  87 121 158 194 238 297 353
#     4   9  20  40  64  86 116 158 197 239 296 353
#     4  10  19  35  56  79 108 145 190 235 281 334
#     4  10  21  41  64  87 117 155 197 244 297 355
#     4  12  25  40  59  83 114 152 194 240 294 350
#     4   9  18  33  54  80 110 146 187 230 282 338
#
# _framework density 21.423210000000001
#
# number of rings (size 3 to 8) (size 9 to 14) (size 15 to 20)
#    0.000    2.000    1.429    2.143    0.000    4.571 
#    0.000    1.429    0.000    0.000    0.000    0.000 
#    0.000    0.000    0.000    0.000    0.000    0.000 
#
# Total GULP energy -156314.600533 kJ/mol
# GULP energy per Si atom -5582.664305 kJ/mol
# Density = 2.137445 g / cm^3
# Si number density = 21.423210 Si / 1000 Ang^3
#
#
#
# Elastic Constant Matrix: (Units=GPa)
#
#
# Indices 1 2 3 4 5 6 
#
# 1 44.8101 17.3651 -7.6714 0.0000 4.9220 0.0000
# 2 17.3651 92.1982 32.0227 0.0000 13.8093 0.0000
# 3 -7.6714 32.0227 72.8334 0.0000 13.4893 0.0000
# 4 0.0000 0.0000 0.0000 27.3330 0.0000 4.9172
# 5 4.9220 13.8093 13.4893 0.0000 20.4428 0.0000
# 6 0.0000 0.0000 0.0000 4.9172 0.0000 22.4723
#
#
#
# Elastic Compliance Matrix: (Units=1/GPa)
#
#
# Indices 1 2 3 4 5 6 
#
# 1 0.026707 -0.006422 0.006863 0.000000 -0.006621 0.000000
# 2 -0.006422 0.014938 -0.006450 0.000000 -0.004289 0.000000
# 3 0.006863 -0.006450 0.019125 0.000000 -0.009915 0.000000
# 4 0.000000 0.000000 0.000000 0.038085 0.000000 -0.008333
# 5 -0.006621 -0.004289 -0.009915 0.000000 0.059951 0.000000
# 6 0.000000 0.000000 0.000000 -0.008333 0.000000 0.046323
#
#
# Mechanical properties :
#
#
# Convention : Reuss Voigt Hill
#
# Bulk Modulus (GPa) = 20.51206 32.58605 26.54905
# Shear Modulus (GPa) = 21.42257 25.25797 23.34027
#
# Velocity S-wave (km/s) = 3.16566 3.43738 3.30432
# Velocity P-wave (km/s) = 4.79138 5.56757 5.19399
#
# Compressibility (1/GPa) = 0.04875182
#
# Stress axis : x y z
#
# Youngs Moduli (GPa) = 37.44299 66.94143 52.28726
#
# Poissons Ratio (x) = 0.42991 -0.35884
# Poissons Ratio (y) = 0.24047 0.33726
# Poissons Ratio (z) = -0.25697 0.43178
#
# Static dielectric constant tensor:
#      x y z
#    x 1.682450 0.000000 0.058240 
#    y 0.000000 1.731890 0.000000 
#    z 0.058240 0.000000 1.827160 
# 
# From -- ./inp_files/54462.got.cif
#   From: 2010.05.17/outbox.cif.g08.bks.cpg/sg11_28_cif.got.tgz:54462.got - 2010.06.03 12:22:45.
