data_PCOD9160548
_publ_section_title
;
Structure prediction by ZEFSAII (Michael W. Deem and Ramdas Pophale) SiO2 
 PCOD9160548
Probable space group: P 21/M
;
_chemical_formula_sum "Si O2"
_cell_formula_units_Z 28
_cell_length_a 20.907408
_cell_length_b 9.735130
_cell_length_c 9.057801
_cell_angle_alpha 90.000000
_cell_angle_beta 130.515243
_cell_angle_gamma 90.000000
_cell_volume 1401.559479
_symmetry_space_group_name_H-M "P 21/M"
_symmetry_group_IT_number 11
_symmetry_cell_setting 'monoclinic'
loop_
_space_group_symop_operation_xyz
x,y,z
-x,1/2+y,-z
-x,-y,-z
x,1/2-y,z
loop_
_atom_site_type_symbol
_atom_site_label
_atom_site_fract_x
_atom_site_fract_y
_atom_site_fract_z
Si Si1 0.704911 0.915146 0.405693
Si Si2 0.622270 0.412188 0.770461
Si Si3 0.440215 0.088365 0.598978
Si Si4 0.129598 0.092813 0.186443
Si Si5 0.996871 0.473599 0.235679
Si Si6 0.752268 0.914722 0.145934
Si Si7 0.096336 0.892532 0.619823
O O1 0.715288 0.750000 0.421303
O O2 0.614050 0.944311 0.337666
O O3 0.781248 0.966540 0.624431
O O4 0.717888 0.955478 0.256497
O O5 0.640921 0.250000 0.780275
O O6 0.592268 0.484557 0.574745
O O7 0.540803 0.424284 0.756097
O O8 0.698140 0.502191 0.946360
O O9 0.423252 0.250000 0.534030
O O10 0.141966 0.250000 0.156005
O O11 0.066532 0.091611 0.232665
O O12 0.081530 0.013245 0.985124
O O13 0.043787 0.597326 0.390204
O O14 0.962998 0.392380 0.326121
O O15 0.748308 0.750000 0.120957
O O16 0.846286 0.973298 0.282255
O O17 0.146895 0.750000 0.695040
#
# Coordination Sequence:
#
# PCOD9160548 Si02
#       7
#     4   4   4   4   4   4   4
#     4   9  19  36  59  85 114 150 196 242 282 339
#     4  10  21  38  60  90 123 152 188 237 291 345
#     4   9  19  38  64  90 118 154 193 234 285 348
#     4  10  19  36  58  84 114 151 197 239 282 340
#     4  10  22  36  58  84 114 157 194 237 293 349
#     4  11  23  39  60  85 115 155 200 240 290 347
#     4  11  23  39  57  85 122 155 194 243 292 344
#
# _framework density 19.977746
#
# number of rings (size 3 to 8) (size 9 to 14) (size 15 to 20)
#    0.000    2.000    1.429    1.714    2.000    4.000 
#    0.000    1.429    0.000    0.000    0.000    0.000 
#    0.000    0.000    0.000    0.000    0.000    0.000 
#
# Total GULP energy -156097.806856 kJ/mol
# GULP energy per Si atom -5574.921673 kJ/mol
# Density = 1.993228 g / cm^3
# Si number density = 19.977746 Si / 1000 Ang^3
#
#
#
# Elastic Constant Matrix: (Units=GPa)
#
#
# Indices 1 2 3 4 5 6 
#
# 1 52.4220 8.1204 -16.1772 0.0000 -9.1453 0.0000
# 2 8.1204 92.7749 20.5096 0.0000 4.6884 0.0000
# 3 -16.1772 20.5096 48.1485 0.0000 -6.9125 0.0000
# 4 0.0000 0.0000 0.0000 11.2293 0.0000 9.8294
# 5 -9.1453 4.6884 -6.9125 0.0000 14.3271 0.0000
# 6 0.0000 0.0000 0.0000 9.8294 0.0000 5.1937
#
#
#
# Elastic Compliance Matrix: (Units=1/GPa)
#
#
# Indices 1 2 3 4 5 6 
#
# 1 0.031968 -0.008657 0.019087 0.000000 0.032448 0.000000
# 2 -0.008657 0.014896 -0.011547 0.000000 -0.015972 0.000000
# 3 0.019087 -0.011547 0.036952 0.000000 0.033791 0.000000
# 4 0.000000 0.000000 0.000000 -0.135626 0.000000 0.256679
# 5 0.032448 -0.015972 0.033791 0.000000 0.112040 0.000000
# 6 0.000000 0.000000 0.000000 0.256679 0.000000 -0.293236
#
#
# Mechanical properties :
#
#
# Convention : Reuss Voigt Hill
#
# Bulk Modulus (GPa) = 12.25778 24.25011 18.25395
# Shear Modulus (GPa) = -24.56070 18.20953 -3.17559
#
# Velocity S-wave (km/s) = -3.51009 3.02237 -1.26215
# Velocity P-wave (km/s) = 3.20602 4.93402 2.65197
#
# Compressibility (1/GPa) = 0.08158082
#
# Stress axis : x y z
#
# Youngs Moduli (GPa) = 31.28145 67.13038 27.06227
#
# Poissons Ratio (x) = 0.58117 -0.51653
# Poissons Ratio (y) = 0.27081 0.31249
# Poissons Ratio (z) = -0.59706 0.77516
#
# Static dielectric constant tensor:
#      x y z
#    x 1.719000 0.000000 0.013050 
#    y 0.000000 1.749400 0.000000 
#    z 0.013050 0.000000 1.690660 
# 
# From -- ./inp_files/26432.got.cif
#   From: 2010.05.17/outbox.cif.g08.bks.cpg/sg11_14_cif.got.tgz:26432.got - 2010.06.03 12:22:45.
