data_PCOD9160232
_publ_section_title
;
Structure prediction by ZEFSAII (Michael W. Deem and Ramdas Pophale) SiO2 
 PCOD9160232
Probable space group: P 21/M
;
_chemical_formula_sum "Si O2"
_cell_formula_units_Z 32
_cell_length_a 13.480046
_cell_length_b 8.792744
_cell_length_c 23.899160
_cell_angle_alpha 90.000000
_cell_angle_beta 39.038176
_cell_angle_gamma 90.000000
_cell_volume 1784.133474
_symmetry_space_group_name_H-M "P 21/M"
_symmetry_group_IT_number 11
_symmetry_cell_setting 'monoclinic'
loop_
_space_group_symop_operation_xyz
x,y,z
-x,1/2+y,-z
-x,-y,-z
x,1/2-y,z
loop_
_atom_site_type_symbol
_atom_site_label
_atom_site_fract_x
_atom_site_fract_y
_atom_site_fract_z
Si Si1 0.459212 0.932886 0.229957
Si Si2 0.672206 0.426589 0.422946
Si Si3 0.469560 0.068269 0.102637
Si Si4 0.252847 0.566932 0.106043
Si Si5 0.830284 0.925763 0.580207
Si Si6 0.341217 0.429437 0.751574
Si Si7 0.898933 0.565826 0.231545
Si Si8 0.328735 0.577064 0.448249
O O1 0.461959 0.750000 0.228486
O O2 0.586041 0.988213 0.221695
O O3 0.486873 0.996145 0.156104
O O4 0.288606 0.989208 0.325830
O O5 0.500000 0.500000 0.500000
O O6 0.660435 0.250000 0.411368
O O7 0.790480 0.511323 0.330123
O O8 0.723465 0.432580 0.465234
O O9 0.458968 0.250000 0.112171
O O10 0.319220 0.006560 0.133863
O O11 0.621048 0.030120 0.997790
O O12 0.252048 0.750000 0.113396
O O13 0.078358 0.517470 0.164078
O O14 0.841340 0.750000 0.590689
O O15 0.751771 0.951543 0.554199
O O16 0.000000 0.000000 0.500000
O O17 0.314111 0.250000 0.773018
O O18 0.185608 0.490426 0.788820
O O19 0.483898 0.440976 0.643935
O O20 0.897076 0.750000 0.230669
O O21 0.292646 0.750000 0.443310
#
# Coordination Sequence:
#
# PCOD9160232 Si02
#       8
#     4   4   4   4   4   4   4   4
#     4  10  20  36  58  81 107 143 184 223 274 333
#     4  11  21  33  51  77 109 145 183 222 267 318
#     4  10  20  37  59  83 111 143 185 231 281 333
#     4   9  20  37  59  83 110 146 183 228 281 336
#     4  11  22  36  54  78 108 142 181 227 273 321
#     4   8  15  31  53  75 103 141 176 214 265 322
#     4  10  19  35  56  80 110 144 185 228 277 330
#     4   9  18  34  51  70 103 145 183 219 267 321
#
# _framework density 17.935877000000001
#
# number of rings (size 3 to 8) (size 9 to 14) (size 15 to 20)
#    0.000    2.250    1.250    3.000    0.000    3.000 
#    0.000    3.750    0.000    0.000    0.000    0.000 
#    0.000    0.000    0.000    0.000    0.000    0.000 
#
# Total GULP energy -178372.091318 kJ/mol
# GULP energy per Si atom -5574.127854 kJ/mol
# Density = 1.789505 g / cm^3
# Si number density = 17.935877 Si / 1000 Ang^3
#
#
#
# Elastic Constant Matrix: (Units=GPa)
#
#
# Indices 1 2 3 4 5 6 
#
# 1 130.3322 35.8689 75.5653 0.0000 -0.0334 0.0000
# 2 35.8689 39.0046 27.1391 0.0000 -0.6421 0.0000
# 3 75.5653 27.1391 79.5815 0.0000 -1.8697 0.0000
# 4 0.0000 0.0000 0.0000 27.0349 0.0000 4.4040
# 5 -0.0334 -0.6421 -1.8697 0.0000 35.0279 0.0000
# 6 0.0000 0.0000 0.0000 4.4040 0.0000 24.6980
#
#
#
# Elastic Compliance Matrix: (Units=1/GPa)
#
#
# Indices 1 2 3 4 5 6 
#
# 1 0.018160 -0.006165 -0.015163 0.000000 -0.000905 0.000000
# 2 -0.006165 0.035707 -0.006315 0.000000 0.000312 0.000000
# 3 -0.015163 -0.006315 0.029150 0.000000 0.001426 0.000000
# 4 0.000000 0.000000 0.000000 0.038096 0.000000 -0.006793
# 5 -0.000905 0.000312 0.001426 0.000000 0.028630 0.000000
# 6 0.000000 0.000000 0.000000 -0.006793 0.000000 0.041700
#
#
# Mechanical properties :
#
#
# Convention : Reuss Voigt Hill
#
# Bulk Modulus (GPa) = 36.06072 58.45166 47.25619
# Shear Modulus (GPa) = 19.53323 24.70850 22.12087
#
# Velocity S-wave (km/s) = 3.30367 3.71563 3.51569
# Velocity P-wave (km/s) = 5.89078 7.14618 6.54863
#
# Compressibility (1/GPa) = 0.02773100
#
# Stress axis : x y z
#
# Youngs Moduli (GPa) = 55.06496 28.00576 34.30479
#
# Poissons Ratio (x) = 0.17266 0.52015
# Poissons Ratio (y) = 0.33949 0.21665
# Poissons Ratio (z) = 0.83493 0.17687
#
# Static dielectric constant tensor:
#      x y z
#    x 1.663010 0.000000 -0.012070 
#    y 0.000000 1.644830 0.000000 
#    z -0.012070 0.000000 1.593150 
# 
# From -- ./inp_files/68965.got.cif
#   From: 2010.05.17/outbox.cif.g08.bks.cpg/sg11_35_cif.got.tgz:68965.got - 2010.06.03 12:22:45.
