data_PCOD9160321
_publ_section_title
;
Structure prediction by ZEFSAII (Michael W. Deem and Ramdas Pophale) SiO2 
 PCOD9160321
Probable space group: P 21/M
;
_chemical_formula_sum "Si O2"
_cell_formula_units_Z 32
_cell_length_a 24.648522
_cell_length_b 7.490106
_cell_length_c 19.903785
_cell_angle_alpha 90.000000
_cell_angle_beta 22.374497
_cell_angle_gamma 90.000000
_cell_volume 1398.783199
_symmetry_space_group_name_H-M "P 21/M"
_symmetry_group_IT_number 11
_symmetry_cell_setting 'monoclinic'
loop_
_space_group_symop_operation_xyz
x,y,z
-x,1/2+y,-z
-x,-y,-z
x,1/2-y,z
loop_
_atom_site_type_symbol
_atom_site_label
_atom_site_fract_x
_atom_site_fract_y
_atom_site_fract_z
Si Si1 0.993521 0.469458 0.837489
Si Si2 0.452852 0.536682 0.448088
Si Si3 0.275963 0.537527 0.778809
Si Si4 0.585507 0.029760 0.086206
Si Si5 0.648926 0.036967 0.864448
Si Si6 0.685873 0.955544 0.533217
Si Si7 0.949726 0.037596 0.481599
Si Si8 0.156977 0.954156 0.124771
O O1 0.995811 0.250000 0.836994
O O2 0.156228 0.532677 0.656101
O O3 0.924815 0.529409 0.845576
O O4 0.881347 0.528479 0.022813
O O5 0.440056 0.750000 0.458490
O O6 0.352568 0.467857 0.623993
O O7 0.614113 0.495217 0.285819
O O8 0.398043 0.460537 0.441063
O O9 0.266507 0.750000 0.781254
O O10 0.586620 0.250000 0.085535
O O11 0.425666 0.968058 0.285277
O O12 0.640790 0.970759 0.950305
O O13 0.695415 0.966552 0.017398
O O14 0.667520 0.250000 0.847620
O O15 0.786657 0.970764 0.666503
O O16 0.500000 0.000000 0.000000
O O17 0.707727 0.750000 0.528393
O O18 0.954932 0.250000 0.464199
O O19 0.000000 0.000000 0.500000
O O20 0.051658 0.954714 0.309265
O O21 0.189976 0.750000 0.068222
#
# Coordination Sequence:
#
# PCOD9160321 Si02
#       8
#     4   4   4   4   4   4   4   4
#     4   9  19  34  57  85 107 140 186 224 265 322
#     4  10  20  34  55  83 112 144 181 223 271 319
#     4   9  18  36  59  81 108 143 185 226 264 317
#     4   9  18  35  56  78 106 142 183 223 263 317
#     4  10  22  38  56  81 110 141 179 223 272 323
#     4  10  20  35  56  81 110 145 184 221 264 323
#     4  11  22  38  58  82 110 141 181 225 271 324
#     4  10  19  35  58  81 108 140 180 230 272 314
#
# _framework density 22.877026000000001
#
# number of rings (size 3 to 8) (size 9 to 14) (size 15 to 20)
#    0.000    2.250    1.250    1.500    1.750    4.000 
#    0.000    4.375    0.000    0.000    0.000    0.000 
#    0.000    0.000    0.000    0.000    0.000    0.000 
#
# Total GULP energy -178784.736657 kJ/mol
# GULP energy per Si atom -5587.023021 kJ/mol
# Density = 2.282496 g / cm^3
# Si number density = 22.877026 Si / 1000 Ang^3
#
#
#
# Elastic Constant Matrix: (Units=GPa)
#
#
# Indices 1 2 3 4 5 6 
#
# 1 28.0417 -12.4282 4.1650 0.0000 -4.8880 0.0000
# 2 -12.4282 69.3745 0.8664 0.0000 0.6744 0.0000
# 3 4.1650 0.8664 160.5556 0.0000 -19.8255 0.0000
# 4 0.0000 0.0000 0.0000 10.6000 0.0000 -1.0402
# 5 -4.8880 0.6744 -19.8255 0.0000 32.0528 0.0000
# 6 0.0000 0.0000 0.0000 -1.0402 0.0000 10.5788
#
#
#
# Elastic Compliance Matrix: (Units=1/GPa)
#
#
# Indices 1 2 3 4 5 6 
#
# 1 0.039851 0.007088 -0.000368 0.000000 0.005700 0.000000
# 2 0.007088 0.015681 -0.000190 0.000000 0.000633 0.000000
# 3 -0.000368 -0.000190 0.006748 0.000000 0.004122 0.000000
# 4 0.000000 0.000000 0.000000 0.095259 0.000000 0.009366
# 5 0.005700 0.000633 0.004122 0.000000 0.034604 0.000000
# 6 0.000000 0.000000 0.000000 0.009366 0.000000 0.095450
#
#
# Mechanical properties :
#
#
# Convention : Reuss Voigt Hill
#
# Bulk Modulus (GPa) = 13.27325 27.01979 20.14652
# Shear Modulus (GPa) = 16.68639 28.33755 22.51197
#
# Velocity S-wave (km/s) = 2.70366 3.52332 3.14035
# Velocity P-wave (km/s) = 3.94474 5.32806 4.68771
#
# Compressibility (1/GPa) = 0.07533947
#
# Stress axis : x y z
#
# Youngs Moduli (GPa) = 25.09341 63.77310 148.19455
#
# Poissons Ratio (x) = -0.45205 0.05456
# Poissons Ratio (y) = -0.17787 0.02820
# Poissons Ratio (z) = 0.00924 0.01214
#
# Static dielectric constant tensor:
#      x y z
#    x 1.811330 0.000000 0.005270 
#    y 0.000000 1.871480 0.000000 
#    z 0.005270 0.000000 1.842210 
# 
# From -- ./inp_files/67045.got.cif
#   From: 2010.05.17/outbox.cif.g08.bks.cpg/sg11_34_cif.got.tgz:67045.got - 2010.06.03 12:22:45.
