data_PCOD9160242
_publ_section_title
;
Structure prediction by ZEFSAII (Michael W. Deem and Ramdas Pophale) SiO2 
 PCOD9160242
Probable space group: P 21/M
;
_chemical_formula_sum "Si O2"
_cell_formula_units_Z 24
_cell_length_a 9.062708
_cell_length_b 16.030864
_cell_length_c 12.433085
_cell_angle_alpha 90.000000
_cell_angle_beta 47.090080
_cell_angle_gamma 90.000000
_cell_volume 1322.991328
_symmetry_space_group_name_H-M "P 21/M"
_symmetry_group_IT_number 11
_symmetry_cell_setting 'monoclinic'
loop_
_space_group_symop_operation_xyz
x,y,z
-x,1/2+y,-z
-x,-y,-z
x,1/2-y,z
loop_
_atom_site_type_symbol
_atom_site_label
_atom_site_fract_x
_atom_site_fract_y
_atom_site_fract_z
Si Si1 0.935463 0.010425 0.154753
Si Si2 0.513434 0.077222 0.411866
Si Si3 0.672588 0.929000 0.914719
Si Si4 0.278993 0.340649 0.702492
Si Si5 0.462371 0.843044 0.205946
Si Si6 0.232608 0.016187 0.358313
O O1 0.867284 0.919664 0.231546
O O2 0.744240 0.072944 0.258058
O O3 0.125858 0.041007 0.126370
O O4 0.000000 0.000000 0.000000
O O5 0.436921 0.151663 0.525427
O O6 0.360306 0.055805 0.392170
O O7 0.500000 0.000000 0.500000
O O8 0.733251 0.922515 0.760082
O O9 0.583345 0.856186 0.034177
O O10 0.500000 0.000000 0.000000
O O11 0.179060 0.250000 0.747991
O O12 0.392493 0.347856 0.761137
O O13 0.370017 0.750000 0.253103
O O14 0.320561 0.923772 0.288467
O O15 0.000000 0.000000 0.500000
#
# Coordination Sequence:
#
# PCOD9160242 Si02
#       6
#     4   4   4   4   4   4
#     4  11  18  35  61  83 111 147 196 233 279 342
#     4  10  19  35  56  82 111 149 195 229 282 342
#     4  10  21  36  55  86 114 152 191 228 283 351
#     4  10  20  36  58  86 115 147 193 248 289 328
#     4  10  20  38  58  84 115 150 193 241 288 337
#     4  11  20  36  60  86 115 153 194 235 285 350
#
# _framework density 18.140709000000001
#
# number of rings (size 3 to 8) (size 9 to 14) (size 15 to 20)
#    0.000    1.667    5.000    3.000    0.000    0.000 
#    0.000   10.833    0.000    0.000    0.000    0.000 
#    0.000    0.000    0.000    0.000    0.000    0.000 
#
# Total GULP energy -133665.709897 kJ/mol
# GULP energy per Si atom -5569.404579 kJ/mol
# Density = 1.809942 g / cm^3
# Si number density = 18.140709 Si / 1000 Ang^3
#
#
#
# Elastic Constant Matrix: (Units=GPa)
#
#
# Indices 1 2 3 4 5 6 
#
# 1 112.3111 1.0872 40.6440 0.0000 13.0102 0.0000
# 2 1.0872 73.1193 6.2251 0.0000 1.3879 0.0000
# 3 40.6440 6.2251 105.8058 0.0000 14.4153 0.0000
# 4 0.0000 0.0000 0.0000 16.2349 0.0000 -6.0220
# 5 13.0102 1.3879 14.4153 0.0000 41.0435 0.0000
# 6 0.0000 0.0000 0.0000 -6.0220 0.0000 6.2469
#
#
#
# Elastic Compliance Matrix: (Units=1/GPa)
#
#
# Indices 1 2 3 4 5 6 
#
# 1 0.010500 0.000203 -0.003771 0.000000 -0.002011 0.000000
# 2 0.000203 0.013750 -0.000856 0.000000 -0.000229 0.000000
# 3 -0.003771 -0.000856 0.011325 0.000000 -0.002753 0.000000
# 4 0.000000 0.000000 0.000000 0.095879 0.000000 0.092427
# 5 -0.002011 -0.000229 -0.002753 0.000000 0.025976 0.000000
# 6 0.000000 0.000000 0.000000 0.092427 0.000000 0.249178
#
#
# Mechanical properties :
#
#
# Convention : Reuss Voigt Hill
#
# Bulk Modulus (GPa) = 37.41483 43.01653 40.21568
# Shear Modulus (GPa) = 11.78227 28.92371 20.35299
#
# Velocity S-wave (km/s) = 2.55128 3.99734 3.35319
# Velocity P-wave (km/s) = 5.41741 6.71335 6.09989
#
# Compressibility (1/GPa) = 0.02672737
#
# Stress axis : x y z
#
# Youngs Moduli (GPa) = 95.24202 72.72483 88.29659
#
# Poissons Ratio (x) = -0.01477 0.33299
# Poissons Ratio (y) = -0.01935 0.07557
# Poissons Ratio (z) = 0.35919 0.06224
#
# Static dielectric constant tensor:
#      x y z
#    x 1.523890 0.000000 -0.012030 
#    y 0.000000 1.612230 0.000000 
#    z -0.012030 0.000000 1.692580 
# 
# From -- ./inp_files/18703.got.cif
#   From: 2010.05.17/outbox.cif.g08.bks.cpg/sg11_10_cif.got.tgz:18703.got - 2010.06.03 12:22:45.
