data_PCOD9160396
_publ_section_title
;
Structure prediction by ZEFSAII (Michael W. Deem and Ramdas Pophale) SiO2 
 PCOD9160396
Probable space group: P 21/M
;
_chemical_formula_sum "Si O2"
_cell_formula_units_Z 32
_cell_length_a 11.491088
_cell_length_b 13.013424
_cell_length_c 11.984556
_cell_angle_alpha 90.000000
_cell_angle_beta 68.965791
_cell_angle_gamma 90.000000
_cell_volume 1672.733647
_symmetry_space_group_name_H-M "P 21/M"
_symmetry_group_IT_number 11
_symmetry_cell_setting 'monoclinic'
loop_
_space_group_symop_operation_xyz
x,y,z
-x,1/2+y,-z
-x,-y,-z
x,1/2-y,z
loop_
_atom_site_type_symbol
_atom_site_label
_atom_site_fract_x
_atom_site_fract_y
_atom_site_fract_z
Si Si1 0.795864 0.366381 0.220044
Si Si2 0.752233 0.629594 0.712378
Si Si3 0.601163 0.532123 0.372422
Si Si4 0.994302 0.525792 0.737013
Si Si5 0.378024 0.864014 0.017548
Si Si6 0.897476 0.366100 0.937096
Si Si7 0.485998 0.980490 0.180846
Si Si8 0.824163 0.865904 0.427926
O O1 0.752144 0.250000 0.232667
O O2 0.684356 0.437130 0.300226
O O3 0.909735 0.384409 0.265338
O O4 0.852013 0.388301 0.078197
O O5 0.736836 0.750000 0.751962
O O6 0.866627 0.574721 0.737271
O O7 0.629655 0.559857 0.769883
O O8 0.782907 0.629482 0.570418
O O9 0.500000 0.500000 0.500000
O O10 0.528495 0.564071 0.284891
O O11 0.704181 0.606803 0.392217
O O12 0.976971 0.454790 0.853150
O O13 0.066303 0.448232 0.629563
O O14 0.412162 0.750000 0.965377
O O15 0.230720 0.864120 0.088994
O O16 0.449061 0.893214 0.105569
O O17 0.409143 0.950495 0.915903
O O18 0.951996 0.250000 0.917012
O O19 0.866957 0.750000 0.387985
#
# Coordination Sequence:
#
# PCOD9160396 Si02
#       8
#     4   4   4   4   4   4   4   4
#     4  10  22  38  58  85 117 153 196 241 290 348
#     4  11  22  37  59  85 115 154 198 243 294 351
#     4  11  22  38  62  87 117 153 197 244 296 353
#     4  11  21  38  59  85 117 152 200 245 290 341
#     4  10  21  37  59  88 119 155 194 239 298 356
#     4  10  19  35  59  85 115 154 194 239 291 349
#     4  11  21  38  62  87 121 153 194 250 295 354
#     4  10  23  40  59  83 116 156 195 243 297 352
#
# _framework density 19.130361000000001
#
# number of rings (size 3 to 8) (size 9 to 14) (size 15 to 20)
#    0.000    1.500    3.750    1.875    0.000    1.500 
#    0.000    0.000    0.000    1.500    0.000    0.000 
#    0.000    0.000    0.000    0.000    0.000    0.000 
#
# Total GULP energy -178494.631848 kJ/mol
# GULP energy per Si atom -5577.957245 kJ/mol
# Density = 1.908682 g / cm^3
# Si number density = 19.130361 Si / 1000 Ang^3
#
#
#
# Elastic Constant Matrix: (Units=GPa)
#
#
# Indices 1 2 3 4 5 6 
#
# 1 55.0021 9.3251 -9.6544 0.0000 10.1808 0.0000
# 2 9.3251 61.6528 8.5122 0.0000 4.7173 0.0000
# 3 -9.6544 8.5122 55.2853 0.0000 9.1538 0.0000
# 4 0.0000 0.0000 0.0000 23.6030 0.0000 -5.9844
# 5 10.1808 4.7173 9.1538 0.0000 32.2185 0.0000
# 6 0.0000 0.0000 0.0000 -5.9844 0.0000 6.7854
#
#
#
# Elastic Compliance Matrix: (Units=1/GPa)
#
#
# Indices 1 2 3 4 5 6 
#
# 1 0.021151 -0.003365 0.005495 0.000000 -0.007752 0.000000
# 2 -0.003365 0.017206 -0.003144 0.000000 -0.000563 0.000000
# 3 0.005495 -0.003144 0.020718 0.000000 -0.007162 0.000000
# 4 0.000000 0.000000 0.000000 0.054570 0.000000 0.048129
# 5 -0.007752 -0.000563 -0.007162 0.000000 0.035605 0.000000
# 6 0.000000 0.000000 0.000000 0.048129 0.000000 0.189824
#
#
# Mechanical properties :
#
#
# Convention : Reuss Voigt Hill
#
# Bulk Modulus (GPa) = 17.52900 20.92290 19.22595
# Shear Modulus (GPa) = 13.88441 23.43852 18.66147
#
# Velocity S-wave (km/s) = 2.69695 3.50408 3.12667
# Velocity P-wave (km/s) = 4.34521 5.22802 4.80693
#
# Compressibility (1/GPa) = 0.05704831
#
# Stress axis : x y z
#
# Youngs Moduli (GPa) = 47.27903 58.11976 48.26836
#
# Poissons Ratio (x) = 0.19555 -0.26524
# Poissons Ratio (y) = 0.15908 0.15173
# Poissons Ratio (z) = -0.25981 0.18270
#
# Static dielectric constant tensor:
#      x y z
#    x 1.673820 0.000000 0.008830 
#    y 0.000000 1.652390 0.000000 
#    z 0.008830 0.000000 1.661430 
# 
# From -- ./inp_files/35069.got.cif
#   From: 2010.05.17/outbox.cif.g08.bks.cpg/sg11_18_cif.got.tgz:35069.got - 2010.06.03 12:22:45.
