data_PCOD9160868
_publ_section_title
;
Structure prediction by ZEFSAII (Michael W. Deem and Ramdas Pophale) SiO2 
 PCOD9160868
Probable space group: P 21/M
;
_chemical_formula_sum "Si O2"
_cell_formula_units_Z 28
_cell_length_a 5.286680
_cell_length_b 16.576065
_cell_length_c 14.404190
_cell_angle_alpha 90.000000
_cell_angle_beta 105.902664
_cell_angle_gamma 90.000000
_cell_volume 1213.964045
_symmetry_space_group_name_H-M "P 21/M"
_symmetry_group_IT_number 11
_symmetry_cell_setting 'monoclinic'
loop_
_space_group_symop_operation_xyz
x,y,z
-x,1/2+y,-z
-x,-y,-z
x,1/2-y,z
loop_
_atom_site_type_symbol
_atom_site_label
_atom_site_fract_x
_atom_site_fract_y
_atom_site_fract_z
Si Si1 0.068051 0.340936 0.130018
Si Si2 0.770152 0.000065 0.083080
Si Si3 0.479776 0.564262 0.764742
Si Si4 0.042964 0.659209 0.658316
Si Si5 0.868933 0.659056 0.179711
Si Si6 0.429276 0.894810 0.281151
Si Si7 0.261185 0.445499 0.509591
O O1 0.017461 0.250000 0.090226
O O2 0.372436 0.367196 0.161971
O O3 0.930848 0.419764 0.071520
O O4 0.008282 0.339893 0.235595
O O5 0.878321 0.909329 0.100523
O O6 0.711386 0.018590 0.184551
O O7 0.500000 0.000000 0.000000
O O8 0.307178 0.607728 0.671112
O O9 0.649155 0.489444 0.745793
O O10 0.082031 0.750000 0.631335
O O11 0.816226 0.617106 0.578237
O O12 0.853273 0.750000 0.141718
O O13 0.609476 0.643045 0.217149
O O14 0.148337 0.648908 0.261680
O O15 0.625927 0.900305 0.388218
O O16 0.500000 0.500000 0.500000
O O17 0.000000 0.500000 0.500000
#
# Coordination Sequence:
#
# PCOD9160868 Si02
#       7
#     4   4   4   4   4   4   4
#     4  10  20  38  63  91 124 162 209 259 323 390
#     4  10  23  40  64  92 125 163 209 267 326 390
#     4  10  19  38  64  86 122 162 206 255 325 389
#     4  10  22  37  58  91 124 162 206 264 318 372
#     4  11  24  44  67  93 130 175 219 266 322 387
#     4  11  22  41  67  92 125 173 221 262 316 386
#     4  12  24  39  64  93 127 169 218 264 315 374
#
# _framework density 23.064933
#
# number of rings (size 3 to 8) (size 9 to 14) (size 15 to 20)
#    0.000    1.429    2.857    2.571    2.000    2.857 
#    0.000    0.000    0.000    0.000    0.000    0.000 
#    0.000    0.000    0.000    0.000    0.000    0.000 
#
# Total GULP energy -156254.350368 kJ/mol
# GULP energy per Si atom -5580.512513 kJ/mol
# Density = 2.301244 g / cm^3
# Si number density = 23.064933 Si / 1000 Ang^3
#
#
#
# Elastic Constant Matrix: (Units=GPa)
#
#
# Indices 1 2 3 4 5 6 
#
# 1 80.6222 31.6052 19.9608 0.0000 14.8022 0.0000
# 2 31.6052 209.6673 56.0491 0.0000 19.3382 0.0000
# 3 19.9608 56.0491 81.8656 0.0000 21.8631 0.0000
# 4 0.0000 0.0000 0.0000 -24.9701 0.0000 8.3828
# 5 14.8022 19.3382 21.8631 0.0000 38.7723 0.0000
# 6 0.0000 0.0000 0.0000 8.3828 0.0000 25.2143
#
#
#
# Elastic Compliance Matrix: (Units=1/GPa)
#
#
# Indices 1 2 3 4 5 6 
#
# 1 0.014005 -0.001369 -0.001451 0.000000 -0.003846 0.000000
# 2 -0.001369 0.005992 -0.003661 0.000000 -0.000401 0.000000
# 3 -0.001451 -0.003661 0.017000 0.000000 -0.007206 0.000000
# 4 0.000000 0.000000 0.000000 -0.036027 0.000000 0.011978
# 5 -0.003846 -0.000401 -0.007206 0.000000 0.031524 0.000000
# 6 0.000000 0.000000 0.000000 0.011978 0.000000 0.035678
#
#
# Mechanical properties :
#
#
# Convention : Reuss Voigt Hill
#
# Bulk Modulus (GPa) = 41.60441 65.26506 53.43473
# Shear Modulus (GPa) = 56.08872 25.43928 40.76400
#
# Velocity S-wave (km/s) = 4.93665 3.32466 4.20856
# Velocity P-wave (km/s) = 7.11134 6.56471 6.84349
#
# Compressibility (1/GPa) = 0.02403592
#
# Stress axis : x y z
#
# Youngs Moduli (GPa) = 71.40117 166.90286 58.82376
#
# Poissons Ratio (x) = 0.22843 0.08533
# Poissons Ratio (y) = 0.09772 0.21536
# Poissons Ratio (z) = 0.10358 0.61106
#
# Static dielectric constant tensor:
#      x y z
#    x 2.089060 0.000000 -0.117660 
#    y 0.000000 1.917750 0.000000 
#    z -0.117660 0.000000 1.941390 
# 
# From -- ./inp_files/57126.got.cif
#   From: 2010.05.17/outbox.cif.g08.bks.cpg/sg11_29_cif.got.tgz:57126.got - 2010.06.03 12:22:45.
