data_PCOD9160151
_publ_section_title
;
Structure prediction by ZEFSAII (Michael W. Deem and Ramdas Pophale) SiO2 
 PCOD9160151
Probable space group: P 21/M
;
_chemical_formula_sum "Si O2"
_cell_formula_units_Z 32
_cell_length_a 15.013161
_cell_length_b 18.367914
_cell_length_c 11.457202
_cell_angle_alpha 90.000000
_cell_angle_beta 31.972761
_cell_angle_gamma 90.000000
_cell_volume 1672.975821
_symmetry_space_group_name_H-M "P 21/M"
_symmetry_group_IT_number 11
_symmetry_cell_setting 'monoclinic'
loop_
_space_group_symop_operation_xyz
x,y,z
-x,1/2+y,-z
-x,-y,-z
x,1/2-y,z
loop_
_atom_site_type_symbol
_atom_site_label
_atom_site_fract_x
_atom_site_fract_y
_atom_site_fract_z
Si Si1 0.167707 0.083347 0.130143
Si Si2 0.998465 0.163621 0.895115
Si Si3 0.719911 0.836747 0.224052
Si Si4 0.087511 0.664107 0.429309
Si Si5 0.654467 0.553996 0.827578
Si Si6 0.382823 0.662068 0.735376
Si Si7 0.443741 0.835056 0.933348
Si Si8 0.030130 0.060644 0.650398
O O1 0.290607 0.076162 0.104374
O O2 0.010754 0.132283 0.350527
O O3 0.253689 0.120322 0.924502
O O4 0.103271 0.002100 0.174642
O O5 0.010680 0.250000 0.849259
O O6 0.798313 0.145142 0.121360
O O7 0.113578 0.153661 0.880917
O O8 0.069149 0.109591 0.718529
O O9 0.703547 0.750000 0.220063
O O10 0.550500 0.861352 0.480346
O O11 0.049618 0.750000 0.457752
O O12 0.026412 0.617134 0.386642
O O13 0.288692 0.656528 0.195752
O O14 0.599996 0.623043 0.812181
O O15 0.812700 0.520404 0.584306
O O16 0.500000 0.500000 0.000000
O O17 0.389210 0.750000 0.731407
O O18 0.391412 0.638032 0.861791
O O19 0.481035 0.750000 0.880654
#
# Coordination Sequence:
#
# PCOD9160151 Si02
#       8
#     4   4   4   4   4   4   4   4
#     4  11  24  40  57  83 125 166 194 239 302 370
#     4  10  20  38  66  92 116 155 205 259 307 351
#     4  10  22  41  61  88 124 161 203 244 299 373
#     4  10  19  36  63  88 114 152 195 246 300 356
#     4  11  23  38  57  84 120 159 198 240 306 362
#     4   9  18  36  62  90 119 149 193 257 306 344
#     4  10  19  34  60  91 115 141 196 258 303 348
#     4  11  21  37  62  85 117 155 202 254 302 351
#
# _framework density 19.127593999999998
#
# number of rings (size 3 to 8) (size 9 to 14) (size 15 to 20)
#    0.000    1.750    1.250    4.500    0.000    4.500 
#    4.500    0.625    0.000    0.000    0.000    0.000 
#    0.000    0.000    0.000    0.000    0.000    0.000 
#
# Total GULP energy -178550.745833 kJ/mol
# GULP energy per Si atom -5579.710807 kJ/mol
# Density = 1.908406 g / cm^3
# Si number density = 19.127594 Si / 1000 Ang^3
#
#
#
# Elastic Constant Matrix: (Units=GPa)
#
#
# Indices 1 2 3 4 5 6 
#
# 1 94.3351 28.8733 64.5115 0.0000 -0.8916 0.0000
# 2 28.8733 65.1269 38.3991 0.0000 2.2103 0.0000
# 3 64.5115 38.3991 103.7854 0.0000 10.4138 0.0000
# 4 0.0000 0.0000 0.0000 30.4216 0.0000 -4.4192
# 5 -0.8916 2.2103 10.4138 0.0000 26.7485 0.0000
# 6 0.0000 0.0000 0.0000 -4.4192 0.0000 20.4609
#
#
#
# Elastic Compliance Matrix: (Units=1/GPa)
#
#
# Indices 1 2 3 4 5 6 
#
# 1 0.019335 -0.001725 -0.011925 0.000000 0.005430 0.000000
# 2 -0.001725 0.019833 -0.006343 0.000000 0.000773 0.000000
# 3 -0.011925 -0.006343 0.020169 0.000000 -0.007726 0.000000
# 4 0.000000 0.000000 0.000000 0.033936 0.000000 0.007330
# 5 0.005430 0.000773 -0.007726 0.000000 0.040510 0.000000
# 6 0.000000 0.000000 0.000000 0.007330 0.000000 0.050457
#
#
# Mechanical properties :
#
#
# Convention : Reuss Voigt Hill
#
# Bulk Modulus (GPa) = 51.67623 58.53505 55.10564
# Shear Modulus (GPa) = 21.67536 24.29044 22.98290
#
# Velocity S-wave (km/s) = 3.36995 3.56745 3.47011
# Velocity P-wave (km/s) = 6.49749 6.90202 6.70280
#
# Compressibility (1/GPa) = 0.01935126
#
# Stress axis : x y z
#
# Youngs Moduli (GPa) = 51.72088 50.42034 49.57985
#
# Poissons Ratio (x) = 0.08699 0.59122
# Poissons Ratio (y) = 0.08923 0.31449
# Poissons Ratio (z) = 0.61675 0.31983
#
# Static dielectric constant tensor:
#      x y z
#    x 1.641910 0.000000 -0.025040 
#    y 0.000000 1.673090 0.000000 
#    z -0.025040 0.000000 1.702430 
# 
# From -- ./inp_files/39946.got.cif
#   From: 2010.05.17/outbox.cif.g08.bks.cpg/sg11_20_cif.got.tgz:39946.got - 2010.06.03 12:22:45.
