data_PCOD9160677
_publ_section_title
;
Structure prediction by ZEFSAII (Michael W. Deem and Ramdas Pophale) SiO2 
 PCOD9160677
Probable space group: P 21/M
;
_chemical_formula_sum "Si O2"
_cell_formula_units_Z 28
_cell_length_a 20.607809
_cell_length_b 10.239199
_cell_length_c 13.499239
_cell_angle_alpha 90.000000
_cell_angle_beta 154.217510
_cell_angle_gamma 90.000000
_cell_volume 1238.945926
_symmetry_space_group_name_H-M "P 21/M"
_symmetry_group_IT_number 11
_symmetry_cell_setting 'monoclinic'
loop_
_space_group_symop_operation_xyz
x,y,z
-x,1/2+y,-z
-x,-y,-z
x,1/2-y,z
loop_
_atom_site_type_symbol
_atom_site_label
_atom_site_fract_x
_atom_site_fract_y
_atom_site_fract_z
Si Si1 0.561194 0.405684 0.890978
Si Si2 0.068722 0.969912 0.429844
Si Si3 0.824909 0.889093 0.250330
Si Si4 0.146647 0.892615 0.998116
Si Si5 0.869043 0.396959 0.805292
Si Si6 0.660199 0.102069 0.326368
Si Si7 0.467405 0.604654 0.370923
O O1 0.578081 0.250000 0.934079
O O2 0.459918 0.486031 0.829706
O O3 0.485592 0.417677 0.677648
O O4 0.714697 0.487515 0.093017
O O5 0.223007 0.909796 0.603647
O O6 0.959408 0.896431 0.355966
O O7 0.107301 0.098237 0.546598
O O8 0.970257 0.001486 0.198158
O O9 0.746507 0.750000 0.128298
O O10 0.072944 0.750000 0.893318
O O11 0.209787 0.905873 0.195774
O O12 0.287165 0.892853 0.119473
O O13 0.932184 0.250000 0.883018
O O14 0.760614 0.412949 0.563885
O O15 0.000000 0.500000 0.000000
O O16 0.597017 0.250000 0.238980
O O17 0.500000 0.500000 0.500000
O O18 0.519145 0.750000 0.472613
#
# Coordination Sequence:
#
# PCOD9160677 Si02
#       7
#     4   4   4   4   4   4   4
#     4  11  25  44  67  95 132 176 219 267 327 393
#     4  11  23  42  70  97 130 168 219 269 329 388
#     4  11  25  44  70 101 129 167 220 278 332 385
#     4  10  19  36  62  91 128 170 211 259 319 383
#     4  10  20  35  59  92 131 172 210 258 320 384
#     4  11  24  43  67  98 136 173 216 269 325 388
#     4  10  21  39  62  91 126 170 217 264 320 382
#
# _framework density 22.599858000000001
#
# number of rings (size 3 to 8) (size 9 to 14) (size 15 to 20)
#    0.000    1.429    2.857    2.143    0.000    7.429 
#    0.000    0.714    0.000    0.000    0.000    0.000 
#    0.000    0.000    0.000    0.000    0.000    0.000 
#
# Total GULP energy -156197.779121 kJ/mol
# GULP energy per Si atom -5578.492111 kJ/mol
# Density = 2.254842 g / cm^3
# Si number density = 22.599858 Si / 1000 Ang^3
#
#
#
# Elastic Constant Matrix: (Units=GPa)
#
#
# Indices 1 2 3 4 5 6 
#
# 1 128.2380 55.6950 25.9252 0.0000 6.8307 0.0000
# 2 55.6950 160.7188 49.5476 0.0000 18.7656 0.0000
# 3 25.9252 49.5476 45.0033 0.0000 4.9720 0.0000
# 4 0.0000 0.0000 0.0000 24.2085 0.0000 3.1511
# 5 6.8307 18.7656 4.9720 0.0000 46.7666 0.0000
# 6 0.0000 0.0000 0.0000 3.1511 0.0000 3.3977
#
#
#
# Elastic Compliance Matrix: (Units=1/GPa)
#
#
# Indices 1 2 3 4 5 6 
#
# 1 0.009403 -0.002390 -0.002772 0.000000 -0.000120 0.000000
# 2 -0.002390 0.010378 -0.009742 0.000000 -0.002780 0.000000
# 3 -0.002772 -0.009742 0.034472 0.000000 0.000649 0.000000
# 4 0.000000 0.000000 0.000000 0.046979 0.000000 -0.043569
# 5 -0.000120 -0.002780 0.000649 0.000000 0.022447 0.000000
# 6 0.000000 0.000000 0.000000 -0.043569 0.000000 0.334720
#
#
# Mechanical properties :
#
#
# Convention : Reuss Voigt Hill
#
# Bulk Modulus (GPa) = 40.90987 66.25508 53.58248
# Shear Modulus (GPa) = 10.07342 28.39404 19.23373
#
# Velocity S-wave (km/s) = 2.11352 3.54839 2.92045
# Velocity P-wave (km/s) = 4.90888 6.79473 5.92729
#
# Compressibility (1/GPa) = 0.02444398
#
# Stress axis : x y z
#
# Youngs Moduli (GPa) = 106.35195 96.35601 29.00892
#
# Poissons Ratio (x) = 0.23026 0.08043
# Poissons Ratio (y) = 0.25415 0.28262
# Poissons Ratio (z) = 0.29485 0.93874
#
# Static dielectric constant tensor:
#      x y z
#    x 1.884860 0.000000 -0.007980 
#    y 0.000000 1.851310 0.000000 
#    z -0.007980 0.000000 1.857020 
# 
# From -- ./inp_files/54641.got.cif
#   From: 2010.05.17/outbox.cif.g08.bks.cpg/sg11_28_cif.got.tgz:54641.got - 2010.06.03 12:22:45.
