data_PCOD9160859
_publ_section_title
;
Structure prediction by ZEFSAII (Michael W. Deem and Ramdas Pophale) SiO2 
 PCOD9160859
Probable space group: P 21/M
;
_chemical_formula_sum "Si O2"
_cell_formula_units_Z 28
_cell_length_a 15.288484
_cell_length_b 8.588454
_cell_length_c 11.056106
_cell_angle_alpha 90.000000
_cell_angle_beta 112.562449
_cell_angle_gamma 90.000000
_cell_volume 1340.604227
_symmetry_space_group_name_H-M "P 21/M"
_symmetry_group_IT_number 11
_symmetry_cell_setting 'monoclinic'
loop_
_space_group_symop_operation_xyz
x,y,z
-x,1/2+y,-z
-x,-y,-z
x,1/2-y,z
loop_
_atom_site_type_symbol
_atom_site_label
_atom_site_fract_x
_atom_site_fract_y
_atom_site_fract_z
Si Si1 0.411735 0.425802 0.520894
Si Si2 0.947607 0.435767 0.352265
Si Si3 0.744664 0.063968 0.706669
Si Si4 0.251349 0.437004 0.813157
Si Si5 0.450692 0.070581 0.825080
Si Si6 0.660689 0.439416 0.917632
Si Si7 0.038143 0.938395 0.149777
O O1 0.500000 0.500000 0.500000
O O2 0.401409 0.250000 0.472480
O O3 0.313039 0.508320 0.439817
O O4 0.437440 0.425423 0.674449
O O5 0.956506 0.250000 0.354861
O O6 0.837844 0.486597 0.297991
O O7 0.000000 0.500000 0.500000
O O8 0.986024 0.502909 0.244193
O O9 0.747606 0.250000 0.706453
O O10 0.682902 0.018756 0.791271
O O11 0.852190 0.010091 0.777371
O O12 0.246673 0.250000 0.796780
O O13 0.352598 0.499652 0.819301
O O14 0.258102 0.486255 0.956765
O O15 0.453840 0.250000 0.870992
O O16 0.555610 0.003175 0.901075
O O17 0.662401 0.250000 0.927941
O O18 0.033220 0.750000 0.144972
O O19 0.000000 0.000000 0.000000
#
# Coordination Sequence:
#
# PCOD9160859 Si02
#       7
#     4   4   4   4   4   4   4
#     4  11  21  37  59  87 122 164 207 253 309 372
#     4  12  27  48  70  95 129 175 224 281 341 396
#     4  10  22  39  62  91 126 163 203 254 313 376
#     4  11  23  40  63  93 125 161 210 263 315 382
#     4   9  20  37  59  87 125 165 202 250 310 372
#     4  10  19  38  62  89 129 169 202 247 308 375
#     4  11  24  44  71 104 136 172 220 275 333 397
#
# _framework density 20.886106000000002
#
# number of rings (size 3 to 8) (size 9 to 14) (size 15 to 20)
#    0.000    1.429    1.429    3.857    2.000    2.857 
#    0.000    2.857    0.000    0.000    0.000    0.000 
#    0.000    0.000    0.000    0.000    0.000    0.000 
#
# Total GULP energy -156358.718696 kJ/mol
# GULP energy per Si atom -5584.239953 kJ/mol
# Density = 2.083857 g / cm^3
# Si number density = 20.886106 Si / 1000 Ang^3
#
#
#
# Elastic Constant Matrix: (Units=GPa)
#
#
# Indices 1 2 3 4 5 6 
#
# 1 107.8512 28.2122 48.6822 0.0000 20.9158 0.0000
# 2 28.2122 52.1762 36.8758 0.0000 1.0218 0.0000
# 3 48.6822 36.8758 134.3971 0.0000 29.3810 0.0000
# 4 0.0000 0.0000 0.0000 36.8787 0.0000 4.5898
# 5 20.9158 1.0218 29.3810 0.0000 41.8525 0.0000
# 6 0.0000 0.0000 0.0000 4.5898 0.0000 19.1755
#
#
#
# Elastic Compliance Matrix: (Units=1/GPa)
#
#
# Indices 1 2 3 4 5 6 
#
# 1 0.012466 -0.005180 -0.002079 0.000000 -0.004644 0.000000
# 2 -0.005180 0.026747 -0.006953 0.000000 0.006817 0.000000
# 3 -0.002079 -0.006953 0.011620 0.000000 -0.006949 0.000000
# 4 0.000000 0.000000 0.000000 0.027949 0.000000 -0.006690
# 5 -0.004644 0.006817 -0.006949 0.000000 0.030926 0.000000
# 6 0.000000 0.000000 0.000000 -0.006690 0.000000 0.053751
#
#
# Mechanical properties :
#
#
# Convention : Reuss Voigt Hill
#
# Bulk Modulus (GPa) = 44.62290 57.99609 51.30950
# Shear Modulus (GPa) = 25.08107 31.62497 28.35302
#
# Velocity S-wave (km/s) = 3.46909 3.89545 3.68843
# Velocity P-wave (km/s) = 6.12024 6.93258 6.53904
#
# Compressibility (1/GPa) = 0.02241002
#
# Stress axis : x y z
#
# Youngs Moduli (GPa) = 80.21714 37.38713 86.05486
#
# Poissons Ratio (x) = 0.19368 0.17890
# Poissons Ratio (y) = 0.41555 0.59831
# Poissons Ratio (z) = 0.16677 0.25994
#
# Static dielectric constant tensor:
#      x y z
#    x 1.775500 0.000000 -0.025030 
#    y 0.000000 1.712800 0.000000 
#    z -0.025030 0.000000 1.725380 
# 
# From -- ./inp_files/38443.got.cif
#   From: 2010.05.17/outbox.cif.g08.bks.cpg/sg11_20_cif.got.tgz:38443.got - 2010.06.03 12:22:45.
