data_PCOD9160103
_publ_section_title
;
Structure prediction by ZEFSAII (Michael W. Deem and Ramdas Pophale) SiO2 
 PCOD9160103
Probable space group: P 21/M
;
_chemical_formula_sum "Si O2"
_cell_formula_units_Z 28
_cell_length_a 16.942427
_cell_length_b 14.928958
_cell_length_c 5.242925
_cell_angle_alpha 90.000000
_cell_angle_beta 73.587801
_cell_angle_gamma 90.000000
_cell_volume 1272.073807
_symmetry_space_group_name_H-M "P 21/M"
_symmetry_group_IT_number 11
_symmetry_cell_setting 'monoclinic'
loop_
_space_group_symop_operation_xyz
x,y,z
-x,1/2+y,-z
-x,-y,-z
x,1/2-y,z
loop_
_atom_site_type_symbol
_atom_site_label
_atom_site_fract_x
_atom_site_fract_y
_atom_site_fract_z
Si Si1 0.293663 0.500954 0.611529
Si Si2 0.535441 0.950147 0.717616
Si Si3 0.058467 0.355122 0.452090
Si Si4 0.751842 0.345787 0.681386
Si Si5 0.123774 0.045560 0.893758
Si Si6 0.612310 0.345468 0.166454
Si Si7 0.099910 0.650321 0.087873
O O1 0.365968 0.448174 0.397517
O O2 0.238903 0.563245 0.476988
O O3 0.223577 0.449383 0.830008
O O4 0.344069 0.572679 0.732376
O O5 0.484760 0.858369 0.763337
O O6 0.500000 0.000000 0.500000
O O7 0.500000 0.000000 0.000000
O O8 0.081668 0.250000 0.422680
O O9 0.100441 0.406249 0.651615
O O10 0.962125 0.358582 0.616152
O O11 0.082015 0.402997 0.168318
O O12 0.771790 0.250000 0.536647
O O13 0.808601 0.348303 0.879230
O O14 0.656602 0.345350 0.852344
O O15 0.094261 0.941512 0.935637
O O16 0.631744 0.250000 0.270600
O O17 0.081996 0.750000 0.990120
#
# Coordination Sequence:
#
# PCOD9160103 Si02
#       7
#     4   4   4   4   4   4   4
#     4  11  22  36  62  91 130 165 214 264 325 387
#     4  10  21  38  60  86 119 160 202 244 301 375
#     4  11  26  47  67  92 129 179 231 281 327 383
#     4  10  19  34  58  91 130 166 203 259 326 392
#     4  12  24  42  70  97 131 175 224 272 336 397
#     4  10  20  37  59  88 125 162 202 256 321 388
#     4  10  22  41  66 100 138 171 217 275 337 404
#
# _framework density 22.011303000000002
#
# number of rings (size 3 to 8) (size 9 to 14) (size 15 to 20)
#    0.000    1.429    2.857    2.571    0.000    1.714 
#    0.000    6.429    0.000    0.000    0.000    0.000 
#    0.000    0.000    0.000    0.000    0.000    0.000 
#
# Total GULP energy -156253.261355 kJ/mol
# GULP energy per Si atom -5580.473620 kJ/mol
# Density = 2.196120 g / cm^3
# Si number density = 22.011303 Si / 1000 Ang^3
#
#
#
# Elastic Constant Matrix: (Units=GPa)
#
#
# Indices 1 2 3 4 5 6 
#
# 1 69.8988 41.0064 38.5892 0.0000 -23.0354 0.0000
# 2 41.0064 111.4894 44.2385 0.0000 -9.3445 0.0000
# 3 38.5892 44.2385 115.5310 0.0000 -22.1245 0.0000
# 4 0.0000 0.0000 0.0000 -36.3720 0.0000 -15.8732
# 5 -23.0354 -9.3445 -22.1245 0.0000 51.4909 0.0000
# 6 0.0000 0.0000 0.0000 -15.8732 0.0000 27.1604
#
#
#
# Elastic Compliance Matrix: (Units=1/GPa)
#
#
# Indices 1 2 3 4 5 6 
#
# 1 0.022366 -0.006137 -0.003724 0.000000 0.007292 0.000000
# 2 -0.006137 0.012262 -0.002991 0.000000 -0.001806 0.000000
# 3 -0.003724 -0.002991 0.011574 0.000000 0.002764 0.000000
# 4 0.000000 0.000000 0.000000 -0.021906 0.000000 -0.012803
# 5 0.007292 -0.001806 0.002764 0.000000 0.023543 0.000000
# 6 0.000000 0.000000 0.000000 -0.012803 0.000000 0.029336
#
#
# Mechanical properties :
#
#
# Convention : Reuss Voigt Hill
#
# Bulk Modulus (GPa) = 48.78703 60.50971 54.64837
# Shear Modulus (GPa) = 45.57324 19.99487 32.78405
#
# Velocity S-wave (km/s) = 4.55515 3.01722 3.86349
# Velocity P-wave (km/s) = 7.06247 6.29985 6.69204
#
# Compressibility (1/GPa) = 0.02049725
#
# Stress axis : x y z
#
# Youngs Moduli (GPa) = 44.71079 81.54990 86.39801
#
# Poissons Ratio (x) = 0.50051 0.32175
# Poissons Ratio (y) = 0.27441 0.25844
# Poissons Ratio (z) = 0.16650 0.24393
#
# Static dielectric constant tensor:
#      x y z
#    x 1.851850 0.000000 -0.016190 
#    y 0.000000 1.848900 0.000000 
#    z -0.016190 0.000000 1.867060 
# 
# From -- ./inp_files/8011.got.cif
#   From: 2010.05.17/outbox.cif.g08.bks.cpg/sg11_5_cif.got.tgz:8011.got - 2010.06.03 12:22:45.
