data_PCOD9160932
_publ_section_title
;
Structure prediction by ZEFSAII (Michael W. Deem and Ramdas Pophale) SiO2 
 PCOD9160932
Probable space group: P 21/M
;
_chemical_formula_sum "Si O2"
_cell_formula_units_Z 14
_cell_length_a 8.959466
_cell_length_b 10.579893
_cell_length_c 7.869744
_cell_angle_alpha 90.000000
_cell_angle_beta 46.815566
_cell_angle_gamma 90.000000
_cell_volume 543.930751
_symmetry_space_group_name_H-M "P 21/M"
_symmetry_group_IT_number 11
_symmetry_cell_setting 'monoclinic'
loop_
_space_group_symop_operation_xyz
x,y,z
-x,1/2+y,-z
-x,-y,-z
x,1/2-y,z
loop_
_atom_site_type_symbol
_atom_site_label
_atom_site_fract_x
_atom_site_fract_y
_atom_site_fract_z
Si Si1 0.589321 0.250000 0.541076
Si Si2 0.260550 0.474937 0.231165
Si Si3 0.696005 0.250000 0.817755
Si Si4 0.373236 0.250000 0.364503
Si Si5 0.021616 0.612076 0.853346
O O1 0.537286 0.250000 0.780554
O O2 0.424953 0.250000 0.521646
O O3 0.742972 0.131562 0.389630
O O4 0.183073 0.619742 0.302389
O O5 0.265424 0.377878 0.384030
O O6 0.133958 0.412422 0.178323
O O7 0.500000 0.500000 0.000000
O O8 0.584999 0.250000 0.086504
O O9 0.975357 0.750000 0.967000
O O10 0.000000 0.500000 0.000000
#
# Coordination Sequence:
#
# PCOD9160932 Si02
#       5
#     2   4   2   2   4
#     4  10  23  39  61  91 123 156 204 250 298 364
#     4  10  20  37  62  87 116 164 199 246 300 355
#     4  10  22  36  62  90 122 160 200 248 300 354
#     4  10  19  41  63  85 125 162 200 248 300 348
#     4  10  21  38  61  90 119 158 204 247 304 360
#
# _framework density 25.738571
#
# number of rings (size 3 to 8) (size 9 to 14) (size 15 to 20)
#    0.857    1.143    1.429    3.429    2.000    2.286 
#    0.000    0.000    3.143    0.000    0.000    0.000 
#    0.000    0.000    0.000    0.000    0.000    0.000 
#
# Total GULP energy -78284.759903 kJ/mol
# GULP energy per Si atom -5591.768564 kJ/mol
# Density = 2.567999 g / cm^3
# Si number density = 25.738571 Si / 1000 Ang^3
#
#
#
# Elastic Constant Matrix: (Units=GPa)
#
#
# Indices 1 2 3 4 5 6 
#
# 1 149.3503 30.1525 27.8049 0.0000 1.7435 0.0000
# 2 30.1525 224.5101 0.2271 0.0000 4.9249 0.0000
# 3 27.8049 0.2271 75.3114 0.0000 -7.2102 0.0000
# 4 0.0000 0.0000 0.0000 14.9848 0.0000 20.1677
# 5 1.7435 4.9249 -7.2102 0.0000 38.2847 0.0000
# 6 0.0000 0.0000 0.0000 20.1677 0.0000 43.7729
#
#
#
# Elastic Compliance Matrix: (Units=1/GPa)
#
#
# Indices 1 2 3 4 5 6 
#
# 1 0.007425 -0.000978 -0.002809 0.000000 -0.000741 0.000000
# 2 -0.000978 0.004596 0.000300 0.000000 -0.000490 0.000000
# 3 -0.002809 0.000300 0.014586 0.000000 0.002836 0.000000
# 4 0.000000 0.000000 0.000000 0.175659 0.000000 -0.080932
# 5 -0.000741 -0.000490 0.002836 0.000000 0.026751 0.000000
# 6 0.000000 0.000000 0.000000 -0.080932 0.000000 0.060133
#
#
# Mechanical properties :
#
#
# Convention : Reuss Voigt Hill
#
# Bulk Modulus (GPa) = 50.93530 62.83786 56.88658
# Shear Modulus (GPa) = 16.51974 45.47430 30.99702
#
# Velocity S-wave (km/s) = 2.53618 4.20786 3.47407
# Velocity P-wave (km/s) = 5.32998 6.93362 6.18400
#
# Compressibility (1/GPa) = 0.01963275
#
# Stress axis : x y z
#
# Youngs Moduli (GPa) = 134.68387 217.58297 68.55881
#
# Poissons Ratio (x) = 0.21281 0.19260
# Poissons Ratio (y) = 0.13173 -0.02059
# Poissons Ratio (z) = 0.37836 -0.06534
#
# Static dielectric constant tensor:
#      x y z
#    x 1.973230 0.000000 -0.040660 
#    y 0.000000 2.102180 0.000000 
#    z -0.040660 0.000000 2.032570 
# 
# From -- ./inp_files/11217.got.cif
#   From: 2010.05.17/outbox.cif.g08.bks.cpg/sg11_6_cif.got.tgz:11217.got - 2010.06.03 12:22:45.
