data_PCOD9160129
_publ_section_title
;
Structure prediction by ZEFSAII (Michael W. Deem and Ramdas Pophale) SiO2 
 PCOD9160129
Probable space group: P 21/M
;
_chemical_formula_sum "Si O2"
_cell_formula_units_Z 28
_cell_length_a 14.271044
_cell_length_b 13.798324
_cell_length_c 15.085405
_cell_angle_alpha 90.000000
_cell_angle_beta 29.298564
_cell_angle_gamma 90.000000
_cell_volume 1453.677449
_symmetry_space_group_name_H-M "P 21/M"
_symmetry_group_IT_number 11
_symmetry_cell_setting 'monoclinic'
loop_
_space_group_symop_operation_xyz
x,y,z
-x,1/2+y,-z
-x,-y,-z
x,1/2-y,z
loop_
_atom_site_type_symbol
_atom_site_label
_atom_site_fract_x
_atom_site_fract_y
_atom_site_fract_z
Si Si1 0.293948 0.945657 0.582736
Si Si2 0.956858 0.591703 0.974105
Si Si3 0.731493 0.358479 0.575196
Si Si4 0.727749 0.524288 0.814499
Si Si5 0.669307 0.856015 0.349063
Si Si6 0.997920 0.362515 0.528201
Si Si7 0.712365 0.635341 0.009452
O O1 0.228380 0.931895 0.536700
O O2 0.501259 0.899118 0.425931
O O3 0.295528 0.058276 0.609521
O O4 0.157594 0.886417 0.762194
O O5 0.847533 0.654616 0.135955
O O6 0.818071 0.582412 0.003500
O O7 0.000000 0.500000 0.000000
O O8 0.743556 0.250000 0.526183
O O9 0.873607 0.363143 0.540033
O O10 0.515750 0.371727 0.788014
O O11 0.865797 0.429276 0.700696
O O12 0.805058 0.584903 0.664832
O O13 0.500000 0.500000 0.000000
O O14 0.759195 0.588510 0.876353
O O15 0.621279 0.750000 0.425429
O O16 0.022349 0.250000 0.535240
O O17 0.764086 0.750000 0.969101
#
# Coordination Sequence:
#
# PCOD9160129 Si02
#       7
#     4   4   4   4   4   4   4
#     4  10  20  33  53  80 111 147 189 244 293 346
#     4  10  21  36  57  85 115 152 192 245 303 355
#     4  10  19  34  59  88 117 151 199 249 297 356
#     4  11  22  37  61  94 127 161 200 258 312 360
#     4  10  20  34  51  77 111 148 191 239 293 354
#     4  10  22  39  61  91 124 161 202 247 305 371
#     4  11  21  36  62  92 121 157 203 253 304 360
#
# _framework density 19.261495
#
# number of rings (size 3 to 8) (size 9 to 14) (size 15 to 20)
#    0.000    1.714    2.857    2.143    0.000    4.000 
#    0.000    0.000    0.000   16.286    0.000    0.000 
#    0.000    0.000    0.000    0.000    0.000    0.000 
#
# Total GULP energy -156047.291516 kJ/mol
# GULP energy per Si atom -5573.117554 kJ/mol
# Density = 1.921766 g / cm^3
# Si number density = 19.261495 Si / 1000 Ang^3
#
#
#
# Elastic Constant Matrix: (Units=GPa)
#
#
# Indices 1 2 3 4 5 6 
#
# 1 52.4403 15.0735 13.5480 0.0000 2.9300 0.0000
# 2 15.0735 103.0628 54.9770 0.0000 -0.8125 0.0000
# 3 13.5480 54.9770 105.0828 0.0000 -0.9602 0.0000
# 4 0.0000 0.0000 0.0000 20.3890 0.0000 0.7467
# 5 2.9300 -0.8125 -0.9602 0.0000 27.1926 0.0000
# 6 0.0000 0.0000 0.0000 0.7467 0.0000 -61.3817
#
#
#
# Elastic Compliance Matrix: (Units=1/GPa)
#
#
# Indices 1 2 3 4 5 6 
#
# 1 0.020208 -0.002181 -0.001485 0.000000 -0.002295 0.000000
# 2 -0.002181 0.013695 -0.006880 0.000000 0.000401 0.000000
# 3 -0.001485 -0.006880 0.013311 0.000000 0.000424 0.000000
# 4 0.000000 0.000000 0.000000 0.049024 0.000000 0.000596
# 5 -0.002295 0.000401 0.000424 0.000000 0.037049 0.000000
# 6 0.000000 0.000000 0.000000 0.000596 0.000000 -0.016284
#
#
# Mechanical properties :
#
#
# Convention : Reuss Voigt Hill
#
# Bulk Modulus (GPa) = 38.28294 47.53143 42.90719
# Shear Modulus (GPa) = 34.05908 9.03913 21.54911
#
# Velocity S-wave (km/s) = 4.20961 2.16865 3.34842
# Velocity P-wave (km/s) = 6.59896 5.56787 6.10522
#
# Compressibility (1/GPa) = 0.02612130
#
# Stress axis : x y z
#
# Youngs Moduli (GPa) = 49.48474 73.01887 75.12504
#
# Poissons Ratio (x) = 0.15929 0.11156
# Poissons Ratio (y) = 0.10795 0.51686
# Poissons Ratio (z) = 0.07349 0.50237
#
# Static dielectric constant tensor:
#      x y z
#    x 1.680700 0.000000 0.001570 
#    y 0.000000 1.691560 0.000000 
#    z 0.001570 0.000000 1.742320 
# 
# From -- ./inp_files/52442.got.cif
#   From: 2010.05.17/outbox.cif.g08.bks.cpg/sg11_27_cif.got.tgz:52442.got - 2010.06.03 12:22:45.
