data_PCOD9160490
_publ_section_title
;
Structure prediction by ZEFSAII (Michael W. Deem and Ramdas Pophale) SiO2 
 PCOD9160490
Probable space group: P 21/M
;
_chemical_formula_sum "Si O2"
_cell_formula_units_Z 32
_cell_length_a 12.550535
_cell_length_b 13.164206
_cell_length_c 9.557486
_cell_angle_alpha 90.000000
_cell_angle_beta 60.687517
_cell_angle_gamma 90.000000
_cell_volume 1376.887484
_symmetry_space_group_name_H-M "P 21/M"
_symmetry_group_IT_number 11
_symmetry_cell_setting 'monoclinic'
loop_
_space_group_symop_operation_xyz
x,y,z
-x,1/2+y,-z
-x,-y,-z
x,1/2-y,z
loop_
_atom_site_type_symbol
_atom_site_label
_atom_site_fract_x
_atom_site_fract_y
_atom_site_fract_z
Si Si1 0.702152 0.132721 0.051071
Si Si2 0.874087 0.367184 0.305313
Si Si3 0.392292 0.547242 0.161735
Si Si4 0.450564 0.029126 0.685778
Si Si5 0.042981 0.963782 0.152434
Si Si6 0.756799 0.640148 0.634297
Si Si7 0.043921 0.639312 0.437271
Si Si8 0.225438 0.075413 0.692672
O O1 0.708553 0.250000 0.086574
O O2 0.672763 0.123696 0.903514
O O3 0.832343 0.075979 0.992845
O O4 0.598021 0.071699 0.202411
O O5 0.858637 0.250000 0.275964
O O6 0.775306 0.452066 0.327829
O O7 0.999809 0.419373 0.167860
O O8 0.881044 0.373149 0.469801
O O9 0.451278 0.579370 0.272167
O O10 0.303478 0.453835 0.251714
O O11 0.500000 0.500000 0.000000
O O12 0.329541 0.097306 0.737539
O O13 0.500000 0.000000 0.500000
O O14 0.056190 0.941886 0.308629
O O15 0.081598 0.095637 0.812115
O O16 0.704819 0.750000 0.709047
O O17 0.901279 0.641358 0.568286
O O18 0.743111 0.624893 0.476169
O O19 0.072851 0.750000 0.355764
#
# Coordination Sequence:
#
# PCOD9160490 Si02
#       8
#     4   4   4   4   4   4   4   4
#     4  11  25  44  71 104 138 182 230 288 354 416
#     4   9  18  31  54  91 135 178 222 273 338 405
#     4  10  23  41  65  96 135 177 230 291 344 395
#     4  11  23  46  70  94 135 188 232 285 340 407
#     4   9  19  34  59  92 138 171 220 277 352 407
#     4  10  19  35  63  92 126 176 229 281 343 406
#     4   9  16  27  51  87 124 168 218 269 333 408
#     4   9  21  37  64  97 135 177 231 278 346 413
#
# _framework density 23.240825999999998
#
# number of rings (size 3 to 8) (size 9 to 14) (size 15 to 20)
#    0.750    1.500    1.250    1.500    1.750    3.500 
#    0.000    1.250    0.000    3.750    0.000    0.000 
#    0.000    0.000    0.000    0.000    0.000    0.000 
#
# Total GULP energy -178635.026703 kJ/mol
# GULP energy per Si atom -5582.344584 kJ/mol
# Density = 2.318793 g / cm^3
# Si number density = 23.240826 Si / 1000 Ang^3
#
#
#
# Elastic Constant Matrix: (Units=GPa)
#
#
# Indices 1 2 3 4 5 6 
#
# 1 127.6302 16.8122 32.6694 0.0000 19.5005 0.0000
# 2 16.8122 88.3378 17.3362 0.0000 -3.1369 0.0000
# 3 32.6694 17.3362 103.0007 0.0000 8.9856 0.0000
# 4 0.0000 0.0000 0.0000 13.2461 0.0000 -14.0275
# 5 19.5005 -3.1369 8.9856 0.0000 43.1701 0.0000
# 6 0.0000 0.0000 0.0000 -14.0275 0.0000 -11.0387
#
#
#
# Elastic Compliance Matrix: (Units=1/GPa)
#
#
# Indices 1 2 3 4 5 6 
#
# 1 0.009200 -0.001424 -0.002350 0.000000 -0.003770 0.000000
# 2 -0.001424 0.011998 -0.001731 0.000000 0.001875 0.000000
# 3 -0.002350 -0.001731 0.010861 0.000000 -0.001325 0.000000
# 4 0.000000 0.000000 0.000000 0.032184 0.000000 -0.040898
# 5 -0.003770 0.001875 -0.001325 0.000000 0.025279 0.000000
# 6 0.000000 0.000000 0.000000 -0.040898 0.000000 -0.038620
#
#
# Mechanical properties :
#
#
# Convention : Reuss Voigt Hill
#
# Bulk Modulus (GPa) = 47.50745 50.28938 48.89842
# Shear Modulus (GPa) = 72.54001 25.88558 49.21280
#
# Velocity S-wave (km/s) = 5.59286 3.34098 4.60664
# Velocity P-wave (km/s) = 7.88622 6.04717 7.02712
#
# Compressibility (1/GPa) = 0.02104933
#
# Stress axis : x y z
#
# Youngs Moduli (GPa) = 108.69409 83.35057 92.07345
#
# Poissons Ratio (x) = 0.11867 0.21633
# Poissons Ratio (y) = 0.15475 0.15941
# Poissons Ratio (z) = 0.25538 0.14431
#
# Static dielectric constant tensor:
#      x y z
#    x 1.949140 0.000000 0.002320 
#    y 0.000000 1.871460 0.000000 
#    z 0.002320 0.000000 1.918350 
# 
# From -- ./inp_files/22169.got.cif
#   From: 2010.05.17/outbox.cif.g08.bks.cpg/sg11_12_cif.got.tgz:22169.got - 2010.06.03 12:22:45.
