data_PCOD9160342
_publ_section_title
;
Structure prediction by ZEFSAII (Michael W. Deem and Ramdas Pophale) SiO2 
 PCOD9160342
Probable space group: P 21/M
;
_chemical_formula_sum "Si O2"
_cell_formula_units_Z 32
_cell_length_a 8.993727
_cell_length_b 19.708573
_cell_length_c 11.548862
_cell_angle_alpha 90.000000
_cell_angle_beta 136.163943
_cell_angle_gamma 90.000000
_cell_volume 1417.799555
_symmetry_space_group_name_H-M "P 21/M"
_symmetry_group_IT_number 11
_symmetry_cell_setting 'monoclinic'
loop_
_space_group_symop_operation_xyz
x,y,z
-x,1/2+y,-z
-x,-y,-z
x,1/2-y,z
loop_
_atom_site_type_symbol
_atom_site_label
_atom_site_fract_x
_atom_site_fract_y
_atom_site_fract_z
Si Si1 0.194183 0.467997 0.933147
Si Si2 0.366059 0.459109 0.783988
Si Si3 0.420571 0.674666 0.015965
Si Si4 0.089134 0.825404 0.484264
Si Si5 0.351376 0.955770 0.570995
Si Si6 0.933785 0.828339 0.652377
Si Si7 0.824420 0.677474 0.094822
Si Si8 0.794439 0.955121 0.714464
O O1 0.195699 0.464859 0.792101
O O2 0.127616 0.393437 0.938787
O O3 0.034299 0.525503 0.887464
O O4 0.442044 0.486782 0.089479
O O5 0.484023 0.386598 0.855202
O O6 0.275408 0.484107 0.612644
O O7 0.442774 0.750000 0.081692
O O8 0.573874 0.674555 0.989035
O O9 0.177202 0.664952 0.838830
O O10 0.185856 0.750000 0.553331
O O11 0.256395 0.885244 0.560073
O O12 0.953180 0.838183 0.524644
O O13 0.945728 0.822685 0.287361
O O14 0.608592 0.950995 0.704146
O O15 0.269823 0.979624 0.399830
O O16 0.864085 0.750000 0.633642
O O17 0.799989 0.885947 0.643156
O O18 0.872503 0.750000 0.064313
#
# Coordination Sequence:
#
# PCOD9160342 Si02
#       8
#     4   4   4   4   4   4   4   4
#     4  10  19  35  58  84 110 140 188 234 284 333
#     4  10  21  35  58  88 108 146 187 235 287 329
#     4   9  18  34  55  83 115 141 175 230 291 336
#     4  10  21  37  59  86 111 145 190 233 283 332
#     4  11  25  38  55  81 116 156 189 232 273 334
#     4  10  21  37  61  87 112 143 187 239 283 332
#     4   9  18  32  54  83 113 143 178 231 288 332
#     4  11  23  40  55  80 115 153 192 225 283 332
#
# _framework density 22.570187000000001
#
# number of rings (size 3 to 8) (size 9 to 14) (size 15 to 20)
#    0.000    2.000    2.500    0.750    7.000    2.000 
#    0.000    0.000    0.000    1.500    0.000    0.000 
#    0.000    0.000    0.000    0.000    0.000    0.000 
#
# Total GULP energy -178692.125235 kJ/mol
# GULP energy per Si atom -5584.128914 kJ/mol
# Density = 2.251882 g / cm^3
# Si number density = 22.570187 Si / 1000 Ang^3
#
#
#
# Elastic Constant Matrix: (Units=GPa)
#
#
# Indices 1 2 3 4 5 6 
#
# 1 68.4266 38.1766 7.4476 0.0000 2.7564 0.0000
# 2 38.1766 165.3582 15.5011 0.0000 -2.4203 0.0000
# 3 7.4476 15.5011 27.9941 0.0000 1.1690 0.0000
# 4 0.0000 0.0000 0.0000 30.0198 0.0000 4.2775
# 5 2.7564 -2.4203 1.1690 0.0000 24.5838 0.0000
# 6 0.0000 0.0000 0.0000 4.2775 0.0000 16.5948
#
#
#
# Elastic Compliance Matrix: (Units=1/GPa)
#
#
# Indices 1 2 3 4 5 6 
#
# 1 0.017049 -0.003746 -0.002371 0.000000 -0.002168 0.000000
# 2 -0.003746 0.007217 -0.003053 0.000000 0.001276 0.000000
# 3 -0.002371 -0.003053 0.038120 0.000000 -0.001847 0.000000
# 4 0.000000 0.000000 0.000000 0.034581 0.000000 -0.008914
# 5 -0.002168 0.001276 -0.001847 0.000000 0.041134 0.000000
# 6 0.000000 0.000000 0.000000 -0.008914 0.000000 0.062558
#
#
# Mechanical properties :
#
#
# Convention : Reuss Voigt Hill
#
# Bulk Modulus (GPa) = 22.70309 42.66997 32.68653
# Shear Modulus (GPa) = 21.39661 27.61660 24.50660
#
# Velocity S-wave (km/s) = 3.08231 3.50178 3.29872
# Velocity P-wave (km/s) = 4.76951 5.94108 5.38724
#
# Compressibility (1/GPa) = 0.04404686
#
# Stress axis : x y z
#
# Youngs Moduli (GPa) = 58.65313 138.55935 26.23268
#
# Poissons Ratio (x) = 0.51900 0.06220
# Poissons Ratio (y) = 0.21970 0.08009
# Poissons Ratio (z) = 0.13908 0.42303
#
# Static dielectric constant tensor:
#      x y z
#    x 1.791870 0.000000 -0.012620 
#    y 0.000000 1.866000 0.000000 
#    z -0.012620 0.000000 1.934290 
# 
# From -- ./inp_files/32861.got.cif
#   From: 2010.05.17/outbox.cif.g08.bks.cpg/sg11_17_cif.got.tgz:32861.got - 2010.06.03 12:22:45.
