data_PCOD9160325
_publ_section_title
;
Structure prediction by ZEFSAII (Michael W. Deem and Ramdas Pophale) SiO2 
 PCOD9160325
Probable space group: P 21/M
;
_chemical_formula_sum "Si O2"
_cell_formula_units_Z 28
_cell_length_a 16.609794
_cell_length_b 8.089566
_cell_length_c 20.949500
_cell_angle_alpha 90.000000
_cell_angle_beta 150.051896
_cell_angle_gamma 90.000000
_cell_volume 1405.241911
_symmetry_space_group_name_H-M "P 21/M"
_symmetry_group_IT_number 11
_symmetry_cell_setting 'monoclinic'
loop_
_space_group_symop_operation_xyz
x,y,z
-x,1/2+y,-z
-x,-y,-z
x,1/2-y,z
loop_
_atom_site_type_symbol
_atom_site_label
_atom_site_fract_x
_atom_site_fract_y
_atom_site_fract_z
Si Si1 0.449266 0.449176 0.785184
Si Si2 0.136066 0.552769 0.644065
Si Si3 0.004520 0.952114 0.689652
Si Si4 0.958704 0.946434 0.900031
Si Si5 0.362865 0.452193 0.582897
Si Si6 0.406440 0.947580 0.372099
Si Si7 0.186981 0.547184 0.942862
O O1 0.453601 0.250000 0.785581
O O2 0.309420 0.497008 0.737996
O O3 0.403058 0.507485 0.682198
O O4 0.627633 0.507072 0.926325
O O5 0.134515 0.750000 0.645557
O O6 0.088593 0.491277 0.681918
O O7 0.000000 0.500000 0.500000
O O8 0.005313 0.750000 0.690102
O O9 0.097925 0.005833 0.817052
O O10 0.817450 0.003168 0.560327
O O11 0.970272 0.750000 0.906347
O O12 0.086362 0.010154 0.935435
O O13 0.777365 0.993945 0.756484
O O14 0.000000 0.000000 0.000000
O O15 0.364759 0.250000 0.584544
O O16 0.493991 0.508173 0.621353
O O17 0.405157 0.750000 0.368639
O O18 0.500000 0.000000 0.500000
O O19 0.186882 0.750000 0.943117
#
# Coordination Sequence:
#
# PCOD9160325 Si02
#       7
#     4   4   4   4   4   4   4
#     4  10  19  35  58  82 107 140 187 233 271 329
#     4  11  21  35  57  83 112 143 182 229 282 335
#     4   9  17  32  55  80 107 144 187 228 268 328
#     4  11  22  39  62  86 116 155 199 244 293 350
#     4   9  17  32  55  78 105 148 192 227 272 340
#     4  11  22  37  59  87 118 153 197 245 296 349
#     4   9  19  35  57  82 109 149 194 227 271 343
#
# _framework density 19.925395000000002
#
# number of rings (size 3 to 8) (size 9 to 14) (size 15 to 20)
#    0.000    2.000    1.429    3.000    0.000    5.143 
#    0.000    4.286    0.000    3.429    0.000    0.000 
#    0.000    0.000    0.000    0.000    0.000    0.000 
#
# Total GULP energy -156430.718784 kJ/mol
# GULP energy per Si atom -5586.811385 kJ/mol
# Density = 1.988004 g / cm^3
# Si number density = 19.925395 Si / 1000 Ang^3
#
#
#
# Elastic Constant Matrix: (Units=GPa)
#
#
# Indices 1 2 3 4 5 6 
#
# 1 143.8551 10.9976 76.5969 0.0000 16.7625 0.0000
# 2 10.9976 17.8927 11.7311 0.0000 0.1373 0.0000
# 3 76.5969 11.7311 178.9296 0.0000 12.0599 0.0000
# 4 0.0000 0.0000 0.0000 18.8082 0.0000 4.3497
# 5 16.7625 0.1373 12.0599 0.0000 41.9692 0.0000
# 6 0.0000 0.0000 0.0000 4.3497 0.0000 25.5828
#
#
#
# Elastic Compliance Matrix: (Units=1/GPa)
#
#
# Indices 1 2 3 4 5 6 
#
# 1 0.009472 -0.003409 -0.003648 0.000000 -0.002724 0.000000
# 2 -0.003409 0.059662 -0.002581 0.000000 0.001908 0.000000
# 3 -0.003648 -0.002581 0.007363 0.000000 -0.000651 0.000000
# 4 0.000000 0.000000 0.000000 0.055344 0.000000 -0.009410
# 5 -0.002724 0.001908 -0.000651 0.000000 0.025096 0.000000
# 6 0.000000 0.000000 0.000000 -0.009410 0.000000 0.040689
#
#
# Mechanical properties :
#
#
# Convention : Reuss Voigt Hill
#
# Bulk Modulus (GPa) = 17.47596 59.92539 38.70068
# Shear Modulus (GPa) = 21.18877 33.36217 27.27547
#
# Velocity S-wave (km/s) = 3.26453 4.09633 3.70385
# Velocity P-wave (km/s) = 4.79575 7.24661 6.14462
#
# Compressibility (1/GPa) = 0.05722146
#
# Stress axis : x y z
#
# Youngs Moduli (GPa) = 105.57857 16.76118 135.80872
#
# Poissons Ratio (x) = 0.05714 0.49537
# Poissons Ratio (y) = 0.35995 0.35049
# Poissons Ratio (z) = 0.38510 0.04326
#
# Static dielectric constant tensor:
#      x y z
#    x 1.690220 0.000000 0.004250 
#    y 0.000000 1.714240 0.000000 
#    z 0.004250 0.000000 1.659070 
# 
# From -- ./inp_files/28612.got.cif
#   From: 2010.05.17/outbox.cif.g08.bks.cpg/sg11_15_cif.got.tgz:28612.got - 2010.06.03 12:22:45.
