data_PCOD9160230
_publ_section_title
;
Structure prediction by ZEFSAII (Michael W. Deem and Ramdas Pophale) SiO2 
 PCOD9160230
Probable space group: P 21/M
;
_chemical_formula_sum "Si O2"
_cell_formula_units_Z 32
_cell_length_a 12.049943
_cell_length_b 7.622708
_cell_length_c 19.929343
_cell_angle_alpha 90.000000
_cell_angle_beta 129.856681
_cell_angle_gamma 90.000000
_cell_volume 1405.239857
_symmetry_space_group_name_H-M "P 21/M"
_symmetry_group_IT_number 11
_symmetry_cell_setting 'monoclinic'
loop_
_space_group_symop_operation_xyz
x,y,z
-x,1/2+y,-z
-x,-y,-z
x,1/2-y,z
loop_
_atom_site_type_symbol
_atom_site_label
_atom_site_fract_x
_atom_site_fract_y
_atom_site_fract_z
Si Si1 0.267576 0.965905 0.287571
Si Si2 0.961367 0.043491 0.693149
Si Si3 0.435727 0.464378 0.651347
Si Si4 0.117276 0.041130 0.488467
Si Si5 0.718298 0.962571 0.148551
Si Si6 0.767174 0.455274 0.022669
Si Si7 0.936741 0.056222 0.904267
Si Si8 0.484203 0.964130 0.167377
O O1 0.265545 0.750000 0.286710
O O2 0.434704 0.017736 0.348092
O O3 0.187035 0.030343 0.188375
O O4 0.170250 0.026192 0.312316
O O5 0.969596 0.250000 0.711374
O O6 0.119809 0.971560 0.772299
O O7 0.930959 0.024224 0.602863
O O8 0.432101 0.250000 0.650836
O O9 0.276601 0.526515 0.569784
O O10 0.478788 0.519992 0.743316
O O11 0.127561 0.250000 0.487776
O O12 0.000000 0.000000 0.500000
O O13 0.716922 0.750000 0.148773
O O14 0.606846 0.020747 0.162268
O O15 0.682874 0.021907 0.059557
O O16 0.799932 0.250000 0.026167
O O17 0.919533 0.552958 0.085891
O O18 0.669604 0.519234 0.923048
O O19 0.880113 0.250000 0.894600
O O20 0.000000 0.000000 0.000000
O O21 0.481853 0.750000 0.166194
#
# Coordination Sequence:
#
# PCOD9160230 Si02
#       8
#     4   4   4   4   4   4   4   4
#     4   9  18  35  59  84 112 150 194 233 280 343
#     4  10  20  37  61  86 114 153 193 236 285 342
#     4   9  18  35  58  83 111 145 190 235 281 341
#     4  11  23  39  62  90 116 148 187 236 290 345
#     4  10  19  35  56  79 111 154 199 236 283 342
#     4  11  21  33  52  82 114 147 189 240 291 338
#     4  11  21  36  57  82 112 153 197 238 283 338
#     4   9  18  32  53  79 110 151 195 239 284 338
#
# _framework density 22.771912
#
# number of rings (size 3 to 8) (size 9 to 14) (size 15 to 20)
#    0.000    2.000    1.250    3.000    0.000    5.000 
#    0.000    0.625    0.000   11.250    0.000    0.000 
#    0.000    0.000    0.000    0.000    0.000    0.000 
#
# Total GULP energy -178816.022590 kJ/mol
# GULP energy per Si atom -5588.000706 kJ/mol
# Density = 2.272008 g / cm^3
# Si number density = 22.771912 Si / 1000 Ang^3
#
#
#
# Elastic Constant Matrix: (Units=GPa)
#
#
# Indices 1 2 3 4 5 6 
#
# 1 111.0954 -3.3521 28.1621 0.0000 9.7176 0.0000
# 2 -3.3521 44.9845 -7.2875 0.0000 4.3631 0.0000
# 3 28.1621 -7.2875 105.3483 0.0000 8.6105 0.0000
# 4 0.0000 0.0000 0.0000 17.5058 0.0000 -7.7292
# 5 9.7176 4.3631 8.6105 0.0000 42.9999 0.0000
# 6 0.0000 0.0000 0.0000 -7.7292 0.0000 14.7548
#
#
#
# Elastic Compliance Matrix: (Units=1/GPa)
#
#
# Indices 1 2 3 4 5 6 
#
# 1 0.009790 0.000507 -0.002437 0.000000 -0.001776 0.000000
# 2 0.000507 0.022806 0.001668 0.000000 -0.002763 0.000000
# 3 -0.002437 0.001668 0.010398 0.000000 -0.001701 0.000000
# 4 0.000000 0.000000 0.000000 0.074312 0.000000 0.038928
# 5 -0.001776 -0.002763 -0.001701 0.000000 0.024278 0.000000
# 6 0.000000 0.000000 0.000000 0.038928 0.000000 0.088166
#
#
# Mechanical properties :
#
#
# Convention : Reuss Voigt Hill
#
# Bulk Modulus (GPa) = 23.54624 32.94148 28.24386
# Shear Modulus (GPa) = 20.45575 31.31249 25.88412
#
# Velocity S-wave (km/s) = 3.00040 3.71219 3.37511
# Velocity P-wave (km/s) = 4.72924 5.73333 5.25532
#
# Compressibility (1/GPa) = 0.04246962
#
# Stress axis : x y z
#
# Youngs Moduli (GPa) = 102.14911 43.84853 96.17129
#
# Poissons Ratio (x) = -0.02223 0.23435
# Poissons Ratio (y) = -0.05179 -0.16040
# Poissons Ratio (z) = 0.24891 -0.07313
#
# Static dielectric constant tensor:
#      x y z
#    x 1.857930 0.000000 0.015360 
#    y 0.000000 1.877490 0.000000 
#    z 0.015360 0.000000 1.801460 
# 
# From -- ./inp_files/64453.got.cif
#   From: 2010.05.17/outbox.cif.g08.bks.cpg/sg11_33_cif.got.tgz:64453.got - 2010.06.03 12:22:45.
