data_PCOD9160159
_publ_section_title
;
Structure prediction by ZEFSAII (Michael W. Deem and Ramdas Pophale) SiO2 
 PCOD9160159
Probable space group: P 21/M
;
_chemical_formula_sum "Si O2"
_cell_formula_units_Z 30
_cell_length_a 16.100616
_cell_length_b 9.533800
_cell_length_c 25.508596
_cell_angle_alpha 90.000000
_cell_angle_beta 159.471764
_cell_angle_gamma 90.000000
_cell_volume 1373.069078
_symmetry_space_group_name_H-M "P 21/M"
_symmetry_group_IT_number 11
_symmetry_cell_setting 'monoclinic'
loop_
_space_group_symop_operation_xyz
x,y,z
-x,1/2+y,-z
-x,-y,-z
x,1/2-y,z
loop_
_atom_site_type_symbol
_atom_site_label
_atom_site_fract_x
_atom_site_fract_y
_atom_site_fract_z
Si Si1 0.240515 0.415264 0.633424
Si Si2 0.282280 0.092892 0.928840
Si Si3 0.304438 0.488831 0.152457
Si Si4 0.051394 0.250000 0.048834
Si Si5 0.554107 0.920597 0.587122
Si Si6 0.115954 0.915353 0.395413
Si Si7 0.994222 0.906077 0.124941
Si Si8 0.699620 0.585224 0.212452
O O1 0.196832 0.250000 0.597874
O O2 0.424909 0.477611 0.700890
O O3 0.360513 0.427867 0.762011
O O4 0.000000 0.500000 0.500000
O O5 0.376609 0.250000 0.976830
O O6 0.078679 0.068849 0.766009
O O7 0.152827 0.088057 0.908499
O O8 0.499043 0.987528 0.059852
O O9 0.156215 0.628385 0.075379
O O10 0.179629 0.421862 0.026952
O O11 0.256457 0.373322 0.167745
O O12 0.542803 0.750000 0.574211
O O13 0.358732 0.969837 0.514277
O O14 0.500000 0.000000 0.500000
O O15 0.811680 0.972343 0.757471
O O16 0.159069 0.750000 0.430240
O O17 0.963555 0.970871 0.354576
O O18 0.106145 0.750000 0.187628
O O19 0.701768 0.750000 0.201697
#
# Coordination Sequence:
#
# PCOD9160159 Si02
#       8
#     4   4   4   2   4   4   4   4
#     4  11  25  43  66  94 128 167 214 267 326 394
#     4  10  19  34  61  87 121 159 198 247 299 359
#     4  11  22  45  65  97 129 163 216 271 326 398
#     4  10  24  42  70  94 126 166 208 274 334 380
#     4  11  22  38  59  86 125 169 211 254 311 373
#     4   9  19  38  56  85 126 162 198 248 299 363
#     4  11  22  38  63  93 124 163 205 254 312 378
#     4  10  21  39  60  89 118 156 205 251 302 365
#
# _framework density 21.848863999999999
#
# number of rings (size 3 to 8) (size 9 to 14) (size 15 to 20)
#    0.000    1.600    4.000    0.800    1.867    1.067 
#    4.800    1.333    0.000    0.000    0.000    0.000 
#    0.000    0.000    0.000    0.000    0.000    0.000 
#
# Total GULP energy -167065.113733 kJ/mol
# GULP energy per Si atom -5568.837124 kJ/mol
# Density = 2.179913 g / cm^3
# Si number density = 21.848864 Si / 1000 Ang^3
#
#
#
# Elastic Constant Matrix: (Units=GPa)
#
#
# Indices 1 2 3 4 5 6 
#
# 1 58.7007 21.5568 9.0748 0.0000 22.7900 0.0000
# 2 21.5568 115.0503 37.1331 0.0000 22.7586 0.0000
# 3 9.0748 37.1331 89.1420 0.0000 29.3447 0.0000
# 4 0.0000 0.0000 0.0000 32.3003 0.0000 10.8248
# 5 22.7900 22.7586 29.3447 0.0000 47.1185 0.0000
# 6 0.0000 0.0000 0.0000 10.8248 0.0000 7.1355
#
#
#
# Elastic Compliance Matrix: (Units=1/GPa)
#
#
# Indices 1 2 3 4 5 6 
#
# 1 0.021850 -0.002761 0.002473 0.000000 -0.010775 0.000000
# 2 -0.002761 0.010699 -0.003666 0.000000 -0.001549 0.000000
# 3 0.002473 -0.003666 0.015477 0.000000 -0.009064 0.000000
# 4 0.000000 0.000000 0.000000 0.062978 0.000000 -0.095540
# 5 -0.010775 -0.001549 -0.009064 0.000000 0.032828 0.000000
# 6 0.000000 0.000000 0.000000 -0.095540 0.000000 0.285082
#
#
# Mechanical properties :
#
#
# Convention : Reuss Voigt Hill
#
# Bulk Modulus (GPa) = 24.92585 44.26917 34.59751
# Shear Modulus (GPa) = 11.10631 30.31941 20.71286
#
# Velocity S-wave (km/s) = 2.25705 3.72921 3.08231
# Velocity P-wave (km/s) = 4.26913 6.23283 5.34199
#
# Compressibility (1/GPa) = 0.04011899
#
# Stress axis : x y z
#
# Youngs Moduli (GPa) = 45.76573 93.46938 64.61118
#
# Poissons Ratio (x) = 0.25804 -0.15976
# Poissons Ratio (y) = 0.12635 0.23684
# Poissons Ratio (z) = -0.11316 0.34262
#
# Static dielectric constant tensor:
#      x y z
#    x 1.894240 0.000000 -0.013230 
#    y 0.000000 1.758520 0.000000 
#    z -0.013230 0.000000 1.783820 
# 
# From -- ./inp_files/73535.got.cif
#   From: 2010.05.17/outbox.cif.g08.bks.cpg/sg11_37_cif.got.tgz:73535.got - 2010.06.03 12:22:45.
