data_PCOD9160358
_publ_section_title
;
Structure prediction by ZEFSAII (Michael W. Deem and Ramdas Pophale) SiO2 
 PCOD9160358
Probable space group: P 21/M
;
_chemical_formula_sum "Si O2"
_cell_formula_units_Z 32
_cell_length_a 12.184686
_cell_length_b 8.799445
_cell_length_c 34.052767
_cell_angle_alpha 90.000000
_cell_angle_beta 27.578584
_cell_angle_gamma 90.000000
_cell_volume 1690.324018
_symmetry_space_group_name_H-M "P 21/M"
_symmetry_group_IT_number 11
_symmetry_cell_setting 'monoclinic'
loop_
_space_group_symop_operation_xyz
x,y,z
-x,1/2+y,-z
-x,-y,-z
x,1/2-y,z
loop_
_atom_site_type_symbol
_atom_site_label
_atom_site_fract_x
_atom_site_fract_y
_atom_site_fract_z
Si Si1 0.490960 0.433603 0.603398
Si Si2 0.258375 0.432111 0.911348
Si Si3 0.850404 0.569189 0.360133
Si Si4 0.481480 0.065773 0.247144
Si Si5 0.934737 0.067271 0.416378
Si Si6 0.327491 0.569367 0.161668
Si Si7 0.274375 0.430945 0.093411
Si Si8 0.743778 0.066514 0.244225
O O1 0.478872 0.250000 0.610310
O O2 0.329044 0.478424 0.617342
O O3 0.758363 0.479847 0.507278
O O4 0.388093 0.503283 0.675629
O O5 0.246958 0.250000 0.912019
O O6 0.380663 0.498118 0.833627
O O7 0.428528 0.469725 0.894145
O O8 0.000000 0.500000 0.000000
O O9 0.821470 0.750000 0.375174
O O10 0.829278 0.487823 0.408398
O O11 0.113368 0.540916 0.259768
O O12 0.486053 0.250000 0.242958
O O13 0.610864 0.021269 0.246502
O O14 0.206397 0.015418 0.334258
O O15 0.936453 0.250000 0.415473
O O16 0.325942 0.750000 0.153187
O O17 0.285949 0.479103 0.135104
O O18 0.284389 0.250000 0.086499
O O19 0.019170 0.482977 0.157630
O O20 0.500000 0.500000 0.000000
O O21 0.740968 0.250000 0.247156
#
# Coordination Sequence:
#
# PCOD9160358 Si02
#       8
#     4   4   4   4   4   4   4   4
#     4  10  21  37  58  86 117 151 191 238 288 339
#     4  11  24  41  62  89 118 151 194 238 288 346
#     4  10  19  35  58  85 119 152 186 234 291 340
#     4  10  22  41  60  82 118 156 192 238 289 339
#     4  10  21  36  58  87 117 151 193 237 284 341
#     4  10  21  39  62  87 119 154 189 236 290 343
#     4  11  24  40  61  88 117 151 196 241 291 348
#     4  10  23  41  59  82 114 154 194 237 287 342
#
# _framework density 18.931281999999999
#
# number of rings (size 3 to 8) (size 9 to 14) (size 15 to 20)
#    0.000    1.750    2.500    1.125    1.750    4.000 
#    0.000    0.000    0.000    0.000    0.000    0.000 
#    0.000    0.000    0.000    0.000    0.000    0.000 
#
# Total GULP energy -178766.173568 kJ/mol
# GULP energy per Si atom -5586.442924 kJ/mol
# Density = 1.888819 g / cm^3
# Si number density = 18.931282 Si / 1000 Ang^3
#
#
#
# Elastic Constant Matrix: (Units=GPa)
#
#
# Indices 1 2 3 4 5 6 
#
# 1 100.5420 18.2530 28.1614 0.0000 -10.3268 0.0000
# 2 18.2530 9.1734 16.6574 0.0000 -3.9732 0.0000
# 3 28.1614 16.6574 88.9463 0.0000 -18.2311 0.0000
# 4 0.0000 0.0000 0.0000 30.7919 0.0000 7.2707
# 5 -10.3268 -3.9732 -18.2311 0.0000 28.3934 0.0000
# 6 0.0000 0.0000 0.0000 7.2707 0.0000 26.3056
#
#
#
# Elastic Compliance Matrix: (Units=1/GPa)
#
#
# Indices 1 2 3 4 5 6 
#
# 1 0.015787 -0.033648 0.001744 0.000000 0.002153 0.000000
# 2 -0.033648 0.237244 -0.033948 0.000000 -0.000837 0.000000
# 3 0.001744 -0.033948 0.018660 0.000000 0.007865 0.000000
# 4 0.000000 0.000000 0.000000 0.034744 0.000000 -0.009603
# 5 0.002153 -0.000837 0.007865 0.000000 0.040936 0.000000
# 6 0.000000 0.000000 0.000000 -0.009603 0.000000 0.040669
#
#
# Mechanical properties :
#
#
# Convention : Reuss Voigt Hill
#
# Bulk Modulus (GPa) = 7.14347 36.08948 21.61648
# Shear Modulus (GPa) = 8.82760 26.13750 17.48255
#
# Velocity S-wave (km/s) = 2.16173 3.71974 3.04217
# Velocity P-wave (km/s) = 3.16423 6.12809 4.87677
#
# Compressibility (1/GPa) = 0.13998795
#
# Stress axis : x y z
#
# Youngs Moduli (GPa) = 63.34189 4.21508 53.58985
#
# Poissons Ratio (x) = 0.14183 -0.09348
# Poissons Ratio (y) = 2.13132 1.81927
# Poissons Ratio (z) = -0.11049 0.14309
#
# Static dielectric constant tensor:
#      x y z
#    x 1.641020 0.000000 -0.027540 
#    y 0.000000 1.641790 0.000000 
#    z -0.027540 0.000000 1.646490 
# 
# From -- ./inp_files/73062.got.cif
#   From: 2010.05.17/outbox.cif.g08.bks.cpg/sg11_37_cif.got.tgz:73062.got - 2010.06.03 12:22:45.
