data_PCOD9160609
_publ_section_title
;
Structure prediction by ZEFSAII (Michael W. Deem and Ramdas Pophale) SiO2 
 PCOD9160609
Probable space group: P 21/M
;
_chemical_formula_sum "Si O2"
_cell_formula_units_Z 28
_cell_length_a 29.926339
_cell_length_b 8.587946
_cell_length_c 9.401879
_cell_angle_alpha 90.000000
_cell_angle_beta 141.586920
_cell_angle_gamma 90.000000
_cell_volume 1501.334801
_symmetry_space_group_name_H-M "P 21/M"
_symmetry_group_IT_number 11
_symmetry_cell_setting 'monoclinic'
loop_
_space_group_symop_operation_xyz
x,y,z
-x,1/2+y,-z
-x,-y,-z
x,1/2-y,z
loop_
_atom_site_type_symbol
_atom_site_label
_atom_site_fract_x
_atom_site_fract_y
_atom_site_fract_z
Si Si1 0.933135 0.563497 0.746810
Si Si2 0.499172 0.437109 0.337661
Si Si3 0.772888 0.562548 0.344301
Si Si4 0.222897 0.562824 0.966353
Si Si5 0.638980 0.439416 0.507890
Si Si6 0.931316 0.936641 0.410922
Si Si7 0.362919 0.562902 0.824951
O O1 0.934623 0.750000 0.758660
O O2 0.853070 0.513453 0.594280
O O3 0.939475 0.519694 0.597139
O O4 0.000000 0.500000 0.000000
O O5 0.500000 0.500000 0.500000
O O6 0.498900 0.250000 0.341489
O O7 0.570254 0.489317 0.428886
O O8 0.429309 0.495398 0.079526
O O9 0.768819 0.750000 0.337055
O O10 0.765557 0.507586 0.162307
O O11 0.710608 0.491240 0.284571
O O12 0.223371 0.750000 0.956440
O O13 0.145101 0.506951 0.826829
O O14 0.287476 0.512846 0.230925
O O15 0.638647 0.250000 0.505742
O O16 0.634252 0.490297 0.332395
O O17 0.927839 0.750000 0.391675
O O18 0.000000 0.000000 0.500000
O O19 0.366740 0.750000 0.837584
#
# Coordination Sequence:
#
# PCOD9160609 Si02
#       7
#     4   4   4   4   4   4   4
#     4   9  20  36  55  79 110 143 183 230 279 333
#     4  11  22  39  61  86 114 148 187 230 275 331
#     4  10  21  38  56  81 113 147 187 232 276 331
#     4  10  19  36  60  84 109 145 188 232 279 334
#     4   9  21  38  57  82 114 146 183 228 278 331
#     4  10  21  37  55  81 113 147 186 232 280 334
#     4  11  22  38  58  83 113 148 185 228 279 330
#
# _framework density 18.650069999999999
#
# number of rings (size 3 to 8) (size 9 to 14) (size 15 to 20)
#    0.000    2.000    0.000    4.286    0.000    5.714 
#    0.000   11.429    0.000    0.000    0.000    0.000 
#    0.000    0.000    0.000    0.000    0.000    0.000 
#
# Total GULP energy -156383.870132 kJ/mol
# GULP energy per Si atom -5585.138219 kJ/mol
# Density = 1.860762 g / cm^3
# Si number density = 18.650070 Si / 1000 Ang^3
#
#
#
# Elastic Constant Matrix: (Units=GPa)
#
#
# Indices 1 2 3 4 5 6 
#
# 1 172.8388 37.2176 107.1473 0.0000 22.6676 0.0000
# 2 37.2176 49.2543 38.6238 0.0000 4.2362 0.0000
# 3 107.1473 38.6238 201.9454 0.0000 16.0872 0.0000
# 4 0.0000 0.0000 0.0000 33.6185 0.0000 2.4791
# 5 22.6676 4.2362 16.0872 0.0000 29.4328 0.0000
# 6 0.0000 0.0000 0.0000 2.4791 0.0000 28.1735
#
#
#
# Elastic Compliance Matrix: (Units=1/GPa)
#
#
# Indices 1 2 3 4 5 6 
#
# 1 0.009741 -0.003760 -0.004072 0.000000 -0.004735 0.000000
# 2 -0.003760 0.025364 -0.002923 0.000000 0.000843 0.000000
# 3 -0.004072 -0.002923 0.007724 0.000000 -0.000665 0.000000
# 4 0.000000 0.000000 0.000000 0.029940 0.000000 -0.002635
# 5 -0.004735 0.000843 -0.000665 0.000000 0.037865 0.000000
# 6 0.000000 0.000000 0.000000 -0.002635 0.000000 0.035726
#
#
# Mechanical properties :
#
#
# Convention : Reuss Voigt Hill
#
# Bulk Modulus (GPa) = 46.90731 87.77955 67.34343
# Shear Modulus (GPa) = 28.57542 34.31493 31.44518
#
# Velocity S-wave (km/s) = 3.91856 4.29410 4.11062
# Velocity P-wave (km/s) = 6.75865 8.47080 7.66270
#
# Compressibility (1/GPa) = 0.02131864
#
# Stress axis : x y z
#
# Youngs Moduli (GPa) = 102.66335 39.42640 129.46125
#
# Poissons Ratio (x) = 0.14824 0.52714
# Poissons Ratio (y) = 0.38601 0.37845
# Poissons Ratio (z) = 0.41802 0.11525
#
# Static dielectric constant tensor:
#      x y z
#    x 1.625350 0.000000 0.006090 
#    y 0.000000 1.636130 0.000000 
#    z 0.006090 0.000000 1.628730 
# 
# From -- ./inp_files/28640.got.cif
#   From: 2010.05.17/outbox.cif.g08.bks.cpg/sg11_15_cif.got.tgz:28640.got - 2010.06.03 12:22:45.
