data_PCOD9160543
_publ_section_title
;
Structure prediction by ZEFSAII (Michael W. Deem and Ramdas Pophale) SiO2 
 PCOD9160543
Probable space group: P 21/M
;
_chemical_formula_sum "Si O2"
_cell_formula_units_Z 24
_cell_length_a 5.095502
_cell_length_b 14.096179
_cell_length_c 18.098661
_cell_angle_alpha 90.000000
_cell_angle_beta 73.368667
_cell_angle_gamma 90.000000
_cell_volume 1245.591609
_symmetry_space_group_name_H-M "P 21/M"
_symmetry_group_IT_number 11
_symmetry_cell_setting 'monoclinic'
loop_
_space_group_symop_operation_xyz
x,y,z
-x,1/2+y,-z
-x,-y,-z
x,1/2-y,z
loop_
_atom_site_type_symbol
_atom_site_label
_atom_site_fract_x
_atom_site_fract_y
_atom_site_fract_z
Si Si1 0.995774 0.957455 0.919321
Si Si2 0.106180 0.750000 0.902939
Si Si3 0.415802 0.750000 0.534391
Si Si4 0.536636 0.457768 0.414992
Si Si5 0.440216 0.250000 0.191783
Si Si6 0.108137 0.952241 0.344048
Si Si7 0.026455 0.750000 0.425198
Si Si8 0.614503 0.535264 0.816529
O O1 0.960399 0.844968 0.932428
O O2 0.290403 0.969951 0.856077
O O3 0.763665 0.988742 0.881215
O O4 0.000000 0.000000 0.000000
O O5 0.426450 0.750000 0.902837
O O6 0.236229 0.750000 0.808269
O O7 0.410935 0.845915 0.582250
O O8 0.702857 0.750000 0.467008
O O9 0.178178 0.750000 0.492156
O O10 0.500000 0.500000 0.500000
O O11 0.264779 0.482912 0.391675
O O12 0.799412 0.510029 0.359452
O O13 0.319488 0.146137 0.212521
O O14 0.103297 0.845394 0.375137
O O15 0.274694 0.967162 0.255646
#
# Coordination Sequence:
#
# PCOD9160543 Si02
#       8
#     4   2   2   4   2   4   2   4
#     4  10  19  36  58  82 113 148 189 230 283 340
#     4   8  16  30  51  79 100 144 178 216 278 340
#     4  12  24  38  65  87 116 148 208 242 294 344
#     4  12  23  41  60  89 112 154 200 250 281 352
#     4   8  16  32  53  71 110 140 178 220 288 338
#     4  12  24  40  62  85 123 155 199 243 300 343
#     4  12  22  40  61  83 116 168 190 234 294 366
#     4  10  21  36  56  85 113 149 186 238 287 345
#
# _framework density 19.267951
#
# number of rings (size 3 to 8) (size 9 to 14) (size 15 to 20)
#    0.000    1.333    3.333    3.000    0.000    1.333 
#    0.000    3.333    0.000    0.000    0.000    0.000 
#    0.000    0.000    0.000    0.000    0.000    0.000 
#
# Total GULP energy -133677.573150 kJ/mol
# GULP energy per Si atom -5569.898881 kJ/mol
# Density = 1.922410 g / cm^3
# Si number density = 19.267951 Si / 1000 Ang^3
#
#
#
# Elastic Constant Matrix: (Units=GPa)
#
#
# Indices 1 2 3 4 5 6 
#
# 1 40.2793 -5.5697 -22.8080 0.0000 -2.6171 0.0000
# 2 -5.5697 98.2149 9.1144 0.0000 1.0114 0.0000
# 3 -22.8080 9.1144 31.8785 0.0000 -3.5396 0.0000
# 4 0.0000 0.0000 0.0000 13.8914 0.0000 -1.3305
# 5 -2.6171 1.0114 -3.5396 0.0000 24.4924 0.0000
# 6 0.0000 0.0000 0.0000 -1.3305 0.0000 23.1064
#
#
#
# Elastic Compliance Matrix: (Units=1/GPa)
#
#
# Indices 1 2 3 4 5 6 
#
# 1 0.043782 -0.000635 0.032551 0.000000 0.009409 0.000000
# 2 -0.000635 0.010487 -0.003565 0.000000 -0.001016 0.000000
# 3 0.032551 -0.003565 0.056995 0.000000 0.011862 0.000000
# 4 0.000000 0.000000 0.000000 0.072386 0.000000 0.004168
# 5 0.009409 -0.001016 0.011862 0.000000 0.043591 0.000000
# 6 0.000000 0.000000 0.000000 0.004168 0.000000 0.043518
#
#
# Mechanical properties :
#
#
# Convention : Reuss Voigt Hill
#
# Bulk Modulus (GPa) = 5.95360 14.64955 10.30157
# Shear Modulus (GPa) = 18.51537 24.94044 21.72790
#
# Velocity S-wave (km/s) = 3.10327 3.60168 3.36172
# Velocity P-wave (km/s) = 3.99211 4.99156 4.51955
#
# Compressibility (1/GPa) = 0.16796550
#
# Stress axis : x y z
#
# Youngs Moduli (GPa) = 22.84039 95.35538 17.54547
#
# Poissons Ratio (x) = 0.06053 -0.57112
# Poissons Ratio (y) = 0.01450 0.06256
# Poissons Ratio (z) = -0.74347 0.33997
#
# Static dielectric constant tensor:
#      x y z
#    x 1.706260 0.000000 0.044350 
#    y 0.000000 1.682560 0.000000 
#    z 0.044350 0.000000 1.693670 
# 
# From -- ./inp_files/45670.got.cif
#   From: 2010.05.17/outbox.cif.g08.bks.cpg/sg11_23_cif.got.tgz:45670.got - 2010.06.03 12:22:45.
