data_PCOD9160989
_publ_section_title
;
Structure prediction by ZEFSAII (Michael W. Deem and Ramdas Pophale) SiO2 
 PCOD9160989
Probable space group: P 21/M
;
_chemical_formula_sum "Si O2"
_cell_formula_units_Z 32
_cell_length_a 8.857052
_cell_length_b 14.942498
_cell_length_c 22.847381
_cell_angle_alpha 90.000000
_cell_angle_beta 39.165785
_cell_angle_gamma 90.000000
_cell_volume 1909.711908
_symmetry_space_group_name_H-M "P 21/M"
_symmetry_group_IT_number 11
_symmetry_cell_setting 'monoclinic'
loop_
_space_group_symop_operation_xyz
x,y,z
-x,1/2+y,-z
-x,-y,-z
x,1/2-y,z
loop_
_atom_site_type_symbol
_atom_site_label
_atom_site_fract_x
_atom_site_fract_y
_atom_site_fract_z
Si Si1 0.884992 0.092848 0.603985
Si Si2 0.837477 0.480266 0.743674
Si Si3 0.353147 0.349844 0.768266
Si Si4 0.300935 0.092847 0.396015
Si Si5 0.187825 0.980266 0.743674
Si Si6 0.426215 0.349844 0.231733
Si Si7 0.040614 0.856138 0.891360
Si Si8 0.606054 0.856138 0.108640
O O1 0.939266 0.068757 0.655008
O O2 0.641902 0.149486 0.675508
O O3 0.110379 0.128549 0.500000
O O4 0.803865 0.000001 0.598065
O O5 0.715276 0.572768 0.759043
O O6 0.626890 0.416391 0.830917
O O7 0.035684 0.500000 0.732157
O O8 0.262691 0.250000 0.782520
O O9 0.248552 0.427233 0.759042
O O10 0.309368 0.371997 0.849773
O O11 0.559302 0.068759 0.344993
O O12 0.343938 0.149485 0.324492
O O13 0.049441 0.916391 0.830917
O O14 0.392772 0.250000 0.217481
O O15 0.708463 0.371997 0.150227
O O16 0.036241 0.750000 0.878353
O O17 0.816721 0.876382 1.000000
O O18 0.549656 0.750000 0.121647
#
# Coordination Sequence:
#
# PCOD9160989 Si02
#       8
#     4   4   4   4   4   4   4   4
#     4   8  15  30  50  69  91 123 163 201 234 274
#     4  10  20  31  47  74 105 133 157 192 247 303
#     4   9  18  32  50  71  94 125 166 206 243 287
#     4   8  15  30  50  69  91 123 163 201 234 274
#     4  10  20  31  47  74 105 133 157 192 247 303
#     4   9  18  32  50  71  94 125 166 206 243 287
#     4   9  18  34  54  72  92 124 168 212 247 284
#     4   9  18  34  54  72  92 124 168 212 247 284
#
# _framework density 16.756454000000002
#
# number of rings (size 3 to 8) (size 9 to 14) (size 15 to 20)
#    0.000    3.000    0.000    2.250    0.000    4.500 
#    0.000    0.000    0.000    3.000    0.000    7.000 
#    0.000    0.000    0.000    0.000    0.000    0.000 
#
# Total GULP energy -178251.283969 kJ/mol
# GULP energy per Si atom -5570.352624 kJ/mol
# Density = 1.671832 g / cm^3
# Si number density = 16.756454 Si / 1000 Ang^3
#
#
#
# Elastic Constant Matrix: (Units=GPa)
#
#
# Indices 1 2 3 4 5 6 
#
# 1 112.9408 38.1051 51.5287 0.0000 3.1068 0.0000
# 2 38.1051 57.0580 26.7566 0.0000 0.7744 0.0000
# 3 51.5287 26.7566 128.7551 0.0000 -4.1873 0.0000
# 4 0.0000 0.0000 0.0000 12.6944 0.0000 -0.1392
# 5 3.1068 0.7744 -4.1873 0.0000 8.4398 0.0000
# 6 0.0000 0.0000 0.0000 -0.1392 0.0000 10.6596
#
#
#
# Elastic Compliance Matrix: (Units=1/GPa)
#
#
# Indices 1 2 3 4 5 6 
#
# 1 0.013176 -0.006811 -0.004061 0.000000 -0.006240 0.000000
# 2 -0.006811 0.023062 -0.002088 0.000000 -0.000645 0.000000
# 3 -0.004061 -0.002088 0.010043 0.000000 0.006669 0.000000
# 4 0.000000 0.000000 0.000000 0.078786 0.000000 0.001029
# 5 -0.006240 -0.000645 0.006669 0.000000 0.124151 0.000000
# 6 0.000000 0.000000 0.000000 0.001029 0.000000 0.093826
#
#
# Mechanical properties :
#
#
# Convention : Reuss Voigt Hill
#
# Bulk Modulus (GPa) = 49.10995 59.05941 54.08468
# Shear Modulus (GPa) = 13.30672 18.51634 15.91153
#
# Velocity S-wave (km/s) = 2.82108 3.32780 3.08486
# Velocity P-wave (km/s) = 6.32321 7.07729 6.71085
#
# Compressibility (1/GPa) = 0.02036247
#
# Stress axis : x y z
#
# Youngs Moduli (GPa) = 75.89280 43.36096 99.57518
#
# Poissons Ratio (x) = 0.29532 0.40437
# Poissons Ratio (y) = 0.51688 0.20790
# Poissons Ratio (z) = 0.30820 0.09053
#
# Static dielectric constant tensor:
#      x y z
#    x 1.526060 0.000000 -0.003550 
#    y 0.000000 1.574130 0.000000 
#    z -0.003550 0.000000 1.578050 
# 
# From -- ./inp_files/22174.got.cif
#   From: 2010.05.17/outbox.cif.g08.bks.cpg/sg11_12_cif.got.tgz:22174.got - 2010.06.03 12:22:45.
