data_PCOD9160152
_publ_section_title
;
Structure prediction by ZEFSAII (Michael W. Deem and Ramdas Pophale) SiO2 
 PCOD9160152
Probable space group: P 21/M
;
_chemical_formula_sum "Si O2"
_cell_formula_units_Z 32
_cell_length_a 9.252894
_cell_length_b 15.290954
_cell_length_c 11.543288
_cell_angle_alpha 90.000000
_cell_angle_beta 88.290440
_cell_angle_gamma 90.000000
_cell_volume 1632.481810
_symmetry_space_group_name_H-M "P 21/M"
_symmetry_group_IT_number 11
_symmetry_cell_setting 'monoclinic'
loop_
_space_group_symop_operation_xyz
x,y,z
-x,1/2+y,-z
-x,-y,-z
x,1/2-y,z
loop_
_atom_site_type_symbol
_atom_site_label
_atom_site_fract_x
_atom_site_fract_y
_atom_site_fract_z
Si Si1 0.682444 0.853477 0.429540
Si Si2 0.649096 0.350642 0.631524
Si Si3 0.538361 0.422051 0.087711
Si Si4 0.739372 0.151233 0.890220
Si Si5 0.943076 0.510708 0.837823
Si Si6 0.147407 0.011359 0.423715
Si Si7 0.735668 0.949929 0.192624
Si Si8 0.752091 0.649044 0.959067
O O1 0.715002 0.750000 0.436735
O O2 0.509137 0.862791 0.419472
O O3 0.754471 0.910479 0.528714
O O4 0.742977 0.897005 0.310625
O O5 0.694869 0.250000 0.609029
O O6 0.646792 0.360560 0.772802
O O7 0.759727 0.421695 0.579363
O O8 0.616324 0.472960 0.190023
O O9 0.388600 0.373757 0.115690
O O10 0.500000 0.500000 0.000000
O O11 0.645285 0.362837 0.008123
O O12 0.797217 0.250000 0.886247
O O13 0.861080 0.077243 0.880695
O O14 0.896009 0.527871 0.707438
O O15 0.883861 0.589628 0.915328
O O16 0.112675 0.496166 0.836759
O O17 0.000000 0.000000 0.500000
O O18 0.709952 0.881183 0.089561
O O19 0.785600 0.750000 0.954256
#
# Coordination Sequence:
#
# PCOD9160152 Si02
#       8
#     4   4   4   4   4   4   4   4
#     4  11  23  40  66  96 119 154 211 262 308 364
#     4   9  20  38  64  95 119 153 208 260 305 359
#     4  10  19  35  59  85 124 163 198 248 300 364
#     4  10  19  34  60  91 124 160 200 251 306 363
#     4  11  23  41  60  88 126 163 204 247 307 372
#     4  11  23  42  63  86 124 167 200 253 315 363
#     4  11  22  39  63  91 127 158 201 257 307 357
#     4  11  23  39  62  92 125 164 203 248 304 366
#
# _framework density 19.602058
#
# number of rings (size 3 to 8) (size 9 to 14) (size 15 to 20)
#    0.000    1.500    3.750    3.000    1.750    3.000 
#    0.000    0.625    0.000    0.750    0.000    0.000 
#    0.000    0.000    0.000    0.000    0.000    0.000 
#
# Total GULP energy -178735.553895 kJ/mol
# GULP energy per Si atom -5585.486059 kJ/mol
# Density = 1.955744 g / cm^3
# Si number density = 19.602058 Si / 1000 Ang^3
#
#
#
# Elastic Constant Matrix: (Units=GPa)
#
#
# Indices 1 2 3 4 5 6 
#
# 1 61.2562 41.1173 10.2540 0.0000 5.1102 0.0000
# 2 41.1173 140.3889 40.7690 0.0000 4.4776 0.0000
# 3 10.2540 40.7690 50.3841 0.0000 2.5743 0.0000
# 4 0.0000 0.0000 0.0000 30.7730 0.0000 -4.4549
# 5 5.1102 4.4776 2.5743 0.0000 29.3188 0.0000
# 6 0.0000 0.0000 0.0000 -4.4549 0.0000 -0.1475
#
#
#
# Elastic Compliance Matrix: (Units=1/GPa)
#
#
# Indices 1 2 3 4 5 6 
#
# 1 0.020563 -0.006223 0.000990 0.000000 -0.002721 0.000000
# 2 -0.006223 0.011211 -0.007808 0.000000 0.000058 0.000000
# 3 0.000990 -0.007808 0.026029 0.000000 -0.001265 0.000000
# 4 0.000000 0.000000 0.000000 0.006048 0.000000 -0.182692
# 5 -0.002721 0.000058 -0.001265 0.000000 0.034684 0.000000
# 6 0.000000 0.000000 0.000000 -0.182692 0.000000 -1.261979
#
#
# Mechanical properties :
#
#
# Convention : Reuss Voigt Hill
#
# Bulk Modulus (GPa) = 31.52584 48.47888 40.00236
# Shear Modulus (GPa) = -4.43740 22.64811 9.10536
#
# Velocity S-wave (km/s) = -1.50621 3.40280 2.15759
# Velocity P-wave (km/s) = 3.61842 6.34223 5.16318
#
# Compressibility (1/GPa) = 0.03172001
#
# Stress axis : x y z
#
# Youngs Moduli (GPa) = 48.62993 89.19453 38.41866
#
# Poissons Ratio (x) = 0.55508 -0.03802
# Poissons Ratio (y) = 0.30264 0.29999
# Poissons Ratio (z) = -0.04813 0.69646
#
# Static dielectric constant tensor:
#      x y z
#    x 1.734160 0.000000 0.014850 
#    y 0.000000 1.539000 0.000000 
#    z 0.014850 0.000000 1.703180 
# 
# From -- ./inp_files/27773.got.cif
#   From: 2010.05.17/outbox.cif.g08.bks.cpg/sg11_14_cif.got.tgz:27773.got - 2010.06.03 12:22:45.
