data_PCOD9160453
_publ_section_title
;
Structure prediction by ZEFSAII (Michael W. Deem and Ramdas Pophale) SiO2 
 PCOD9160453
Probable space group: P 21/M
;
_chemical_formula_sum "Si O2"
_cell_formula_units_Z 24
_cell_length_a 21.123222
_cell_length_b 11.789005
_cell_length_c 5.184292
_cell_angle_alpha 90.000000
_cell_angle_beta 90.960002
_cell_angle_gamma 90.000000
_cell_volume 1290.820357
_symmetry_space_group_name_H-M "P 21/M"
_symmetry_group_IT_number 11
_symmetry_cell_setting 'monoclinic'
loop_
_space_group_symop_operation_xyz
x,y,z
-x,1/2+y,-z
-x,-y,-z
x,1/2-y,z
loop_
_atom_site_type_symbol
_atom_site_label
_atom_site_fract_x
_atom_site_fract_y
_atom_site_fract_z
Si Si1 0.255451 0.750000 0.821952
Si Si2 0.632746 0.412712 0.288374
Si Si3 0.937976 0.614045 0.246299
Si Si4 0.916400 0.031377 0.746981
Si Si5 0.172714 0.750000 0.315891
Si Si6 0.578053 0.876163 0.470434
Si Si7 0.556193 0.085684 0.778025
O O1 0.301043 0.857304 0.773154
O O2 0.200263 0.750000 0.606454
O O3 0.228224 0.750000 0.107067
O O4 0.630645 0.548342 0.329528
O O5 0.603079 0.371157 0.555999
O O6 0.583825 0.385889 0.055701
O O7 0.927878 0.750000 0.242026
O O8 0.912770 0.551699 0.500639
O O9 0.013529 0.588049 0.245033
O O10 0.909966 0.547277 0.998752
O O11 0.868089 0.135985 0.729557
O O12 0.597363 0.750000 0.531527
O O13 0.514428 0.877329 0.293288
O O14 0.559291 0.950208 0.720427
#
# Coordination Sequence:
#
# PCOD9160453 Si02
#       7
#     2   4   4   4   2   4   4
#     4  12  26  38  66  76 118 164 210 248 289 327
#     4  10  21  38  52  82 107 147 193 241 280 357
#     4  10  19  35  60  96 128 166 186 239 321 360
#     4  10  21  35  60  90 132 157 203 248 287 374
#     4  12  24  44  60  94 114 172 206 260 285 341
#     4   9  20  33  57  83 112 146 173 239 309 378
#     4   9  20  34  52  83 116 138 178 230 310 363
#
# _framework density 18.592825999999999
#
# number of rings (size 3 to 8) (size 9 to 14) (size 15 to 20)
#    1.000    1.000    0.833    3.000    2.333    0.667 
#    0.000    0.000    0.000    6.000    0.000    0.000 
#    0.000    0.000    0.000    0.000    0.000    0.000 
#
# Total GULP energy -133801.490831 kJ/mol
# GULP energy per Si atom -5575.062118 kJ/mol
# Density = 1.855051 g / cm^3
# Si number density = 18.592826 Si / 1000 Ang^3
#
#
#
# Elastic Constant Matrix: (Units=GPa)
#
#
# Indices 1 2 3 4 5 6 
#
# 1 35.2790 22.3080 -5.8560 0.0000 -1.1930 0.0000
# 2 22.3080 174.7685 19.9354 0.0000 1.8523 0.0000
# 3 -5.8560 19.9354 81.7995 0.0000 1.6138 0.0000
# 4 0.0000 0.0000 0.0000 6.4409 0.0000 -7.9502
# 5 -1.1930 1.8523 1.6138 0.0000 22.3613 0.0000
# 6 0.0000 0.0000 0.0000 -7.9502 0.0000 35.1408
#
#
#
# Elastic Compliance Matrix: (Units=1/GPa)
#
#
# Indices 1 2 3 4 5 6 
#
# 1 0.031776 -0.004455 0.003324 0.000000 0.001824 0.000000
# 2 -0.004455 0.006513 -0.001894 0.000000 -0.000641 0.000000
# 3 0.003324 -0.001894 0.012936 0.000000 -0.000599 0.000000
# 4 0.000000 0.000000 0.000000 0.215413 0.000000 0.048735
# 5 0.001824 -0.000641 -0.000599 0.000000 0.044914 0.000000
# 6 0.000000 0.000000 0.000000 0.048735 0.000000 0.039483
#
#
# Mechanical properties :
#
#
# Convention : Reuss Voigt Hill
#
# Bulk Modulus (GPa) = 22.13470 40.51355 31.32412
# Shear Modulus (GPa) = 13.43574 29.81923 21.62748
#
# Velocity S-wave (km/s) = 2.69110 4.00910 3.41430
# Velocity P-wave (km/s) = 4.64616 6.57781 5.69449
#
# Compressibility (1/GPa) = 0.04517793
#
# Stress axis : x y z
#
# Youngs Moduli (GPa) = 31.47057 153.53362 77.30168
#
# Poissons Ratio (x) = 0.68392 -0.25698
# Poissons Ratio (y) = 0.14019 0.14638
# Poissons Ratio (z) = -0.10462 0.29073
#
# Static dielectric constant tensor:
#      x y z
#    x 1.610740 0.000000 -0.006590 
#    y 0.000000 1.920640 0.000000 
#    z -0.006590 0.000000 1.656530 
# 
# From -- ./inp_files/7704.got.cif
#   From: 2010.05.17/outbox.cif.g08.bks.cpg/sg11_4_cif.got.tgz:7704.got - 2010.06.03 12:22:45.
