data_PCOD9160741
_publ_section_title
;
Structure prediction by ZEFSAII (Michael W. Deem and Ramdas Pophale) SiO2 
 PCOD9160741
Probable space group: P 21/M
;
_chemical_formula_sum "Si O2"
_cell_formula_units_Z 32
_cell_length_a 29.531230
_cell_length_b 8.269291
_cell_length_c 12.669366
_cell_angle_alpha 90.000000
_cell_angle_beta 30.186145
_cell_angle_gamma 90.000000
_cell_volume 1555.641103
_symmetry_space_group_name_H-M "P 21/M"
_symmetry_group_IT_number 11
_symmetry_cell_setting 'monoclinic'
loop_
_space_group_symop_operation_xyz
x,y,z
-x,1/2+y,-z
-x,-y,-z
x,1/2-y,z
loop_
_atom_site_type_symbol
_atom_site_label
_atom_site_fract_x
_atom_site_fract_y
_atom_site_fract_z
Si Si1 0.859760 0.441524 0.565011
Si Si2 0.231769 0.945726 0.856909
Si Si3 0.471683 0.065082 0.670775
Si Si4 0.966831 0.059565 0.681238
Si Si5 0.512445 0.440231 0.137950
Si Si6 0.679014 0.943307 0.539099
Si Si7 0.713492 0.443306 0.691103
Si Si8 0.292298 0.559384 0.963996
O O1 0.874557 0.250000 0.518615
O O2 0.792939 0.503307 0.607660
O O3 0.955395 0.522860 0.390673
O O4 0.803684 0.459050 0.786837
O O5 0.231606 0.750000 0.848068
O O6 0.287460 0.984018 0.851068
O O7 0.274355 0.016101 0.665588
O O8 0.130027 0.004776 0.085314
O O9 0.499412 0.250000 0.628015
O O10 0.500000 0.000000 0.500000
O O11 0.506255 0.964469 0.700130
O O12 0.364113 0.044501 0.882586
O O13 0.954929 0.250000 0.694024
O O14 0.000000 0.000000 0.500000
O O15 0.516563 0.250000 0.105777
O O16 0.424786 0.507220 0.254965
O O17 0.612261 0.510071 0.916866
O O18 0.676798 0.750000 0.556754
O O19 0.729665 0.020913 0.536068
O O20 0.709263 0.250000 0.719176
O O21 0.317222 0.750000 0.924067
#
# Coordination Sequence:
#
# PCOD9160741 Si02
#       8
#     4   4   4   4   4   4   4   4
#     4  10  20  38  63  91 119 153 194 239 297 355
#     4  10  22  40  61  85 119 161 198 237 298 364
#     4  12  24  35  52  82 119 159 200 243 294 353
#     4  11  22  38  62  92 123 157 197 245 298 360
#     4  10  21  40  61  85 117 156 200 248 298 350
#     4  11  24  39  60  89 120 153 202 257 294 342
#     4  10  21  40  65  86 119 163 198 239 298 363
#     4  10  19  37  60  83 118 155 192 238 294 360
#
# _framework density 20.570298000000001
#
# number of rings (size 3 to 8) (size 9 to 14) (size 15 to 20)
#    0.000    1.500    2.500    3.000    0.000    6.000 
#    0.000    0.625    0.000    0.000    0.000    0.000 
#    0.000    0.000    0.000    0.000    0.000    0.000 
#
# Total GULP energy -178766.056234 kJ/mol
# GULP energy per Si atom -5586.439257 kJ/mol
# Density = 2.052348 g / cm^3
# Si number density = 20.570298 Si / 1000 Ang^3
#
#
#
# Elastic Constant Matrix: (Units=GPa)
#
#
# Indices 1 2 3 4 5 6 
#
# 1 125.9120 0.0386 32.1000 0.0000 2.3919 0.0000
# 2 0.0386 10.4764 4.1176 0.0000 -6.7534 0.0000
# 3 32.1000 4.1176 57.9711 0.0000 -6.2557 0.0000
# 4 0.0000 0.0000 0.0000 21.6481 0.0000 -0.4338
# 5 2.3919 -6.7534 -6.2557 0.0000 32.9061 0.0000
# 6 0.0000 0.0000 0.0000 -0.4338 0.0000 27.1139
#
#
#
# Elastic Compliance Matrix: (Units=1/GPa)
#
#
# Indices 1 2 3 4 5 6 
#
# 1 0.009351 0.001144 -0.005418 0.000000 -0.001475 0.000000
# 2 0.001144 0.111885 -0.006240 0.000000 0.021693 0.000000
# 3 -0.005418 -0.006240 0.021029 0.000000 0.003111 0.000000
# 4 0.000000 0.000000 0.000000 0.046208 0.000000 0.000739
# 5 -0.001475 0.021693 0.003111 0.000000 0.035540 0.000000
# 6 0.000000 0.000000 0.000000 0.000739 0.000000 0.036893
#
#
# Mechanical properties :
#
#
# Convention : Reuss Voigt Hill
#
# Bulk Modulus (GPa) = 8.24829 29.65244 18.95037
# Shear Modulus (GPa) = 15.51125 26.87386 21.19256
#
# Velocity S-wave (km/s) = 2.74900 3.61839 3.21323
# Velocity P-wave (km/s) = 3.75426 5.64832 4.79573
#
# Compressibility (1/GPa) = 0.12123724
#
# Stress axis : x y z
#
# Youngs Moduli (GPa) = 106.93960 8.93777 47.55303
#
# Poissons Ratio (x) = -0.01023 0.25766
# Poissons Ratio (y) = -0.12238 0.29672
# Poissons Ratio (z) = 0.57944 0.05577
#
# Static dielectric constant tensor:
#      x y z
#    x 1.737520 0.000000 -0.022170 
#    y 0.000000 1.723900 0.000000 
#    z -0.022170 0.000000 1.777580 
# 
# From -- ./inp_files/38102.got.cif
#   From: 2010.05.17/outbox.cif.g08.bks.cpg/sg11_20_cif.got.tgz:38102.got - 2010.06.03 12:22:45.
