data_PCOD9160802
_publ_section_title
;
Structure prediction by ZEFSAII (Michael W. Deem and Ramdas Pophale) SiO2 
 PCOD9160802
Probable space group: P 21/M
;
_chemical_formula_sum "Si O2"
_cell_formula_units_Z 28
_cell_length_a 27.920675
_cell_length_b 8.528345
_cell_length_c 9.662971
_cell_angle_alpha 90.000000
_cell_angle_beta 40.985035
_cell_angle_gamma 90.000000
_cell_volume 1509.085142
_symmetry_space_group_name_H-M "P 21/M"
_symmetry_group_IT_number 11
_symmetry_cell_setting 'monoclinic'
loop_
_space_group_symop_operation_xyz
x,y,z
-x,1/2+y,-z
-x,-y,-z
x,1/2-y,z
loop_
_atom_site_type_symbol
_atom_site_label
_atom_site_fract_x
_atom_site_fract_y
_atom_site_fract_z
Si Si1 0.323778 0.573280 0.629722
Si Si2 0.298185 0.939771 0.133956
Si Si3 0.930760 0.562686 0.063195
Si Si4 0.195895 0.926620 0.132615
Si Si5 0.240066 0.438092 0.545082
Si Si6 0.939684 0.059985 0.735918
Si Si7 0.581267 0.563548 0.342697
O O1 0.346520 0.750000 0.541214
O O2 0.282042 0.495368 0.591817
O O3 0.388233 0.486183 0.571925
O O4 0.263763 0.585145 0.881742
O O5 0.298429 0.750000 0.130785
O O6 0.226868 0.999834 0.204135
O O7 0.286695 0.999563 0.313415
O O8 0.367183 0.996834 0.893369
O O9 0.930303 0.750000 0.078435
O O10 0.845913 0.508355 0.276864
O O11 0.946329 0.511884 0.872257
O O12 0.000000 0.500000 0.000000
O O13 0.170313 0.750000 0.223906
O O14 0.133648 0.001661 0.177668
O O15 0.239178 0.250000 0.546889
O O16 0.938630 0.250000 0.750638
O O17 0.000000 0.000000 0.500000
O O18 0.500000 0.500000 0.500000
O O19 0.582887 0.750000 0.330149
#
# Coordination Sequence:
#
# PCOD9160802 Si02
#       7
#     4   4   4   4   4   4   4
#     4  10  19  37  63  89 116 156 200 239 292 356
#     4  10  21  38  61  90 120 158 202 242 293 357
#     4  11  25  42  59  84 118 159 205 255 310 363
#     4   8  17  34  56  80 108 146 194 241 291 349
#     4  11  23  39  59  89 123 157 201 254 304 357
#     4  11  22  38  57  83 114 151 197 250 304 359
#     4  11  22  40  65  95 128 160 196 243 292 349
#
# _framework density 18.554286999999999
#
# number of rings (size 3 to 8) (size 9 to 14) (size 15 to 20)
#    0.000    1.714    1.429    4.286    2.000    1.714 
#    0.000    2.143    0.000    0.000    0.000    0.000 
#    0.000    0.000    0.000    0.000    0.000    0.000 
#
# Total GULP energy -156019.202855 kJ/mol
# GULP energy per Si atom -5572.114388 kJ/mol
# Density = 1.851206 g / cm^3
# Si number density = 18.554287 Si / 1000 Ang^3
#
#
#
# Elastic Constant Matrix: (Units=GPa)
#
#
# Indices 1 2 3 4 5 6 
#
# 1 153.1458 46.3820 66.7441 0.0000 -10.0735 0.0000
# 2 46.3820 88.7399 31.0060 0.0000 -3.0493 0.0000
# 3 66.7441 31.0060 86.5066 0.0000 3.5828 0.0000
# 4 0.0000 0.0000 0.0000 27.1775 0.0000 3.0691
# 5 -10.0735 -3.0493 3.5828 0.0000 30.8309 0.0000
# 6 0.0000 0.0000 0.0000 3.0691 0.0000 30.7203
#
#
#
# Elastic Compliance Matrix: (Units=1/GPa)
#
#
# Indices 1 2 3 4 5 6 
#
# 1 0.011020 -0.002954 -0.007617 0.000000 0.004194 0.000000
# 2 -0.002954 0.013777 -0.002688 0.000000 0.000710 0.000000
# 3 -0.007617 -0.002688 0.018604 0.000000 -0.004917 0.000000
# 4 0.000000 0.000000 0.000000 0.037215 0.000000 -0.003718
# 5 0.004194 0.000710 -0.004917 0.000000 0.034447 0.000000
# 6 0.000000 0.000000 0.000000 -0.003718 0.000000 0.032923
#
#
# Mechanical properties :
#
#
# Convention : Reuss Voigt Hill
#
# Bulk Modulus (GPa) = 59.23584 68.51736 63.87660
# Shear Modulus (GPa) = 27.75743 30.02975 28.89359
#
# Velocity S-wave (km/s) = 3.87203 4.02740 3.95048
# Velocity P-wave (km/s) = 7.21007 7.65734 7.43707
#
# Compressibility (1/GPa) = 0.01688167
#
# Stress axis : x y z
#
# Youngs Moduli (GPa) = 90.74308 72.58713 53.75184
#
# Poissons Ratio (x) = 0.21444 0.40945
# Poissons Ratio (y) = 0.26808 0.14448
# Poissons Ratio (z) = 0.69122 0.19510
#
# Static dielectric constant tensor:
#      x y z
#    x 1.667110 0.000000 -0.035850 
#    y 0.000000 1.665170 0.000000 
#    z -0.035850 0.000000 1.446020 
# 
# From -- ./inp_files/28326.got.cif
#   From: 2010.05.17/outbox.cif.g08.bks.cpg/sg11_15_cif.got.tgz:28326.got - 2010.06.03 12:22:45.
