data_PCOD9160796
_publ_section_title
;
Structure prediction by ZEFSAII (Michael W. Deem and Ramdas Pophale) SiO2 
 PCOD9160796
Probable space group: P 21/M
;
_chemical_formula_sum "Si O2"
_cell_formula_units_Z 28
_cell_length_a 27.151187
_cell_length_b 7.776578
_cell_length_c 10.279751
_cell_angle_alpha 90.000000
_cell_angle_beta 141.390593
_cell_angle_gamma 90.000000
_cell_volume 1354.409642
_symmetry_space_group_name_H-M "P 21/M"
_symmetry_group_IT_number 11
_symmetry_cell_setting 'monoclinic'
loop_
_space_group_symop_operation_xyz
x,y,z
-x,1/2+y,-z
-x,-y,-z
x,1/2-y,z
loop_
_atom_site_type_symbol
_atom_site_label
_atom_site_fract_x
_atom_site_fract_y
_atom_site_fract_z
Si Si1 0.743606 0.547428 0.957401
Si Si2 0.432533 0.457241 0.463767
Si Si3 0.144985 0.460320 0.042864
Si Si4 0.433629 0.043272 0.758747
Si Si5 0.810139 0.452925 0.371700
Si Si6 0.264759 0.042179 0.515021
Si Si7 0.018373 0.542813 0.187849
O O1 0.737615 0.750000 0.914874
O O2 0.807118 0.478123 0.984503
O O3 0.774877 0.528410 0.167432
O O4 0.654854 0.477681 0.756202
O O5 0.500000 0.500000 0.500000
O O6 0.429097 0.250000 0.460477
O O7 0.450758 0.519292 0.647895
O O8 0.142991 0.250000 0.036060
O O9 0.055162 0.518641 0.876614
O O10 0.195273 0.511505 0.273600
O O11 0.428496 0.250000 0.741209
O O12 0.348361 0.980763 0.632036
O O13 0.500000 0.000000 0.000000
O O14 0.817701 0.250000 0.365317
O O15 0.753743 0.482477 0.378376
O O16 0.896615 0.523219 0.589765
O O17 0.265691 0.250000 0.517595
O O18 0.021061 0.750000 0.201261
O O19 0.000000 0.500000 0.000000
#
# Coordination Sequence:
#
# PCOD9160796 Si02
#       7
#     4   4   4   4   4   4   4
#     4  10  21  40  62  82 109 153 199 232 273 340
#     4  10  22  40  60  84 114 148 188 233 282 336
#     4   9  17  35  63  84 105 146 195 237 275 328
#     4  10  22  39  60  88 116 145 189 238 283 336
#     4  11  24  37  53  87 125 150 182 237 291 336
#     4  10  19  37  63  84 108 151 199 234 273 336
#     4  10  20  35  57  85 116 148 187 235 288 338
#
# _framework density 20.673211999999999
#
# number of rings (size 3 to 8) (size 9 to 14) (size 15 to 20)
#    0.000    2.000    2.857    0.429    2.000    2.857 
#    0.000    1.429    0.000    0.000    0.000    0.000 
#    0.000    0.000    0.000    0.000    0.000    0.000 
#
# Total GULP energy -156387.702283 kJ/mol
# GULP energy per Si atom -5585.275082 kJ/mol
# Density = 2.062616 g / cm^3
# Si number density = 20.673212 Si / 1000 Ang^3
#
#
#
# Elastic Constant Matrix: (Units=GPa)
#
#
# Indices 1 2 3 4 5 6 
#
# 1 198.2531 2.5907 83.3112 0.0000 -1.7422 0.0000
# 2 2.5907 26.3594 -2.1981 0.0000 6.0578 0.0000
# 3 83.3112 -2.1981 132.4198 0.0000 -4.8065 0.0000
# 4 0.0000 0.0000 0.0000 11.8019 0.0000 4.3697
# 5 -1.7422 6.0578 -4.8065 0.0000 35.3868 0.0000
# 6 0.0000 0.0000 0.0000 4.3697 0.0000 15.2853
#
#
#
# Elastic Compliance Matrix: (Units=1/GPa)
#
#
# Indices 1 2 3 4 5 6 
#
# 1 0.006885 -0.001022 -0.004352 0.000000 -0.000077 0.000000
# 2 -0.001022 0.039665 0.001058 0.000000 -0.006697 0.000000
# 3 -0.004352 0.001058 0.010344 0.000000 0.001010 0.000000
# 4 0.000000 0.000000 0.000000 0.094762 0.000000 -0.027090
# 5 -0.000077 -0.006697 0.001010 0.000000 0.029539 0.000000
# 6 0.000000 0.000000 0.000000 -0.027090 0.000000 0.073167
#
#
# Mechanical properties :
#
#
# Convention : Reuss Voigt Hill
#
# Bulk Modulus (GPa) = 20.71961 58.27110 39.49536
# Shear Modulus (GPa) = 17.91598 30.71670 24.31634
#
# Velocity S-wave (km/s) = 2.94705 3.85882 3.43333
# Velocity P-wave (km/s) = 4.65020 6.93555 5.90450
#
# Compressibility (1/GPa) = 0.04826346
#
# Stress axis : x y z
#
# Youngs Moduli (GPa) = 145.23424 25.21121 96.67633
#
# Poissons Ratio (x) = 0.02576 0.42071
# Poissons Ratio (y) = 0.14841 -0.10231
# Poissons Ratio (z) = 0.63201 -0.02668
#
# Static dielectric constant tensor:
#      x y z
#    x 1.725530 0.000000 0.022530 
#    y 0.000000 1.757390 0.000000 
#    z 0.022530 0.000000 1.707810 
# 
# From -- ./inp_files/28607.got.cif
#   From: 2010.05.17/outbox.cif.g08.bks.cpg/sg11_15_cif.got.tgz:28607.got - 2010.06.03 12:22:45.
