data_PCOD9160766
_publ_section_title
;
Structure prediction by ZEFSAII (Michael W. Deem and Ramdas Pophale) SiO2 
 PCOD9160766
Probable space group: P 21/M
;
_chemical_formula_sum "Si O2"
_cell_formula_units_Z 28
_cell_length_a 15.312776
_cell_length_b 7.831476
_cell_length_c 12.600829
_cell_angle_alpha 90.000000
_cell_angle_beta 48.646133
_cell_angle_gamma 90.000000
_cell_volume 1134.306131
_symmetry_space_group_name_H-M "P 21/M"
_symmetry_group_IT_number 11
_symmetry_cell_setting 'monoclinic'
loop_
_space_group_symop_operation_xyz
x,y,z
-x,1/2+y,-z
-x,-y,-z
x,1/2-y,z
loop_
_atom_site_type_symbol
_atom_site_label
_atom_site_fract_x
_atom_site_fract_y
_atom_site_fract_z
Si Si1 0.920223 0.557376 0.468449
Si Si2 0.966590 0.557431 0.820920
Si Si3 0.274988 0.447299 0.076607
Si Si4 0.351888 0.948097 0.799046
Si Si5 0.811832 0.459403 0.255593
Si Si6 0.655737 0.554301 0.755692
Si Si7 0.597543 0.052943 0.571793
O O1 0.948151 0.750000 0.411536
O O2 0.946023 0.436760 0.349644
O O3 0.791434 0.556527 0.616090
O O4 0.000000 0.500000 0.500000
O O5 0.935381 0.750000 0.880045
O O6 0.056308 0.476344 0.832950
O O7 0.848801 0.478327 0.865736
O O8 0.250064 0.250000 0.127340
O O9 0.341079 0.519537 0.127018
O O10 0.351562 0.454633 0.910185
O O11 0.333256 0.750000 0.838212
O O12 0.246932 0.008163 0.808409
O O13 0.475437 0.965816 0.641761
O O14 0.817513 0.250000 0.254207
O O15 0.715251 0.515344 0.421220
O O16 0.609728 0.750000 0.793362
O O17 0.605148 0.462528 0.693378
O O18 0.589352 0.250000 0.547755
#
# Coordination Sequence:
#
# PCOD9160766 Si02
#       7
#     4   4   4   4   4   4   4
#     4  11  20  32  54  87 122 157 193 237 294 351
#     4  10  19  37  61  88 121 155 191 241 296 349
#     4  10  22  40  60  85 121 162 197 233 288 354
#     4  11  24  42  60  83 119 159 201 247 291 344
#     4   9  20  38  63  91 118 151 192 245 302 348
#     4  10  21  37  58  88 122 154 191 241 296 348
#     4  11  22  39  65  91 114 150 198 246 301 355
#
# _framework density 24.684694
#
# number of rings (size 3 to 8) (size 9 to 14) (size 15 to 20)
#    0.000    1.714    2.857    1.714    0.000    2.857 
#    0.000    3.571    0.000    0.000    0.000    0.000 
#    0.000    0.000    0.000    0.000    0.000    0.000 
#
# Total GULP energy -156349.924737 kJ/mol
# GULP energy per Si atom -5583.925883 kJ/mol
# Density = 2.462851 g / cm^3
# Si number density = 24.684694 Si / 1000 Ang^3
#
#
#
# Elastic Constant Matrix: (Units=GPa)
#
#
# Indices 1 2 3 4 5 6 
#
# 1 39.8671 6.7345 0.3363 0.0000 9.0528 0.0000
# 2 6.7345 55.1642 1.2748 0.0000 -0.1086 0.0000
# 3 0.3363 1.2748 78.9092 0.0000 19.5891 0.0000
# 4 0.0000 0.0000 0.0000 21.8874 0.0000 -2.1778
# 5 9.0528 -0.1086 19.5891 0.0000 36.0399 0.0000
# 6 0.0000 0.0000 0.0000 -2.1778 0.0000 7.7088
#
#
#
# Elastic Compliance Matrix: (Units=1/GPa)
#
#
# Indices 1 2 3 4 5 6 
#
# 1 0.027447 -0.003411 0.001910 0.000000 -0.007943 0.000000
# 2 -0.003411 0.018560 -0.000592 0.000000 0.001234 0.000000
# 3 0.001910 -0.000592 0.014789 0.000000 -0.008520 0.000000
# 4 0.000000 0.000000 0.000000 0.047010 0.000000 0.013281
# 5 -0.007943 0.001234 -0.008520 0.000000 0.034377 0.000000
# 6 0.000000 0.000000 0.000000 0.013281 0.000000 0.133474
#
#
# Mechanical properties :
#
#
# Convention : Reuss Voigt Hill
#
# Bulk Modulus (GPa) = 17.66417 21.18129 19.42273
# Shear Modulus (GPa) = 16.73853 24.16688 20.45271
#
# Velocity S-wave (km/s) = 2.60685 3.13233 2.88159
# Velocity P-wave (km/s) = 4.02894 4.65632 4.35394
#
# Compressibility (1/GPa) = 0.05661178
#
# Stress axis : x y z
#
# Youngs Moduli (GPa) = 36.43392 53.87889 67.61639
#
# Poissons Ratio (x) = 0.18376 -0.12914
# Poissons Ratio (y) = 0.12426 0.04001
# Poissons Ratio (z) = -0.06959 0.03188
#
# Static dielectric constant tensor:
#      x y z
#    x 2.035910 0.000000 0.021500 
#    y 0.000000 1.937920 0.000000 
#    z 0.021500 0.000000 1.936910 
# 
# From -- ./inp_files/37843.got.cif
#   From: 2010.05.17/outbox.cif.g08.bks.cpg/sg11_19_cif.got.tgz:37843.got - 2010.06.03 12:22:45.
