data_PCOD9160429
_publ_section_title
;
Structure prediction by ZEFSAII (Michael W. Deem and Ramdas Pophale) SiO2 
 PCOD9160429
Probable space group: P 21/M
;
_chemical_formula_sum "Si O2"
_cell_formula_units_Z 24
_cell_length_a 11.443824
_cell_length_b 15.150917
_cell_length_c 13.896007
_cell_angle_alpha 90.000000
_cell_angle_beta 32.299373
_cell_angle_gamma 90.000000
_cell_volume 1287.420198
_symmetry_space_group_name_H-M "P 21/M"
_symmetry_group_IT_number 11
_symmetry_cell_setting 'monoclinic'
loop_
_space_group_symop_operation_xyz
x,y,z
-x,1/2+y,-z
-x,-y,-z
x,1/2-y,z
loop_
_atom_site_type_symbol
_atom_site_label
_atom_site_fract_x
_atom_site_fract_y
_atom_site_fract_z
Si Si1 0.480229 0.466844 0.708089
Si Si2 0.106292 0.443889 0.838722
Si Si3 0.654086 0.414117 0.905208
Si Si4 0.036935 0.968781 0.680261
Si Si5 0.677884 0.149984 0.107260
Si Si6 0.669217 0.848633 0.012180
O O1 0.353706 0.431716 0.701802
O O2 0.736607 0.448129 0.528225
O O3 0.439707 0.571895 0.750818
O O4 0.369287 0.416926 0.874713
O O5 0.096197 0.496219 0.745833
O O6 0.000000 0.500000 0.000000
O O7 0.938698 0.362937 0.943057
O O8 0.551282 0.350430 0.897974
O O9 0.897905 0.453141 0.726169
O O10 0.500000 0.500000 0.000000
O O11 0.635807 0.373359 0.024404
O O12 0.871966 0.886963 0.809379
O O13 0.611505 0.250000 0.175287
O O14 0.714625 0.750000 0.014742
#
# Coordination Sequence:
#
# PCOD9160429 Si02
#       6
#     4   4   4   4   4   4
#     4  11  21  37  60  86 121 149 188 244 294 340
#     4   9  17  37  58  83 111 154 185 232 290 338
#     4   9  17  38  59  79 111 154 189 237 290 333
#     4  10  20  37  63  83 113 151 195 236 291 340
#     4  10  19  35  60  85 114 157 196 235 289 348
#     4  11  22  38  58  83 117 156 195 236 287 345
#
# _framework density 18.641933000000002
#
# number of rings (size 3 to 8) (size 9 to 14) (size 15 to 20)
#    0.000    2.000    6.667    1.000    0.000    2.000 
#    0.000    4.167    0.000    2.000    0.000    0.000 
#    0.000    0.000    0.000    0.000    0.000    0.000 
#
# Total GULP energy -133672.669509 kJ/mol
# GULP energy per Si atom -5569.694563 kJ/mol
# Density = 1.859950 g / cm^3
# Si number density = 18.641933 Si / 1000 Ang^3
#
#
#
# Elastic Constant Matrix: (Units=GPa)
#
#
# Indices 1 2 3 4 5 6 
#
# 1 92.0299 16.8065 5.0152 0.0000 -23.9210 0.0000
# 2 16.8065 110.6002 25.0394 0.0000 -2.1323 0.0000
# 3 5.0152 25.0394 80.3724 0.0000 -25.5683 0.0000
# 4 0.0000 0.0000 0.0000 10.3653 0.0000 -2.9931
# 5 -23.9210 -2.1323 -25.5683 0.0000 24.0313 0.0000
# 6 0.0000 0.0000 0.0000 -2.9931 0.0000 10.3709
#
#
#
# Elastic Compliance Matrix: (Units=1/GPa)
#
#
# Indices 1 2 3 4 5 6 
#
# 1 0.018212 -0.004240 0.008816 0.000000 0.027133 0.000000
# 2 -0.004240 0.010922 -0.006307 0.000000 -0.009963 0.000000
# 3 0.008816 -0.006307 0.024898 0.000000 0.034706 0.000000
# 4 0.000000 0.000000 0.000000 0.105247 0.000000 0.030375
# 5 0.027133 -0.009963 0.034706 0.000000 0.104663 0.000000
# 6 0.000000 0.000000 0.000000 0.030375 0.000000 0.105190
#
#
# Mechanical properties :
#
#
# Convention : Reuss Voigt Hill
#
# Bulk Modulus (GPa) = 19.77491 41.85829 30.81660
# Shear Modulus (GPa) = 12.83857 24.69626 18.76742
#
# Velocity S-wave (km/s) = 2.62714 3.64369 3.17635
# Velocity P-wave (km/s) = 4.45346 6.34070 5.47895
#
# Compressibility (1/GPa) = 0.05056913
#
# Stress axis : x y z
#
# Youngs Moduli (GPa) = 54.90736 91.55987 40.16402
#
# Poissons Ratio (x) = 0.38825 -0.35409
# Poissons Ratio (y) = 0.23283 0.25333
# Poissons Ratio (z) = -0.48407 0.57750
#
# Static dielectric constant tensor:
#      x y z
#    x 1.692050 0.000000 -0.032470 
#    y 0.000000 1.660560 0.000000 
#    z -0.032470 0.000000 1.655500 
# 
# From -- ./inp_files/50322.got.cif
#   From: 2010.05.17/outbox.cif.g08.bks.cpg/sg11_26_cif.got.tgz:50322.got - 2010.06.03 12:22:45.
