data_PCOD9160622
_publ_section_title
;
Structure prediction by ZEFSAII (Michael W. Deem and Ramdas Pophale) SiO2 
 PCOD9160622
Probable space group: P 21/M
;
_chemical_formula_sum "Si O2"
_cell_formula_units_Z 32
_cell_length_a 14.343262
_cell_length_b 8.802291
_cell_length_c 24.972403
_cell_angle_alpha 90.000000
_cell_angle_beta 30.302515
_cell_angle_gamma 90.000000
_cell_volume 1590.821894
_symmetry_space_group_name_H-M "P 21/M"
_symmetry_group_IT_number 11
_symmetry_cell_setting 'monoclinic'
loop_
_space_group_symop_operation_xyz
x,y,z
-x,1/2+y,-z
-x,-y,-z
x,1/2-y,z
loop_
_atom_site_type_symbol
_atom_site_label
_atom_site_fract_x
_atom_site_fract_y
_atom_site_fract_z
Si Si1 0.127860 0.931489 0.983054
Si Si2 0.556344 0.069844 0.414674
Si Si3 0.561066 0.073518 0.914506
Si Si4 0.786531 0.425936 0.461438
Si Si5 0.088276 0.066940 0.402637
Si Si6 0.910342 0.924732 0.772713
Si Si7 0.491663 0.933825 0.177543
Si Si8 0.962135 0.432297 0.173494
O O1 0.133269 0.750000 0.976895
O O2 0.335277 0.998794 0.876508
O O3 0.000000 0.000000 0.000000
O O4 0.042118 0.983683 0.082504
O O5 0.567146 0.250000 0.416442
O O6 0.754387 0.019723 0.292950
O O7 0.500000 0.000000 0.500000
O O8 0.395225 0.026000 0.452879
O O9 0.521202 0.250000 0.937065
O O10 0.481005 0.016907 0.898218
O O11 0.778620 0.038343 0.806785
O O12 0.500000 0.000000 0.000000
O O13 0.735070 0.250000 0.496703
O O14 0.941950 0.468362 0.427735
O O15 0.888806 0.433138 0.353234
O O16 0.105743 0.250000 0.396005
O O17 0.290820 0.995405 0.293723
O O18 0.000000 0.000000 0.500000
O O19 0.846136 0.750000 0.796136
O O20 0.919049 0.956381 0.831341
O O21 0.492318 0.750000 0.179716
O O22 0.963151 0.250000 0.162737
#
# Coordination Sequence:
#
# PCOD9160622 Si02
#       8
#     4   4   4   4   4   4   4   4
#     4  12  27  47  71  96 125 166 215 269 323 383
#     4  11  22  37  61  92 130 173 215 264 321 383
#     4  11  23  36  57  91 128 166 209 258 314 379
#     4  10  21  39  61  89 125 169 212 258 316 375
#     4  11  24  43  68  96 132 174 219 270 321 381
#     4  10  19  36  60  86 125 166 205 256 315 375
#     4  11  24  44  68  96 130 168 214 266 320 382
#     4  10  22  41  63  92 130 171 214 267 322 378
#
# _framework density 20.115386999999998
#
# number of rings (size 3 to 8) (size 9 to 14) (size 15 to 20)
#    0.000    1.250    2.500    3.375    0.000    8.500 
#    0.000    2.500    0.000    0.000    0.000    0.000 
#    0.000    0.000    0.000    0.000    0.000    0.000 
#
# Total GULP energy -178823.987947 kJ/mol
# GULP energy per Si atom -5588.249623 kJ/mol
# Density = 2.006960 g / cm^3
# Si number density = 20.115387 Si / 1000 Ang^3
#
#
#
# Elastic Constant Matrix: (Units=GPa)
#
#
# Indices 1 2 3 4 5 6 
#
# 1 127.0752 46.7917 51.4069 0.0000 -8.7865 0.0000
# 2 46.7917 58.6789 35.5942 0.0000 -2.6506 0.0000
# 3 51.4069 35.5942 96.0465 0.0000 -7.3359 0.0000
# 4 0.0000 0.0000 0.0000 35.6018 0.0000 -3.6524
# 5 -8.7865 -2.6506 -7.3359 0.0000 36.9702 0.0000
# 6 0.0000 0.0000 0.0000 -3.6524 0.0000 32.3716
#
#
#
# Elastic Compliance Matrix: (Units=1/GPa)
#
#
# Indices 1 2 3 4 5 6 
#
# 1 0.012198 -0.007441 -0.003645 0.000000 0.001642 0.000000
# 2 -0.007441 0.026523 -0.005926 0.000000 -0.001043 0.000000
# 3 -0.003645 -0.005926 0.014683 0.000000 0.001622 0.000000
# 4 0.000000 0.000000 0.000000 0.028417 0.000000 0.003206
# 5 0.001642 -0.001043 0.001622 0.000000 0.027686 0.000000
# 6 0.000000 0.000000 0.000000 0.003206 0.000000 0.031253
#
#
# Mechanical properties :
#
#
# Convention : Reuss Voigt Hill
#
# Bulk Modulus (GPa) = 51.60471 61.04291 56.32381
# Shear Modulus (GPa) = 27.58686 30.85591 29.22139
#
# Velocity S-wave (km/s) = 3.70730 3.92081 3.81555
# Velocity P-wave (km/s) = 6.63592 7.13507 6.89002
#
# Compressibility (1/GPa) = 0.01937807
#
# Stress axis : x y z
#
# Youngs Moduli (GPa) = 81.98333 37.70261 68.10618
#
# Poissons Ratio (x) = 0.28055 0.24828
# Poissons Ratio (y) = 0.61005 0.40362
# Poissons Ratio (z) = 0.29887 0.22344
#
# Static dielectric constant tensor:
#      x y z
#    x 1.732650 0.000000 -0.010610 
#    y 0.000000 1.683630 0.000000 
#    z -0.010610 0.000000 1.745210 
# 
# From -- ./inp_files/69048.got.cif
#   From: 2010.05.17/outbox.cif.g08.bks.cpg/sg11_35_cif.got.tgz:69048.got - 2010.06.03 12:22:45.
