data_PCOD9160410
_publ_section_title
;
Structure prediction by ZEFSAII (Michael W. Deem and Ramdas Pophale) SiO2 
 PCOD9160410
Probable space group: P 21/M
;
_chemical_formula_sum "Si O2"
_cell_formula_units_Z 20
_cell_length_a 24.451342
_cell_length_b 8.797381
_cell_length_c 14.435730
_cell_angle_alpha 90.000000
_cell_angle_beta 163.540890
_cell_angle_gamma 90.000000
_cell_volume 879.810094
_symmetry_space_group_name_H-M "P 21/M"
_symmetry_group_IT_number 11
_symmetry_cell_setting 'monoclinic'
loop_
_space_group_symop_operation_xyz
x,y,z
-x,1/2+y,-z
-x,-y,-z
x,1/2-y,z
loop_
_atom_site_type_symbol
_atom_site_label
_atom_site_fract_x
_atom_site_fract_y
_atom_site_fract_z
Si Si1 0.218804 0.920188 0.602689
Si Si2 0.164422 0.572822 0.197964
Si Si3 0.662940 0.583996 0.370443
Si Si4 0.189284 0.933544 0.762595
Si Si5 0.553439 0.932833 0.485509
O O1 0.136764 0.750000 0.452551
O O2 0.174187 0.982610 0.631005
O O3 0.190386 0.036633 0.472888
O O4 0.450034 0.901038 0.983946
O O5 0.133085 0.750000 0.132139
O O6 0.338244 0.544946 0.554437
O O7 0.249242 0.494548 0.242592
O O8 0.000000 0.500000 0.000000
O O9 0.707149 0.750000 0.484193
O O10 0.188679 0.750000 0.757366
O O11 0.376120 0.972765 0.127806
O O12 0.000000 0.000000 0.500000
O O13 0.566424 0.750000 0.513194
O O14 0.500000 0.000000 0.500000
#
# Coordination Sequence:
#
# PCOD9160410 Si02
#       5
#     4   4   4   4   4
#     4   9  18  35  57  85 120 158 196 247 309 371
#     4  12  25  42  66  95 127 170 219 273 332 398
#     4  10  19  35  59  88 121 155 196 252 311 377
#     4  10  22  40  63  91 128 167 213 266 320 381
#     4  11  24  46  69  96 134 179 224 277 333 399
#
# _framework density 22.732178000000001
#
# number of rings (size 3 to 8) (size 9 to 14) (size 15 to 20)
#    0.000    1.600    2.000    3.000    0.000    4.800 
#    0.000    4.000    0.000    0.000    0.000    0.000 
#    0.000    0.000    0.000    0.000    0.000    0.000 
#
# Total GULP energy -111494.690122 kJ/mol
# GULP energy per Si atom -5574.734506 kJ/mol
# Density = 2.268044 g / cm^3
# Si number density = 22.732178 Si / 1000 Ang^3
#
#
#
# Elastic Constant Matrix: (Units=GPa)
#
#
# Indices 1 2 3 4 5 6 
#
# 1 211.9208 65.3692 32.4338 0.0000 32.3535 0.0000
# 2 65.3692 91.3848 21.8344 0.0000 13.6143 0.0000
# 3 32.4338 21.8344 55.0409 0.0000 28.3095 0.0000
# 4 0.0000 0.0000 0.0000 34.0249 0.0000 0.3841
# 5 32.3535 13.6143 28.3095 0.0000 38.0702 0.0000
# 6 0.0000 0.0000 0.0000 0.3841 0.0000 30.7793
#
#
#
# Elastic Compliance Matrix: (Units=1/GPa)
#
#
# Indices 1 2 3 4 5 6 
#
# 1 0.006625 -0.004090 -0.000224 0.000000 -0.004002 0.000000
# 2 -0.004090 0.014648 -0.004039 0.000000 0.001241 0.000000
# 3 -0.000224 -0.004039 0.030868 0.000000 -0.021319 0.000000
# 4 0.000000 0.000000 0.000000 0.029394 0.000000 -0.000367
# 5 -0.004002 0.001241 -0.021319 0.000000 0.045078 0.000000
# 6 0.000000 0.000000 0.000000 -0.000367 0.000000 0.032494
#
#
# Mechanical properties :
#
#
# Convention : Reuss Voigt Hill
#
# Bulk Modulus (GPa) = 28.21944 66.40238 47.31091
# Shear Modulus (GPa) = 26.64902 36.48882 31.56892
#
# Velocity S-wave (km/s) = 3.42761 4.01079 3.73061
# Velocity P-wave (km/s) = 5.30146 7.12199 6.27807
#
# Compressibility (1/GPa) = 0.03543656
#
# Stress axis : x y z
#
# Youngs Moduli (GPa) = 150.93419 68.26685 32.39651
#
# Poissons Ratio (x) = 0.27919 0.00724
# Poissons Ratio (y) = 0.61727 0.13086
# Poissons Ratio (z) = 0.03374 0.27574
#
# Static dielectric constant tensor:
#      x y z
#    x 1.893470 0.000000 -0.037880 
#    y 0.000000 1.798100 0.000000 
#    z -0.037880 0.000000 2.019400 
# 
# From -- ./inp_files/55481.got.cif
#   From: 2010.05.17/outbox.cif.g08.bks.cpg/sg11_28_cif.got.tgz:55481.got - 2010.06.03 12:22:45.
