data_PCOD9160142
_publ_section_title
;
Structure prediction by ZEFSAII (Michael W. Deem and Ramdas Pophale) SiO2 
 PCOD9160142
Probable space group: P 21/M
;
_chemical_formula_sum "Si O2"
_cell_formula_units_Z 32
_cell_length_a 16.186977
_cell_length_b 17.509680
_cell_length_c 10.000665
_cell_angle_alpha 90.000000
_cell_angle_beta 143.135101
_cell_angle_gamma 90.000000
_cell_volume 1700.487976
_symmetry_space_group_name_H-M "P 21/M"
_symmetry_group_IT_number 11
_symmetry_cell_setting 'monoclinic'
loop_
_space_group_symop_operation_xyz
x,y,z
-x,1/2+y,-z
-x,-y,-z
x,1/2-y,z
loop_
_atom_site_type_symbol
_atom_site_label
_atom_site_fract_x
_atom_site_fract_y
_atom_site_fract_z
Si Si1 0.897541 0.571385 0.039253
Si Si2 0.849547 0.839089 0.483615
Si Si3 0.290748 0.658225 0.940682
Si Si4 0.580651 0.919913 0.600146
Si Si5 0.989109 0.156833 0.561427
Si Si6 0.684101 0.340430 0.715800
Si Si7 0.404857 0.342896 0.672010
Si Si8 0.966346 0.400470 0.056121
O O1 0.955589 0.485521 0.101722
O O2 0.974286 0.619375 0.251238
O O3 0.734066 0.571855 0.855441
O O4 0.931139 0.604757 0.935939
O O5 0.821904 0.750000 0.427173
O O6 0.714475 0.870131 0.382779
O O7 0.899647 0.869151 0.406100
O O8 0.975846 0.847885 0.750880
O O9 0.278302 0.750000 0.930424
O O10 0.159579 0.631471 0.688089
O O11 0.296052 0.633535 0.103032
O O12 0.440973 0.641554 0.075354
O O13 0.469191 0.864134 0.524991
O O14 0.602721 0.885562 0.479861
O O15 0.500000 0.000000 0.500000
O O16 0.990856 0.250000 0.572496
O O17 0.697126 0.250000 0.726650
O O18 0.813390 0.378106 0.810237
O O19 0.392902 0.250000 0.635127
#
# Coordination Sequence:
#
# PCOD9160142 Si02
#       8
#     4   4   4   4   4   4   4   4
#     4  11  25  38  56  84 121 157 185 239 302 350
#     4  10  19  35  60  85 112 147 196 246 282 338
#     4   8  15  31  54  81 109 137 179 233 281 327
#     4  11  20  36  56  81 119 154 187 237 293 339
#     4  10  21  37  58  86 117 146 180 235 299 350
#     4  10  19  34  60  86 106 144 202 247 276 330
#     4   9  18  33  59  85 105 145 203 244 275 335
#     4  11  21  39  58  82 114 154 200 238 280 345
#
# _framework density 18.818127
#
# number of rings (size 3 to 8) (size 9 to 14) (size 15 to 20)
#    0.000    2.000    3.750    1.500    0.000    2.500 
#    0.000    1.250    0.000    3.000    0.000    0.000 
#    0.000    0.000    0.000    0.000    0.000    0.000 
#
# Total GULP energy -178324.907719 kJ/mol
# GULP energy per Si atom -5572.653366 kJ/mol
# Density = 1.877530 g / cm^3
# Si number density = 18.818127 Si / 1000 Ang^3
#
#
#
# Elastic Constant Matrix: (Units=GPa)
#
#
# Indices 1 2 3 4 5 6 
#
# 1 78.5955 16.0146 23.9635 0.0000 22.9742 0.0000
# 2 16.0146 27.3274 7.8654 0.0000 -5.4693 0.0000
# 3 23.9635 7.8654 63.8988 0.0000 18.6529 0.0000
# 4 0.0000 0.0000 0.0000 -6.1097 0.0000 -0.9477
# 5 22.9742 -5.4693 18.6529 0.0000 30.9280 0.0000
# 6 0.0000 0.0000 0.0000 -0.9477 0.0000 19.9089
#
#
#
# Elastic Compliance Matrix: (Units=1/GPa)
#
#
# Indices 1 2 3 4 5 6 
#
# 1 0.021653 -0.016185 -0.000725 0.000000 -0.018509 0.000000
# 2 -0.016185 0.053777 -0.008296 0.000000 0.026536 0.000000
# 3 -0.000725 -0.008296 0.020892 0.000000 -0.013529 0.000000
# 4 0.000000 0.000000 0.000000 -0.162474 0.000000 -0.007734
# 5 -0.018509 0.026536 -0.013529 0.000000 0.058934 0.000000
# 6 0.000000 0.000000 0.000000 -0.007734 0.000000 0.049861
#
#
# Mechanical properties :
#
#
# Convention : Reuss Voigt Hill
#
# Bulk Modulus (GPa) = 21.78180 29.50095 25.64137
# Shear Modulus (GPa) = 46.14390 17.07731 31.61060
#
# Velocity S-wave (km/s) = 4.95724 3.01573 4.10298
# Velocity P-wave (km/s) = 6.66075 5.27609 6.00844
#
# Compressibility (1/GPa) = 0.04590990
#
# Stress axis : x y z
#
# Youngs Moduli (GPa) = 46.18375 18.59542 47.86527
#
# Poissons Ratio (x) = 0.30096 0.03470
# Poissons Ratio (y) = 0.74748 0.39709
# Poissons Ratio (z) = 0.03348 0.15427
#
# Static dielectric constant tensor:
#      x y z
#    x 1.678520 0.000000 0.042500 
#    y 0.000000 1.664040 0.000000 
#    z 0.042500 0.000000 1.652500 
# 
# From -- ./inp_files/23117.got.cif
#   From: 2010.05.17/outbox.cif.g08.bks.cpg/sg11_12_cif.got.tgz:23117.got - 2010.06.03 12:22:45.
