data_PCOD9160095
_publ_section_title
;
Structure prediction by ZEFSAII (Michael W. Deem and Ramdas Pophale) SiO2 
 PCOD9160095
Probable space group: P 21/M
;
_chemical_formula_sum "Si O2"
_cell_formula_units_Z 24
_cell_length_a 12.572767
_cell_length_b 8.172062
_cell_length_c 25.634148
_cell_angle_alpha 90.000000
_cell_angle_beta 153.974116
_cell_angle_gamma 90.000000
_cell_volume 1155.647549
_symmetry_space_group_name_H-M "P 21/M"
_symmetry_group_IT_number 11
_symmetry_cell_setting 'monoclinic'
loop_
_space_group_symop_operation_xyz
x,y,z
-x,1/2+y,-z
-x,-y,-z
x,1/2-y,z
loop_
_atom_site_type_symbol
_atom_site_label
_atom_site_fract_x
_atom_site_fract_y
_atom_site_fract_z
Si Si1 0.812180 0.942045 0.872415
Si Si2 0.118872 0.949239 0.695111
Si Si3 0.130521 0.944109 0.214234
Si Si4 0.744397 0.448128 0.359416
Si Si5 0.247199 0.946003 0.866032
Si Si6 0.574764 0.947599 0.474933
O O1 0.786634 0.750000 0.869689
O O2 0.529491 0.006612 0.745275
O O3 0.927798 0.976684 0.866750
O O4 0.000000 0.000000 0.000000
O O5 0.123588 0.750000 0.696486
O O6 0.232295 0.001600 0.690797
O O7 0.234575 0.002203 0.800543
O O8 0.841136 0.003101 0.577224
O O9 0.140545 0.750000 0.210200
O O10 0.386902 0.006857 0.348972
O O11 0.952004 0.979802 0.183366
O O12 0.744517 0.250000 0.362889
O O13 0.000000 0.500000 0.500000
O O14 0.217173 0.750000 0.853330
O O15 0.500000 0.000000 0.000000
O O16 0.571572 0.750000 0.473164
O O17 0.500000 0.000000 0.500000
#
# Coordination Sequence:
#
# PCOD9160095 Si02
#       6
#     4   4   4   4   4   4
#     4  11  25  43  66  95 128 169 217 269 321 383
#     4   9  19  37  61  87 121 160 195 247 313 369
#     4  11  23  40  64  91 125 164 205 257 315 378
#     4  10  22  42  66  93 126 167 212 262 319 378
#     4  11  23  39  61  89 124 164 207 256 312 374
#     4  10  19  34  58  88 120 156 197 246 306 370
#
# _framework density 20.767576999999999
#
# number of rings (size 3 to 8) (size 9 to 14) (size 15 to 20)
#    0.000    1.667    1.667    2.500    2.333    3.333 
#    0.000    2.500    0.000    0.000    0.000    0.000 
#    0.000    0.000    0.000    0.000    0.000    0.000 
#
# Total GULP energy -133906.665230 kJ/mol
# GULP energy per Si atom -5579.444385 kJ/mol
# Density = 2.072031 g / cm^3
# Si number density = 20.767577 Si / 1000 Ang^3
#
#
#
# Elastic Constant Matrix: (Units=GPa)
#
#
# Indices 1 2 3 4 5 6 
#
# 1 102.5636 -0.6384 36.7340 0.0000 -23.3635 0.0000
# 2 -0.6384 23.3898 16.7093 0.0000 -2.3833 0.0000
# 3 36.7340 16.7093 137.0922 0.0000 -26.1472 0.0000
# 4 0.0000 0.0000 0.0000 29.5544 0.0000 -1.6846
# 5 -23.3635 -2.3833 -26.1472 0.0000 38.7343 0.0000
# 6 0.0000 0.0000 0.0000 -1.6846 0.0000 23.2248
#
#
#
# Elastic Compliance Matrix: (Units=1/GPa)
#
#
# Indices 1 2 3 4 5 6 
#
# 1 0.011941 0.002645 -0.002430 0.000000 0.005725 0.000000
# 2 0.002645 0.047459 -0.006464 0.000000 0.000152 0.000000
# 3 -0.002430 -0.006464 0.009616 0.000000 0.004628 0.000000
# 4 0.000000 0.000000 0.000000 0.033976 0.000000 0.002464
# 5 0.005725 0.000152 0.004628 0.000000 0.032403 0.000000
# 6 0.000000 0.000000 0.000000 0.002464 0.000000 0.043236
#
#
# Mechanical properties :
#
#
# Convention : Reuss Voigt Hill
#
# Bulk Modulus (GPa) = 17.69349 40.96170 29.32760
# Shear Modulus (GPa) = 23.81295 32.31874 28.06584
#
# Velocity S-wave (km/s) = 3.38988 3.94916 3.68016
# Velocity P-wave (km/s) = 4.88467 6.36877 5.67544
#
# Compressibility (1/GPa) = 0.05651795
#
# Stress axis : x y z
#
# Youngs Moduli (GPa) = 83.74535 21.07070 103.99294
#
# Poissons Ratio (x) = -0.05574 0.25272
# Poissons Ratio (y) = -0.22153 0.67224
# Poissons Ratio (z) = 0.20351 0.13621
#
# Static dielectric constant tensor:
#      x y z
#    x 1.751530 0.000000 -0.036280 
#    y 0.000000 1.782430 0.000000 
#    z -0.036280 0.000000 1.655550 
# 
# From -- ./inp_files/68467.got.cif
#   From: 2010.05.17/outbox.cif.g08.bks.cpg/sg11_35_cif.got.tgz:68467.got - 2010.06.03 12:22:45.
