data_PCOD9160366
_publ_section_title
;
Structure prediction by ZEFSAII (Michael W. Deem and Ramdas Pophale) SiO2 
 PCOD9160366
Probable space group: P 21/M
;
_chemical_formula_sum "Si O2"
_cell_formula_units_Z 32
_cell_length_a 16.137454
_cell_length_b 8.736443
_cell_length_c 12.451861
_cell_angle_alpha 90.000000
_cell_angle_beta 82.938203
_cell_angle_gamma 90.000000
_cell_volume 1742.195423
_symmetry_space_group_name_H-M "P 21/M"
_symmetry_group_IT_number 11
_symmetry_cell_setting 'monoclinic'
loop_
_space_group_symop_operation_xyz
x,y,z
-x,1/2+y,-z
-x,-y,-z
x,1/2-y,z
loop_
_atom_site_type_symbol
_atom_site_label
_atom_site_fract_x
_atom_site_fract_y
_atom_site_fract_z
Si Si1 0.201675 0.068223 0.692138
Si Si2 0.710676 0.933189 0.769155
Si Si3 0.974264 0.424273 0.207145
Si Si4 0.590895 0.066918 0.964117
Si Si5 0.069414 0.424244 0.416157
Si Si6 0.737043 0.067414 0.106796
Si Si7 0.858520 0.935828 0.912199
Si Si8 0.237317 0.929286 0.452847
O O1 0.201201 0.250000 0.685919
O O2 0.261124 0.008563 0.777318
O O3 0.230232 0.000952 0.572799
O O4 0.109172 0.011909 0.744451
O O5 0.711657 0.750000 0.764052
O O6 0.795345 0.977414 0.823351
O O7 0.634819 0.993714 0.853198
O O8 0.705525 0.997284 0.649088
O O9 0.950643 0.250000 0.179401
O O10 0.030649 0.414207 0.305222
O O11 0.045261 0.489040 0.115716
O O12 0.587417 0.250000 0.952560
O O13 0.653695 0.031957 0.052723
O O14 0.500000 0.000000 0.000000
O O15 0.091931 0.250000 0.446178
O O16 0.147376 0.533986 0.415844
O O17 0.000000 0.500000 0.500000
O O18 0.744751 0.250000 0.114690
O O19 0.814169 0.002256 0.024479
O O20 0.860395 0.750000 0.916352
O O21 0.252982 0.750000 0.459841
#
# Coordination Sequence:
#
# PCOD9160366 Si02
#       8
#     4   4   4   4   4   4   4   4
#     4  12  25  38  54  76 107 153 202 239 283 337
#     4  10  19  35  58  87 119 148 185 234 282 333
#     4  10  20  34  51  74 107 147 194 244 290 331
#     4  10  21  39  66  98 122 146 177 219 276 338
#     4  11  20  32  49  73 104 145 194 246 291 330
#     4  10  22  40  59  82 113 146 185 229 279 336
#     4   9  18  34  55  78 107 145 189 238 288 330
#     4  12  23  35  53  78 113 152 192 239 286 336
#
# _framework density 18.367630999999999
#
# number of rings (size 3 to 8) (size 9 to 14) (size 15 to 20)
#    0.000    1.500    2.500    3.750    0.000    3.500 
#    0.000    0.000    0.000    0.750    0.000    0.000 
#    0.000    0.000    0.000    0.000    0.000    0.000 
#
# Total GULP energy -178583.013808 kJ/mol
# GULP energy per Si atom -5580.719181 kJ/mol
# Density = 1.832583 g / cm^3
# Si number density = 18.367631 Si / 1000 Ang^3
#
#
#
# Elastic Constant Matrix: (Units=GPa)
#
#
# Indices 1 2 3 4 5 6 
#
# 1 82.9133 38.1347 62.5094 0.0000 -21.0822 0.0000
# 2 38.1347 87.6861 60.1856 0.0000 -6.8155 0.0000
# 3 62.5094 60.1856 137.5171 0.0000 -7.2801 0.0000
# 4 0.0000 0.0000 0.0000 29.2714 0.0000 -0.7196
# 5 -21.0822 -6.8155 -7.2801 0.0000 21.0374 0.0000
# 6 0.0000 0.0000 0.0000 -0.7196 0.0000 24.1339
#
#
#
# Elastic Compliance Matrix: (Units=1/GPa)
#
#
# Indices 1 2 3 4 5 6 
#
# 1 0.026151 -0.003297 -0.009284 0.000000 0.021926 0.000000
# 2 -0.003297 0.016888 -0.005886 0.000000 0.000130 0.000000
# 3 -0.009284 -0.005886 0.013726 0.000000 -0.006460 0.000000
# 4 0.000000 0.000000 0.000000 0.034188 0.000000 0.001019
# 5 0.021926 0.000130 -0.006460 0.000000 0.067314 0.000000
# 6 0.000000 0.000000 0.000000 0.001019 0.000000 0.041466
#
#
# Mechanical properties :
#
#
# Convention : Reuss Voigt Hill
#
# Bulk Modulus (GPa) = 50.42181 69.97509 60.19845
# Shear Modulus (GPa) = 20.55278 24.70767 22.63023
#
# Velocity S-wave (km/s) = 3.34873 3.67164 3.51389
# Velocity P-wave (km/s) = 6.51636 7.49362 7.02201
#
# Compressibility (1/GPa) = 0.01983269
#
# Stress axis : x y z
#
# Youngs Moduli (GPa) = 38.23903 59.21343 72.85643
#
# Poissons Ratio (x) = 0.19522 0.67637
# Poissons Ratio (y) = 0.12607 0.42881
# Poissons Ratio (z) = 0.35499 0.34851
#
# Static dielectric constant tensor:
#      x y z
#    x 1.633760 0.000000 0.010190 
#    y 0.000000 1.624790 0.000000 
#    z 0.010190 0.000000 1.670290 
# 
# From -- ./inp_files/38252.got.cif
#   From: 2010.05.17/outbox.cif.g08.bks.cpg/sg11_20_cif.got.tgz:38252.got - 2010.06.03 12:22:45.
