data_PCOD9160482
_publ_section_title
;
Structure prediction by ZEFSAII (Michael W. Deem and Ramdas Pophale) SiO2 
 PCOD9160482
Probable space group: P 21/M
;
_chemical_formula_sum "Si O2"
_cell_formula_units_Z 32
_cell_length_a 16.773250
_cell_length_b 14.089309
_cell_length_c 11.915928
_cell_angle_alpha 90.000000
_cell_angle_beta 145.558434
_cell_angle_gamma 90.000000
_cell_volume 1592.640117
_symmetry_space_group_name_H-M "P 21/M"
_symmetry_group_IT_number 11
_symmetry_cell_setting 'monoclinic'
loop_
_space_group_symop_operation_xyz
x,y,z
-x,1/2+y,-z
-x,-y,-z
x,1/2-y,z
loop_
_atom_site_type_symbol
_atom_site_label
_atom_site_fract_x
_atom_site_fract_y
_atom_site_fract_z
Si Si1 0.656982 0.463114 0.662275
Si Si2 0.142582 0.359885 0.790990
Si Si3 0.919249 0.552773 0.041926
Si Si4 0.306823 0.543736 0.716737
Si Si5 0.125600 0.859027 0.945726
Si Si6 0.392516 0.140054 0.912923
Si Si7 0.206226 0.638408 0.380352
Si Si8 0.117857 0.639621 0.669323
O O1 0.500000 0.500000 0.500000
O O2 0.718810 0.392233 0.830708
O O3 0.682272 0.407251 0.575816
O O4 0.774630 0.547174 0.803790
O O5 0.116440 0.250000 0.791178
O O6 0.124944 0.418349 0.883267
O O7 0.293454 0.366003 0.907157
O O8 0.027771 0.384761 0.562445
O O9 0.047892 0.617595 0.153618
O O10 0.967804 0.442335 0.107529
O O11 0.328390 0.430997 0.745487
O O12 0.215506 0.584656 0.509619
O O13 0.235924 0.574544 0.751195
O O14 0.455972 0.596917 0.882896
O O15 0.099407 0.750000 0.947837
O O16 0.110695 0.867035 0.794527
O O17 0.399624 0.250000 0.886972
O O18 0.229420 0.750000 0.421109
O O19 0.150064 0.750000 0.679552
#
# Coordination Sequence:
#
# PCOD9160482 Si02
#       8
#     4   4   4   4   4   4   4   4
#     4  10  25  44  65  90 125 167 219 266 329 378
#     4  10  20  36  61  96 131 163 205 261 314 377
#     4  10  22  39  66  94 125 165 210 266 318 384
#     4  11  23  37  62  91 128 174 211 261 327 381
#     4   9  21  39  64  92 126 170 213 261 321 383
#     4  10  23  38  55  88 133 172 214 261 321 385
#     4  12  24  43  68  94 128 170 218 272 323 384
#     4  10  19  35  62  94 125 164 210 252 313 391
#
# _framework density 20.092424000000001
#
# number of rings (size 3 to 8) (size 9 to 14) (size 15 to 20)
#    0.750    1.000    1.250    3.000    3.500    2.000 
#    0.000    1.875    0.000    3.750    0.000    0.000 
#    0.000    0.000    0.000    0.000    0.000    0.000 
#
# Total GULP energy -178519.229397 kJ/mol
# GULP energy per Si atom -5578.725919 kJ/mol
# Density = 2.004669 g / cm^3
# Si number density = 20.092424 Si / 1000 Ang^3
#
#
#
# Elastic Constant Matrix: (Units=GPa)
#
#
# Indices 1 2 3 4 5 6 
#
# 1 32.8726 18.1609 0.8098 0.0000 5.3733 0.0000
# 2 18.1609 111.4058 8.4595 0.0000 1.9553 0.0000
# 3 0.8098 8.4595 25.9172 0.0000 1.2510 0.0000
# 4 0.0000 0.0000 0.0000 24.8869 0.0000 0.2742
# 5 5.3733 1.9553 1.2510 0.0000 35.5300 0.0000
# 6 0.0000 0.0000 0.0000 0.2742 0.0000 23.8284
#
#
#
# Elastic Compliance Matrix: (Units=1/GPa)
#
#
# Indices 1 2 3 4 5 6 
#
# 1 0.034280 -0.005577 0.000986 0.000000 -0.004912 0.000000
# 2 -0.005577 0.010117 -0.003147 0.000000 0.000397 0.000000
# 3 0.000986 -0.003147 0.039647 0.000000 -0.001372 0.000000
# 4 0.000000 0.000000 0.000000 0.040187 0.000000 -0.000462
# 5 -0.004912 0.000397 -0.001372 0.000000 0.028915 0.000000
# 6 0.000000 0.000000 0.000000 -0.000462 0.000000 0.041972
#
#
# Mechanical properties :
#
#
# Convention : Reuss Voigt Hill
#
# Bulk Modulus (GPa) = 14.58384 25.00621 19.79502
# Shear Modulus (GPa) = 21.41787 26.36677 23.89232
#
# Velocity S-wave (km/s) = 3.26846 3.62646 3.45210
# Velocity P-wave (km/s) = 4.63874 5.47792 5.07570
#
# Compressibility (1/GPa) = 0.06856903
#
# Stress axis : x y z
#
# Youngs Moduli (GPa) = 29.17137 98.84037 25.22251
#
# Poissons Ratio (x) = 0.55122 -0.02488
# Poissons Ratio (y) = 0.16269 0.07938
# Poissons Ratio (z) = -0.02877 0.31108
#
# Static dielectric constant tensor:
#      x y z
#    x 1.700490 0.000000 -0.008590 
#    y 0.000000 1.752090 0.000000 
#    z -0.008590 0.000000 1.739640 
# 
# From -- ./inp_files/39671.got.cif
#   From: 2010.05.17/outbox.cif.g08.bks.cpg/sg11_20_cif.got.tgz:39671.got - 2010.06.03 12:22:45.
