data_PCOD9160790
_publ_section_title
;
Structure prediction by ZEFSAII (Michael W. Deem and Ramdas Pophale) SiO2 
 PCOD9160790
Probable space group: P 21/M
;
_chemical_formula_sum "Si O2"
_cell_formula_units_Z 32
_cell_length_a 22.168574
_cell_length_b 10.466379
_cell_length_c 9.601481
_cell_angle_alpha 90.000000
_cell_angle_beta 43.609430
_cell_angle_gamma 90.000000
_cell_volume 1536.586629
_symmetry_space_group_name_H-M "P 21/M"
_symmetry_group_IT_number 11
_symmetry_cell_setting 'monoclinic'
loop_
_space_group_symop_operation_xyz
x,y,z
-x,1/2+y,-z
-x,-y,-z
x,1/2-y,z
loop_
_atom_site_type_symbol
_atom_site_label
_atom_site_fract_x
_atom_site_fract_y
_atom_site_fract_z
Si Si1 0.139872 0.603994 0.729075
Si Si2 0.953192 0.401382 0.405913
Si Si3 0.096700 0.897753 0.107562
Si Si4 0.281711 0.517509 0.890119
Si Si5 0.605377 0.896217 0.541226
Si Si6 0.588667 0.100626 0.084307
Si Si7 0.303571 0.458104 0.328629
Si Si8 0.817139 0.885939 0.718205
O O1 0.163894 0.750000 0.714733
O O2 0.072287 0.599823 0.714848
O O3 0.227482 0.535732 0.534123
O O4 0.100073 0.558963 0.940476
O O5 0.958872 0.250000 0.439335
O O6 0.874055 0.485068 0.603729
O O7 0.037194 0.493902 0.280555
O O8 0.064415 0.750000 0.172233
O O9 0.196955 0.901089 0.989746
O O10 0.334706 0.474661 0.665776
O O11 0.345491 0.581809 0.896384
O O12 0.238849 0.400732 0.048149
O O13 0.601191 0.750000 0.496514
O O14 0.644573 0.894472 0.631659
O O15 0.507100 0.950806 0.715667
O O16 0.578138 0.250000 0.074105
O O17 0.629740 0.038359 0.878063
O O18 0.248541 0.383285 0.303466
O O19 0.866216 0.750000 0.637791
#
# Coordination Sequence:
#
# PCOD9160790 Si02
#       8
#     4   4   4   4   4   4   4   4
#     4   9  18  35  58  88 123 158 197 247 302 359
#     4  10  22  39  62  91 123 160 201 251 310 366
#     4  11  22  38  61  89 123 160 206 255 302 366
#     4  11  23  40  61  86 124 164 208 253 310 368
#     4  11  22  38  60  90 124 160 207 260 311 368
#     4  10  22  39  61  88 123 164 206 255 312 371
#     4  10  19  37  62  91 122 159 204 257 305 365
#     4  10  22  40  63  89 123 167 208 251 304 367
#
# _framework density 20.825379999999999
#
# number of rings (size 3 to 8) (size 9 to 14) (size 15 to 20)
#    0.000    1.750    1.250    3.000    0.000    5.000 
#    0.000    0.625    0.000    6.000    0.000    0.000 
#    0.000    0.000    0.000    0.000    0.000    0.000 
#
# Total GULP energy -178468.724835 kJ/mol
# GULP energy per Si atom -5577.147651 kJ/mol
# Density = 2.077798 g / cm^3
# Si number density = 20.825380 Si / 1000 Ang^3
#
#
#
# Elastic Constant Matrix: (Units=GPa)
#
#
# Indices 1 2 3 4 5 6 
#
# 1 85.7833 10.5590 40.6970 0.0000 -2.9931 0.0000
# 2 10.5590 102.0050 75.2129 0.0000 -18.0178 0.0000
# 3 40.6970 75.2129 120.2552 0.0000 1.8342 0.0000
# 4 0.0000 0.0000 0.0000 13.3284 0.0000 -23.5297
# 5 -2.9931 -18.0178 1.8342 0.0000 43.5995 0.0000
# 6 0.0000 0.0000 0.0000 -23.5297 0.0000 2.9386
#
#
#
# Elastic Compliance Matrix: (Units=1/GPa)
#
#
# Indices 1 2 3 4 5 6 
#
# 1 0.015181 0.005378 -0.008556 0.000000 0.003625 0.000000
# 2 0.005378 0.023395 -0.016616 0.000000 0.010736 0.000000
# 3 -0.008556 -0.016616 0.021731 0.000000 -0.008368 0.000000
# 4 0.000000 0.000000 0.000000 -0.005712 0.000000 -0.045735
# 5 0.003625 0.010736 -0.008368 0.000000 0.027974 0.000000
# 6 0.000000 0.000000 0.000000 -0.045735 0.000000 -0.025906
#
#
# Mechanical properties :
#
#
# Convention : Reuss Voigt Hill
#
# Bulk Modulus (GPa) = 48.26671 62.33125 55.29898
# Shear Modulus (GPa) = 48.46938 24.07827 36.27383
#
# Velocity S-wave (km/s) = 4.82957 3.40398 4.17803
# Velocity P-wave (km/s) = 7.37067 6.74128 7.06299
#
# Compressibility (1/GPa) = 0.02071821
#
# Stress axis : x y z
#
# Youngs Moduli (GPa) = 65.87134 42.74447 46.01658
#
# Poissons Ratio (x) = -0.22987 0.39374
# Poissons Ratio (y) = -0.35424 0.76461
# Poissons Ratio (z) = 0.56362 0.71024
#
# Static dielectric constant tensor:
#      x y z
#    x 1.764190 0.000000 0.001380 
#    y 0.000000 1.746110 0.000000 
#    z 0.001380 0.000000 1.751630 
# 
# From -- ./inp_files/26564.got.cif
#   From: 2010.05.17/outbox.cif.g08.bks.cpg/sg11_14_cif.got.tgz:26564.got - 2010.06.03 12:22:45.
