data_PCOD9160722
_publ_section_title
;
Structure prediction by ZEFSAII (Michael W. Deem and Ramdas Pophale) SiO2 
 PCOD9160722
Probable space group: P 21/M
;
_chemical_formula_sum "Si O2"
_cell_formula_units_Z 24
_cell_length_a 15.433762
_cell_length_b 17.377223
_cell_length_c 12.322703
_cell_angle_alpha 90.000000
_cell_angle_beta 156.042337
_cell_angle_gamma 90.000000
_cell_volume 1341.992114
_symmetry_space_group_name_H-M "P 21/M"
_symmetry_group_IT_number 11
_symmetry_cell_setting 'monoclinic'
loop_
_space_group_symop_operation_xyz
x,y,z
-x,1/2+y,-z
-x,-y,-z
x,1/2-y,z
loop_
_atom_site_type_symbol
_atom_site_label
_atom_site_fract_x
_atom_site_fract_y
_atom_site_fract_z
Si Si1 0.779213 0.539074 0.711631
Si Si2 0.950260 0.160642 0.398504
Si Si3 0.682909 0.443239 0.252214
Si Si4 0.371737 0.339664 0.028675
Si Si5 0.018058 0.440317 0.274512
Si Si6 0.354463 0.444797 0.212053
O O1 0.595957 0.475652 0.481372
O O2 0.695997 0.583179 0.723368
O O3 0.000000 0.500000 0.000000
O O4 0.838539 0.579639 0.666524
O O5 0.884875 0.250000 0.328866
O O6 0.788177 0.104254 0.274987
O O7 0.976716 0.130558 0.306675
O O8 0.174877 0.153113 0.719451
O O9 0.855642 0.495399 0.511243
O O10 0.500000 0.500000 0.000000
O O11 0.572817 0.383350 0.207607
O O12 0.415561 0.250000 0.095262
O O13 0.314058 0.381455 0.074771
O O14 0.799514 0.482141 0.987881
#
# Coordination Sequence:
#
# PCOD9160722 Si02
#       6
#     4   4   4   4   4   4
#     4   9  20  35  59  86 108 137 194 245 282 324
#     4  11  24  38  53  86 125 151 183 236 294 345
#     4  12  21  35  57  86 113 151 197 233 276 341
#     4  11  22  36  56  86 121 153 184 235 298 345
#     4  11  20  35  60  84 108 152 192 232 277 338
#     4  10  19  37  59  84 113 146 193 242 281 336
#
# _framework density 17.883862000000001
#
# number of rings (size 3 to 8) (size 9 to 14) (size 15 to 20)
#    0.000    1.333    5.000    2.000    0.000    0.000 
#    0.000    0.833    0.000    9.000    0.000    0.000 
#    0.000    0.000    0.000    0.000    0.000    0.000 
#
# Total GULP energy -133933.539207 kJ/mol
# GULP energy per Si atom -5580.564134 kJ/mol
# Density = 1.784316 g / cm^3
# Si number density = 17.883862 Si / 1000 Ang^3
#
#
#
# Elastic Constant Matrix: (Units=GPa)
#
#
# Indices 1 2 3 4 5 6 
#
# 1 132.0834 20.1892 6.6043 0.0000 -6.1327 0.0000
# 2 20.1892 42.7966 18.5287 0.0000 -5.3428 0.0000
# 3 6.6043 18.5287 82.3085 0.0000 3.4531 0.0000
# 4 0.0000 0.0000 0.0000 20.9292 0.0000 3.6337
# 5 -6.1327 -5.3428 3.4531 0.0000 25.8417 0.0000
# 6 0.0000 0.0000 0.0000 3.6337 0.0000 5.1712
#
#
#
# Elastic Compliance Matrix: (Units=1/GPa)
#
#
# Indices 1 2 3 4 5 6 
#
# 1 0.008196 -0.003787 0.000147 0.000000 0.001142 0.000000
# 2 -0.003787 0.028655 -0.006393 0.000000 0.005880 0.000000
# 3 0.000147 -0.006393 0.013708 0.000000 -0.003119 0.000000
# 4 0.000000 0.000000 0.000000 0.054419 0.000000 -0.038239
# 5 0.001142 0.005880 -0.003119 0.000000 0.040601 0.000000
# 6 0.000000 0.000000 0.000000 -0.038239 0.000000 0.220249
#
#
# Mechanical properties :
#
#
# Convention : Reuss Voigt Hill
#
# Bulk Modulus (GPa) = 32.79660 38.64812 35.72236
# Shear Modulus (GPa) = 12.62441 24.51283 18.56862
#
# Velocity S-wave (km/s) = 2.65978 3.70627 3.22575
# Velocity P-wave (km/s) = 5.27362 6.32240 5.82168
#
# Compressibility (1/GPa) = 0.03049096
#
# Stress axis : x y z
#
# Youngs Moduli (GPa) = 122.01741 34.89785 72.95174
#
# Poissons Ratio (x) = 0.13217 -0.01073
# Poissons Ratio (y) = 0.46211 0.46641
# Poissons Ratio (z) = -0.01794 0.22312
#
# Static dielectric constant tensor:
#      x y z
#    x 1.651710 0.000000 -0.002230 
#    y 0.000000 1.569630 0.000000 
#    z -0.002230 0.000000 1.615670 
# 
# From -- ./inp_files/53765.got.cif
#   From: 2010.05.17/outbox.cif.g08.bks.cpg/sg11_27_cif.got.tgz:53765.got - 2010.06.03 12:22:45.
