data_PCOD9160322
_publ_section_title
;
Structure prediction by ZEFSAII (Michael W. Deem and Ramdas Pophale) SiO2 
 PCOD9160322
Probable space group: P 21/M
;
_chemical_formula_sum "Si O2"
_cell_formula_units_Z 28
_cell_length_a 9.721747
_cell_length_b 8.611816
_cell_length_c 27.370774
_cell_angle_alpha 90.000000
_cell_angle_beta 42.426401
_cell_angle_gamma 90.000000
_cell_volume 1545.965816
_symmetry_space_group_name_H-M "P 21/M"
_symmetry_group_IT_number 11
_symmetry_cell_setting 'monoclinic'
loop_
_space_group_symop_operation_xyz
x,y,z
-x,1/2+y,-z
-x,-y,-z
x,1/2-y,z
loop_
_atom_site_type_symbol
_atom_site_label
_atom_site_fract_x
_atom_site_fract_y
_atom_site_fract_z
Si Si1 0.386134 0.564255 0.182003
Si Si2 0.094591 0.928606 0.805138
Si Si3 0.063589 0.570802 0.700925
Si Si4 0.929236 0.438494 0.572083
Si Si5 0.360284 0.564361 0.079612
Si Si6 0.277767 0.430803 0.556353
Si Si7 0.476219 0.437277 0.264896
O O1 0.408880 0.750000 0.180467
O O2 0.448116 0.516047 0.110334
O O3 0.466000 0.485900 0.210569
O O4 0.152421 0.512325 0.242629
O O5 0.065588 0.750000 0.829262
O O6 0.143367 0.926335 0.734827
O O7 0.299508 0.991878 0.776178
O O8 0.874280 0.010073 0.866869
O O9 0.047123 0.750000 0.688135
O O10 0.196020 0.468453 0.630990
O O11 0.919984 0.250000 0.573051
O O12 0.713908 0.496705 0.652664
O O13 0.000000 0.500000 0.500000
O O14 0.109833 0.490675 0.561836
O O15 0.361245 0.750000 0.078978
O O16 0.500000 0.500000 0.000000
O O17 0.500000 0.500000 0.500000
O O18 0.294938 0.250000 0.541828
O O19 0.467036 0.250000 0.271533
#
# Coordination Sequence:
#
# PCOD9160322 Si02
#       7
#     4   4   4   4   4   4   4
#     4  10  20  36  58  86 116 150 191 234 281 341
#     4   9  21  38  58  87 119 150 191 237 283 340
#     4  10  19  35  58  81 108 146 189 237 288 341
#     4  11  25  42  59  82 116 155 198 248 299 351
#     4  10  21  38  63  91 121 154 191 236 286 342
#     4  11  24  39  56  80 111 146 192 245 294 347
#     4  11  22  38  61  87 118 156 196 241 292 348
#
# _framework density 18.111654000000001
#
# number of rings (size 3 to 8) (size 9 to 14) (size 15 to 20)
#    0.000    1.714    1.429    2.571    2.000    5.143 
#    0.000    0.714    0.000    0.000    0.000    0.000 
#    0.000    0.000    0.000    0.000    0.000    0.000 
#
# Total GULP energy -155971.188052 kJ/mol
# GULP energy per Si atom -5570.399573 kJ/mol
# Density = 1.807043 g / cm^3
# Si number density = 18.111654 Si / 1000 Ang^3
#
#
#
# Elastic Constant Matrix: (Units=GPa)
#
#
# Indices 1 2 3 4 5 6 
#
# 1 137.3474 27.8993 56.2130 0.0000 -10.8740 0.0000
# 2 27.8993 40.2104 25.0592 0.0000 1.1998 0.0000
# 3 56.2130 25.0592 145.3064 0.0000 18.6083 0.0000
# 4 0.0000 0.0000 0.0000 32.2012 0.0000 0.7486
# 5 -10.8740 1.1998 18.6083 0.0000 18.8487 0.0000
# 6 0.0000 0.0000 0.0000 0.7486 0.0000 24.8904
#
#
#
# Elastic Compliance Matrix: (Units=1/GPa)
#
#
# Indices 1 2 3 4 5 6 
#
# 1 0.011289 -0.005067 -0.005001 0.000000 0.011772 0.000000
# 2 -0.005067 0.030330 -0.003032 0.000000 -0.001861 0.000000
# 3 -0.005001 -0.003032 0.011086 0.000000 -0.013637 0.000000
# 4 0.000000 0.000000 0.000000 0.031076 0.000000 -0.000935
# 5 0.011772 -0.001861 -0.013637 0.000000 0.073427 0.000000
# 6 0.000000 0.000000 0.000000 -0.000935 0.000000 0.040204
#
#
# Mechanical properties :
#
#
# Convention : Reuss Voigt Hill
#
# Bulk Modulus (GPa) = 37.72959 60.13414 48.93187
# Shear Modulus (GPa) = 21.51022 29.43424 25.47223
#
# Velocity S-wave (km/s) = 3.44996 4.03569 3.75427
# Velocity P-wave (km/s) = 6.06189 7.41551 6.77260
#
# Compressibility (1/GPa) = 0.02650439
#
# Stress axis : x y z
#
# Youngs Moduli (GPa) = 88.58243 32.97046 90.20485
#
# Poissons Ratio (x) = 0.16707 0.45111
# Poissons Ratio (y) = 0.44888 0.27351
# Poissons Ratio (z) = 0.44299 0.09997
#
# Static dielectric constant tensor:
#      x y z
#    x 1.658350 0.000000 0.008090 
#    y 0.000000 1.621850 0.000000 
#    z 0.008090 0.000000 1.539840 
# 
# From -- ./inp_files/70798.got.cif
#   From: 2010.05.17/outbox.cif.g08.bks.cpg/sg11_36_cif.got.tgz:70798.got - 2010.06.03 12:22:45.
