data_PCOD9160109
_publ_section_title
;
Structure prediction by ZEFSAII (Michael W. Deem and Ramdas Pophale) SiO2 
 PCOD9160109
Probable space group: P 21/M
;
_chemical_formula_sum "Si O2"
_cell_formula_units_Z 22
_cell_length_a 11.884669
_cell_length_b 14.476651
_cell_length_c 6.608932
_cell_angle_alpha 90.000000
_cell_angle_beta 72.450370
_cell_angle_gamma 90.000000
_cell_volume 1084.144546
_symmetry_space_group_name_H-M "P 21/M"
_symmetry_group_IT_number 11
_symmetry_cell_setting 'monoclinic'
loop_
_space_group_symop_operation_xyz
x,y,z
-x,1/2+y,-z
-x,-y,-z
x,1/2-y,z
loop_
_atom_site_type_symbol
_atom_site_label
_atom_site_fract_x
_atom_site_fract_y
_atom_site_fract_z
Si Si1 0.503305 0.250000 0.104545
Si Si2 0.829120 0.379595 0.363949
Si Si3 0.469656 0.955705 0.804612
Si Si4 0.696788 0.948091 0.396424
Si Si5 0.998052 0.250000 0.516116
Si Si6 0.331818 0.750000 0.308892
Si Si7 0.262233 0.250000 0.469234
Si Si8 0.846391 0.250000 0.975822
O O1 0.553752 0.346012 0.165263
O O2 0.367403 0.250000 0.246688
O O3 0.536122 0.250000 0.847695
O O4 0.809606 0.488175 0.380980
O O5 0.935156 0.336906 0.438968
O O6 0.711088 0.335967 0.533431
O O7 0.839890 0.336471 0.133651
O O8 0.587940 0.965187 0.608478
O O9 0.359237 0.011701 0.777425
O O10 0.500000 0.000000 0.000000
O O11 0.725706 0.841178 0.400906
O O12 0.137222 0.250000 0.425599
O O13 0.962013 0.250000 0.772034
O O14 0.254075 0.750000 0.144043
#
# Coordination Sequence:
#
# PCOD9160109 Si02
#       8
#     2   4   4   4   2   2   2   2
#     4  10  19  34  59  85 114 150 183 226 281 341
#     4   9  18  33  59  85 108 144 191 238 277 324
#     4  10  21  36  56  85 119 150 184 226 282 348
#     4  10  21  37  56  82 115 151 188 231 283 338
#     4   9  20  39  58  83 115 148 192 240 281 327
#     4   9  16  29  56  89 113 134 178 236 284 328
#     4  10  23  40  55  79 121 159 188 230 284 341
#     4   8  16  32  56  84 107 135 181 242 286 319
#
# _framework density 20.292497000000001
#
# number of rings (size 3 to 8) (size 9 to 14) (size 15 to 20)
#    0.000    2.909    0.000    2.182    0.000    4.364 
#    0.000   12.727    0.000    0.000    0.000    0.000 
#    0.000    0.000    0.000    0.000    0.000    0.000 
#
# Total GULP energy -122677.912431 kJ/mol
# GULP energy per Si atom -5576.268747 kJ/mol
# Density = 2.024631 g / cm^3
# Si number density = 20.292497 Si / 1000 Ang^3
#
#
#
# Elastic Constant Matrix: (Units=GPa)
#
#
# Indices 1 2 3 4 5 6 
#
# 1 97.4213 61.0674 26.2579 0.0000 3.8005 0.0000
# 2 61.0674 154.4181 28.2186 0.0000 15.0980 0.0000
# 3 26.2579 28.2186 97.4908 0.0000 9.5705 0.0000
# 4 0.0000 0.0000 0.0000 -4.1805 0.0000 10.4611
# 5 3.8005 15.0980 9.5705 0.0000 20.9826 0.0000
# 6 0.0000 0.0000 0.0000 10.4611 0.0000 13.3833
#
#
#
# Elastic Compliance Matrix: (Units=1/GPa)
#
#
# Indices 1 2 3 4 5 6 
#
# 1 0.014238 -0.005413 -0.002510 0.000000 0.002460 0.000000
# 2 -0.005413 0.009269 -0.000698 0.000000 -0.005371 0.000000
# 3 -0.002510 -0.000698 0.011559 0.000000 -0.004316 0.000000
# 4 0.000000 0.000000 0.000000 -0.080923 0.000000 0.063253
# 5 0.002460 -0.005371 -0.004316 0.000000 0.053046 0.000000
# 6 0.000000 0.000000 0.000000 0.063253 0.000000 0.025278
#
#
# Mechanical properties :
#
#
# Convention : Reuss Voigt Hill
#
# Bulk Modulus (GPa) = 56.09868 64.49088 60.29478
# Shear Modulus (GPa) = 89.84854 21.62282 55.73568
#
# Velocity S-wave (km/s) = 6.66129 3.26783 5.24650
# Velocity P-wave (km/s) = 9.32035 6.78881 8.15343
#
# Compressibility (1/GPa) = 0.01782573
#
# Stress axis : x y z
#
# Youngs Moduli (GPa) = 70.23479 107.88539 86.51293
#
# Poissons Ratio (x) = 0.58394 0.21712
# Poissons Ratio (y) = 0.38015 0.06037
# Poissons Ratio (z) = 0.17627 0.07529
#
# Static dielectric constant tensor:
#      x y z
#    x 1.761120 0.000000 -0.005040 
#    y 0.000000 1.752120 0.000000 
#    z -0.005040 0.000000 1.733260 
# 
# From -- ./inp_files/4292.got.cif
#   From: 2010.05.17/outbox.cif.g08.bks.cpg/sg11_3_cif.got.tgz:4292.got - 2010.06.03 12:22:45.
