data_PCOD9160696
_publ_section_title
;
Structure prediction by ZEFSAII (Michael W. Deem and Ramdas Pophale) SiO2 
 PCOD9160696
Probable space group: P 21/M
;
_chemical_formula_sum "Si O2"
_cell_formula_units_Z 22
_cell_length_a 9.310363
_cell_length_b 20.568723
_cell_length_c 4.879564
_cell_angle_alpha 90.000000
_cell_angle_beta 62.409048
_cell_angle_gamma 90.000000
_cell_volume 828.179181
_symmetry_space_group_name_H-M "P 21/M"
_symmetry_group_IT_number 11
_symmetry_cell_setting 'monoclinic'
loop_
_space_group_symop_operation_xyz
x,y,z
-x,1/2+y,-z
-x,-y,-z
x,1/2-y,z
loop_
_atom_site_type_symbol
_atom_site_label
_atom_site_fract_x
_atom_site_fract_y
_atom_site_fract_z
Si Si1 0.857460 0.250000 0.325377
Si Si2 0.508999 0.250000 0.746927
Si Si3 0.137658 0.607626 0.761386
Si Si4 0.182481 0.250000 0.388053
Si Si5 0.385627 0.440281 0.031638
Si Si6 0.925996 0.605882 0.422108
Si Si7 0.489861 0.616992 0.578844
O O1 0.699838 0.250000 0.666583
O O2 0.034043 0.250000 0.303367
O O3 0.847898 0.183883 0.164562
O O4 0.496657 0.187810 0.560387
O O5 0.356572 0.250000 0.085609
O O6 0.002067 0.579248 0.077968
O O7 0.074076 0.609288 0.508700
O O8 0.318102 0.583976 0.654714
O O9 0.152312 0.178708 0.552381
O O10 0.383021 0.424133 0.714592
O O11 0.500000 0.500000 0.000000
O O12 0.208563 0.439164 0.317872
O O13 0.478666 0.384550 0.127232
#
# Coordination Sequence:
#
# PCOD9160696 Si02
#       7
#     2   2   4   2   4   4   4
#     4   8  19  33  58  92 139 162 202 264 333 392
#     4  10  20  39  66 104 130 171 216 272 336 417
#     4  10  21  40  63  93 129 168 212 264 332 395
#     4  10  19  36  64  94 135 167 218 260 349 397
#     4  12  26  45  65  94 133 177 227 279 324 387
#     4  11  22  39  64  93 126 168 214 267 328 397
#     4  11  24  44  68  98 133 172 217 276 336 399
#
# _framework density 26.564302000000001
#
# number of rings (size 3 to 8) (size 9 to 14) (size 15 to 20)
#    0.000    1.455    1.818    3.273    2.545    1.455 
#    0.000   10.909    0.000    0.000    0.000    0.000 
#    0.000    0.000    0.000    0.000    0.000    0.000 
#
# Total GULP energy -123130.355884 kJ/mol
# GULP energy per Si atom -5596.834358 kJ/mol
# Density = 2.650384 g / cm^3
# Si number density = 26.564302 Si / 1000 Ang^3
#
#
#
# Elastic Constant Matrix: (Units=GPa)
#
#
# Indices 1 2 3 4 5 6 
#
# 1 110.2332 -4.3410 36.2965 0.0000 -8.5222 0.0000
# 2 -4.3410 66.5886 17.3377 0.0000 6.2804 0.0000
# 3 36.2965 17.3377 130.9195 0.0000 -28.1566 0.0000
# 4 0.0000 0.0000 0.0000 8.9428 0.0000 -1.3510
# 5 -8.5222 6.2804 -28.1566 0.0000 44.4606 0.0000
# 6 0.0000 0.0000 0.0000 -1.3510 0.0000 25.9507
#
#
#
# Elastic Compliance Matrix: (Units=1/GPa)
#
#
# Indices 1 2 3 4 5 6 
#
# 1 0.010116 0.001470 -0.003041 0.000000 -0.000194 0.000000
# 2 0.001470 0.016425 -0.003497 0.000000 -0.004253 0.000000
# 3 -0.003041 -0.003497 0.010333 0.000000 0.006455 0.000000
# 4 0.000000 0.000000 0.000000 0.112709 0.000000 0.005868
# 5 -0.000194 -0.004253 0.006455 0.000000 0.027143 0.000000
# 6 0.000000 0.000000 0.000000 0.005868 0.000000 0.038840
#
#
# Mechanical properties :
#
#
# Convention : Reuss Voigt Hill
#
# Bulk Modulus (GPa) = 37.40249 45.14753 41.27501
# Shear Modulus (GPa) = 21.31146 33.10066 27.20606
#
# Velocity S-wave (km/s) = 2.83549 3.53378 3.20372
# Velocity P-wave (km/s) = 4.98303 5.80367 5.40894
#
# Compressibility (1/GPa) = 0.02673619
#
# Stress axis : x y z
#
# Youngs Moduli (GPa) = 98.85503 60.88212 96.77958
#
# Poissons Ratio (x) = -0.08947 0.29430
# Poissons Ratio (y) = -0.14528 0.33848
# Poissons Ratio (z) = 0.30062 0.21293
#
# Static dielectric constant tensor:
#      x y z
#    x 2.055070 0.000000 -0.070060 
#    y 0.000000 2.163460 0.000000 
#    z -0.070060 0.000000 2.042010 
# 
# From -- ./inp_files/2381.got.cif
#   From: 2010.05.17/outbox.cif.g08.bks.cpg/sg11_2_cif.got.tgz:2381.got - 2010.06.03 12:22:45.
