data_PCOD9160957
_publ_section_title
;
Structure prediction by ZEFSAII (Michael W. Deem and Ramdas Pophale) SiO2 
 PCOD9160957
Probable space group: P 21/M
;
_chemical_formula_sum "Si O2"
_cell_formula_units_Z 26
_cell_length_a 25.113382
_cell_length_b 5.714831
_cell_length_c 6.988947
_cell_angle_alpha 90.000000
_cell_angle_beta 74.201679
_cell_angle_gamma 90.000000
_cell_volume 965.155782
_symmetry_space_group_name_H-M "P 21/M"
_symmetry_group_IT_number 11
_symmetry_cell_setting 'monoclinic'
loop_
_space_group_symop_operation_xyz
x,y,z
-x,1/2+y,-z
-x,-y,-z
x,1/2-y,z
loop_
_atom_site_type_symbol
_atom_site_label
_atom_site_fract_x
_atom_site_fract_y
_atom_site_fract_z
Si Si1 0.622544 0.750000 0.865170
Si Si2 0.797089 0.001231 0.267552
Si Si3 0.796144 0.500005 0.806439
Si Si4 0.945013 0.999839 0.927474
Si Si5 0.452403 0.250000 0.745800
Si Si6 0.077597 0.000140 0.477792
Si Si7 0.668271 0.497044 0.501518
Si Si8 0.489387 0.250000 0.268628
O O1 0.654437 0.530506 0.739813
O O2 0.562187 0.750000 0.824595
O O3 0.608803 0.750000 0.099751
O O4 0.818981 0.750000 0.316504
O O5 0.798918 0.000158 0.034929
O O6 0.733057 0.007155 0.392651
O O7 0.820726 0.250000 0.314002
O O8 0.770104 0.750000 0.776478
O O9 0.770697 0.250000 0.774662
O O10 0.858789 0.500615 0.662994
O O11 0.916159 0.750000 0.989630
O O12 0.916351 0.250000 0.988409
O O13 0.956118 0.999508 0.689324
O O14 0.000000 0.000000 0.000000
O O15 0.465704 0.250000 0.507731
O O16 0.478183 0.502993 0.786160
O O17 0.068101 0.750000 0.584992
O O18 0.068197 0.250000 0.585672
O O19 0.649166 0.750000 0.443329
O O20 0.643587 0.250000 0.456892
#
# Coordination Sequence:
#
# PCOD9160957 Si02
#       8
#     2   4   4   4   2   4   4   2
#     4  10  20  30  54  66  90 114 142 166 206 234
#     4   8  12  20  28  41  64  82 102 132 162 194
#     4   8  12  16  24  32  45  68  86 110 144 179
#     4   8  12  16  20  24  32  44  61  93 130 164
#     4  10  22  36  50  70  92 114 142 172 202 238
#     4   8  12  16  20  28  36  49  76  98 127 176
#     4   8  16  24  37  60  78  98 128 154 182 224
#     4  10  22  36  50  70  92 114 142 172 202 238
#
# _framework density 26.938659000000001
#
# number of rings (size 3 to 8) (size 9 to 14) (size 15 to 20)
#    0.462    3.077    0.000    0.462    2.154    0.000 
#    0.000    0.000    0.000    0.000    0.000    0.000 
#    0.000    0.000    0.000    0.000    0.000    0.000 
#
# Total GULP energy -145050.103164 kJ/mol
# GULP energy per Si atom -5578.850122 kJ/mol
# Density = 2.687735 g / cm^3
# Si number density = 26.938659 Si / 1000 Ang^3
#
#
#
# Elastic Constant Matrix: (Units=GPa)
#
#
# Indices 1 2 3 4 5 6 
#
# 1 42.4185 32.8750 35.8493 0.0000 -4.0563 0.0000
# 2 32.8750 378.8511 25.5219 0.0000 -6.2165 0.0000
# 3 35.8493 25.5219 168.5219 0.0000 -7.7013 0.0000
# 4 0.0000 0.0000 0.0000 10.7743 0.0000 -0.5813
# 5 -4.0563 -6.2165 -7.7013 0.0000 43.2038 0.0000
# 6 0.0000 0.0000 0.0000 -0.5813 0.0000 -6.1700
#
#
#
# Elastic Compliance Matrix: (Units=1/GPa)
#
#
# Indices 1 2 3 4 5 6 
#
# 1 0.030595 -0.002220 -0.006105 0.000000 0.001465 0.000000
# 2 -0.002220 0.002832 0.000053 0.000000 0.000209 0.000000
# 3 -0.006105 0.000053 0.007258 0.000000 0.000728 0.000000
# 4 0.000000 0.000000 0.000000 0.092344 0.000000 -0.008701
# 5 0.001465 0.000209 0.000728 0.000000 0.023443 0.000000
# 6 0.000000 0.000000 0.000000 -0.008701 0.000000 -0.161254
#
#
# Mechanical properties :
#
#
# Convention : Reuss Voigt Hill
#
# Bulk Modulus (GPa) = 41.42390 86.47599 63.94995
# Shear Modulus (GPa) = 252.40856 42.59796 147.50326
#
# Velocity S-wave (km/s) = 9.69025 3.98086 7.40771
# Velocity P-wave (km/s) = 11.85798 7.30072 9.84663
#
# Compressibility (1/GPa) = 0.02414065
#
# Stress axis : x y z
#
# Youngs Moduli (GPa) = 32.68546 353.10393 137.77932
#
# Poissons Ratio (x) = 0.78373 0.84118
# Poissons Ratio (y) = 0.07255 -0.00727
# Poissons Ratio (z) = 0.19955 -0.01864
#
# Static dielectric constant tensor:
#      x y z
#    x 2.046400 0.000000 -0.004550 
#    y 0.000000 2.077590 0.000000 
#    z -0.004550 0.000000 2.038660 
# 
# From -- ./inp_files/27907.got.cif
#   From: 2010.05.17/outbox.cif.g08.bks.cpg/sg11_14_cif.got.tgz:27907.got - 2010.06.03 12:22:45.
