data_PCOD9160311
_publ_section_title
;
Structure prediction by ZEFSAII (Michael W. Deem and Ramdas Pophale) SiO2 
 PCOD9160311
Probable space group: P 21/M
;
_chemical_formula_sum "Si O2"
_cell_formula_units_Z 32
_cell_length_a 22.178556
_cell_length_b 7.863751
_cell_length_c 14.571471
_cell_angle_alpha 90.000000
_cell_angle_beta 35.783729
_cell_angle_gamma 90.000000
_cell_volume 1486.003405
_symmetry_space_group_name_H-M "P 21/M"
_symmetry_group_IT_number 11
_symmetry_cell_setting 'monoclinic'
loop_
_space_group_symop_operation_xyz
x,y,z
-x,1/2+y,-z
-x,-y,-z
x,1/2-y,z
loop_
_atom_site_type_symbol
_atom_site_label
_atom_site_fract_x
_atom_site_fract_y
_atom_site_fract_z
Si Si1 0.949317 0.958238 0.788773
Si Si2 0.709196 0.444831 0.404017
Si Si3 0.657865 0.454229 0.668990
Si Si4 0.906271 0.953579 0.049738
Si Si5 0.792613 0.954052 0.825930
Si Si6 0.160520 0.955676 0.432469
Si Si7 0.436176 0.447955 0.876047
Si Si8 0.498723 0.936612 0.605120
O O1 0.949939 0.750000 0.787792
O O2 0.926942 0.012262 0.920386
O O3 0.860200 0.015353 0.828431
O O4 0.061392 0.012710 0.613273
O O5 0.670909 0.250000 0.444852
O O6 0.723631 0.478454 0.494123
O O7 0.618447 0.564650 0.483604
O O8 0.806706 0.466799 0.220079
O O9 0.647306 0.250000 0.694263
O O10 0.730208 0.519959 0.661056
O O11 0.541435 0.520457 0.792578
O O12 0.893387 0.750000 0.063705
O O13 0.000000 0.000000 0.000000
O O14 0.784149 0.750000 0.847142
O O15 0.848850 0.992010 0.661241
O O16 0.675603 0.024125 0.963777
O O17 0.162578 0.750000 0.434682
O O18 0.434107 0.250000 0.905043
O O19 0.448502 0.458980 0.750274
O O20 0.451545 0.750000 0.666183
O O21 0.500000 0.000000 0.500000
#
# Coordination Sequence:
#
# PCOD9160311 Si02
#       8
#     4   4   4   4   4   4   4   4
#     4   9  20  37  56  78 108 149 188 229 289 349
#     4  10  20  37  58  84 116 152 191 235 286 345
#     4   8  16  33  56  79 108 147 185 225 282 346
#     4  11  22  37  58  85 115 152 195 240 291 350
#     4  10  21  37  56  80 111 145 184 235 292 346
#     4  10  19  35  58  79 104 144 191 234 282 345
#     4   9  19  36  56  79 111 149 188 231 286 344
#     4  11  22  36  56  83 115 151 191 234 281 339
#
# _framework density 21.534269999999999
#
# number of rings (size 3 to 8) (size 9 to 14) (size 15 to 20)
#    0.000    2.250    0.000    3.750    1.750    3.000 
#    0.000    6.875    0.000    0.000    0.000    0.000 
#    0.000    0.000    0.000    0.000    0.000    0.000 
#
# Total GULP energy -178556.928416 kJ/mol
# GULP energy per Si atom -5579.904013 kJ/mol
# Density = 2.148526 g / cm^3
# Si number density = 21.534270 Si / 1000 Ang^3
#
#
#
# Elastic Constant Matrix: (Units=GPa)
#
#
# Indices 1 2 3 4 5 6 
#
# 1 116.5293 10.1861 18.7966 0.0000 5.6073 0.0000
# 2 10.1861 30.7673 1.7055 0.0000 -1.4849 0.0000
# 3 18.7966 1.7055 71.8513 0.0000 -11.4630 0.0000
# 4 0.0000 0.0000 0.0000 16.9252 0.0000 7.6780
# 5 5.6073 -1.4849 -11.4630 0.0000 24.4786 0.0000
# 6 0.0000 0.0000 0.0000 7.6780 0.0000 15.0894
#
#
#
# Elastic Compliance Matrix: (Units=1/GPa)
#
#
# Indices 1 2 3 4 5 6 
#
# 1 0.009528 -0.003170 -0.003022 0.000000 -0.003790 0.000000
# 2 -0.003170 0.033668 0.000510 0.000000 0.003007 0.000000
# 3 -0.003022 0.000510 0.016007 0.000000 0.008219 0.000000
# 4 0.000000 0.000000 0.000000 0.076815 0.000000 -0.039086
# 5 -0.003790 0.003007 0.008219 0.000000 0.045752 0.000000
# 6 0.000000 0.000000 0.000000 -0.039086 0.000000 0.086160
#
#
# Mechanical properties :
#
#
# Convention : Reuss Voigt Hill
#
# Bulk Modulus (GPa) = 20.90310 31.16938 26.03624
# Shear Modulus (GPa) = 16.93525 23.86262 20.39894
#
# Velocity S-wave (km/s) = 2.80738 3.33246 3.08113
# Velocity P-wave (km/s) = 4.49850 5.41413 4.97741
#
# Compressibility (1/GPa) = 0.04783980
#
# Stress axis : x y z
#
# Youngs Moduli (GPa) = 104.94846 29.70145 62.47109
#
# Poissons Ratio (x) = 0.09415 0.18880
# Poissons Ratio (y) = 0.33269 -0.03185
# Poissons Ratio (z) = 0.31717 -0.01514
#
# Static dielectric constant tensor:
#      x y z
#    x 1.416880 0.000000 0.604980 
#    y 0.000000 1.794920 0.000000 
#    z 0.604980 0.000000 0.765310 
# 
# From -- ./inp_files/55543.got.cif
#   From: 2010.05.17/outbox.cif.g08.bks.cpg/sg11_28_cif.got.tgz:55543.got - 2010.06.03 12:22:45.
