data_PCOD9160498
_publ_section_title
;
Structure prediction by ZEFSAII (Michael W. Deem and Ramdas Pophale) SiO2 
 PCOD9160498
Probable space group: P 21/M
;
_chemical_formula_sum "Si O2"
_cell_formula_units_Z 32
_cell_length_a 8.715522
_cell_length_b 18.897416
_cell_length_c 14.122838
_cell_angle_alpha 90.000000
_cell_angle_beta 123.908138
_cell_angle_gamma 90.000000
_cell_volume 1930.460270
_symmetry_space_group_name_H-M "P 21/M"
_symmetry_group_IT_number 11
_symmetry_cell_setting 'monoclinic'
loop_
_space_group_symop_operation_xyz
x,y,z
-x,1/2+y,-z
-x,-y,-z
x,1/2-y,z
loop_
_atom_site_type_symbol
_atom_site_label
_atom_site_fract_x
_atom_site_fract_y
_atom_site_fract_z
Si Si1 0.523955 0.547762 0.811176
Si Si2 0.834855 0.334058 0.849537
Si Si3 0.855087 0.446366 0.217616
Si Si4 0.107759 0.041665 0.951579
Si Si5 0.690987 0.833921 0.748181
Si Si6 0.418923 0.559838 0.340752
Si Si7 0.873453 0.168250 0.075119
Si Si8 0.740556 0.564512 0.589651
O O1 0.321354 0.534734 0.781618
O O2 0.555580 0.623769 0.771519
O O3 0.569585 0.489603 0.747440
O O4 0.679549 0.543120 0.945218
O O5 0.859335 0.250000 0.844210
O O6 0.690130 0.370219 0.728572
O O7 0.019775 0.381228 0.906402
O O8 0.780840 0.345612 0.941704
O O9 0.910448 0.501082 0.153770
O O10 0.803432 0.378100 0.137053
O O11 0.038579 0.432724 0.342129
O O12 0.000000 0.000000 0.000000
O O13 0.657641 0.750000 0.730909
O O14 0.683530 0.874531 0.645238
O O15 0.904176 0.844987 0.856221
O O16 0.619814 0.573806 0.454286
O O17 0.313540 0.511362 0.382316
O O18 0.851141 0.250000 0.089598
#
# Coordination Sequence:
#
# PCOD9160498 Si02
#       8
#     4   4   4   4   4   4   4   4
#     4  11  21  30  53  82 111 144 174 216 279 329
#     4  11  20  32  57  81 101 134 178 228 273 312
#     4  11  20  32  51  82 111 144 178 217 272 329
#     4  12  18  35  55  75 109 142 179 225 266 319
#     4   9  17  32  52  76 104 137 178 223 264 312
#     4  10  19  36  53  78 102 137 187 226 262 309
#     4   9  17  31  51  76 106 138 175 218 264 314
#     4   9  19  34  56  75 102 141 185 229 260 306
#
# _framework density 16.576357000000002
#
# number of rings (size 3 to 8) (size 9 to 14) (size 15 to 20)
#    0.000    1.750    5.000    1.125    0.000    1.500 
#    0.000    0.000    0.000    0.750    0.000    0.000 
#    0.000    0.000    0.000    0.000    0.000    0.000 
#
# Total GULP energy -178353.273530 kJ/mol
# GULP energy per Si atom -5573.539798 kJ/mol
# Density = 1.653863 g / cm^3
# Si number density = 16.576357 Si / 1000 Ang^3
#
#
#
# Elastic Constant Matrix: (Units=GPa)
#
#
# Indices 1 2 3 4 5 6 
#
# 1 36.5526 0.9254 -1.1720 0.0000 11.4578 0.0000
# 2 0.9254 87.5612 28.5896 0.0000 2.0405 0.0000
# 3 -1.1720 28.5896 111.4978 0.0000 17.0108 0.0000
# 4 0.0000 0.0000 0.0000 19.7840 0.0000 4.6161
# 5 11.4578 2.0405 17.0108 0.0000 13.7857 0.0000
# 6 0.0000 0.0000 0.0000 4.6161 0.0000 10.5059
#
#
#
# Elastic Compliance Matrix: (Units=1/GPa)
#
#
# Indices 1 2 3 4 5 6 
#
# 1 0.041197 -0.001880 0.007511 0.000000 -0.043230 0.000000
# 2 -0.001880 0.012625 -0.003955 0.000000 0.004574 0.000000
# 3 0.007511 -0.003955 0.013459 0.000000 -0.022264 0.000000
# 4 0.000000 0.000000 0.000000 0.056320 0.000000 -0.024745
# 5 -0.043230 0.004574 -0.022264 0.000000 0.135264 0.000000
# 6 0.000000 0.000000 0.000000 -0.024745 0.000000 0.106057
#
#
# Mechanical properties :
#
#
# Convention : Reuss Voigt Hill
#
# Bulk Modulus (GPa) = 14.15800 32.47749 23.31775
# Shear Modulus (GPa) = 12.98317 22.63303 17.80810
#
# Velocity S-wave (km/s) = 2.80167 3.69911 3.28122
# Velocity P-wave (km/s) = 4.36181 6.15466 5.33410
#
# Compressibility (1/GPa) = 0.07063147
#
# Stress axis : x y z
#
# Youngs Moduli (GPa) = 24.27362 79.20682 74.30216
#
# Poissons Ratio (x) = 0.14893 -0.55805
# Poissons Ratio (y) = 0.04564 0.29386
# Poissons Ratio (z) = -0.18231 0.31325
#
# Static dielectric constant tensor:
#      x y z
#    x 1.545710 0.000000 0.007760 
#    y 0.000000 1.573710 0.000000 
#    z 0.007760 0.000000 1.574570 
# 
# From -- ./inp_files/47931.got.cif
#   From: 2010.05.17/outbox.cif.g08.bks.cpg/sg11_24_cif.got.tgz:47931.got - 2010.06.03 12:22:45.
