data_PCOD9160038
_publ_section_title
;
Structure prediction by ZEFSAII (Michael W. Deem and Ramdas Pophale) SiO2 
 PCOD9160038
Probable space group: P 21/M
;
_chemical_formula_sum "Si O2"
_cell_formula_units_Z 28
_cell_length_a 8.221385
_cell_length_b 8.697601
_cell_length_c 26.955738
_cell_angle_alpha 90.000000
_cell_angle_beta 140.952531
_cell_angle_gamma 90.000000
_cell_volume 1214.259327
_symmetry_space_group_name_H-M "P 21/M"
_symmetry_group_IT_number 11
_symmetry_cell_setting 'monoclinic'
loop_
_space_group_symop_operation_xyz
x,y,z
-x,1/2+y,-z
-x,-y,-z
x,1/2-y,z
loop_
_atom_site_type_symbol
_atom_site_label
_atom_site_fract_x
_atom_site_fract_y
_atom_site_fract_z
Si Si1 0.580827 0.565548 0.397282
Si Si2 0.323419 0.431840 0.032508
Si Si3 0.869842 0.067164 0.110442
Si Si4 0.035134 0.435131 0.306951
Si Si5 0.566119 0.931715 0.735979
Si Si6 0.770606 0.934992 0.543513
Si Si7 0.499464 0.568885 0.170753
O O1 0.570935 0.750000 0.394396
O O2 0.305453 0.496898 0.350145
O O3 0.608198 0.507249 0.347736
O O4 0.779295 0.515205 0.488022
O O5 0.692950 0.750000 0.963344
O O6 0.607808 0.470440 0.077323
O O7 0.311079 0.516233 0.082058
O O8 0.135894 0.482332 0.943780
O O9 0.866800 0.250000 0.099956
O O10 0.130134 0.034340 0.202176
O O11 0.021159 0.250000 0.297391
O O12 0.033114 0.473817 0.365785
O O13 0.788960 0.515696 0.224977
O O14 0.522188 0.750000 0.723250
O O15 0.539996 0.986768 0.786044
O O16 0.759708 0.750000 0.540656
O O17 0.500000 0.000000 0.500000
O O18 0.484200 0.750000 0.173555
#
# Coordination Sequence:
#
# PCOD9160038 Si02
#       7
#     4   4   4   4   4   4   4
#     4  10  19  34  57  86 115 144 182 228 277 326
#     4  10  20  37  62  88 112 140 177 222 274 332
#     4   9  20  38  60  85 111 140 179 224 269 322
#     4  10  19  35  58  83 111 146 187 228 274 328
#     4  11  23  39  57  79 111 151 190 228 274 328
#     4   8  16  30  52  81 111 141 178 226 274 323
#     4  12  25  39  55  79 112 148 187 232 280 329
#
# _framework density 23.059324
#
# number of rings (size 3 to 8) (size 9 to 14) (size 15 to 20)
#    0.000    2.000    0.000    3.857    0.000    4.571 
#    0.000    0.714    0.000    0.000    0.000    0.000 
#    0.000    0.000    0.000    0.000    0.000    0.000 
#
# Total GULP energy -156524.740004 kJ/mol
# GULP energy per Si atom -5590.169286 kJ/mol
# Density = 2.300684 g / cm^3
# Si number density = 23.059324 Si / 1000 Ang^3
#
#
#
# Elastic Constant Matrix: (Units=GPa)
#
#
# Indices 1 2 3 4 5 6 
#
# 1 -39.6313 -114.6740 -66.4778 0.0000 43.2894 0.0000
# 2 -114.6740 -138.3161 -51.8624 0.0000 65.6513 0.0000
# 3 -66.4778 -51.8624 82.4232 0.0000 15.5319 0.0000
# 4 0.0000 0.0000 0.0000 30.4752 0.0000 -13.3533
# 5 43.2894 65.6513 15.5319 0.0000 3.9595 0.0000
# 6 0.0000 0.0000 0.0000 -13.3533 0.0000 25.4407
#
#
#
# Elastic Compliance Matrix: (Units=1/GPa)
#
#
# Indices 1 2 3 4 5 6 
#
# 1 0.022259 -0.016590 0.005896 0.000000 0.008586 0.000000
# 2 -0.016590 0.012189 -0.006929 0.000000 0.006460 0.000000
# 3 0.005896 -0.006929 0.011610 0.000000 0.004873 0.000000
# 4 0.000000 0.000000 0.000000 0.042614 0.000000 0.022367
# 5 0.008586 0.006460 0.004873 0.000000 0.032457 0.000000
# 6 0.000000 0.000000 0.000000 0.022367 0.000000 0.051047
#
#
# Mechanical properties :
#
#
# Convention : Reuss Voigt Hill
#
# Bulk Modulus (GPa) = 92.47849 -62.39473 15.04188
# Shear Modulus (GPa) = 23.69371 21.14107 22.41739
#
# Velocity S-wave (km/s) = 3.20896 3.03118 3.12133
# Velocity P-wave (km/s) = 7.34313 3.85570 4.41900
#
# Compressibility (1/GPa) = 0.01081333
#
# Stress axis : x y z
#
# Youngs Moduli (GPa) = 44.92495 82.04181 86.13145
#
# Poissons Ratio (x) = 1.36109 -0.50786
# Poissons Ratio (y) = 0.74532 0.59677
# Poissons Ratio (z) = -0.26489 0.56843
#
# Static dielectric constant tensor:
#      x y z
#    x 1.946140 0.000000 0.031950 
#    y 0.000000 1.755330 0.000000 
#    z 0.031950 0.000000 1.893400 
# 
# From -- ./inp_files/24059.got.cif
#   From: 2010.05.17/outbox.cif.g08.bks.cpg/sg11_13_cif.got.tgz:24059.got - 2010.06.03 12:22:45.
