data_PCOD9160574
_publ_section_title
;
Structure prediction by ZEFSAII (Michael W. Deem and Ramdas Pophale) SiO2 
 PCOD9160574
Probable space group: P 21/M
;
_chemical_formula_sum "Si O2"
_cell_formula_units_Z 28
_cell_length_a 28.337918
_cell_length_b 8.562197
_cell_length_c 10.470229
_cell_angle_alpha 90.000000
_cell_angle_beta 34.926214
_cell_angle_gamma 90.000000
_cell_volume 1454.456694
_symmetry_space_group_name_H-M "P 21/M"
_symmetry_group_IT_number 11
_symmetry_cell_setting 'monoclinic'
loop_
_space_group_symop_operation_xyz
x,y,z
-x,1/2+y,-z
-x,-y,-z
x,1/2-y,z
loop_
_atom_site_type_symbol
_atom_site_label
_atom_site_fract_x
_atom_site_fract_y
_atom_site_fract_z
Si Si1 0.441633 0.563973 0.517648
Si Si2 0.010457 0.562433 0.120342
Si Si3 0.187930 0.061470 0.801470
Si Si4 0.160937 0.439849 0.382553
Si Si5 0.258547 0.060738 0.918321
Si Si6 0.287031 0.060905 0.327378
Si Si7 0.470930 0.564077 0.927580
O O1 0.500000 0.500000 0.500000
O O2 0.443939 0.750000 0.514129
O O3 0.349006 0.504452 0.743568
O O4 0.474414 0.503680 0.308570
O O5 0.010069 0.750000 0.117604
O O6 0.930974 0.508236 0.377794
O O7 0.000000 0.500000 0.000000
O O8 0.096682 0.504025 0.984410
O O9 0.182928 0.250000 0.811496
O O10 0.227123 0.011862 0.848566
O O11 0.245195 0.016255 0.554676
O O12 0.159542 0.250000 0.385623
O O13 0.225036 0.485502 0.351454
O O14 0.195889 0.489964 0.168507
O O15 0.263009 0.250000 0.910072
O O16 0.295588 0.250000 0.305690
O O17 0.376524 0.986627 0.115061
O O18 0.478322 0.750000 0.910988
O O19 0.500000 0.500000 0.000000
#
# Coordination Sequence:
#
# PCOD9160574 Si02
#       7
#     4   4   4   4   4   4   4
#     4  12  25  43  66  93 126 165 210 258 313 374
#     4  11  21  37  60  87 118 156 201 249 302 360
#     4  10  21  37  59  88 121 158 198 245 304 363
#     4   9  19  36  59  85 116 155 198 243 298 357
#     4  10  21  39  62  88 121 161 202 247 305 366
#     4  10  19  36  59  83 117 158 201 250 305 361
#     4  12  25  41  62  92 125 161 208 258 313 370
#
# _framework density 19.251173000000001
#
# number of rings (size 3 to 8) (size 9 to 14) (size 15 to 20)
#    0.000    1.429    1.429    4.714    0.000    4.000 
#    0.000    1.429    0.000    0.000    0.000    0.000 
#    0.000    0.000    0.000    0.000    0.000    0.000 
#
# Total GULP energy -156572.150333 kJ/mol
# GULP energy per Si atom -5591.862512 kJ/mol
# Density = 1.920736 g / cm^3
# Si number density = 19.251173 Si / 1000 Ang^3
#
#
#
# Elastic Constant Matrix: (Units=GPa)
#
#
# Indices 1 2 3 4 5 6 
#
# 1 62.7747 11.1080 9.7833 0.0000 3.5302 0.0000
# 2 11.1080 41.0224 16.7943 0.0000 0.9202 0.0000
# 3 9.7833 16.7943 115.8318 0.0000 0.9546 0.0000
# 4 0.0000 0.0000 0.0000 27.1942 0.0000 -10.9837
# 5 3.5302 0.9202 0.9546 0.0000 42.8183 0.0000
# 6 0.0000 0.0000 0.0000 -10.9837 0.0000 29.5939
#
#
#
# Elastic Compliance Matrix: (Units=1/GPa)
#
#
# Indices 1 2 3 4 5 6 
#
# 1 0.016873 -0.004211 -0.000804 0.000000 -0.001283 0.000000
# 2 -0.004211 0.026976 -0.003554 0.000000 -0.000153 0.000000
# 3 -0.000804 -0.003554 0.009217 0.000000 -0.000063 0.000000
# 4 0.000000 0.000000 0.000000 0.043257 0.000000 0.016055
# 5 -0.001283 -0.000153 -0.000063 0.000000 0.023465 0.000000
# 6 0.000000 0.000000 0.000000 0.016055 0.000000 0.039750
#
#
# Mechanical properties :
#
#
# Convention : Reuss Voigt Hill
#
# Bulk Modulus (GPa) = 27.83418 32.77778 30.30598
# Shear Modulus (GPa) = 26.50404 32.05082 29.27743
#
# Velocity S-wave (km/s) = 3.71448 4.08472 3.90399
# Velocity P-wave (km/s) = 5.73466 6.26976 6.00817
#
# Compressibility (1/GPa) = 0.03592705
#
# Stress axis : x y z
#
# Youngs Moduli (GPa) = 59.26797 37.07047 108.49565
#
# Poissons Ratio (x) = 0.15610 0.08723
# Poissons Ratio (y) = 0.24957 0.38562
# Poissons Ratio (z) = 0.04765 0.13176
#
# Static dielectric constant tensor:
#      x y z
#    x 1.635840 0.000000 0.011960 
#    y 0.000000 1.652920 0.000000 
#    z 0.011960 0.000000 1.654050 
# 
# From -- ./inp_files/28394.got.cif
#   From: 2010.05.17/outbox.cif.g08.bks.cpg/sg11_15_cif.got.tgz:28394.got - 2010.06.03 12:22:45.
