data_PCOD9160398
_publ_section_title
;
Structure prediction by ZEFSAII (Michael W. Deem and Ramdas Pophale) SiO2 
 PCOD9160398
Probable space group: P 21/M
;
_chemical_formula_sum "Si O2"
_cell_formula_units_Z 20
_cell_length_a 11.688542
_cell_length_b 10.248798
_cell_length_c 9.692772
_cell_angle_alpha 90.000000
_cell_angle_beta 55.999673
_cell_angle_gamma 90.000000
_cell_volume 962.617636
_symmetry_space_group_name_H-M "P 21/M"
_symmetry_group_IT_number 11
_symmetry_cell_setting 'monoclinic'
loop_
_space_group_symop_operation_xyz
x,y,z
-x,1/2+y,-z
-x,-y,-z
x,1/2-y,z
loop_
_atom_site_type_symbol
_atom_site_label
_atom_site_fract_x
_atom_site_fract_y
_atom_site_fract_z
Si Si1 0.109463 0.596113 0.740555
Si Si2 0.775180 0.103631 0.642203
Si Si3 0.401015 0.599290 0.647298
Si Si4 0.529694 0.968301 0.138546
Si Si5 0.822245 0.899926 0.857057
O O1 0.105094 0.750000 0.775240
O O2 0.146079 0.578624 0.553684
O O3 0.244077 0.549678 0.731271
O O4 0.952068 0.549753 0.859725
O O5 0.809432 0.250000 0.668518
O O6 0.611169 0.100167 0.719538
O O7 0.806687 0.995315 0.736051
O O8 0.500000 0.500000 0.500000
O O9 0.411777 0.750000 0.593109
O O10 0.445374 0.589232 0.776898
O O11 0.677236 0.898235 0.035108
O O12 0.500000 0.000000 0.000000
O O13 0.850893 0.750000 0.793572
#
# Coordination Sequence:
#
# PCOD9160398 Si02
#       5
#     4   4   4   4   4
#     4   9  19  37  59  87 123 159 197 253 312 359
#     4  10  19  35  59  85 122 164 204 252 303 358
#     4  11  23  42  67  93 123 163 206 255 311 369
#     4  10  22  37  59  90 122 158 204 249 296 358
#     4  10  21  36  58  88 124 162 203 251 303 362
#
# _framework density 20.776682000000001
#
# number of rings (size 3 to 8) (size 9 to 14) (size 15 to 20)
#    0.000    2.000    2.000    1.200    0.000    8.000 
#    0.000    1.000    0.000    0.000    0.000    0.000 
#    0.000    0.000    0.000    0.000    0.000    0.000 
#
# Total GULP energy -111424.910480 kJ/mol
# GULP energy per Si atom -5571.245524 kJ/mol
# Density = 2.072939 g / cm^3
# Si number density = 20.776682 Si / 1000 Ang^3
#
#
#
# Elastic Constant Matrix: (Units=GPa)
#
#
# Indices 1 2 3 4 5 6 
#
# 1 152.8040 34.9942 38.0598 0.0000 -25.3652 0.0000
# 2 34.9942 87.8045 14.7068 0.0000 5.7585 0.0000
# 3 38.0598 14.7068 51.3392 0.0000 -21.4562 0.0000
# 4 0.0000 0.0000 0.0000 19.9716 0.0000 3.0974
# 5 -25.3652 5.7585 -21.4562 0.0000 43.9549 0.0000
# 6 0.0000 0.0000 0.0000 3.0974 0.0000 29.6089
#
#
#
# Elastic Compliance Matrix: (Units=1/GPa)
#
#
# Indices 1 2 3 4 5 6 
#
# 1 0.008877 -0.003048 -0.004271 0.000000 0.003437 0.000000
# 2 -0.003048 0.013619 -0.003923 0.000000 -0.005458 0.000000
# 3 -0.004271 -0.003923 0.028836 0.000000 0.012125 0.000000
# 4 0.000000 0.000000 0.000000 0.050897 0.000000 -0.005324
# 5 0.003437 -0.005458 0.012125 0.000000 0.031368 0.000000
# 6 0.000000 0.000000 0.000000 -0.005324 0.000000 0.034331
#
#
# Mechanical properties :
#
#
# Convention : Reuss Voigt Hill
#
# Bulk Modulus (GPa) = 34.66488 51.94104 43.30296
# Shear Modulus (GPa) = 24.99679 32.31954 28.65817
#
# Velocity S-wave (km/s) = 3.47236 3.94835 3.71798
# Velocity P-wave (km/s) = 5.72688 6.77052 6.27045
#
# Compressibility (1/GPa) = 0.02884764
#
# Stress axis : x y z
#
# Youngs Moduli (GPa) = 112.65489 73.42896 34.67903
#
# Poissons Ratio (x) = 0.22379 0.14812
# Poissons Ratio (y) = 0.34335 0.13604
# Poissons Ratio (z) = 0.48117 0.28805
#
# Static dielectric constant tensor:
#      x y z
#    x 1.806550 0.000000 -0.004870 
#    y 0.000000 1.733350 0.000000 
#    z -0.004870 0.000000 1.795710 
# 
# From -- ./inp_files/16788.got.cif
#   From: 2010.05.17/outbox.cif.g08.bks.cpg/sg11_9_cif.got.tgz:16788.got - 2010.06.03 12:22:45.
