data_PCOD9160245
_publ_section_title
;
Structure prediction by ZEFSAII (Michael W. Deem and Ramdas Pophale) SiO2 
 PCOD9160245
Probable space group: P 21/M
;
_chemical_formula_sum "Si O2"
_cell_formula_units_Z 32
_cell_length_a 32.309233
_cell_length_b 7.678992
_cell_length_c 12.692837
_cell_angle_alpha 90.000000
_cell_angle_beta 151.569388
_cell_angle_gamma 90.000000
_cell_volume 1499.278745
_symmetry_space_group_name_H-M "P 21/M"
_symmetry_group_IT_number 11
_symmetry_cell_setting 'monoclinic'
loop_
_space_group_symop_operation_xyz
x,y,z
-x,1/2+y,-z
-x,-y,-z
x,1/2-y,z
loop_
_atom_site_type_symbol
_atom_site_label
_atom_site_fract_x
_atom_site_fract_y
_atom_site_fract_z
Si Si1 0.726309 0.456328 0.968506
Si Si2 0.815401 0.952540 0.359905
Si Si3 0.434830 0.958115 0.260844
Si Si4 0.488980 0.052968 0.153819
Si Si5 0.676353 0.042542 0.624600
Si Si6 0.812085 0.960363 0.749913
Si Si7 0.299230 0.464060 0.701582
Si Si8 0.997564 0.457531 0.870873
O O1 0.713972 0.250000 0.931186
O O2 0.811700 0.481103 0.230894
O O3 0.655185 0.522070 0.892298
O O4 0.705238 0.526764 0.804837
O O5 0.796533 0.750000 0.311766
O O6 0.746186 0.027251 0.291444
O O7 0.910459 0.973821 0.622701
O O8 0.432617 0.750000 0.235335
O O9 0.500000 0.000000 0.500000
O O10 0.464456 0.053574 0.222600
O O11 0.496166 0.250000 0.127216
O O12 0.585525 0.970703 0.372230
O O13 0.399015 0.975315 0.906664
O O14 0.660306 0.250000 0.599901
O O15 0.754717 0.015339 0.720148
O O16 0.814056 0.750000 0.751790
O O17 0.762700 0.016380 0.532971
O O18 0.911325 0.023148 0.973086
O O19 0.302205 0.250000 0.711604
O O20 0.995447 0.250000 0.854652
O O21 0.000000 0.500000 0.000000
#
# Coordination Sequence:
#
# PCOD9160245 Si02
#       8
#     4   4   4   4   4   4   4   4
#     4  10  21  37  55  82 121 156 194 245 295 340
#     4  11  21  36  61  93 121 148 189 240 303 359
#     4  11  20  31  51  80 113 150 195 243 288 338
#     4  10  19  35  56  82 118 157 193 239 292 339
#     4  10  22  39  57  81 117 162 203 240 285 340
#     4  10  22  41  60  83 116 154 195 238 289 350
#     4   9  18  34  57  85 119 151 184 235 292 343
#     4  11  22  39  64  92 121 150 188 242 300 352
#
# _framework density 21.343596000000002
#
# number of rings (size 3 to 8) (size 9 to 14) (size 15 to 20)
#    0.000    1.750    3.750    1.125    0.000    3.000 
#    0.000    1.250    0.000    0.000    0.000    0.000 
#    0.000    0.000    0.000    0.000    0.000    0.000 
#
# Total GULP energy -178505.701060 kJ/mol
# GULP energy per Si atom -5578.303158 kJ/mol
# Density = 2.129502 g / cm^3
# Si number density = 21.343596 Si / 1000 Ang^3
#
#
#
# Elastic Constant Matrix: (Units=GPa)
#
#
# Indices 1 2 3 4 5 6 
#
# 1 82.4029 -0.5186 40.0925 0.0000 18.9915 0.0000
# 2 -0.5186 51.0282 1.0031 0.0000 3.8339 0.0000
# 3 40.0925 1.0031 142.8576 0.0000 15.0935 0.0000
# 4 0.0000 0.0000 0.0000 15.2242 0.0000 -0.5361
# 5 18.9915 3.8339 15.0935 0.0000 29.0175 0.0000
# 6 0.0000 0.0000 0.0000 -0.5361 0.0000 20.0338
#
#
#
# Elastic Compliance Matrix: (Units=1/GPa)
#
#
# Indices 1 2 3 4 5 6 
#
# 1 0.015859 0.000881 -0.003543 0.000000 -0.008653 0.000000
# 2 0.000881 0.019845 -0.000051 0.000000 -0.003172 0.000000
# 3 -0.003543 -0.000051 0.008200 0.000000 -0.001940 0.000000
# 4 0.000000 0.000000 0.000000 0.065747 0.000000 0.001759
# 5 -0.008653 -0.003172 -0.001940 0.000000 0.041553 0.000000
# 6 0.000000 0.000000 0.000000 0.001759 0.000000 0.049963
#
#
# Mechanical properties :
#
#
# Convention : Reuss Voigt Hill
#
# Bulk Modulus (GPa) = 25.98930 39.71583 32.85257
# Shear Modulus (GPa) = 22.78749 28.56923 25.67836
#
# Velocity S-wave (km/s) = 3.27104 3.66257 3.47233
# Velocity P-wave (km/s) = 5.14483 6.04435 5.61264
#
# Compressibility (1/GPa) = 0.03847737
#
# Stress axis : x y z
#
# Youngs Moduli (GPa) = 63.05558 50.38979 121.95842
#
# Poissons Ratio (x) = -0.04439 0.43207
# Poissons Ratio (y) = -0.05555 0.00628
# Poissons Ratio (z) = 0.22339 0.00259
#
# Static dielectric constant tensor:
#      x y z
#    x 1.743910 0.000000 0.008130 
#    y 0.000000 1.824030 0.000000 
#    z 0.008130 0.000000 1.922560 
# 
# From -- ./inp_files/45132.got.cif
#   From: 2010.05.17/outbox.cif.g08.bks.cpg/sg11_23_cif.got.tgz:45132.got - 2010.06.03 12:22:45.
