data_PCOD9160615
_publ_section_title
;
Structure prediction by ZEFSAII (Michael W. Deem and Ramdas Pophale) SiO2 
 PCOD9160615
Probable space group: P 21/M
;
_chemical_formula_sum "Si O2"
_cell_formula_units_Z 28
_cell_length_a 13.758182
_cell_length_b 8.969645
_cell_length_c 11.916137
_cell_angle_alpha 90.000000
_cell_angle_beta 103.352515
_cell_angle_gamma 90.000000
_cell_volume 1430.771154
_symmetry_space_group_name_H-M "P 21/M"
_symmetry_group_IT_number 11
_symmetry_cell_setting 'monoclinic'
loop_
_space_group_symop_operation_xyz
x,y,z
-x,1/2+y,-z
-x,-y,-z
x,1/2-y,z
loop_
_atom_site_type_symbol
_atom_site_label
_atom_site_fract_x
_atom_site_fract_y
_atom_site_fract_z
Si Si1 0.357736 0.428872 0.716687
Si Si2 0.017087 0.920556 0.329498
Si Si3 0.284172 0.431343 0.178024
Si Si4 0.467268 0.428759 0.373762
Si Si5 0.390511 0.429032 0.976378
Si Si6 0.945218 0.572851 0.880993
Si Si7 0.842202 0.922765 0.467465
O O1 0.375068 0.250000 0.711680
O O2 0.453455 0.517085 0.698057
O O3 0.338608 0.461246 0.842789
O O4 0.263650 0.465658 0.613106
O O5 0.027749 0.750000 0.295914
O O6 0.924210 0.929147 0.390078
O O7 0.001680 0.024487 0.219140
O O8 0.114477 0.975822 0.422835
O O9 0.283828 0.250000 0.177701
O O10 0.358239 0.475807 0.298642
O O11 0.170027 0.480030 0.158171
O O12 0.330896 0.479590 0.070916
O O13 0.500000 0.500000 0.500000
O O14 0.468604 0.250000 0.384104
O O15 0.400828 0.250000 0.987354
O O16 0.500000 0.500000 0.000000
O O17 0.945016 0.750000 0.893398
O O18 0.000000 0.500000 0.000000
O O19 0.836537 0.750000 0.504790
#
# Coordination Sequence:
#
# PCOD9160615 Si02
#       7
#     4   4   4   4   4   4   4
#     4  10  21  36  60  89 116 153 196 239 293 354
#     4  10  21  39  62  88 118 153 197 248 298 353
#     4   9  21  40  62  83 115 159 196 234 297 358
#     4  11  23  40  60  87 121 159 199 244 294 356
#     4  10  19  36  60  85 113 147 189 236 284 344
#     4  11  24  42  63  87 118 159 203 248 295 357
#     4   9  20  38  61  86 117 156 195 240 299 361
#
# _framework density 19.569866000000001
#
# number of rings (size 3 to 8) (size 9 to 14) (size 15 to 20)
#    0.000    2.000    1.429    1.286    4.000    1.143 
#    0.000    3.571    0.000    0.000    0.000    0.000 
#    0.000    0.000    0.000    0.000    0.000    0.000 
#
# Total GULP energy -156379.998816 kJ/mol
# GULP energy per Si atom -5584.999958 kJ/mol
# Density = 1.952532 g / cm^3
# Si number density = 19.569866 Si / 1000 Ang^3
#
#
#
# Elastic Constant Matrix: (Units=GPa)
#
#
# Indices 1 2 3 4 5 6 
#
# 1 45.0585 21.7746 14.4742 0.0000 22.2779 0.0000
# 2 21.7746 41.8688 35.9603 0.0000 8.8438 0.0000
# 3 14.4742 35.9603 106.3030 0.0000 13.4812 0.0000
# 4 0.0000 0.0000 0.0000 34.6014 0.0000 -0.4648
# 5 22.2779 8.8438 13.4812 0.0000 34.8744 0.0000
# 6 0.0000 0.0000 0.0000 -0.4648 0.0000 26.5484
#
#
#
# Elastic Compliance Matrix: (Units=1/GPa)
#
#
# Indices 1 2 3 4 5 6 
#
# 1 0.042493 -0.020755 0.004217 0.000000 -0.023512 0.000000
# 2 -0.020755 0.044442 -0.013102 0.000000 0.007053 0.000000
# 3 0.004217 -0.013102 0.013865 0.000000 -0.004731 0.000000
# 4 0.000000 0.000000 0.000000 0.028907 0.000000 0.000506
# 5 -0.023512 0.007053 -0.004731 0.000000 0.043734 0.000000
# 6 0.000000 0.000000 0.000000 0.000506 0.000000 0.037676
#
#
# Mechanical properties :
#
#
# Convention : Reuss Voigt Hill
#
# Bulk Modulus (GPa) = 24.08509 37.51649 30.80079
# Shear Modulus (GPa) = 17.59093 27.27291 22.43192
#
# Velocity S-wave (km/s) = 3.00138 3.73717 3.38930
# Velocity P-wave (km/s) = 4.93407 6.15094 5.57580
#
# Compressibility (1/GPa) = 0.04151946
#
# Stress axis : x y z
#
# Youngs Moduli (GPa) = 23.53311 22.50149 72.12350
#
# Poissons Ratio (x) = 0.46701 -0.30413
# Poissons Ratio (y) = 0.48843 0.94498
# Poissons Ratio (z) = -0.09923 0.29482
#
# Static dielectric constant tensor:
#      x y z
#    x 1.677330 0.000000 -0.010350 
#    y 0.000000 1.660760 0.000000 
#    z -0.010350 0.000000 1.693740 
# 
# From -- ./inp_files/37706.got.cif
#   From: 2010.05.17/outbox.cif.g08.bks.cpg/sg11_19_cif.got.tgz:37706.got - 2010.06.03 12:22:45.
