data_PCOD9160034
_publ_section_title
;
Structure prediction by ZEFSAII (Michael W. Deem and Ramdas Pophale) SiO2 
 PCOD9160034
Probable space group: P 21/M
;
_chemical_formula_sum "Si O2"
_cell_formula_units_Z 32
_cell_length_a 34.494470
_cell_length_b 7.870255
_cell_length_c 12.985952
_cell_angle_alpha 90.000000
_cell_angle_beta 24.291893
_cell_angle_gamma 90.000000
_cell_volume 1450.310344
_symmetry_space_group_name_H-M "P 21/M"
_symmetry_group_IT_number 11
_symmetry_cell_setting 'monoclinic'
loop_
_space_group_symop_operation_xyz
x,y,z
-x,1/2+y,-z
-x,-y,-z
x,1/2-y,z
loop_
_atom_site_type_symbol
_atom_site_label
_atom_site_fract_x
_atom_site_fract_y
_atom_site_fract_z
Si Si1 0.619073 0.053468 0.904897
Si Si2 0.927645 0.542739 0.438342
Si Si3 0.858480 0.448346 0.052669
Si Si4 0.392139 0.455039 0.734852
Si Si5 0.755392 0.548520 0.738073
Si Si6 0.414749 0.458710 0.454010
Si Si7 0.890173 0.952521 0.752967
Si Si8 0.660087 0.554258 0.583897
O O1 0.621083 0.250000 0.926405
O O2 0.711897 0.977427 0.731410
O O3 0.616625 0.034039 0.788392
O O4 0.523475 0.982784 0.186036
O O5 0.935241 0.750000 0.422293
O O6 0.860297 0.484805 0.509306
O O7 0.873047 0.496009 0.676601
O O8 0.036132 0.483843 0.178374
O O9 0.854327 0.250000 0.090027
O O10 0.843076 0.466493 0.966607
O O11 0.773025 0.540823 0.314813
O O12 0.500000 0.500000 0.500000
O O13 0.385728 0.250000 0.750232
O O14 0.371086 0.512431 0.668586
O O15 0.320345 0.520414 0.995375
O O16 0.760434 0.750000 0.743041
O O17 0.411625 0.250000 0.460472
O O18 0.369695 0.515673 0.455531
O O19 0.875647 0.750000 0.795984
O O20 0.000000 0.000000 0.500000
O O21 0.630518 0.750000 0.660228
#
# Coordination Sequence:
#
# PCOD9160034 Si02
#       8
#     4   4   4   4   4   4   4   4
#     4  11  22  40  60  81 115 150 185 235 289 337
#     4   8  17  33  55  80 111 150 190 230 275 332
#     4  10  20  36  54  80 115 149 189 238 290 336
#     4  10  19  34  57  85 118 150 183 226 278 334
#     4  10  20  35  59  86 113 151 194 230 272 336
#     4   9  20  37  59  85 115 149 184 227 283 342
#     4   9  16  29  51  77 109 149 186 228 280 331
#     4  11  23  39  61  85 109 146 196 239 282 340
#
# _framework density 22.064243999999999
#
# number of rings (size 3 to 8) (size 9 to 14) (size 15 to 20)
#    0.000    2.250    1.250    2.625    1.750    0.000 
#    0.000    7.500    0.000    0.000    0.000    0.000 
#    0.000    0.000    0.000    0.000    0.000    0.000 
#
# Total GULP energy -178591.761890 kJ/mol
# GULP energy per Si atom -5580.992559 kJ/mol
# Density = 2.201402 g / cm^3
# Si number density = 22.064244 Si / 1000 Ang^3
#
#
#
# Elastic Constant Matrix: (Units=GPa)
#
#
# Indices 1 2 3 4 5 6 
#
# 1 107.3570 0.7166 7.9721 0.0000 -11.3066 0.0000
# 2 0.7166 24.3506 -2.9637 0.0000 -2.5549 0.0000
# 3 7.9721 -2.9637 35.8148 0.0000 -2.5733 0.0000
# 4 0.0000 0.0000 0.0000 18.9318 0.0000 3.7970
# 5 -11.3066 -2.5549 -2.5733 0.0000 33.4411 0.0000
# 6 0.0000 0.0000 0.0000 3.7970 0.0000 18.4926
#
#
#
# Elastic Compliance Matrix: (Units=1/GPa)
#
#
# Indices 1 2 3 4 5 6 
#
# 1 0.009794 -0.000198 -0.001970 0.000000 0.003144 0.000000
# 2 -0.000198 0.041889 0.003756 0.000000 0.003422 0.000000
# 3 -0.001970 0.003756 0.028803 0.000000 0.001837 0.000000
# 4 0.000000 0.000000 0.000000 0.055090 0.000000 -0.011311
# 5 0.003144 0.003422 0.001837 0.000000 0.031369 0.000000
# 6 0.000000 0.000000 0.000000 -0.011311 0.000000 0.056398
#
#
# Mechanical properties :
#
#
# Convention : Reuss Voigt Hill
#
# Bulk Modulus (GPa) = 11.95304 19.88582 15.91943
# Shear Modulus (GPa) = 20.15692 24.95960 22.55826
#
# Velocity S-wave (km/s) = 3.02579 3.36702 3.20095
# Velocity P-wave (km/s) = 4.19956 4.91406 4.57079
#
# Compressibility (1/GPa) = 0.08366071
#
# Stress axis : x y z
#
# Youngs Moduli (GPa) = 102.10824 23.87273 34.71879
#
# Poissons Ratio (x) = 0.00473 0.06841
# Poissons Ratio (y) = 0.02023 -0.13041
# Poissons Ratio (z) = 0.20120 -0.08967
#
# Static dielectric constant tensor:
#      x y z
#    x 1.843320 0.000000 -0.030060 
#    y 0.000000 1.795920 0.000000 
#    z -0.030060 0.000000 1.813210 
# 
# From -- ./inp_files/45171.got.cif
#   From: 2010.05.17/outbox.cif.g08.bks.cpg/sg11_23_cif.got.tgz:45171.got - 2010.06.03 12:22:45.
