data_PCOD9160707
_publ_section_title
;
Structure prediction by ZEFSAII (Michael W. Deem and Ramdas Pophale) SiO2 
 PCOD9160707
Probable space group: P 21/M
;
_chemical_formula_sum "Si O2"
_cell_formula_units_Z 32
_cell_length_a 5.245662
_cell_length_b 13.100982
_cell_length_c 22.225143
_cell_angle_alpha 90.000000
_cell_angle_beta 75.063974
_cell_angle_gamma 90.000000
_cell_volume 1475.781759
_symmetry_space_group_name_H-M "P 21/M"
_symmetry_group_IT_number 11
_symmetry_cell_setting 'monoclinic'
loop_
_space_group_symop_operation_xyz
x,y,z
-x,1/2+y,-z
-x,-y,-z
x,1/2-y,z
loop_
_atom_site_type_symbol
_atom_site_label
_atom_site_fract_x
_atom_site_fract_y
_atom_site_fract_z
Si Si1 0.113068 0.869142 0.327373
Si Si2 0.668792 0.638214 0.812442
Si Si3 0.231067 0.929899 0.065667
Si Si4 0.558210 0.019882 0.273269
Si Si5 0.009493 0.929579 0.196094
Si Si6 0.272242 0.933367 0.933018
Si Si7 0.429416 0.629995 0.617254
Si Si8 0.992366 0.029594 0.431082
O O1 0.126047 0.750000 0.339624
O O2 0.030288 0.883002 0.261826
O O3 0.389370 0.928908 0.311263
O O4 0.962868 0.930653 0.389036
O O5 0.791136 0.750000 0.811607
O O6 0.586426 0.614625 0.749050
O O7 0.847917 0.539837 0.813713
O O8 0.418222 0.630461 0.872558
O O9 0.518342 0.975464 0.064398
O O10 0.009747 0.019631 0.068626
O O11 0.123428 0.872806 0.131504
O O12 0.243341 0.878351 0.999549
O O13 0.714437 0.073012 0.317755
O O14 0.706545 0.962162 0.210202
O O15 0.430313 0.750000 0.625050
O O16 0.258466 0.599238 0.569859
O O17 0.729507 0.587695 0.598427
O O18 0.000000 0.000000 0.500000
#
# Coordination Sequence:
#
# PCOD9160707 Si02
#       8
#     4   4   4   4   4   4   4   4
#     4  10  23  41  63  88 121 163 208 257 307 360
#     4  10  20  32  52  84 122 158 200 251 310 371
#     4   9  17  31  55  75 108 150 198 247 302 357
#     4  10  20  38  57  88 122 161 205 255 303 366
#     4  10  19  37  57  84 115 157 204 252 307 365
#     4   9  17  31  49  79 107 152 199 242 302 366
#     4  11  23  41  66  96 131 168 203 250 313 371
#     4  11  24  45  67  97 131 163 209 257 301 369
#
# _framework density 21.683423000000001
#
# number of rings (size 3 to 8) (size 9 to 14) (size 15 to 20)
#    0.000    2.000    2.500    1.125    0.000    2.500 
#    0.000    0.625    0.000    0.000    0.000    0.000 
#    0.000    0.000    0.000    0.000    0.000    0.000 
#
# Total GULP energy -178183.853791 kJ/mol
# GULP energy per Si atom -5568.245431 kJ/mol
# Density = 2.163407 g / cm^3
# Si number density = 21.683423 Si / 1000 Ang^3
#
#
#
# Elastic Constant Matrix: (Units=GPa)
#
#
# Indices 1 2 3 4 5 6 
#
# 1 64.2849 16.3427 1.3943 0.0000 13.3052 0.0000
# 2 16.3427 122.4969 40.6997 0.0000 3.4078 0.0000
# 3 1.3943 40.6997 116.4421 0.0000 20.6026 0.0000
# 4 0.0000 0.0000 0.0000 7.0382 0.0000 -0.1109
# 5 13.3052 3.4078 20.6026 0.0000 37.8105 0.0000
# 6 0.0000 0.0000 0.0000 -0.1109 0.0000 2.8725
#
#
#
# Elastic Compliance Matrix: (Units=1/GPa)
#
#
# Indices 1 2 3 4 5 6 
#
# 1 0.017699 -0.002840 0.002033 0.000000 -0.007080 0.000000
# 2 -0.002840 0.009728 -0.003749 0.000000 0.002166 0.000000
# 3 0.002033 -0.003749 0.011002 0.000000 -0.006372 0.000000
# 4 0.000000 0.000000 0.000000 0.142168 0.000000 0.005486
# 5 -0.007080 0.002166 -0.006372 0.000000 0.032216 0.000000
# 6 0.000000 0.000000 0.000000 0.005486 0.000000 0.348336
#
#
# Mechanical properties :
#
#
# Convention : Reuss Voigt Hill
#
# Bulk Modulus (GPa) = 34.11010 46.67748 40.39379
# Shear Modulus (GPa) = 8.62021 25.86338 17.24180
#
# Velocity S-wave (km/s) = 1.99602 3.45740 2.82292
# Velocity P-wave (km/s) = 4.59100 6.12468 5.41244
#
# Compressibility (1/GPa) = 0.02931683
#
# Stress axis : x y z
#
# Youngs Moduli (GPa) = 56.50026 102.79799 90.89615
#
# Poissons Ratio (x) = 0.29194 -0.18483
# Poissons Ratio (y) = 0.16046 0.34080
# Poissons Ratio (z) = -0.11489 0.38542
#
# Static dielectric constant tensor:
#      x y z
#    x 1.873090 0.000000 -0.021920 
#    y 0.000000 1.761770 0.000000 
#    z -0.021920 0.000000 1.934170 
# 
# From -- ./inp_files/67618.got.cif
#   From: 2010.05.17/outbox.cif.g08.bks.cpg/sg11_34_cif.got.tgz:67618.got - 2010.06.03 12:22:45.
