data_PCOD9160359
_publ_section_title
;
Structure prediction by ZEFSAII (Michael W. Deem and Ramdas Pophale) SiO2 
 PCOD9160359
Probable space group: P 21/M
;
_chemical_formula_sum "Si O2"
_cell_formula_units_Z 24
_cell_length_a 24.505369
_cell_length_b 8.631985
_cell_length_c 12.795376
_cell_angle_alpha 90.000000
_cell_angle_beta 29.623753
_cell_angle_gamma 90.000000
_cell_volume 1337.881343
_symmetry_space_group_name_H-M "P 21/M"
_symmetry_group_IT_number 11
_symmetry_cell_setting 'monoclinic'
loop_
_space_group_symop_operation_xyz
x,y,z
-x,1/2+y,-z
-x,-y,-z
x,1/2-y,z
loop_
_atom_site_type_symbol
_atom_site_label
_atom_site_fract_x
_atom_site_fract_y
_atom_site_fract_z
Si Si1 0.729330 0.064805 0.817022
Si Si2 0.881341 0.561567 0.980735
Si Si3 0.271746 0.435476 0.577740
Si Si4 0.884122 0.936213 0.736168
Si Si5 0.871940 0.436609 0.371899
Si Si6 0.499146 0.065525 0.883483
O O1 0.723880 0.250000 0.835543
O O2 0.805885 0.029343 0.588687
O O3 0.787682 0.994772 0.821280
O O4 0.608752 0.998101 0.995014
O O5 0.882319 0.750000 0.978826
O O6 0.784897 0.512865 0.219732
O O7 0.868876 0.511911 0.881581
O O8 0.001254 0.514025 0.824781
O O9 0.284802 0.250000 0.557180
O O10 0.188820 0.482106 0.622645
O O11 0.389070 0.511912 0.358855
O O12 0.888369 0.750000 0.727535
O O13 0.000000 0.000000 0.500000
O O14 0.868409 0.250000 0.362334
O O15 0.495057 0.250000 0.895775
O O16 0.500000 0.000000 0.000000
#
# Coordination Sequence:
#
# PCOD9160359 Si02
#       6
#     4   4   4   4   4   4
#     4  11  22  38  61  90 120 150 195 247 294 344
#     4   9  20  38  58  84 121 159 193 239 293 345
#     4  11  22  37  59  87 119 156 197 239 292 351
#     4  11  21  38  61  87 120 158 200 243 291 345
#     4  10  19  35  58  85 121 156 188 238 295 347
#     4  12  24  40  61  86 117 154 196 242 292 347
#
# _framework density 17.938808999999999
#
# number of rings (size 3 to 8) (size 9 to 14) (size 15 to 20)
#    0.000    1.333    3.333    3.500    0.000    0.667 
#    0.000    5.000    0.000    0.000    0.000    0.000 
#    0.000    0.000    0.000    0.000    0.000    0.000 
#
# Total GULP energy -134144.390382 kJ/mol
# GULP energy per Si atom -5589.349599 kJ/mol
# Density = 1.789798 g / cm^3
# Si number density = 17.938809 Si / 1000 Ang^3
#
#
#
# Elastic Constant Matrix: (Units=GPa)
#
#
# Indices 1 2 3 4 5 6 
#
# 1 120.2268 36.2839 79.8935 0.0000 -22.3291 0.0000
# 2 36.2839 58.3415 44.8652 0.0000 -0.7458 0.0000
# 3 79.8935 44.8652 166.7695 0.0000 -6.8927 0.0000
# 4 0.0000 0.0000 0.0000 23.8255 0.0000 -8.4547
# 5 -22.3291 -0.7458 -6.8927 0.0000 25.3190 0.0000
# 6 0.0000 0.0000 0.0000 -8.4547 0.0000 28.4043
#
#
#
# Elastic Compliance Matrix: (Units=1/GPa)
#
#
# Indices 1 2 3 4 5 6 
#
# 1 0.016076 -0.005437 -0.005724 0.000000 0.012459 0.000000
# 2 -0.005437 0.023473 -0.003924 0.000000 -0.005172 0.000000
# 3 -0.005724 -0.003924 0.009690 0.000000 -0.002526 0.000000
# 4 0.000000 0.000000 0.000000 0.046929 0.000000 0.013969
# 5 0.012459 -0.005172 -0.002526 0.000000 0.049644 0.000000
# 6 0.000000 0.000000 0.000000 0.013969 0.000000 0.039364
#
#
# Mechanical properties :
#
#
# Convention : Reuss Voigt Hill
#
# Bulk Modulus (GPa) = 52.44026 74.15811 63.29918
# Shear Modulus (GPa) = 22.55279 27.79611 25.17445
#
# Velocity S-wave (km/s) = 3.54956 3.94063 3.75020
# Velocity P-wave (km/s) = 6.78936 7.88251 7.35627
#
# Compressibility (1/GPa) = 0.01906932
#
# Stress axis : x y z
#
# Youngs Moduli (GPa) = 62.20395 42.60140 103.20296
#
# Poissons Ratio (x) = 0.23163 0.59072
# Poissons Ratio (y) = 0.33821 0.40496
# Poissons Ratio (z) = 0.35604 0.16717
#
# Static dielectric constant tensor:
#      x y z
#    x 1.583550 0.000000 0.008380 
#    y 0.000000 1.592390 0.000000 
#    z 0.008380 0.000000 1.601090 
# 
# From -- ./inp_files/33687.got.cif
#   From: 2010.05.17/outbox.cif.g08.bks.cpg/sg11_17_cif.got.tgz:33687.got - 2010.06.03 12:22:45.
