data_PCOD9160192
_publ_section_title
;
Structure prediction by ZEFSAII (Michael W. Deem and Ramdas Pophale) SiO2 
 PCOD9160192
Probable space group: P 21/M
;
_chemical_formula_sum "Si O2"
_cell_formula_units_Z 28
_cell_length_a 12.461262
_cell_length_b 7.494914
_cell_length_c 15.030742
_cell_angle_alpha 90.000000
_cell_angle_beta 110.288800
_cell_angle_gamma 90.000000
_cell_volume 1316.715377
_symmetry_space_group_name_H-M "P 21/M"
_symmetry_group_IT_number 11
_symmetry_cell_setting 'monoclinic'
loop_
_space_group_symop_operation_xyz
x,y,z
-x,1/2+y,-z
-x,-y,-z
x,1/2-y,z
loop_
_atom_site_type_symbol
_atom_site_label
_atom_site_fract_x
_atom_site_fract_y
_atom_site_fract_z
Si Si1 0.718396 0.044736 0.774989
Si Si2 0.388144 0.966739 0.078487
Si Si3 0.762383 0.465232 0.451660
Si Si4 0.866528 0.539963 0.296858
Si Si5 0.120221 0.530523 0.331429
Si Si6 0.355734 0.039577 0.864807
Si Si7 0.492661 0.537608 0.603181
O O1 0.751857 0.250000 0.800172
O O2 0.689468 0.966414 0.862974
O O3 0.814762 0.967133 0.738111
O O4 0.599735 0.042872 0.685638
O O5 0.390804 0.750000 0.082533
O O6 0.519397 0.032057 0.126554
O O7 0.347358 0.018013 0.968614
O O8 0.759499 0.250000 0.452095
O O9 0.844266 0.521355 0.395316
O O10 0.809343 0.524479 0.560676
O O11 0.631782 0.527068 0.399951
O O12 0.870166 0.750000 0.276318
O O13 0.754756 0.462482 0.216027
O O14 0.989763 0.469158 0.303472
O O15 0.122154 0.750000 0.331850
O O16 0.359043 0.250000 0.845013
O O17 0.500000 0.500000 0.500000
O O18 0.498728 0.750000 0.617827
#
# Coordination Sequence:
#
# PCOD9160192 Si02
#       7
#     4   4   4   4   4   4   4
#     4  10  19  35  55  76 106 138 172 211 254 310
#     4   9  18  32  54  77  98 131 167 206 261 313
#     4  10  20  34  51  74 104 137 171 212 258 300
#     4  10  20  34  54  76  99 136 178 213 255 304
#     4   9  18  34  52  72 104 140 172 209 256 305
#     4   9  18  33  51  75 102 126 165 216 258 302
#     4  11  21  33  51  76 106 137 170 209 255 302
#
# _framework density 21.265038000000001
#
# number of rings (size 3 to 8) (size 9 to 14) (size 15 to 20)
#    0.000    2.286    1.429    1.714    0.000    3.429 
#    0.000    4.286    0.000    0.000    0.000    0.000 
#    0.000    0.000    0.000    0.000    0.000    0.000 
#
# Total GULP energy -156405.434317 kJ/mol
# GULP energy per Si atom -5585.908368 kJ/mol
# Density = 2.121664 g / cm^3
# Si number density = 21.265038 Si / 1000 Ang^3
#
#
#
# Elastic Constant Matrix: (Units=GPa)
#
#
# Indices 1 2 3 4 5 6 
#
# 1 149.5301 0.6382 45.2154 0.0000 -27.8591 0.0000
# 2 0.6382 60.4580 -9.9178 0.0000 6.9812 0.0000
# 3 45.2154 -9.9178 56.9748 0.0000 -20.8629 0.0000
# 4 0.0000 0.0000 0.0000 17.4686 0.0000 -5.8921
# 5 -27.8591 6.9812 -20.8629 0.0000 28.4295 0.0000
# 6 0.0000 0.0000 0.0000 -5.8921 0.0000 10.0214
#
#
#
# Elastic Compliance Matrix: (Units=1/GPa)
#
#
# Indices 1 2 3 4 5 6 
#
# 1 0.009464 -0.001680 -0.005820 0.000000 0.005415 0.000000
# 2 -0.001680 0.017483 0.003011 0.000000 -0.003730 0.000000
# 3 -0.005820 0.003011 0.027808 0.000000 0.013964 0.000000
# 4 0.000000 0.000000 0.000000 0.071406 0.000000 0.041983
# 5 0.005415 -0.003730 0.013964 0.000000 0.051645 0.000000
# 6 0.000000 0.000000 0.000000 0.041983 0.000000 0.124470
#
#
# Mechanical properties :
#
#
# Convention : Reuss Voigt Hill
#
# Bulk Modulus (GPa) = 21.84553 37.64828 29.74690
# Shear Modulus (GPa) = 15.31339 26.58572 20.94956
#
# Velocity S-wave (km/s) = 2.68642 3.53966 3.14214
# Velocity P-wave (km/s) = 4.46293 5.86927 5.21374
#
# Compressibility (1/GPa) = 0.04577595
#
# Stress axis : x y z
#
# Youngs Moduli (GPa) = 105.66897 57.19935 35.96130
#
# Poissons Ratio (x) = 0.09609 0.20928
# Poissons Ratio (y) = 0.17752 -0.10827
# Poissons Ratio (z) = 0.61496 -0.17221
#
# Static dielectric constant tensor:
#      x y z
#    x 1.772740 0.000000 -0.002430 
#    y 0.000000 1.816350 0.000000 
#    z -0.002430 0.000000 1.732220 
# 
# From -- ./inp_files/37420.got.cif
#   From: 2010.05.17/outbox.cif.g08.bks.cpg/sg11_19_cif.got.tgz:37420.got - 2010.06.03 12:22:45.
