data_PCOD9160632
_publ_section_title
;
Structure prediction by ZEFSAII (Michael W. Deem and Ramdas Pophale) SiO2 
 PCOD9160632
Probable space group: P 21/M
;
_chemical_formula_sum "Si O2"
_cell_formula_units_Z 28
_cell_length_a 13.768670
_cell_length_b 9.326540
_cell_length_c 19.893152
_cell_angle_alpha 90.000000
_cell_angle_beta 149.977031
_cell_angle_gamma 90.000000
_cell_volume 1278.166903
_symmetry_space_group_name_H-M "P 21/M"
_symmetry_group_IT_number 11
_symmetry_cell_setting 'monoclinic'
loop_
_space_group_symop_operation_xyz
x,y,z
-x,1/2+y,-z
-x,-y,-z
x,1/2-y,z
loop_
_atom_site_type_symbol
_atom_site_label
_atom_site_fract_x
_atom_site_fract_y
_atom_site_fract_z
Si Si1 0.189390 0.915158 0.047105
Si Si2 0.064264 0.078896 0.767749
Si Si3 0.590486 0.085470 0.964310
Si Si4 0.240013 0.404953 0.680373
Si Si5 0.159787 0.918566 0.225735
Si Si6 0.154165 0.975731 0.487901
Si Si7 0.421391 0.087514 0.299074
O O1 0.151168 0.750000 0.044199
O O2 0.295142 0.910122 0.038336
O O3 0.996695 0.007888 0.917973
O O4 0.326909 0.996795 0.181852
O O5 0.069666 0.250000 0.752072
O O6 0.931471 0.067407 0.754858
O O7 0.962873 0.983952 0.649218
O O8 0.278036 0.018936 0.911440
O O9 0.587509 0.250000 0.990891
O O10 0.384571 0.013701 0.817640
O O11 0.329711 0.250000 0.741679
O O12 0.235774 0.431623 0.598601
O O13 0.021401 0.401739 0.576150
O O14 0.183584 0.750000 0.226699
O O15 0.356423 0.004470 0.327449
O O16 0.348306 0.905608 0.575123
O O17 0.346536 0.250000 0.255142
#
# Coordination Sequence:
#
# PCOD9160632 Si02
#       7
#     4   4   4   4   4   4   4
#     4  10  19  36  60  89 123 159 202 255 305 360
#     4  10  22  42  63  91 127 165 205 253 309 370
#     4   9  19  38  64  92 123 161 205 255 307 363
#     4  10  21  42  66  92 124 161 208 260 310 367
#     4  10  22  39  60  86 121 163 206 252 304 365
#     4  11  24  41  63  91 127 166 204 254 313 371
#     4  12  23  36  58  89 122 162 206 252 306 365
#
# _framework density 21.906372000000001
#
# number of rings (size 3 to 8) (size 9 to 14) (size 15 to 20)
#    0.000    1.714    1.429    3.000    0.000    3.429 
#    0.000    0.714    0.000    0.000    0.000    0.000 
#    0.000    0.000    0.000    0.000    0.000    0.000 
#
# Total GULP energy -155936.478113 kJ/mol
# GULP energy per Si atom -5569.159933 kJ/mol
# Density = 2.185651 g / cm^3
# Si number density = 21.906372 Si / 1000 Ang^3
#
#
#
# Elastic Constant Matrix: (Units=GPa)
#
#
# Indices 1 2 3 4 5 6 
#
# 1 60.0911 31.7969 34.6730 0.0000 1.9927 0.0000
# 2 31.7969 96.0279 28.5681 0.0000 6.0523 0.0000
# 3 34.6730 28.5681 102.6845 0.0000 2.8779 0.0000
# 4 0.0000 0.0000 0.0000 -43.8061 0.0000 8.5238
# 5 1.9927 6.0523 2.8779 0.0000 45.0008 0.0000
# 6 0.0000 0.0000 0.0000 8.5238 0.0000 -3.0935
#
#
#
# Elastic Compliance Matrix: (Units=1/GPa)
#
#
# Indices 1 2 3 4 5 6 
#
# 1 0.023359 -0.005884 -0.006255 0.000000 0.000157 0.000000
# 2 -0.005884 0.012915 -0.001568 0.000000 -0.001376 0.000000
# 3 -0.006255 -0.001568 0.012295 0.000000 -0.000298 0.000000
# 4 0.000000 0.000000 0.000000 -0.049213 0.000000 -0.135602
# 5 0.000157 -0.001376 -0.000298 0.000000 0.022419 0.000000
# 6 0.000000 0.000000 0.000000 -0.135602 0.000000 -0.696896
#
#
# Mechanical properties :
#
#
# Convention : Reuss Voigt Hill
#
# Bulk Modulus (GPa) = 47.26777 49.87550 48.57163
# Shear Modulus (GPa) = -7.80449 10.53793 1.36672
#
# Velocity S-wave (km/s) = -1.88955 2.19565 0.79072
# Velocity P-wave (km/s) = 4.10652 5.40785 4.80148
#
# Compressibility (1/GPa) = 0.02115607
#
# Stress axis : x y z
#
# Youngs Moduli (GPa) = 42.81082 77.42933 81.33263
#
# Poissons Ratio (x) = 0.45556 0.50873
# Poissons Ratio (y) = 0.25188 0.12752
# Poissons Ratio (z) = 0.26778 0.12140
#
# Static dielectric constant tensor:
#      x y z
#    x 1.854090 0.000000 0.007900 
#    y 0.000000 1.787130 0.000000 
#    z 0.007900 0.000000 1.848430 
# 
# From -- ./inp_files/65438.got.cif
#   From: 2010.05.17/outbox.cif.g08.bks.cpg/sg11_33_cif.got.tgz:65438.got - 2010.06.03 12:22:45.
