data_PCOD9160487
_publ_section_title
;
Structure prediction by ZEFSAII (Michael W. Deem and Ramdas Pophale) SiO2 
 PCOD9160487
Probable space group: P 21/M
;
_chemical_formula_sum "Si O2"
_cell_formula_units_Z 32
_cell_length_a 10.807267
_cell_length_b 19.074006
_cell_length_c 14.043072
_cell_angle_alpha 90.000000
_cell_angle_beta 151.860375
_cell_angle_gamma 90.000000
_cell_volume 1365.255148
_symmetry_space_group_name_H-M "P 21/M"
_symmetry_group_IT_number 11
_symmetry_cell_setting 'monoclinic'
loop_
_space_group_symop_operation_xyz
x,y,z
-x,1/2+y,-z
-x,-y,-z
x,1/2-y,z
loop_
_atom_site_type_symbol
_atom_site_label
_atom_site_fract_x
_atom_site_fract_y
_atom_site_fract_z
Si Si1 0.313514 0.828917 0.126288
Si Si2 0.761647 0.568115 0.981978
Si Si3 0.117119 0.330030 0.570894
Si Si4 0.931690 0.831024 0.261932
Si Si5 0.591980 0.667744 0.488291
Si Si6 0.452055 0.329976 0.314398
Si Si7 0.954010 0.060911 0.195547
Si Si8 0.211183 0.955603 0.703829
O O1 0.212091 0.750000 0.040682
O O2 0.624640 0.830412 0.316834
O O3 0.321917 0.843012 0.245263
O O4 0.190587 0.881772 0.968572
O O5 0.701649 0.608155 0.843238
O O6 0.487773 0.536509 0.838162
O O7 0.849849 0.626522 0.116001
O O8 0.971625 0.505939 0.137366
O O9 0.031310 0.250000 0.524343
O O10 0.207770 0.356508 0.736451
O O11 0.882652 0.375398 0.372176
O O12 0.871705 0.750000 0.204755
O O13 0.238442 0.838335 0.495117
O O14 0.673275 0.750000 0.523698
O O15 0.566394 0.665002 0.584521
O O16 0.785674 0.603018 0.597601
O O17 0.373785 0.250000 0.233106
O O18 0.817963 0.034379 0.201988
O O19 0.000000 0.000000 0.500000
#
# Coordination Sequence:
#
# PCOD9160487 Si02
#       8
#     4   4   4   4   4   4   4   4
#     4  10  21  40  64  93 126 164 211 268 324 379
#     4  12  25  39  65  95 132 173 214 261 319 387
#     4  10  19  35  63  90 118 159 211 262 316 377
#     4  10  21  40  64  93 126 164 211 268 324 379
#     4  10  23  44  68  93 125 167 216 271 325 378
#     4  10  23  44  68  93 125 167 216 271 325 378
#     4  12  25  39  65  95 132 173 214 261 319 387
#     4  12  24  41  64  91 137 175 209 251 324 389
#
# _framework density 23.438844
#
# number of rings (size 3 to 8) (size 9 to 14) (size 15 to 20)
#    0.000    1.250    2.500    3.375    0.000    2.500 
#    0.000    3.750    0.000    0.000    0.000    0.000 
#    0.000    0.000    0.000    0.000    0.000    0.000 
#
# Total GULP energy -178761.780149 kJ/mol
# GULP energy per Si atom -5586.305630 kJ/mol
# Density = 2.338550 g / cm^3
# Si number density = 23.438844 Si / 1000 Ang^3
#
#
#
# Elastic Constant Matrix: (Units=GPa)
#
#
# Indices 1 2 3 4 5 6 
#
# 1 67.8629 22.5315 20.8229 0.0000 -26.4577 0.0000
# 2 22.5315 79.0725 41.0134 0.0000 -28.7226 0.0000
# 3 20.8229 41.0134 76.4394 0.0000 -30.3578 0.0000
# 4 0.0000 0.0000 0.0000 52.8804 0.0000 -13.5971
# 5 -26.4577 -28.7226 -30.3578 0.0000 46.6978 0.0000
# 6 0.0000 0.0000 0.0000 -13.5971 0.0000 19.8094
#
#
#
# Elastic Compliance Matrix: (Units=1/GPa)
#
#
# Indices 1 2 3 4 5 6 
#
# 1 0.019158 -0.001759 -0.000531 0.000000 0.009427 0.000000
# 2 -0.001759 0.019172 -0.007441 0.000000 0.005958 0.000000
# 3 -0.000531 -0.007441 0.020601 0.000000 0.008515 0.000000
# 4 0.000000 0.000000 0.000000 0.022964 0.000000 0.015762
# 5 0.009427 0.005958 0.008515 0.000000 0.035955 0.000000
# 6 0.000000 0.000000 0.000000 0.015762 0.000000 0.061300
#
#
# Mechanical properties :
#
#
# Convention : Reuss Voigt Hill
#
# Bulk Modulus (GPa) = 25.33697 43.56783 34.45240
# Shear Modulus (GPa) = 23.61070 33.14465 28.37767
#
# Velocity S-wave (km/s) = 3.17729 3.76452 3.48330
# Velocity P-wave (km/s) = 4.92885 6.12566 5.55955
#
# Compressibility (1/GPa) = 0.03946802
#
# Stress axis : x y z
#
# Youngs Moduli (GPa) = 52.19760 52.16048 48.54108
#
# Poissons Ratio (x) = 0.09176 0.02577
# Poissons Ratio (y) = 0.09183 0.36120
# Poissons Ratio (z) = 0.02771 0.38813
#
# Static dielectric constant tensor:
#      x y z
#    x 2.015530 0.000000 -0.010510 
#    y 0.000000 1.893470 0.000000 
#    z -0.010510 0.000000 1.881120 
# 
# From -- ./inp_files/50697.got.cif
#   From: 2010.05.17/outbox.cif.g08.bks.cpg/sg11_26_cif.got.tgz:50697.got - 2010.06.03 12:22:45.
