data_PCOD9160061
_publ_section_title
;
Structure prediction by ZEFSAII (Michael W. Deem and Ramdas Pophale) SiO2 
 PCOD9160061
Probable space group: P 21/M
;
_chemical_formula_sum "Si O2"
_cell_formula_units_Z 32
_cell_length_a 32.911793
_cell_length_b 8.816682
_cell_length_c 13.201776
_cell_angle_alpha 90.000000
_cell_angle_beta 153.582958
_cell_angle_gamma 90.000000
_cell_volume 1704.327402
_symmetry_space_group_name_H-M "P 21/M"
_symmetry_group_IT_number 11
_symmetry_cell_setting 'monoclinic'
loop_
_space_group_symop_operation_xyz
x,y,z
-x,1/2+y,-z
-x,-y,-z
x,1/2-y,z
loop_
_atom_site_type_symbol
_atom_site_label
_atom_site_fract_x
_atom_site_fract_y
_atom_site_fract_z
Si Si1 0.354980 0.425568 0.603997
Si Si2 0.097739 0.930731 0.742304
Si Si3 0.289110 0.932377 0.657327
Si Si4 0.373979 0.934608 0.058626
Si Si5 0.577666 0.933861 0.458141
Si Si6 0.144708 0.426075 0.060666
Si Si7 0.085914 0.932035 0.133598
Si Si8 0.714444 0.066485 0.927657
O O1 0.378994 0.250000 0.676110
O O2 0.350845 0.510465 0.701627
O O3 0.414151 0.483790 0.641161
O O4 0.251178 0.431819 0.329477
O O5 0.090884 0.750000 0.725161
O O6 0.179547 0.976305 0.849031
O O7 0.000000 0.000000 0.500000
O O8 0.128605 0.986608 0.921323
O O9 0.292658 0.750000 0.664211
O O10 0.323497 0.985910 0.843498
O O11 0.183664 0.976798 0.401539
O O12 0.370541 0.750000 0.051156
O O13 0.480012 0.977309 0.286349
O O14 0.327784 0.985602 0.059843
O O15 0.585513 0.750000 0.474850
O O16 0.656613 0.000192 0.705241
O O17 0.118971 0.250000 0.991849
O O18 0.089562 0.503011 0.028443
O O19 0.081258 0.750000 0.122216
O O20 0.000000 0.000000 0.000000
O O21 0.708602 0.250000 0.910194
#
# Coordination Sequence:
#
# PCOD9160061 Si02
#       8
#     4   4   4   4   4   4   4   4
#     4   9  18  32  53  80 108 141 179 226 277 324
#     4  11  23  37  56  83 112 144 186 234 285 340
#     4   9  19  35  54  77 109 148 186 227 278 336
#     4   9  19  36  56  80 112 148 184 226 281 337
#     4  10  19  34  58  83 109 145 187 229 277 335
#     4  10  19  35  56  77 108 145 181 228 281 333
#     4  10  20  34  55  82 109 144 190 234 281 340
#     4  10  21  37  57  81 112 148 187 232 277 333
#
# _framework density 18.775734
#
# number of rings (size 3 to 8) (size 9 to 14) (size 15 to 20)
#    0.000    2.250    1.250    1.500    0.000    3.500 
#    0.000    3.750    0.000    0.000    0.000    0.000 
#    0.000    0.000    0.000    0.000    0.000    0.000 
#
# Total GULP energy -178585.026455 kJ/mol
# GULP energy per Si atom -5580.782077 kJ/mol
# Density = 1.873300 g / cm^3
# Si number density = 18.775734 Si / 1000 Ang^3
#
#
#
# Elastic Constant Matrix: (Units=GPa)
#
#
# Indices 1 2 3 4 5 6 
#
# 1 155.5302 27.1543 44.9399 0.0000 17.5695 0.0000
# 2 27.1543 23.6867 19.4524 0.0000 10.0161 0.0000
# 3 44.9399 19.4524 65.4292 0.0000 7.6998 0.0000
# 4 0.0000 0.0000 0.0000 17.7275 0.0000 -3.6597
# 5 17.5695 10.0161 7.6998 0.0000 29.0842 0.0000
# 6 0.0000 0.0000 0.0000 -3.6597 0.0000 29.4940
#
#
#
# Elastic Compliance Matrix: (Units=1/GPa)
#
#
# Indices 1 2 3 4 5 6 
#
# 1 0.008895 -0.005875 -0.004096 0.000000 -0.002266 0.000000
# 2 -0.005875 0.067234 -0.014085 0.000000 -0.015876 0.000000
# 3 -0.004096 -0.014085 0.022112 0.000000 0.001471 0.000000
# 4 0.000000 0.000000 0.000000 0.057892 0.000000 0.007183
# 5 -0.002266 -0.015876 0.001471 0.000000 0.040830 0.000000
# 6 0.000000 0.000000 0.000000 0.007183 0.000000 0.034796
#
#
# Mechanical properties :
#
#
# Convention : Reuss Voigt Hill
#
# Bulk Modulus (GPa) = 19.94926 47.52659 33.73792
# Shear Modulus (GPa) = 16.85883 25.46777 21.16330
#
# Velocity S-wave (km/s) = 2.99976 3.68696 3.36097
# Velocity P-wave (km/s) = 4.75880 6.59489 5.75060
#
# Compressibility (1/GPa) = 0.05012718
#
# Stress axis : x y z
#
# Youngs Moduli (GPa) = 112.42460 14.87350 45.22518
#
# Poissons Ratio (x) = 0.08738 0.18525
# Poissons Ratio (y) = 0.66051 0.63701
# Poissons Ratio (z) = 0.46050 0.20950
#
# Static dielectric constant tensor:
#      x y z
#    x 1.646850 0.000000 0.013700 
#    y 0.000000 1.633910 0.000000 
#    z 0.013700 0.000000 1.638300 
# 
# From -- ./inp_files/45150.got.cif
#   From: 2010.05.17/outbox.cif.g08.bks.cpg/sg11_23_cif.got.tgz:45150.got - 2010.06.03 12:22:45.
