data_PCOD9160522
_publ_section_title
;
Structure prediction by ZEFSAII (Michael W. Deem and Ramdas Pophale) SiO2 
 PCOD9160522
Probable space group: P 21/M
;
_chemical_formula_sum "Si O2"
_cell_formula_units_Z 24
_cell_length_a 18.911420
_cell_length_b 13.405044
_cell_length_c 10.817104
_cell_angle_alpha 90.000000
_cell_angle_beta 153.680550
_cell_angle_gamma 90.000000
_cell_volume 1215.836208
_symmetry_space_group_name_H-M "P 21/M"
_symmetry_group_IT_number 11
_symmetry_cell_setting 'monoclinic'
loop_
_space_group_symop_operation_xyz
x,y,z
-x,1/2+y,-z
-x,-y,-z
x,1/2-y,z
loop_
_atom_site_type_symbol
_atom_site_label
_atom_site_fract_x
_atom_site_fract_y
_atom_site_fract_z
Si Si1 0.671919 0.071599 0.897998
Si Si2 0.473784 0.635132 0.073295
Si Si3 0.185027 0.862810 0.263940
Si Si4 0.009283 0.865412 0.723007
Si Si5 0.486081 0.364608 0.358637
Si Si6 0.242678 0.494632 0.557674
O O1 0.601076 0.120715 0.909141
O O2 0.571524 0.114462 0.624206
O O3 0.641057 0.952639 0.857038
O O4 0.854443 0.099332 0.157564
O O5 0.479483 0.750000 0.047216
O O6 0.649359 0.587754 0.341061
O O7 0.361634 0.573621 0.805463
O O8 0.163553 0.750000 0.277114
O O9 0.371417 0.876305 0.518144
O O10 0.143161 0.943695 0.300852
O O11 0.088504 0.870391 0.984649
O O12 0.966250 0.750000 0.632162
O O13 0.861160 0.939438 0.501578
O O14 0.429128 0.250000 0.264419
#
# Coordination Sequence:
#
# PCOD9160522 Si02
#       6
#     4   4   4   4   4   4
#     4  10  19  36  57  82 111 147 186 228 277 325
#     4  11  23  38  57  80 110 149 191 230 273 329
#     4   9  17  34  58  83 111 145 180 226 282 329
#     4  10  21  37  58  81 111 145 182 232 288 330
#     4   9  17  32  57  84 112 145 186 230 273 325
#     4  11  22  37  55  82 112 148 187 227 274 333
#
# _framework density 19.739502000000002
#
# number of rings (size 3 to 8) (size 9 to 14) (size 15 to 20)
#    0.000    2.000    1.667    4.000    0.000    0.667 
#    0.000    2.500    0.000    0.000    0.000    0.000 
#    0.000    0.000    0.000    0.000    0.000    0.000 
#
# Total GULP energy -134041.849856 kJ/mol
# GULP energy per Si atom -5585.077077 kJ/mol
# Density = 1.969457 g / cm^3
# Si number density = 19.739502 Si / 1000 Ang^3
#
#
#
# Elastic Constant Matrix: (Units=GPa)
#
#
# Indices 1 2 3 4 5 6 
#
# 1 58.2642 14.5315 -0.9789 0.0000 12.2399 0.0000
# 2 14.5315 151.1287 17.2133 0.0000 15.1417 0.0000
# 3 -0.9789 17.2133 14.3691 0.0000 4.1368 0.0000
# 4 0.0000 0.0000 0.0000 12.8586 0.0000 -0.4351
# 5 12.2399 15.1417 4.1368 0.0000 17.4600 0.0000
# 6 0.0000 0.0000 0.0000 -0.4351 0.0000 25.2721
#
#
#
# Elastic Compliance Matrix: (Units=1/GPa)
#
#
# Indices 1 2 3 4 5 6 
#
# 1 0.020807 -0.001318 0.007369 0.000000 -0.015189 0.000000
# 2 -0.001318 0.008140 -0.008665 0.000000 -0.004082 0.000000
# 3 0.007369 -0.008665 0.085642 0.000000 -0.017943 0.000000
# 4 0.000000 0.000000 0.000000 0.077814 0.000000 0.001340
# 5 -0.015189 -0.004082 -0.017943 0.000000 0.075712 0.000000
# 6 0.000000 0.000000 0.000000 0.001340 0.000000 0.039592
#
#
# Mechanical properties :
#
#
# Convention : Reuss Voigt Hill
#
# Bulk Modulus (GPa) = 9.14413 31.69931 20.42172
# Shear Modulus (GPa) = 14.31071 23.98456 19.14764
#
# Velocity S-wave (km/s) = 2.69546 3.48954 3.11789
# Velocity P-wave (km/s) = 3.78548 5.68591 4.83008
#
# Compressibility (1/GPa) = 0.10935981
#
# Stress axis : x y z
#
# Youngs Moduli (GPa) = 48.06167 122.85723 11.67651
#
# Poissons Ratio (x) = 0.16195 -0.08605
# Poissons Ratio (y) = 0.06336 0.10118
# Poissons Ratio (z) = -0.35419 1.06460
#
# Static dielectric constant tensor:
#      x y z
#    x 1.672500 0.000000 -0.015450 
#    y 0.000000 1.688420 0.000000 
#    z -0.015450 0.000000 1.709950 
# 
# From -- ./inp_files/43429.got.cif
#   From: 2010.05.17/outbox.cif.g08.bks.cpg/sg11_22_cif.got.tgz:43429.got - 2010.06.03 12:22:45.
