data_PCOD9160104
_publ_section_title
;
Structure prediction by ZEFSAII (Michael W. Deem and Ramdas Pophale) SiO2 
 PCOD9160104
Probable space group: P 21/M
;
_chemical_formula_sum "Si O2"
_cell_formula_units_Z 30
_cell_length_a 5.123392
_cell_length_b 9.338640
_cell_length_c 33.402638
_cell_angle_alpha 90.000000
_cell_angle_beta 108.305707
_cell_angle_gamma 90.000000
_cell_volume 1517.289875
_symmetry_space_group_name_H-M "P 21/M"
_symmetry_group_IT_number 11
_symmetry_cell_setting 'monoclinic'
loop_
_space_group_symop_operation_xyz
x,y,z
-x,1/2+y,-z
-x,-y,-z
x,1/2-y,z
loop_
_atom_site_type_symbol
_atom_site_label
_atom_site_fract_x
_atom_site_fract_y
_atom_site_fract_z
Si Si1 0.059902 0.577144 0.118975
Si Si2 0.143254 0.514365 0.452024
Si Si3 0.678007 0.919688 0.688651
Si Si4 0.333573 0.076623 0.830054
Si Si5 0.297123 0.919466 0.744139
Si Si6 0.891872 0.250000 0.488119
Si Si7 0.207418 0.425097 0.979084
Si Si8 0.475776 0.083673 0.601216
O O1 0.056003 0.750000 0.120116
O O2 0.377027 0.534331 0.135822
O O3 0.906032 0.527462 0.151592
O O4 0.902454 0.539856 0.070820
O O5 0.053229 0.372033 0.469682
O O6 0.850600 0.575944 0.421605
O O7 0.246088 0.625779 0.489885
O O8 0.356075 0.504117 0.425794
O O9 0.628252 0.750000 0.678982
O O10 0.532415 0.956799 0.723587
O O11 0.002772 0.942589 0.708953
O O12 0.553192 0.010264 0.646660
O O13 0.325061 0.250000 0.826374
O O14 0.313907 0.008568 0.785501
O O15 0.318650 0.750000 0.754453
O O16 0.217521 0.250000 0.983776
O O17 0.500000 0.500000 0.000000
O O18 0.000000 0.500000 0.000000
O O19 0.559201 0.250000 0.604329
#
# Coordination Sequence:
#
# PCOD9160104 Si02
#       8
#     4   4   4   4   4   2   4   4
#     4   9  19  35  55  82 115 153 196 246 300 360
#     4  11  25  41  64  90 120 156 193 239 286 339
#     4  10  23  39  60  82 113 153 193 225 282 355
#     4  10  19  34  59  84 109 146 195 238 292 361
#     4  10  21  39  57  84 116 148 184 236 293 351
#     4  10  24  44  64  90 122 156 196 236 288 342
#     4  11  22  39  61  86 122 167 213 264 316 373
#     4  12  24  42  61  91 122 151 193 245 286 330
#
# _framework density 19.772096000000001
#
# number of rings (size 3 to 8) (size 9 to 14) (size 15 to 20)
#    0.000    1.600    1.333    2.800    1.867    6.400 
#    0.000    4.000    0.000    0.000    0.000    0.000 
#    0.000    0.000    0.000    0.000    0.000    0.000 
#
# Total GULP energy -167129.986934 kJ/mol
# GULP energy per Si atom -5570.999564 kJ/mol
# Density = 1.972709 g / cm^3
# Si number density = 19.772096 Si / 1000 Ang^3
#
#
#
# Elastic Constant Matrix: (Units=GPa)
#
#
# Indices 1 2 3 4 5 6 
#
# 1 61.1826 -11.7419 -8.9648 0.0000 -4.0056 0.0000
# 2 -11.7419 61.2265 20.2617 0.0000 -0.8555 0.0000
# 3 -8.9648 20.2617 65.7265 0.0000 -6.9810 0.0000
# 4 0.0000 0.0000 0.0000 65.7904 0.0000 2.4991
# 5 -4.0056 -0.8555 -6.9810 0.0000 23.1306 0.0000
# 6 0.0000 0.0000 0.0000 2.4991 0.0000 17.5432
#
#
#
# Elastic Compliance Matrix: (Units=1/GPa)
#
#
# Indices 1 2 3 4 5 6 
#
# 1 0.017395 0.002754 0.001916 0.000000 0.003693 0.000000
# 2 0.002754 0.018649 -0.005423 0.000000 -0.000470 0.000000
# 3 0.001916 -0.005423 0.017730 0.000000 0.005482 0.000000
# 4 0.000000 0.000000 0.000000 0.015282 0.000000 -0.002177
# 5 0.003693 -0.000470 0.005482 0.000000 0.045509 0.000000
# 6 0.000000 0.000000 0.000000 -0.002177 0.000000 0.057312
#
#
# Mechanical properties :
#
#
# Convention : Reuss Voigt Hill
#
# Bulk Modulus (GPa) = 19.13253 20.80509 19.96881
# Shear Modulus (GPa) = 26.20425 33.86488 30.03456
#
# Velocity S-wave (km/s) = 3.64444 4.14304 3.90171
# Velocity P-wave (km/s) = 5.23515 5.78201 5.51536
#
# Compressibility (1/GPa) = 0.05226699
#
# Stress axis : x y z
#
# Youngs Moduli (GPa) = 57.48629 53.62197 56.40137
#
# Poissons Ratio (x) = -0.14765 -0.10806
# Poissons Ratio (y) = -0.15829 0.30589
# Poissons Ratio (z) = -0.11014 0.29081
#
# Static dielectric constant tensor:
#      x y z
#    x 1.696800 0.000000 0.021260 
#    y 0.000000 1.654720 0.000000 
#    z 0.021260 0.000000 1.675480 
# 
# From -- ./inp_files/72613.got.cif
#   From: 2010.05.17/outbox.cif.g08.bks.cpg/sg11_37_cif.got.tgz:72613.got - 2010.06.03 12:22:45.
