data_PCOD9160040
_publ_section_title
;
Structure prediction by ZEFSAII (Michael W. Deem and Ramdas Pophale) SiO2 
 PCOD9160040
Probable space group: P 21/M
;
_chemical_formula_sum "Si O2"
_cell_formula_units_Z 32
_cell_length_a 13.945144
_cell_length_b 8.262087
_cell_length_c 21.637282
_cell_angle_alpha 90.000000
_cell_angle_beta 145.471962
_cell_angle_gamma 90.000000
_cell_volume 1413.033838
_symmetry_space_group_name_H-M "P 21/M"
_symmetry_group_IT_number 11
_symmetry_cell_setting 'monoclinic'
loop_
_space_group_symop_operation_xyz
x,y,z
-x,1/2+y,-z
-x,-y,-z
x,1/2-y,z
loop_
_atom_site_type_symbol
_atom_site_label
_atom_site_fract_x
_atom_site_fract_y
_atom_site_fract_z
Si Si1 0.634132 0.943515 0.459997
Si Si2 0.262019 0.553059 0.274264
Si Si3 0.573638 0.062799 0.290103
Si Si4 0.679323 0.945516 0.068532
Si Si5 0.899211 0.943037 0.078608
Si Si6 0.988987 0.063071 0.682727
Si Si7 0.776267 0.433969 0.887995
Si Si8 0.902439 0.438602 0.388540
O O1 0.626557 0.750000 0.448524
O O2 0.452840 0.999345 0.392607
O O3 0.645208 0.018171 0.396412
O O4 0.801946 0.986907 0.587177
O O5 0.263931 0.750000 0.279424
O O6 0.241640 0.503702 0.191345
O O7 0.079290 0.498203 0.202880
O O8 0.515880 0.250000 0.261746
O O9 0.709313 0.049878 0.307725
O O10 0.417681 0.947591 0.193739
O O11 0.675197 0.750000 0.068661
O O12 0.734489 0.999166 0.028899
O O13 0.844695 0.002939 0.194523
O O14 0.500000 0.000000 0.000000
O O15 0.902151 0.750000 0.085796
O O16 0.882929 0.980877 0.997620
O O17 0.970180 0.250000 0.690927
O O18 0.043192 0.044469 0.640207
O O19 0.833669 0.250000 0.914959
O O20 0.942456 0.250000 0.396474
O O21 0.000000 0.500000 0.500000
#
# Coordination Sequence:
#
# PCOD9160040 Si02
#       8
#     4   4   4   4   4   4   4   4
#     4  10  19  34  57  86 116 148 183 228 285 344
#     4   8  17  34  58  88 121 152 186 231 289 351
#     4  10  20  33  50  79 116 153 190 229 281 346
#     4  10  25  45  64  84 111 151 199 247 291 335
#     4  10  20  39  62  83 112 154 200 244 290 344
#     4  11  23  39  57  81 114 153 193 238 292 345
#     4  10  20  33  54  87 122 154 189 233 288 347
#     4  11  22  34  54  83 115 150 191 236 287 347
#
# _framework density 22.646308999999999
#
# number of rings (size 3 to 8) (size 9 to 14) (size 15 to 20)
#    0.000    2.000    1.250    3.000    1.750    3.000 
#    0.000    3.750    0.000    0.000    0.000    0.000 
#    0.000    0.000    0.000    0.000    0.000    0.000 
#
# Total GULP energy -178511.334174 kJ/mol
# GULP energy per Si atom -5578.479193 kJ/mol
# Density = 2.259476 g / cm^3
# Si number density = 22.646309 Si / 1000 Ang^3
#
#
#
# Elastic Constant Matrix: (Units=GPa)
#
#
# Indices 1 2 3 4 5 6 
#
# 1 69.9706 11.2071 40.7586 0.0000 27.2721 0.0000
# 2 11.2071 32.4055 14.3121 0.0000 11.6178 0.0000
# 3 40.7586 14.3121 126.5791 0.0000 25.4351 0.0000
# 4 0.0000 0.0000 0.0000 29.7331 0.0000 7.8536
# 5 27.2721 11.6178 25.4351 0.0000 43.7008 0.0000
# 6 0.0000 0.0000 0.0000 7.8536 0.0000 13.0613
#
#
#
# Elastic Compliance Matrix: (Units=1/GPa)
#
#
# Indices 1 2 3 4 5 6 
#
# 1 0.021173 -0.001673 -0.004601 0.000000 -0.010091 0.000000
# 2 -0.001673 0.034846 -0.001981 0.000000 -0.007067 0.000000
# 3 -0.004601 -0.001981 0.010105 0.000000 -0.002483 0.000000
# 4 0.000000 0.000000 0.000000 0.039983 0.000000 -0.024041
# 5 -0.010091 -0.007067 -0.002483 0.000000 0.032504 0.000000
# 6 0.000000 0.000000 0.000000 -0.024041 0.000000 0.091018
#
#
# Mechanical properties :
#
#
# Convention : Reuss Voigt Hill
#
# Bulk Modulus (GPa) = 20.15586 40.16786 30.16186
# Shear Modulus (GPa) = 19.03488 28.14420 23.58954
#
# Velocity S-wave (km/s) = 2.90233 3.52912 3.23096
# Velocity P-wave (km/s) = 4.48899 5.86360 5.22172
#
# Compressibility (1/GPa) = 0.04961337
#
# Stress axis : x y z
#
# Youngs Moduli (GPa) = 47.23079 28.69767 98.96384
#
# Poissons Ratio (x) = 0.04801 0.45532
# Poissons Ratio (y) = 0.07901 0.19608
# Poissons Ratio (z) = 0.21730 0.05686
#
# Static dielectric constant tensor:
#      x y z
#    x 1.898150 0.000000 0.037090 
#    y 0.000000 1.805210 0.000000 
#    z 0.037090 0.000000 1.879370 
# 
# From -- ./inp_files/69093.got.cif
#   From: 2010.05.17/outbox.cif.g08.bks.cpg/sg11_35_cif.got.tgz:69093.got - 2010.06.03 12:22:45.
