data_PCOD9160446
_publ_section_title
;
Structure prediction by ZEFSAII (Michael W. Deem and Ramdas Pophale) SiO2 
 PCOD9160446
Probable space group: P 21/M
;
_chemical_formula_sum "Si O2"
_cell_formula_units_Z 32
_cell_length_a 10.768597
_cell_length_b 12.397505
_cell_length_c 11.202842
_cell_angle_alpha 90.000000
_cell_angle_beta 108.342763
_cell_angle_gamma 90.000000
_cell_volume 1419.630027
_symmetry_space_group_name_H-M "P 21/M"
_symmetry_group_IT_number 11
_symmetry_cell_setting 'monoclinic'
loop_
_space_group_symop_operation_xyz
x,y,z
-x,1/2+y,-z
-x,-y,-z
x,1/2-y,z
loop_
_atom_site_type_symbol
_atom_site_label
_atom_site_fract_x
_atom_site_fract_y
_atom_site_fract_z
Si Si1 0.918056 0.871852 0.509685
Si Si2 0.944217 0.123255 0.945676
Si Si3 0.825105 0.033735 0.692297
Si Si4 0.714874 0.082744 0.054349
Si Si5 0.814588 0.447101 0.338971
Si Si6 0.359162 0.128838 0.273434
Si Si7 0.420258 0.365537 0.022609
Si Si8 0.614436 0.123641 0.459111
O O1 0.871370 0.750000 0.509352
O O2 0.075316 0.876106 0.560835
O O3 0.878911 0.951453 0.607633
O O4 0.865626 0.931191 0.375472
O O5 0.997704 0.250000 0.982098
O O6 0.806170 0.123265 0.976060
O O7 0.922430 0.107193 0.797089
O O8 0.000000 0.000000 0.000000
O O9 0.706048 0.100779 0.599081
O O10 0.758495 0.952924 0.766183
O O11 0.792095 0.098705 0.201296
O O12 0.565867 0.126439 0.012462
O O13 0.681946 0.956052 0.043311
O O14 0.680979 0.440221 0.371361
O O15 0.311492 0.250000 0.278304
O O16 0.433308 0.126214 0.169885
O O17 0.460029 0.099525 0.409923
O O18 0.364171 0.250000 0.975462
O O19 0.620857 0.250000 0.432003
#
# Coordination Sequence:
#
# PCOD9160446 Si02
#       8
#     4   4   4   4   4   4   4   4
#     4  10  22  39  61  89 121 159 207 265 324 381
#     4  12  28  46  66  95 131 176 225 272 324 384
#     4  11  22  40  60  88 124 164 206 258 313 378
#     4  11  22  41  64  91 128 166 211 267 320 386
#     4  10  21  37  60  86 115 154 203 255 316 375
#     4  10  19  35  60  90 122 159 201 249 310 380
#     4  10  21  37  62  93 124 163 209 260 320 382
#     4  10  20  35  59  87 117 154 199 252 311 374
#
# _framework density 22.541083
#
# number of rings (size 3 to 8) (size 9 to 14) (size 15 to 20)
#    0.000    1.500    2.500    2.625    0.000    4.500 
#    0.000    4.375    0.000    0.750    0.000    0.000 
#    0.000    0.000    0.000    0.000    0.000    0.000 
#
# Total GULP energy -178298.637036 kJ/mol
# GULP energy per Si atom -5571.832407 kJ/mol
# Density = 2.248978 g / cm^3
# Si number density = 22.541083 Si / 1000 Ang^3
#
#
#
# Elastic Constant Matrix: (Units=GPa)
#
#
# Indices 1 2 3 4 5 6 
#
# 1 50.2817 15.0302 -8.0670 0.0000 -6.2613 0.0000
# 2 15.0302 126.8515 2.5393 0.0000 7.9064 0.0000
# 3 -8.0670 2.5393 41.3287 0.0000 3.6180 0.0000
# 4 0.0000 0.0000 0.0000 19.6224 0.0000 -4.7991
# 5 -6.2613 7.9064 3.6180 0.0000 32.1855 0.0000
# 6 0.0000 0.0000 0.0000 -4.7991 0.0000 1.5889
#
#
#
# Elastic Compliance Matrix: (Units=1/GPa)
#
#
# Indices 1 2 3 4 5 6 
#
# 1 0.021997 -0.002972 0.004078 0.000000 0.004551 0.000000
# 2 -0.002972 0.008412 -0.000874 0.000000 -0.002546 0.000000
# 3 0.004078 -0.000874 0.025206 0.000000 -0.001825 0.000000
# 4 0.000000 0.000000 0.000000 0.195044 0.000000 0.589118
# 5 0.004551 -0.002546 -0.001825 0.000000 0.032786 0.000000
# 6 0.000000 0.000000 0.000000 0.589118 0.000000 2.408764
#
#
# Mechanical properties :
#
#
# Convention : Reuss Voigt Hill
#
# Bulk Modulus (GPa) = 17.83204 26.38521 22.10862
# Shear Modulus (GPa) = 1.84472 24.60997 13.22734
#
# Velocity S-wave (km/s) = 0.90563 3.30780 2.42505
# Velocity P-wave (km/s) = 3.00360 5.13025 4.20364
#
# Compressibility (1/GPa) = 0.05607885
#
# Stress axis : x y z
#
# Youngs Moduli (GPa) = 45.46039 118.88453 39.67355
#
# Poissons Ratio (x) = 0.35328 -0.16178
# Poissons Ratio (y) = 0.13509 0.03467
# Poissons Ratio (z) = -0.18538 0.10390
#
# Static dielectric constant tensor:
#      x y z
#    x 1.901410 0.000000 -0.009570 
#    y 0.000000 1.895950 0.000000 
#    z -0.009570 0.000000 1.867460 
# 
# From -- ./inp_files/35121.got.cif
#   From: 2010.05.17/outbox.cif.g08.bks.cpg/sg11_18_cif.got.tgz:35121.got - 2010.06.03 12:22:45.
