data_PCOD9160089
_publ_section_title
;
Structure prediction by ZEFSAII (Michael W. Deem and Ramdas Pophale) SiO2 
 PCOD9160089
Probable space group: P 21/M
;
_chemical_formula_sum "Si O2"
_cell_formula_units_Z 28
_cell_length_a 9.702577
_cell_length_b 9.185686
_cell_length_c 27.594817
_cell_angle_alpha 90.000000
_cell_angle_beta 140.577193
_cell_angle_gamma 90.000000
_cell_volume 1561.801959
_symmetry_space_group_name_H-M "P 21/M"
_symmetry_group_IT_number 11
_symmetry_cell_setting 'monoclinic'
loop_
_space_group_symop_operation_xyz
x,y,z
-x,1/2+y,-z
-x,-y,-z
x,1/2-y,z
loop_
_atom_site_type_symbol
_atom_site_label
_atom_site_fract_x
_atom_site_fract_y
_atom_site_fract_z
Si Si1 0.721658 0.416972 0.049258
Si Si2 0.858319 0.424773 0.503521
Si Si3 0.654459 0.922522 0.641979
Si Si4 0.219322 0.583293 0.049829
Si Si5 0.688775 0.576704 0.208085
Si Si6 0.953648 0.924291 0.631709
Si Si7 0.998594 0.579199 0.199575
O O1 0.707590 0.250000 0.062220
O O2 0.916870 0.495945 0.130072
O O3 0.500000 0.500000 0.000000
O O4 0.747375 0.417749 0.998731
O O5 0.892771 0.250000 0.513217
O O6 0.601179 0.451401 0.425894
O O7 0.916738 0.494460 0.571226
O O8 0.000000 0.500000 0.500000
O O9 0.689985 0.750000 0.659577
O O10 0.761140 0.956535 0.618369
O O11 0.787822 0.011627 0.718134
O O12 0.194397 0.750000 0.059079
O O13 0.440468 0.527483 0.134694
O O14 0.000000 0.500000 0.000000
O O15 0.694432 0.750000 0.221370
O O16 0.810108 0.562025 0.189205
O O17 0.828367 0.485041 0.283960
O O18 0.963206 0.750000 0.627537
O O19 0.025675 0.750000 0.197475
#
# Coordination Sequence:
#
# PCOD9160089 Si02
#       7
#     4   4   4   4   4   4   4
#     4  11  21  36  58  84 115 150 191 238 285 335
#     4  11  23  40  60  84 118 154 187 229 281 336
#     4   9  20  38  60  87 116 147 187 234 281 333
#     4  10  22  39  56  80 114 151 192 236 283 337
#     4   9  18  36  57  81 115 148 186 234 280 330
#     4  10  20  36  61  90 113 143 189 233 282 340
#     4  10  19  34  58  88 116 146 187 235 286 335
#
# _framework density 17.928007999999998
#
# number of rings (size 3 to 8) (size 9 to 14) (size 15 to 20)
#    0.000    2.000    1.429    2.143    0.000    4.000 
#    2.571    0.000    0.000    0.000    0.000    0.000 
#    0.000    0.000    0.000    0.000    0.000    0.000 
#
# Total GULP energy -156302.160643 kJ/mol
# GULP energy per Si atom -5582.220023 kJ/mol
# Density = 1.788720 g / cm^3
# Si number density = 17.928008 Si / 1000 Ang^3
#
#
#
# Elastic Constant Matrix: (Units=GPa)
#
#
# Indices 1 2 3 4 5 6 
#
# 1 66.9301 52.1155 61.4835 0.0000 20.1331 0.0000
# 2 52.1155 94.3299 80.0901 0.0000 9.8941 0.0000
# 3 61.4835 80.0901 146.1965 0.0000 15.0880 0.0000
# 4 0.0000 0.0000 0.0000 37.3974 0.0000 -0.6677
# 5 20.1331 9.8941 15.0880 0.0000 26.1404 0.0000
# 6 0.0000 0.0000 0.0000 -0.6677 0.0000 29.0728
#
#
#
# Elastic Compliance Matrix: (Units=1/GPa)
#
#
# Indices 1 2 3 4 5 6 
#
# 1 0.036706 -0.012773 -0.006402 0.000000 -0.019741 0.000000
# 2 -0.012773 0.024307 -0.008517 0.000000 0.005554 0.000000
# 3 -0.006402 -0.008517 0.014203 0.000000 -0.000043 0.000000
# 4 0.000000 0.000000 0.000000 0.026751 0.000000 0.000614
# 5 -0.019741 0.005554 -0.000043 0.000000 0.051382 0.000000
# 6 0.000000 0.000000 0.000000 0.000614 0.000000 0.034411
#
#
# Mechanical properties :
#
#
# Convention : Reuss Voigt Hill
#
# Bulk Modulus (GPa) = 50.42625 77.20385 63.81505
# Shear Modulus (GPa) = 20.01955 26.10660 23.06308
#
# Velocity S-wave (km/s) = 3.34528 3.82015 3.59057
# Velocity P-wave (km/s) = 6.56577 7.91295 7.27063
#
# Compressibility (1/GPa) = 0.01983094
#
# Stress axis : x y z
#
# Youngs Moduli (GPa) = 27.24329 41.14008 70.40737
#
# Poissons Ratio (x) = 0.52549 0.45076
# Poissons Ratio (y) = 0.34799 0.59969
# Poissons Ratio (z) = 0.17441 0.35041
#
# Static dielectric constant tensor:
#      x y z
#    x 1.580860 0.000000 -0.003120 
#    y 0.000000 1.607240 0.000000 
#    z -0.003120 0.000000 1.591870 
# 
# From -- ./inp_files/28164.got.cif
#   From: 2010.05.17/outbox.cif.g08.bks.cpg/sg11_15_cif.got.tgz:28164.got - 2010.06.03 12:22:45.
