data_PCOD9160500
_publ_section_title
;
Structure prediction by ZEFSAII (Michael W. Deem and Ramdas Pophale) SiO2 
 PCOD9160500
Probable space group: P 21/M
;
_chemical_formula_sum "Si O2"
_cell_formula_units_Z 28
_cell_length_a 13.324528
_cell_length_b 19.271992
_cell_length_c 8.319494
_cell_angle_alpha 90.000000
_cell_angle_beta 42.597445
_cell_angle_gamma 90.000000
_cell_volume 1445.983667
_symmetry_space_group_name_H-M "P 21/M"
_symmetry_group_IT_number 11
_symmetry_cell_setting 'monoclinic'
loop_
_space_group_symop_operation_xyz
x,y,z
-x,1/2+y,-z
-x,-y,-z
x,1/2-y,z
loop_
_atom_site_type_symbol
_atom_site_label
_atom_site_fract_x
_atom_site_fract_y
_atom_site_fract_z
Si Si1 0.563700 0.475214 0.199617
Si Si2 0.014027 0.421948 0.918323
Si Si3 0.130868 0.670448 0.659931
Si Si4 0.898346 0.552121 0.518537
Si Si5 0.323571 0.414507 0.716324
Si Si6 0.339576 0.561870 0.263309
Si Si7 0.190403 0.329158 0.137835
O O1 0.464363 0.428271 0.435743
O O2 0.685334 0.514372 0.166114
O O3 0.468142 0.538848 0.234426
O O4 0.615029 0.436477 0.977813
O O5 0.004163 0.417503 0.739705
O O6 0.181042 0.402353 0.773381
O O7 0.000000 0.500000 0.000000
O O8 0.898880 0.373198 0.144433
O O9 0.166871 0.750000 0.648212
O O10 0.256479 0.630949 0.412894
O O11 0.973541 0.667615 0.750584
O O12 0.774625 0.502287 0.588754
O O13 0.821104 0.612759 0.710787
O O14 0.000000 0.500000 0.500000
O O15 0.310102 0.353436 0.863628
O O16 0.216305 0.250000 0.160159
#
# Coordination Sequence:
#
# PCOD9160500 Si02
#       7
#     4   4   4   4   4   4   4
#     4  10  21  33  59  82 113 149 194 236 262 328
#     4  11  20  33  59  86 111 142 188 234 287 342
#     4  10  21  38  58  83 117 147 180 240 301 339
#     4  12  20  34  59  89 112 145 190 237 289 335
#     4  10  19  36  54  83 112 145 188 234 282 326
#     4  11  20  36  56  86 114 148 195 232 274 340
#     4  10  21  36  57  83 115 147 184 239 297 340
#
# _framework density 19.363980000000002
#
# number of rings (size 3 to 8) (size 9 to 14) (size 15 to 20)
#    0.000    1.429    5.714    0.857    0.000    0.571 
#    0.000    1.429    0.000    0.000    0.000    0.000 
#    0.000    0.000    0.000    0.000    0.000    0.000 
#
# Total GULP energy -156237.627518 kJ/mol
# GULP energy per Si atom -5579.915269 kJ/mol
# Density = 1.931991 g / cm^3
# Si number density = 19.363980 Si / 1000 Ang^3
#
#
#
# Elastic Constant Matrix: (Units=GPa)
#
#
# Indices 1 2 3 4 5 6 
#
# 1 44.6378 7.6982 12.0844 0.0000 10.9879 0.0000
# 2 7.6982 133.0185 61.8355 0.0000 15.6893 0.0000
# 3 12.0844 61.8355 125.9983 0.0000 26.9196 0.0000
# 4 0.0000 0.0000 0.0000 31.0012 0.0000 4.0043
# 5 10.9879 15.6893 26.9196 0.0000 28.8203 0.0000
# 6 0.0000 0.0000 0.0000 4.0043 0.0000 13.7361
#
#
#
# Elastic Compliance Matrix: (Units=1/GPa)
#
#
# Indices 1 2 3 4 5 6 
#
# 1 0.024747 -0.000209 -0.000349 0.000000 -0.008995 0.000000
# 2 -0.000209 0.009767 -0.004565 0.000000 -0.000973 0.000000
# 3 -0.000349 -0.004565 0.012057 0.000000 -0.008644 0.000000
# 4 0.000000 0.000000 0.000000 0.033519 0.000000 -0.009771
# 5 -0.008995 -0.000973 -0.008644 0.000000 0.046731 0.000000
# 6 0.000000 0.000000 0.000000 -0.009771 0.000000 0.075649
#
#
# Mechanical properties :
#
#
# Convention : Reuss Voigt Hill
#
# Bulk Modulus (GPa) = 27.52944 51.87674 39.70309
# Shear Modulus (GPa) = 22.23948 29.51396 25.87672
#
# Velocity S-wave (km/s) = 3.39263 3.90829 3.65955
# Velocity P-wave (km/s) = 5.44006 6.87131 6.19714
#
# Compressibility (1/GPa) = 0.03632476
#
# Stress axis : x y z
#
# Youngs Moduli (GPa) = 40.40841 102.38714 82.93719
#
# Poissons Ratio (x) = 0.02139 0.02896
# Poissons Ratio (y) = 0.00844 0.37863
# Poissons Ratio (z) = 0.01411 0.46743
#
# Static dielectric constant tensor:
#      x y z
#    x 1.786810 0.000000 -0.008600 
#    y 0.000000 1.643130 0.000000 
#    z -0.008600 0.000000 1.718370 
# 
# From -- ./inp_files/22697.got.cif
#   From: 2010.05.17/outbox.cif.g08.bks.cpg/sg11_12_cif.got.tgz:22697.got - 2010.06.03 12:22:45.
