data_PCOD9160568
_publ_section_title
;
Structure prediction by ZEFSAII (Michael W. Deem and Ramdas Pophale) SiO2 
 PCOD9160568
Probable space group: P 21/M
;
_chemical_formula_sum "Si O2"
_cell_formula_units_Z 28
_cell_length_a 9.486903
_cell_length_b 9.121848
_cell_length_c 27.521498
_cell_angle_alpha 90.000000
_cell_angle_beta 140.011556
_cell_angle_gamma 90.000000
_cell_volume 1530.532114
_symmetry_space_group_name_H-M "P 21/M"
_symmetry_group_IT_number 11
_symmetry_cell_setting 'monoclinic'
loop_
_space_group_symop_operation_xyz
x,y,z
-x,1/2+y,-z
-x,-y,-z
x,1/2-y,z
loop_
_atom_site_type_symbol
_atom_site_label
_atom_site_fract_x
_atom_site_fract_y
_atom_site_fract_z
Si Si1 0.377206 0.923292 0.923329
Si Si2 0.598146 0.914247 0.167207
Si Si3 0.077943 0.922654 0.570279
Si Si4 0.269727 0.420243 0.436439
Si Si5 0.118671 0.585823 0.303728
Si Si6 0.464082 0.427200 0.736405
Si Si7 0.851735 0.576080 0.784873
O O1 0.411657 0.750000 0.933881
O O2 0.113750 0.948153 0.859352
O O3 0.465542 0.984656 0.894994
O O4 0.500000 0.000000 0.000000
O O5 0.501762 0.750000 0.137318
O O6 0.565584 0.965574 0.214195
O O7 0.859010 0.901229 0.228814
O O8 0.130516 0.750000 0.576040
O O9 0.870957 0.930546 0.551939
O O10 0.279494 0.000429 0.652408
O O11 0.000000 0.000000 0.500000
O O12 0.500000 0.500000 0.500000
O O13 0.297758 0.250000 0.431730
O O14 0.146380 0.503802 0.361285
O O15 0.215260 0.750000 0.329635
O O16 0.210614 0.488504 0.284397
O O17 0.450143 0.250000 0.728709
O O18 0.699552 0.488302 0.781890
O O19 0.810935 0.750000 0.776894
#
# Coordination Sequence:
#
# PCOD9160568 Si02
#       7
#     4   4   4   4   4   4   4
#     4  10  21  38  63  91 122 155 193 238 287 345
#     4   9  19  36  60  87 115 150 191 235 286 343
#     4  11  25  42  60  83 116 158 202 249 302 355
#     4  11  24  39  57  81 111 149 195 245 297 351
#     4  10  19  36  59  82 110 147 191 242 291 344
#     4  11  22  39  62  88 119 156 198 245 296 353
#     4  10  22  38  58  88 120 154 194 238 288 347
#
# _framework density 18.29429
#
# number of rings (size 3 to 8) (size 9 to 14) (size 15 to 20)
#    0.000    1.714    1.429    2.571    2.000    5.143 
#    0.000    0.714    0.000    0.000    0.000    0.000 
#    0.000    0.000    0.000    0.000    0.000    0.000 
#
# Total GULP energy -156175.168742 kJ/mol
# GULP energy per Si atom -5577.684598 kJ/mol
# Density = 1.825265 g / cm^3
# Si number density = 18.294290 Si / 1000 Ang^3
#
#
#
# Elastic Constant Matrix: (Units=GPa)
#
#
# Indices 1 2 3 4 5 6 
#
# 1 97.8161 57.8712 43.2838 0.0000 -25.0770 0.0000
# 2 57.8712 131.3313 80.1063 0.0000 -21.6132 0.0000
# 3 43.2838 80.1063 85.5442 0.0000 -34.0254 0.0000
# 4 0.0000 0.0000 0.0000 33.1906 0.0000 -2.4663
# 5 -25.0770 -21.6132 -34.0254 0.0000 30.2849 0.0000
# 6 0.0000 0.0000 0.0000 -2.4663 0.0000 31.4434
#
#
#
# Elastic Compliance Matrix: (Units=1/GPa)
#
#
# Indices 1 2 3 4 5 6 
#
# 1 0.016019 -0.007090 0.003249 0.000000 0.011855 0.000000
# 2 -0.007090 0.023119 -0.025012 0.000000 -0.017472 0.000000
# 3 0.003249 -0.025012 0.049606 0.000000 0.040573 0.000000
# 4 0.000000 0.000000 0.000000 0.030306 0.000000 0.002377
# 5 0.011855 -0.017472 0.040573 0.000000 0.075950 0.000000
# 6 0.000000 0.000000 0.000000 0.002377 0.000000 0.031990
#
#
# Mechanical properties :
#
#
# Convention : Reuss Voigt Hill
#
# Bulk Modulus (GPa) = 32.21772 75.24601 53.73187
# Shear Modulus (GPa) = 16.94677 27.87912 22.41295
#
# Velocity S-wave (km/s) = 3.04689 3.90798 3.50399
# Velocity P-wave (km/s) = 5.47970 7.84750 6.76795
#
# Compressibility (1/GPa) = 0.03103882
#
# Stress axis : x y z
#
# Youngs Moduli (GPa) = 62.42449 43.25440 20.15897
#
# Poissons Ratio (x) = 0.30665 -0.06549
# Poissons Ratio (y) = 0.44256 0.50421
# Poissons Ratio (z) = -0.20280 1.08187
#
# Static dielectric constant tensor:
#      x y z
#    x 1.613110 0.000000 -0.013350 
#    y 0.000000 1.635860 0.000000 
#    z -0.013350 0.000000 1.591420 
# 
# From -- ./inp_files/70904.got.cif
#   From: 2010.05.17/outbox.cif.g08.bks.cpg/sg11_36_cif.got.tgz:70904.got - 2010.06.03 12:22:45.
