data_PCOD9160217
_publ_section_title
;
Structure prediction by ZEFSAII (Michael W. Deem and Ramdas Pophale) SiO2 
 PCOD9160217
Probable space group: P 21/M
;
_chemical_formula_sum "Si O2"
_cell_formula_units_Z 20
_cell_length_a 18.168886
_cell_length_b 7.436296
_cell_length_c 11.804726
_cell_angle_alpha 90.000000
_cell_angle_beta 32.070375
_cell_angle_gamma 90.000000
_cell_volume 846.843374
_symmetry_space_group_name_H-M "P 21/M"
_symmetry_group_IT_number 11
_symmetry_cell_setting 'monoclinic'
loop_
_space_group_symop_operation_xyz
x,y,z
-x,1/2+y,-z
-x,-y,-z
x,1/2-y,z
loop_
_atom_site_type_symbol
_atom_site_label
_atom_site_fract_x
_atom_site_fract_y
_atom_site_fract_z
Si Si1 0.752438 0.967296 0.849538
Si Si2 0.556560 0.454745 0.764600
Si Si3 0.164275 0.961309 0.499871
Si Si4 0.132443 0.029847 0.056536
Si Si5 0.626697 0.963843 0.419938
O O1 0.747927 0.750000 0.859688
O O2 0.803450 0.027041 0.906157
O O3 0.847386 0.020877 0.620197
O O4 0.596609 0.035870 0.027831
O O5 0.542977 0.250000 0.825187
O O6 0.688063 0.540693 0.655469
O O7 0.595047 0.451675 0.581976
O O8 0.170279 0.750000 0.520548
O O9 0.026334 0.032527 0.739411
O O10 0.132703 0.250000 0.056242
O O11 0.232890 0.972847 0.824358
O O12 0.636472 0.750000 0.424632
O O13 0.500000 0.000000 0.500000
#
# Coordination Sequence:
#
# PCOD9160217 Si02
#       5
#     4   4   4   4   4
#     4  10  19  35  56  77 111 149 181 223 270 316
#     4  10  21  37  56  81 113 145 179 224 272 317
#     4  10  21  36  55  81 112 145 182 222 269 324
#     4   9  19  36  56  79 111 145 175 224 280 315
#     4  11  21  37  60  82 108 142 183 225 271 325
#
# _framework density 23.617118999999999
#
# number of rings (size 3 to 8) (size 9 to 14) (size 15 to 20)
#    0.000    2.000    2.000    1.800    0.000    2.400 
#    0.000    2.000    0.000    0.000    0.000    0.000 
#    0.000    0.000    0.000    0.000    0.000    0.000 
#
# Total GULP energy -111836.856691 kJ/mol
# GULP energy per Si atom -5591.842835 kJ/mol
# Density = 2.356337 g / cm^3
# Si number density = 23.617119 Si / 1000 Ang^3
#
#
#
# Elastic Constant Matrix: (Units=GPa)
#
#
# Indices 1 2 3 4 5 6 
#
# 1 52.7175 -6.7946 -1.8875 0.0000 1.5708 0.0000
# 2 -6.7946 84.1025 -3.8711 0.0000 -10.8007 0.0000
# 3 -1.8875 -3.8711 124.2513 0.0000 2.5636 0.0000
# 4 0.0000 0.0000 0.0000 8.1818 0.0000 16.5483
# 5 1.5708 -10.8007 2.5636 0.0000 42.5019 0.0000
# 6 0.0000 0.0000 0.0000 16.5483 0.0000 3.2301
#
#
#
# Elastic Compliance Matrix: (Units=1/GPa)
#
#
# Indices 1 2 3 4 5 6 
#
# 1 0.019188 0.001522 0.000346 0.000000 -0.000343 0.000000
# 2 0.001522 0.012425 0.000347 0.000000 0.003080 0.000000
# 3 0.000346 0.000347 0.008073 0.000000 -0.000412 0.000000
# 4 0.000000 0.000000 0.000000 -0.013055 0.000000 0.066884
# 5 -0.000343 0.003080 -0.000412 0.000000 0.024349 0.000000
# 6 0.000000 0.000000 0.000000 0.066884 0.000000 -0.033069
#
#
# Mechanical properties :
#
#
# Convention : Reuss Voigt Hill
#
# Bulk Modulus (GPa) = 22.66819 26.21831 24.44325
# Shear Modulus (GPa) = 177.39768 29.02440 103.21104
#
# Velocity S-wave (km/s) = 8.67624 3.50945 6.61790
# Velocity P-wave (km/s) = 10.48754 5.24854 8.29264
#
# Compressibility (1/GPa) = 0.04411468
#
# Stress axis : x y z
#
# Youngs Moduli (GPa) = 52.11637 80.48458 123.87342
#
# Poissons Ratio (x) = -0.12250 -0.04286
# Poissons Ratio (y) = -0.07932 -0.04294
# Poissons Ratio (z) = -0.01803 -0.02790
#
# Static dielectric constant tensor:
#      x y z
#    x 1.863030 0.000000 -0.041240 
#    y 0.000000 1.884380 0.000000 
#    z -0.041240 0.000000 1.881700 
# 
# From -- ./inp_files/16058.got.cif
#   From: 2010.05.17/outbox.cif.g08.bks.cpg/sg11_9_cif.got.tgz:16058.got - 2010.06.03 12:22:45.
