data_PCOD9160743
_publ_section_title
;
Structure prediction by ZEFSAII (Michael W. Deem and Ramdas Pophale) SiO2 
 PCOD9160743
Probable space group: P 21/M
;
_chemical_formula_sum "Si O2"
_cell_formula_units_Z 20
_cell_length_a 14.084920
_cell_length_b 12.920115
_cell_length_c 10.695326
_cell_angle_alpha 90.000000
_cell_angle_beta 30.381922
_cell_angle_gamma 90.000000
_cell_volume 984.375149
_symmetry_space_group_name_H-M "P 21/M"
_symmetry_group_IT_number 11
_symmetry_cell_setting 'monoclinic'
loop_
_space_group_symop_operation_xyz
x,y,z
-x,1/2+y,-z
-x,-y,-z
x,1/2-y,z
loop_
_atom_site_type_symbol
_atom_site_label
_atom_site_fract_x
_atom_site_fract_y
_atom_site_fract_z
Si Si1 0.529478 0.865802 0.366978
Si Si2 0.750572 0.961672 0.734453
Si Si3 0.877165 0.129230 0.779461
Si Si4 0.605785 0.136121 0.762252
Si Si5 0.831535 0.472468 0.095949
O O1 0.550465 0.750000 0.391215
O O2 0.482854 0.864562 0.273487
O O3 0.342730 0.913779 0.640314
O O4 0.722611 0.925587 0.171789
O O5 0.927862 0.888293 0.516236
O O6 0.754339 0.040541 0.848736
O O7 0.748378 0.042392 0.621461
O O8 0.565921 0.892223 0.951091
O O9 0.818240 0.250000 0.838425
O O10 0.894403 0.094829 0.904412
O O11 0.685226 0.250000 0.696970
O O12 0.000000 0.500000 0.000000
#
# Coordination Sequence:
#
# PCOD9160743 Si02
#       5
#     4   4   4   4   4
#     4  10  22  40  62  88 119 160 204 252 307 361
#     4  10  21  36  58  88 118 152 193 246 296 368
#     4  11  22  38  58  86 120 157 198 247 304 359
#     4  10  19  37  60  84 115 152 193 242 301 359
#     4  11  23  41  62  88 124 160 207 260 298 362
#
# _framework density 20.317456
#
# number of rings (size 3 to 8) (size 9 to 14) (size 15 to 20)
#    0.000    1.600    2.000    3.000    0.000    1.600 
#    0.000    1.000    0.000    0.000    0.000    0.000 
#    0.000    0.000    0.000    0.000    0.000    0.000 
#
# Total GULP energy -111488.426874 kJ/mol
# GULP energy per Si atom -5574.421344 kJ/mol
# Density = 2.027121 g / cm^3
# Si number density = 20.317456 Si / 1000 Ang^3
#
#
#
# Elastic Constant Matrix: (Units=GPa)
#
#
# Indices 1 2 3 4 5 6 
#
# 1 104.1528 21.1902 10.6551 0.0000 2.7756 0.0000
# 2 21.1902 97.2995 6.5451 0.0000 6.1148 0.0000
# 3 10.6551 6.5451 38.9463 0.0000 1.0820 0.0000
# 4 0.0000 0.0000 0.0000 18.2443 0.0000 -0.9170
# 5 2.7756 6.1148 1.0820 0.0000 19.4641 0.0000
# 6 0.0000 0.0000 0.0000 -0.9170 0.0000 20.1664
#
#
#
# Elastic Compliance Matrix: (Units=1/GPa)
#
#
# Indices 1 2 3 4 5 6 
#
# 1 0.010284 -0.002031 -0.002453 0.000000 -0.000692 0.000000
# 2 -0.002031 0.010996 -0.001206 0.000000 -0.003098 0.000000
# 3 -0.002453 -0.001206 0.026571 0.000000 -0.000748 0.000000
# 4 0.000000 0.000000 0.000000 0.054937 0.000000 0.002498
# 5 -0.000692 -0.003098 -0.000748 0.000000 0.052490 0.000000
# 6 0.000000 0.000000 0.000000 0.002498 0.000000 0.049701
#
#
# Mechanical properties :
#
#
# Convention : Reuss Voigt Hill
#
# Bulk Modulus (GPa) = 27.41974 35.24217 31.33096
# Shear Modulus (GPa) = 21.88029 25.04217 23.46123
#
# Velocity S-wave (km/s) = 3.28521 3.51457 3.40182
# Velocity P-wave (km/s) = 5.28347 5.81833 5.55734
#
# Compressibility (1/GPa) = 0.03647007
#
# Stress axis : x y z
#
# Youngs Moduli (GPa) = 97.23932 90.94464 37.63510
#
# Poissons Ratio (x) = 0.18472 0.09232
# Poissons Ratio (y) = 0.19751 0.04539
# Poissons Ratio (z) = 0.23852 0.10969
#
# Static dielectric constant tensor:
#      x y z
#    x 1.765550 0.000000 0.009870 
#    y 0.000000 1.732430 0.000000 
#    z 0.009870 0.000000 1.690400 
# 
# From -- ./inp_files/39121.got.cif
#   From: 2010.05.17/outbox.cif.g08.bks.cpg/sg11_20_cif.got.tgz:39121.got - 2010.06.03 12:22:45.
