data_PCOD9160616
_publ_section_title
;
Structure prediction by ZEFSAII (Michael W. Deem and Ramdas Pophale) SiO2 
 PCOD9160616
Probable space group: P 21/M
;
_chemical_formula_sum "Si O2"
_cell_formula_units_Z 28
_cell_length_a 19.708838
_cell_length_b 8.993991
_cell_length_c 13.445492
_cell_angle_alpha 90.000000
_cell_angle_beta 143.978676
_cell_angle_gamma 90.000000
_cell_volume 1401.623061
_symmetry_space_group_name_H-M "P 21/M"
_symmetry_group_IT_number 11
_symmetry_cell_setting 'monoclinic'
loop_
_space_group_symop_operation_xyz
x,y,z
-x,1/2+y,-z
-x,-y,-z
x,1/2-y,z
loop_
_atom_site_type_symbol
_atom_site_label
_atom_site_fract_x
_atom_site_fract_y
_atom_site_fract_z
Si Si1 0.472290 0.578247 0.310086
Si Si2 0.191912 0.429152 0.477623
Si Si3 0.624936 0.071948 0.166894
Si Si4 0.329851 0.581329 0.346769
Si Si5 0.022129 0.570137 0.633804
Si Si6 0.119916 0.426131 0.169243
Si Si7 0.721224 0.429350 0.066747
O O1 0.506121 0.750000 0.327758
O O2 0.397026 0.580334 0.321955
O O3 0.583537 0.482272 0.467562
O O4 0.388356 0.516009 0.125731
O O5 0.205947 0.250000 0.499140
O O6 0.305417 0.504524 0.657934
O O7 0.163722 0.470952 0.331101
O O8 0.080020 0.470196 0.411768
O O9 0.614107 0.250000 0.162651
O O10 0.701279 0.037858 0.158878
O O11 0.500000 0.000000 0.000000
O O12 0.295860 0.750000 0.328771
O O13 0.218255 0.479265 0.210632
O O14 0.022495 0.750000 0.625958
O O15 0.152035 0.522696 0.818461
O O16 0.000000 0.500000 0.500000
O O17 0.107408 0.250000 0.153792
O O18 0.000000 0.500000 0.000000
O O19 0.717783 0.250000 0.050803
#
# Coordination Sequence:
#
# PCOD9160616 Si02
#       7
#     4   4   4   4   4   4   4
#     4   9  19  37  62  86 116 156 197 242 293 353
#     4  10  23  41  63  87 117 159 201 242 297 359
#     4  11  23  39  60  88 124 159 200 244 293 353
#     4  10  21  38  61  88 119 153 196 246 299 353
#     4  10  19  36  60  85 114 147 189 236 285 343
#     4  11  25  43  63  87 118 157 203 249 300 362
#     4   9  19  35  59  86 113 152 193 235 290 348
#
# _framework density 19.976839999999999
#
# number of rings (size 3 to 8) (size 9 to 14) (size 15 to 20)
#    0.000    2.000    1.429    1.286    4.000    1.714 
#    0.000    1.429    0.000    0.000    0.000    0.000 
#    0.000    0.000    0.000    0.000    0.000    0.000 
#
# Total GULP energy -156392.850286 kJ/mol
# GULP energy per Si atom -5585.458939 kJ/mol
# Density = 1.993137 g / cm^3
# Si number density = 19.976840 Si / 1000 Ang^3
#
#
#
# Elastic Constant Matrix: (Units=GPa)
#
#
# Indices 1 2 3 4 5 6 
#
# 1 36.1857 22.9540 15.4094 0.0000 10.4739 0.0000
# 2 22.9540 43.8433 40.8424 0.0000 -3.5310 0.0000
# 3 15.4094 40.8424 132.0986 0.0000 3.3071 0.0000
# 4 0.0000 0.0000 0.0000 35.9214 0.0000 1.5813
# 5 10.4739 -3.5310 3.3071 0.0000 33.8789 0.0000
# 6 0.0000 0.0000 0.0000 1.5813 0.0000 22.4054
#
#
#
# Elastic Compliance Matrix: (Units=1/GPa)
#
#
# Indices 1 2 3 4 5 6 
#
# 1 0.052941 -0.033819 0.004790 0.000000 -0.020360 0.000000
# 2 -0.033819 0.054282 -0.013274 0.000000 0.017409 0.000000
# 3 0.004790 -0.013274 0.011214 0.000000 -0.003959 0.000000
# 4 0.000000 0.000000 0.000000 0.027925 0.000000 -0.001971
# 5 -0.020360 0.017409 -0.003959 0.000000 0.038012 0.000000
# 6 0.000000 0.000000 0.000000 -0.001971 0.000000 0.044771
#
#
# Mechanical properties :
#
#
# Convention : Reuss Voigt Hill
#
# Bulk Modulus (GPa) = 29.55783 41.17106 35.36444
# Shear Modulus (GPa) = 15.38326 27.30259 21.34292
#
# Velocity S-wave (km/s) = 2.77800 3.70092 3.27216
# Velocity P-wave (km/s) = 5.01177 6.23831 5.65837
#
# Compressibility (1/GPa) = 0.03383199
#
# Stress axis : x y z
#
# Youngs Moduli (GPa) = 18.88884 18.42244 89.17135
#
# Poissons Ratio (x) = 0.62304 -0.42716
# Poissons Ratio (y) = 0.63881 1.18363
# Poissons Ratio (z) = -0.09048 0.24453
#
# Static dielectric constant tensor:
#      x y z
#    x 1.718810 0.000000 0.005190 
#    y 0.000000 1.678370 0.000000 
#    z 0.005190 0.000000 1.701370 
# 
# From -- ./inp_files/37703.got.cif
#   From: 2010.05.17/outbox.cif.g08.bks.cpg/sg11_19_cif.got.tgz:37703.got - 2010.06.03 12:22:45.
