data_PCOD9160501
_publ_section_title
;
Structure prediction by ZEFSAII (Michael W. Deem and Ramdas Pophale) SiO2 
 PCOD9160501
Probable space group: P 21/M
;
_chemical_formula_sum "Si O2"
_cell_formula_units_Z 32
_cell_length_a 10.826979
_cell_length_b 17.893481
_cell_length_c 15.949323
_cell_angle_alpha 90.000000
_cell_angle_beta 144.819544
_cell_angle_gamma 90.000000
_cell_volume 1780.256686
_symmetry_space_group_name_H-M "P 21/M"
_symmetry_group_IT_number 11
_symmetry_cell_setting 'monoclinic'
loop_
_space_group_symop_operation_xyz
x,y,z
-x,1/2+y,-z
-x,-y,-z
x,1/2-y,z
loop_
_atom_site_type_symbol
_atom_site_label
_atom_site_fract_x
_atom_site_fract_y
_atom_site_fract_z
Si Si1 0.002310 0.338518 0.742305
Si Si2 0.352667 0.511467 0.212580
Si Si3 0.419480 0.332755 0.862856
Si Si4 0.040517 0.591097 0.611160
Si Si5 0.195388 0.931487 0.515547
Si Si6 0.611869 0.664555 0.345963
Si Si7 0.701295 0.446689 0.093347
Si Si8 0.958739 0.964333 0.110847
O O1 0.957622 0.250000 0.723875
O O2 0.848476 0.379635 0.589267
O O3 0.008831 0.380702 0.835121
O O4 0.236238 0.347793 0.828976
O O5 0.562478 0.461896 0.346015
O O6 0.438931 0.597667 0.258212
O O7 0.174733 0.508361 0.186403
O O8 0.232403 0.480941 0.061989
O O9 0.501861 0.250000 0.922386
O O10 0.326001 0.337195 0.718091
O O11 0.612112 0.389073 0.976953
O O12 0.135508 0.605740 0.571577
O O13 0.223652 0.595564 0.782149
O O14 0.957245 0.505068 0.570572
O O15 0.832039 0.641324 0.513650
O O16 0.544088 0.750000 0.328246
O O17 0.895671 0.490578 0.159286
O O18 0.500000 0.500000 0.000000
#
# Coordination Sequence:
#
# PCOD9160501 Si02
#       8
#     4   4   4   4   4   4   4   4
#     4  11  22  38  59  85 118 151 187 240 299 348
#     4  10  23  38  61  83 114 155 199 238 285 340
#     4  10  20  34  55  84 115 147 184 234 296 346
#     4  10  20  31  57  86 113 146 187 239 281 335
#     4  10  19  36  54  84 114 147 187 230 285 343
#     4  10  20  37  58  85 117 152 192 233 290 350
#     4  12  20  34  59  86 111 148 190 244 288 341
#     4  11  22  39  58  88 113 148 200 244 282 347
#
# _framework density 17.974934999999999
#
# number of rings (size 3 to 8) (size 9 to 14) (size 15 to 20)
#    0.000    1.500    5.000    0.750    1.750    1.500 
#    0.000    0.625    0.000    1.500    0.000    0.000 
#    0.000    0.000    0.000    0.000    0.000    0.000 
#
# Total GULP energy -178334.886865 kJ/mol
# GULP energy per Si atom -5572.965215 kJ/mol
# Density = 1.793402 g / cm^3
# Si number density = 17.974935 Si / 1000 Ang^3
#
#
#
# Elastic Constant Matrix: (Units=GPa)
#
#
# Indices 1 2 3 4 5 6 
#
# 1 71.1705 27.9867 25.6972 0.0000 2.8052 0.0000
# 2 27.9867 93.8488 50.8850 0.0000 -0.1355 0.0000
# 3 25.6972 50.8850 94.2924 0.0000 -3.5198 0.0000
# 4 0.0000 0.0000 0.0000 20.6130 0.0000 -6.6511
# 5 2.8052 -0.1355 -3.5198 0.0000 22.0230 0.0000
# 6 0.0000 0.0000 0.0000 -6.6511 0.0000 20.2240
#
#
#
# Elastic Compliance Matrix: (Units=1/GPa)
#
#
# Indices 1 2 3 4 5 6 
#
# 1 0.016491 -0.003439 -0.002734 0.000000 -0.002559 0.000000
# 2 -0.003439 0.015812 -0.007621 0.000000 -0.000683 0.000000
# 3 -0.002734 -0.007621 0.015567 0.000000 0.002789 0.000000
# 4 0.000000 0.000000 0.000000 0.054272 0.000000 0.017849
# 5 -0.002559 -0.000683 0.002789 0.000000 0.046175 0.000000
# 6 0.000000 0.000000 0.000000 0.017849 0.000000 0.055316
#
#
# Mechanical properties :
#
#
# Convention : Reuss Voigt Hill
#
# Bulk Modulus (GPa) = 49.30472 52.04994 50.67733
# Shear Modulus (GPa) = 21.00986 22.88818 21.94902
#
# Velocity S-wave (km/s) = 3.42254 3.57226 3.49820
# Velocity P-wave (km/s) = 6.56564 6.78487 6.67616
#
# Compressibility (1/GPa) = 0.02028204
#
# Stress axis : x y z
#
# Youngs Moduli (GPa) = 60.63870 63.24156 64.23699
#
# Poissons Ratio (x) = 0.21750 0.17561
# Poissons Ratio (y) = 0.20855 0.48957
# Poissons Ratio (z) = 0.16577 0.48199
#
# Static dielectric constant tensor:
#      x y z
#    x 1.607830 0.000000 -0.028680 
#    y 0.000000 1.563970 0.000000 
#    z -0.028680 0.000000 1.647020 
# 
# From -- ./inp_files/41858.got.cif
#   From: 2010.05.17/outbox.cif.g08.bks.cpg/sg11_21_cif.got.tgz:41858.got - 2010.06.03 12:22:45.
