data_PCOD9160128
_publ_section_title
;
Structure prediction by ZEFSAII (Michael W. Deem and Ramdas Pophale) SiO2 
 PCOD9160128
Probable space group: P 21/M
;
_chemical_formula_sum "Si O2"
_cell_formula_units_Z 32
_cell_length_a 21.164041
_cell_length_b 17.622146
_cell_length_c 10.708551
_cell_angle_alpha 90.000000
_cell_angle_beta 156.064388
_cell_angle_gamma 90.000000
_cell_volume 1620.330303
_symmetry_space_group_name_H-M "P 21/M"
_symmetry_group_IT_number 11
_symmetry_cell_setting 'monoclinic'
loop_
_space_group_symop_operation_xyz
x,y,z
-x,1/2+y,-z
-x,-y,-z
x,1/2-y,z
loop_
_atom_site_type_symbol
_atom_site_label
_atom_site_fract_x
_atom_site_fract_y
_atom_site_fract_z
Si Si1 0.071305 0.835193 0.478940
Si Si2 0.820885 0.948755 0.455432
Si Si3 0.073488 0.059086 0.982403
Si Si4 0.568487 0.333921 0.864619
Si Si5 0.068729 0.838138 0.772900
Si Si6 0.276586 0.338931 0.522461
Si Si7 0.632476 0.491148 0.883604
Si Si8 0.304642 0.548579 0.269333
O O1 0.011545 0.750000 0.348731
O O2 0.071494 0.848462 0.628066
O O3 0.970134 0.894703 0.221450
O O4 0.252808 0.836551 0.764442
O O5 0.709443 0.894313 0.333788
O O6 0.942147 0.892621 0.606619
O O7 0.735167 0.993381 0.190122
O O8 0.919021 0.006962 0.720409
O O9 0.133795 0.122080 0.188292
O O10 0.213573 0.000892 0.206871
O O11 0.550988 0.250000 0.773898
O O12 0.433864 0.341497 0.724253
O O13 0.558779 0.406645 0.758689
O O14 0.041612 0.750000 0.750075
O O15 0.230175 0.868992 0.120327
O O16 0.246043 0.250000 0.495622
O O17 0.487584 0.547775 0.622318
O O18 0.720240 0.492309 0.910600
#
# Coordination Sequence:
#
# PCOD9160128 Si02
#       8
#     4   4   4   4   4   4   4   4
#     4  10  19  34  59  88 114 145 186 234 290 342
#     4  11  23  38  59  83 113 156 191 234 285 340
#     4  11  20  37  58  87 110 145 193 239 287 338
#     4  10  20  37  58  83 114 153 189 231 286 334
#     4  10  20  37  58  84 118 151 185 232 291 349
#     4  11  24  41  57  78 114 154 194 238 281 336
#     4  11  20  38  58  89 120 149 190 238 283 347
#     4  10  21  34  60  89 118 149 187 236 294 338
#
# _framework density 19.74906
#
# number of rings (size 3 to 8) (size 9 to 14) (size 15 to 20)
#    0.000    1.500    3.750    1.875    0.000    2.500 
#    0.000    1.250    0.000    2.250    0.000    0.000 
#    0.000    0.000    0.000    0.000    0.000    0.000 
#
# Total GULP energy -178475.889585 kJ/mol
# GULP energy per Si atom -5577.371550 kJ/mol
# Density = 1.970411 g / cm^3
# Si number density = 19.749060 Si / 1000 Ang^3
#
#
#
# Elastic Constant Matrix: (Units=GPa)
#
#
# Indices 1 2 3 4 5 6 
#
# 1 30.2053 13.0273 3.4936 0.0000 7.0394 0.0000
# 2 13.0273 89.3415 11.0180 0.0000 3.0010 0.0000
# 3 3.4936 11.0180 38.3349 0.0000 -4.7399 0.0000
# 4 0.0000 0.0000 0.0000 25.8484 0.0000 0.9522
# 5 7.0394 3.0010 -4.7399 0.0000 20.0173 0.0000
# 6 0.0000 0.0000 0.0000 0.9522 0.0000 29.8549
#
#
#
# Elastic Compliance Matrix: (Units=1/GPa)
#
#
# Indices 1 2 3 4 5 6 
#
# 1 0.038823 -0.004714 -0.003898 0.000000 -0.013869 0.000000
# 2 -0.004714 0.012310 -0.003226 0.000000 -0.000952 0.000000
# 3 -0.003898 -0.003226 0.028430 0.000000 0.008586 0.000000
# 4 0.000000 0.000000 0.000000 0.038733 0.000000 -0.001235
# 5 -0.013869 -0.000952 0.008586 0.000000 0.057010 0.000000
# 6 0.000000 0.000000 0.000000 -0.001235 0.000000 0.033535
#
#
# Mechanical properties :
#
#
# Convention : Reuss Voigt Hill
#
# Bulk Modulus (GPa) = 17.89343 23.66216 20.77780
# Shear Modulus (GPa) = 19.90871 23.83365 21.87118
#
# Velocity S-wave (km/s) = 3.17848 3.47771 3.33145
# Velocity P-wave (km/s) = 4.74872 5.30409 5.03407
#
# Compressibility (1/GPa) = 0.05588642
#
# Stress axis : x y z
#
# Youngs Moduli (GPa) = 25.75785 81.23306 35.17407
#
# Poissons Ratio (x) = 0.38297 0.13711
# Poissons Ratio (y) = 0.12143 0.11348
# Poissons Ratio (z) = 0.10040 0.26207
#
# Static dielectric constant tensor:
#      x y z
#    x 1.715470 0.000000 0.012510 
#    y 0.000000 1.706430 0.000000 
#    z 0.012510 0.000000 1.688480 
# 
# From -- ./inp_files/44348.got.cif
#   From: 2010.05.17/outbox.cif.g08.bks.cpg/sg11_23_cif.got.tgz:44348.got - 2010.06.03 12:22:45.
