data_PCOD9160448
_publ_section_title
;
Structure prediction by ZEFSAII (Michael W. Deem and Ramdas Pophale) SiO2 
 PCOD9160448
Probable space group: P 21/M
;
_chemical_formula_sum "Si O2"
_cell_formula_units_Z 32
_cell_length_a 11.268094
_cell_length_b 8.862210
_cell_length_c 29.277002
_cell_angle_alpha 90.000000
_cell_angle_beta 30.037236
_cell_angle_gamma 90.000000
_cell_volume 1463.449024
_symmetry_space_group_name_H-M "P 21/M"
_symmetry_group_IT_number 11
_symmetry_cell_setting 'monoclinic'
loop_
_space_group_symop_operation_xyz
x,y,z
-x,1/2+y,-z
-x,-y,-z
x,1/2-y,z
loop_
_atom_site_type_symbol
_atom_site_label
_atom_site_fract_x
_atom_site_fract_y
_atom_site_fract_z
Si Si1 0.797739 0.928238 0.702302
Si Si2 0.726733 0.067542 0.899243
Si Si3 0.198899 0.430537 0.797297
Si Si4 0.003061 0.925784 0.949499
Si Si5 0.015972 0.429290 0.544904
Si Si6 0.274689 0.569041 0.601560
Si Si7 0.514843 0.931124 0.384010
Si Si8 0.539981 0.427666 0.867346
O O1 0.784791 0.750000 0.698697
O O2 0.035535 0.961280 0.652928
O O3 0.587497 0.983729 0.805012
O O4 0.824931 0.011851 0.645081
O O5 0.711959 0.250000 0.904506
O O6 0.708735 0.019988 0.852313
O O7 0.964664 0.024928 0.846449
O O8 0.500000 0.000000 0.000000
O O9 0.197676 0.250000 0.803138
O O10 0.414202 0.468486 0.691720
O O11 0.175589 0.503418 0.854490
O O12 0.055155 0.750000 0.936472
O O13 0.728694 0.944330 0.025437
O O14 0.000000 0.000000 0.000000
O O15 0.005593 0.250000 0.545439
O O16 0.271084 0.487264 0.477509
O O17 0.000000 0.500000 0.500000
O O18 0.500000 0.500000 0.500000
O O19 0.299380 0.750000 0.597570
O O20 0.287902 0.490029 0.646543
O O21 0.491075 0.750000 0.396038
O O22 0.580046 0.250000 0.844963
#
# Coordination Sequence:
#
# PCOD9160448 Si02
#       8
#     4   4   4   4   4   4   4   4
#     4  11  24  41  64  95 127 162 207 256 308 369
#     4  10  19  35  60  91 125 161 199 246 304 365
#     4  10  22  39  63  92 125 163 201 249 308 367
#     4  11  24  42  64  88 120 161 208 259 306 364
#     4  12  26  45  68  91 122 163 208 260 312 368
#     4  11  22  37  62  94 129 167 205 252 311 371
#     4  11  23  41  65  94 129 166 207 254 308 373
#     4  10  22  40  62  91 125 163 203 249 311 370
#
# _framework density 21.866152
#
# number of rings (size 3 to 8) (size 9 to 14) (size 15 to 20)
#    0.000    1.250    2.500    3.375    0.000    6.000 
#    0.000    1.250    0.000    0.000    0.000    0.000 
#    0.000    0.000    0.000    0.000    0.000    0.000 
#
# Total GULP energy -179030.794389 kJ/mol
# GULP energy per Si atom -5594.712325 kJ/mol
# Density = 2.181638 g / cm^3
# Si number density = 21.866152 Si / 1000 Ang^3
#
#
#
# Elastic Constant Matrix: (Units=GPa)
#
#
# Indices 1 2 3 4 5 6 
#
# 1 85.2986 30.4667 10.8631 0.0000 35.6473 0.0000
# 2 30.4667 67.2084 36.0074 0.0000 22.1673 0.0000
# 3 10.8631 36.0074 95.2822 0.0000 39.1821 0.0000
# 4 0.0000 0.0000 0.0000 32.4255 0.0000 9.5985
# 5 35.6473 22.1673 39.1821 0.0000 44.5762 0.0000
# 6 0.0000 0.0000 0.0000 9.5985 0.0000 32.5232
#
#
#
# Elastic Compliance Matrix: (Units=1/GPa)
#
#
# Indices 1 2 3 4 5 6 
#
# 1 0.023027 -0.008151 0.009961 0.000000 -0.023117 0.000000
# 2 -0.008151 0.022228 -0.008779 0.000000 0.003181 0.000000
# 3 0.009961 -0.008779 0.022172 0.000000 -0.023089 0.000000
# 4 0.000000 0.000000 0.000000 0.033792 0.000000 -0.009973
# 5 -0.023117 0.003181 -0.023089 0.000000 0.059633 0.000000
# 6 0.000000 0.000000 0.000000 -0.009973 0.000000 0.033691
#
#
# Mechanical properties :
#
#
# Convention : Reuss Voigt Hill
#
# Bulk Modulus (GPa) = 18.69497 44.71817 31.70657
# Shear Modulus (GPa) = 22.09365 33.26845 27.68105
#
# Velocity S-wave (km/s) = 3.18213 3.90482 3.56185
# Velocity P-wave (km/s) = 4.69783 6.38948 5.60781
#
# Compressibility (1/GPa) = 0.05349032
#
# Stress axis : x y z
#
# Youngs Moduli (GPa) = 43.42725 44.98809 45.10263
#
# Poissons Ratio (x) = 0.36668 -0.44927
# Poissons Ratio (y) = 0.35396 0.39594
# Poissons Ratio (z) = -0.43258 0.39494
#
# Static dielectric constant tensor:
#      x y z
#    x 1.916760 0.000000 -0.036820 
#    y 0.000000 1.723620 0.000000 
#    z -0.036820 0.000000 1.832460 
# 
# From -- ./inp_files/73042.got.cif
#   From: 2010.05.17/outbox.cif.g08.bks.cpg/sg11_37_cif.got.tgz:73042.got - 2010.06.03 12:22:45.
