data_PCOD9160917
_publ_section_title
;
Structure prediction by ZEFSAII (Michael W. Deem and Ramdas Pophale) SiO2 
 PCOD9160917
Probable space group: P 21/M
;
_chemical_formula_sum "Si O2"
_cell_formula_units_Z 26
_cell_length_a 4.931966
_cell_length_b 23.272161
_cell_length_c 10.847494
_cell_angle_alpha 90.000000
_cell_angle_beta 114.731261
_cell_angle_gamma 90.000000
_cell_volume 1130.852548
_symmetry_space_group_name_H-M "P 21/M"
_symmetry_group_IT_number 11
_symmetry_cell_setting 'monoclinic'
loop_
_space_group_symop_operation_xyz
x,y,z
-x,1/2+y,-z
-x,-y,-z
x,1/2-y,z
loop_
_atom_site_type_symbol
_atom_site_label
_atom_site_fract_x
_atom_site_fract_y
_atom_site_fract_z
Si Si1 0.222063 0.250000 0.604887
Si Si2 0.550542 0.072769 0.455927
Si Si3 0.989843 0.354836 0.406263
Si Si4 0.767815 0.114724 0.103032
Si Si5 0.329701 0.459894 0.156315
Si Si6 0.878050 0.433717 0.751602
Si Si7 0.434060 0.356618 0.806039
O O1 0.282895 0.300885 0.720447
O O2 0.158486 0.299806 0.487720
O O3 0.740333 0.129905 0.459683
O O4 0.529090 0.043762 0.318746
O O5 0.738745 0.042229 0.597999
O O6 0.226960 0.092937 0.440110
O O7 0.832874 0.352026 0.242771
O O8 0.558818 0.059153 0.094563
O O9 0.083781 0.090350 0.117114
O O10 0.605214 0.151287 0.967672
O O11 0.158558 0.519885 0.145996
O O12 0.675225 0.380307 0.754682
O O13 0.200757 0.408530 0.784697
#
# Coordination Sequence:
#
# PCOD9160917 Si02
#       7
#     2   4   4   4   4   4   4
#     4  12  24  46  66  94 112 176 198 282 306 360
#     4  10  19  40  59  98 119 162 204 262 291 372
#     4  10  22  39  68  83 124 156 216 248 312 353
#     4  10  23  44  58  99 124 168 199 260 296 398
#     4  10  22  38  69  87 136 166 205 240 323 359
#     4  12  22  40  62 101 125 170 201 262 296 390
#     4  12  27  39  66  91 135 156 218 251 322 355
#
# _framework density 22.991503999999999
#
# number of rings (size 3 to 8) (size 9 to 14) (size 15 to 20)
#    0.000    1.231    3.077    2.308    0.000    6.769 
#    0.000    6.154    0.000    5.538    0.000    0.000 
#    0.000    0.000    0.000    0.000    0.000    0.000 
#
# Total GULP energy -144815.935784 kJ/mol
# GULP energy per Si atom -5569.843684 kJ/mol
# Density = 2.293917 g / cm^3
# Si number density = 22.991504 Si / 1000 Ang^3
#
#
#
# Elastic Constant Matrix: (Units=GPa)
#
#
# Indices 1 2 3 4 5 6 
#
# 1 91.5686 -12.9789 7.2753 0.0000 2.1771 0.0000
# 2 -12.9789 72.2237 21.5917 0.0000 -1.0758 0.0000
# 3 7.2753 21.5917 157.4964 0.0000 3.2945 0.0000
# 4 0.0000 0.0000 0.0000 27.3622 0.0000 -8.9550
# 5 2.1771 -1.0758 3.2945 0.0000 17.7711 0.0000
# 6 0.0000 0.0000 0.0000 -8.9550 0.0000 -13.0546
#
#
#
# Elastic Compliance Matrix: (Units=1/GPa)
#
#
# Indices 1 2 3 4 5 6 
#
# 1 0.011332 0.002262 -0.000811 0.000000 -0.001101 0.000000
# 2 0.002262 0.014917 -0.002171 0.000000 0.001028 0.000000
# 3 -0.000811 -0.002171 0.006711 0.000000 -0.001276 0.000000
# 4 0.000000 0.000000 0.000000 0.029846 0.000000 -0.020473
# 5 -0.001101 0.001028 -0.001276 0.000000 0.056705 0.000000
# 6 0.000000 0.000000 0.000000 -0.020473 0.000000 -0.062557
#
#
# Mechanical properties :
#
#
# Convention : Reuss Voigt Hill
#
# Bulk Modulus (GPa) = 31.72446 39.22943 35.47695
# Shear Modulus (GPa) = 72.56939 26.77577 49.67258
#
# Velocity S-wave (km/s) = 5.62424 3.41632 4.65313
# Velocity P-wave (km/s) = 7.48361 5.71500 6.65829
#
# Compressibility (1/GPa) = 0.03152142
#
# Stress axis : x y z
#
# Youngs Moduli (GPa) = 88.24549 67.03862 149.00631
#
# Poissons Ratio (x) = -0.15166 0.12078
# Poissons Ratio (y) = -0.19964 0.32349
# Poissons Ratio (z) = 0.07153 0.14554
#
# Static dielectric constant tensor:
#      x y z
#    x 1.840000 0.000000 0.027570 
#    y 0.000000 1.807150 0.000000 
#    z 0.027570 0.000000 1.916140 
# 
# From -- ./inp_files/30041.got.cif
#   From: 2010.05.17/outbox.cif.g08.bks.cpg/sg11_16_cif.got.tgz:30041.got - 2010.06.03 12:22:45.
