data_PCOD9160288
_publ_section_title
;
Structure prediction by ZEFSAII (Michael W. Deem and Ramdas Pophale) SiO2 
 PCOD9160288
Probable space group: P 21/M
;
_chemical_formula_sum "Si O2"
_cell_formula_units_Z 28
_cell_length_a 16.087438
_cell_length_b 13.185156
_cell_length_c 9.754003
_cell_angle_alpha 90.000000
_cell_angle_beta 50.922256
_cell_angle_gamma 90.000000
_cell_volume 1606.126614
_symmetry_space_group_name_H-M "P 21/M"
_symmetry_group_IT_number 11
_symmetry_cell_setting 'monoclinic'
loop_
_space_group_symop_operation_xyz
x,y,z
-x,1/2+y,-z
-x,-y,-z
x,1/2-y,z
loop_
_atom_site_type_symbol
_atom_site_label
_atom_site_fract_x
_atom_site_fract_y
_atom_site_fract_z
Si Si1 0.582315 0.128097 0.994889
Si Si2 0.350545 0.129397 0.330341
Si Si3 0.299986 0.866436 0.408527
Si Si4 0.387022 0.983789 0.543225
Si Si5 0.926782 0.128928 0.704712
Si Si6 0.272602 0.870521 0.896399
Si Si7 0.146330 0.012968 0.472796
O O1 0.582408 0.250000 0.994575
O O2 0.459067 0.098052 0.137976
O O3 0.647288 0.099441 0.063059
O O4 0.645700 0.102361 0.791484
O O5 0.348998 0.250000 0.345434
O O6 0.358088 0.078081 0.473812
O O7 0.245254 0.091303 0.360477
O O8 0.271621 0.750000 0.434491
O O9 0.385607 0.891507 0.436048
O O10 0.193652 0.934180 0.535560
O O11 0.500000 0.000000 0.500000
O O12 0.300595 0.946176 0.744427
O O13 0.933251 0.250000 0.662217
O O14 0.041574 0.078422 0.615183
O O15 0.879309 0.059735 0.630369
O O16 0.845473 0.121431 0.916671
O O17 0.290708 0.750000 0.843129
#
# Coordination Sequence:
#
# PCOD9160288 Si02
#       7
#     4   4   4   4   4   4   4
#     4   9  17  32  56  80 109 148 182 222 277 329
#     4  10  21  36  53  77 115 152 186 228 278 331
#     4  10  20  35  54  83 115 144 187 236 274 320
#     4  11  22  33  53  83 110 147 186 226 275 330
#     4  10  20  36  58  82 113 145 183 231 276 328
#     4  10  19  35  57  83 112 146 185 224 273 334
#     4  10  20  33  57  85 104 142 188 228 277 327
#
# _framework density 17.433247000000001
#
# number of rings (size 3 to 8) (size 9 to 14) (size 15 to 20)
#    0.000    2.000    2.857    1.286    0.000    4.000 
#    0.000    2.857    0.000    6.857    0.000    0.000 
#    0.000    0.000    0.000    0.000    0.000    0.000 
#
# Total GULP energy -155872.095428 kJ/mol
# GULP energy per Si atom -5566.860551 kJ/mol
# Density = 1.739357 g / cm^3
# Si number density = 17.433247 Si / 1000 Ang^3
#
#
#
# Elastic Constant Matrix: (Units=GPa)
#
#
# Indices 1 2 3 4 5 6 
#
# 1 107.7667 35.4803 48.3952 0.0000 -20.9280 0.0000
# 2 35.4803 101.8536 40.0580 0.0000 -15.8924 0.0000
# 3 48.3952 40.0580 86.2302 0.0000 -13.4018 0.0000
# 4 0.0000 0.0000 0.0000 31.1527 0.0000 1.3518
# 5 -20.9280 -15.8924 -13.4018 0.0000 29.1580 0.0000
# 6 0.0000 0.0000 0.0000 1.3518 0.0000 30.6800
#
#
#
# Elastic Compliance Matrix: (Units=1/GPa)
#
#
# Indices 1 2 3 4 5 6 
#
# 1 0.013676 -0.001407 -0.006047 0.000000 0.006269 0.000000
# 2 -0.001407 0.012677 -0.004504 0.000000 0.003829 0.000000
# 3 -0.006047 -0.004504 0.017260 0.000000 0.001138 0.000000
# 4 0.000000 0.000000 0.000000 0.032161 0.000000 -0.001417
# 5 0.006269 0.003829 0.001138 0.000000 0.041406 0.000000
# 6 0.000000 0.000000 0.000000 -0.001417 0.000000 0.032657
#
#
# Mechanical properties :
#
#
# Convention : Reuss Voigt Hill
#
# Bulk Modulus (GPa) = 50.77292 60.41306 55.59299
# Shear Modulus (GPa) = 27.72858 29.65928 28.69393
#
# Velocity S-wave (km/s) = 3.99251 4.12916 4.06141
# Velocity P-wave (km/s) = 7.10217 7.58040 7.34518
#
# Compressibility (1/GPa) = 0.01969554
#
# Stress axis : x y z
#
# Youngs Moduli (GPa) = 73.12234 78.88178 57.93773
#
# Poissons Ratio (x) = 0.11102 0.35035
# Poissons Ratio (y) = 0.10292 0.26096
# Poissons Ratio (z) = 0.44218 0.35529
#
# Static dielectric constant tensor:
#      x y z
#    x 1.630670 0.000000 0.001890 
#    y 0.000000 1.630390 0.000000 
#    z 0.001890 0.000000 1.607340 
# 
# From -- ./inp_files/22109.got.cif
#   From: 2010.05.17/outbox.cif.g08.bks.cpg/sg11_12_cif.got.tgz:22109.got - 2010.06.03 12:22:45.
