data_PCOD9160494
_publ_section_title
;
Structure prediction by ZEFSAII (Michael W. Deem and Ramdas Pophale) SiO2 
 PCOD9160494
Probable space group: P 21/M
;
_chemical_formula_sum "Si O2"
_cell_formula_units_Z 20
_cell_length_a 10.863975
_cell_length_b 14.479098
_cell_length_c 5.550680
_cell_angle_alpha 90.000000
_cell_angle_beta 92.942926
_cell_angle_gamma 90.000000
_cell_volume 871.973564
_symmetry_space_group_name_H-M "P 21/M"
_symmetry_group_IT_number 11
_symmetry_cell_setting 'monoclinic'
loop_
_space_group_symop_operation_xyz
x,y,z
-x,1/2+y,-z
-x,-y,-z
x,1/2-y,z
loop_
_atom_site_type_symbol
_atom_site_label
_atom_site_fract_x
_atom_site_fract_y
_atom_site_fract_z
Si Si1 0.022790 0.609132 0.457573
Si Si2 0.337979 0.494565 0.155924
Si Si3 0.519641 0.645417 0.139748
Si Si4 0.755226 0.651950 0.507240
Si Si5 0.105957 0.578104 0.967401
O O1 0.104649 0.626923 0.229719
O O2 0.000000 0.500000 0.500000
O O3 0.887625 0.649537 0.396149
O O4 0.073775 0.636438 0.726606
O O5 0.413424 0.583586 0.250327
O O6 0.255436 0.439002 0.334861
O O7 0.239721 0.530714 0.949379
O O8 0.435707 0.417448 0.078870
O O9 0.481932 0.750000 0.076463
O O10 0.640263 0.650235 0.317565
O O11 0.747881 0.750000 0.646710
O O12 0.000000 0.500000 0.000000
#
# Coordination Sequence:
#
# PCOD9160494 Si02
#       5
#     4   4   4   4   4
#     4  10  19  36  60  88 121 156 198 255 311 370
#     4  11  21  38  65  85 123 169 203 267 320 373
#     4  10  23  40  59  90 120 160 217 263 317 379
#     4  11  22  37  61  90 121 163 212 262 311 381
#     4  10  19  35  64  89 121 159 203 249 315 382
#
# _framework density 22.936475999999999
#
# number of rings (size 3 to 8) (size 9 to 14) (size 15 to 20)
#    0.000    1.600    4.000    3.600    0.000    0.000 
#    0.000    2.000    0.000    0.000    0.000    0.000 
#    0.000    0.000    0.000    0.000    0.000    0.000 
#
# Total GULP energy -111541.053400 kJ/mol
# GULP energy per Si atom -5577.052670 kJ/mol
# Density = 2.288427 g / cm^3
# Si number density = 22.936476 Si / 1000 Ang^3
#
#
#
# Elastic Constant Matrix: (Units=GPa)
#
#
# Indices 1 2 3 4 5 6 
#
# 1 71.6735 62.5268 8.1279 0.0000 -0.6177 0.0000
# 2 62.5268 131.8385 12.7341 0.0000 12.0847 0.0000
# 3 8.1279 12.7341 102.3833 0.0000 -4.1544 0.0000
# 4 0.0000 0.0000 0.0000 19.6218 0.0000 21.6961
# 5 -0.6177 12.0847 -4.1544 0.0000 29.7348 0.0000
# 6 0.0000 0.0000 0.0000 21.6961 0.0000 84.9716
#
#
#
# Elastic Compliance Matrix: (Units=1/GPa)
#
#
# Indices 1 2 3 4 5 6 
#
# 1 0.024629 -0.012156 -0.000223 0.000000 0.005421 0.000000
# 2 -0.012156 0.014007 -0.001024 0.000000 -0.006088 0.000000
# 3 -0.000223 -0.001024 0.009986 0.000000 0.001807 0.000000
# 4 0.000000 0.000000 0.000000 0.071013 0.000000 -0.018132
# 5 0.005421 -0.006088 0.001807 0.000000 0.036470 0.000000
# 6 0.000000 0.000000 0.000000 -0.018132 0.000000 0.016398
#
#
# Mechanical properties :
#
#
# Convention : Reuss Voigt Hill
#
# Bulk Modulus (GPa) = 45.84060 52.51920 49.17990
# Shear Modulus (GPa) = 24.20350 41.69939 32.95145
#
# Velocity S-wave (km/s) = 3.25197 4.26847 3.79441
# Velocity P-wave (km/s) = 5.84206 6.87317 6.37849
#
# Compressibility (1/GPa) = 0.02181472
#
# Stress axis : x y z
#
# Youngs Moduli (GPa) = 40.60264 71.39155 100.14372
#
# Poissons Ratio (x) = 0.86784 0.02237
# Poissons Ratio (y) = 0.49357 0.10257
# Poissons Ratio (z) = 0.00907 0.07312
#
# Static dielectric constant tensor:
#      x y z
#    x 1.833670 0.000000 -0.021740 
#    y 0.000000 1.913110 0.000000 
#    z -0.021740 0.000000 1.947560 
# 
# From -- ./inp_files/4258.got.cif
#   From: 2010.05.17/outbox.cif.g08.bks.cpg/sg11_3_cif.got.tgz:4258.got - 2010.06.03 12:22:45.
