data_PCOD9160757
_publ_section_title
;
Structure prediction by ZEFSAII (Michael W. Deem and Ramdas Pophale) SiO2 
 PCOD9160757
Probable space group: P 21/M
;
_chemical_formula_sum "Si O2"
_cell_formula_units_Z 24
_cell_length_a 8.029232
_cell_length_b 21.680238
_cell_length_c 8.920996
_cell_angle_alpha 90.000000
_cell_angle_beta 52.053454
_cell_angle_gamma 90.000000
_cell_volume 1224.615617
_symmetry_space_group_name_H-M "P 21/M"
_symmetry_group_IT_number 11
_symmetry_cell_setting 'monoclinic'
loop_
_space_group_symop_operation_xyz
x,y,z
-x,1/2+y,-z
-x,-y,-z
x,1/2-y,z
loop_
_atom_site_type_symbol
_atom_site_label
_atom_site_fract_x
_atom_site_fract_y
_atom_site_fract_z
Si Si1 0.991732 0.914060 0.580894
Si Si2 0.354826 0.589512 0.591916
Si Si3 0.990459 0.178221 0.172643
Si Si4 0.532372 0.967755 0.779183
Si Si5 0.422764 0.178016 0.768697
Si Si6 0.655232 0.406980 0.841759
O O1 0.772278 0.948426 0.686159
O O2 0.174418 0.943131 0.588056
O O3 0.109938 0.907828 0.357040
O O4 0.953061 0.850752 0.694720
O O5 0.474214 0.546662 0.641376
O O6 0.500148 0.631996 0.404549
O O7 0.213356 0.639275 0.760527
O O8 0.946030 0.250000 0.211969
O O9 0.181352 0.169488 0.951830
O O10 0.518167 0.039098 0.833634
O O11 0.378577 0.927009 0.969748
O O12 0.459006 0.250000 0.712084
O O13 0.556393 0.157026 0.840993
#
# Coordination Sequence:
#
# PCOD9160757 Si02
#       6
#     4   4   4   4   4   4
#     4   9  20  36  57  84 116 155 189 234 292 337
#     4   9  21  35  60  84 112 151 191 236 286 340
#     4   9  18  36  58  81 113 148 192 237 283 339
#     4  11  21  39  56  89 123 147 195 237 288 346
#     4  10  19  37  61  82 111 155 195 235 292 345
#     4  10  21  36  60  86 120 155 189 240 285 348
#
# _framework density 19.597987
#
# number of rings (size 3 to 8) (size 9 to 14) (size 15 to 20)
#    1.000    1.333    1.667    1.000    0.000    4.000 
#    0.000   10.833    0.000    2.000    0.000    0.000 
#    0.000    0.000    0.000    0.000    0.000    0.000 
#
# Total GULP energy -133611.741037 kJ/mol
# GULP energy per Si atom -5567.155877 kJ/mol
# Density = 1.955338 g / cm^3
# Si number density = 19.597987 Si / 1000 Ang^3
#
#
#
# Elastic Constant Matrix: (Units=GPa)
#
#
# Indices 1 2 3 4 5 6 
#
# 1 69.5234 31.0896 39.6091 0.0000 4.4065 0.0000
# 2 31.0896 50.3637 26.0209 0.0000 8.4769 0.0000
# 3 39.6091 26.0209 104.9322 0.0000 -1.4153 0.0000
# 4 0.0000 0.0000 0.0000 24.4991 0.0000 -1.1956
# 5 4.4065 8.4769 -1.4153 0.0000 25.7923 0.0000
# 6 0.0000 0.0000 0.0000 -1.1956 0.0000 14.8395
#
#
#
# Elastic Compliance Matrix: (Units=1/GPa)
#
#
# Indices 1 2 3 4 5 6 
#
# 1 0.022597 -0.010819 -0.005856 0.000000 -0.000626 0.000000
# 2 -0.010819 0.029637 -0.003375 0.000000 -0.008077 0.000000
# 3 -0.005856 -0.003375 0.012615 0.000000 0.002802 0.000000
# 4 0.000000 0.000000 0.000000 0.040979 0.000000 0.003302
# 5 -0.000626 -0.008077 0.002802 0.000000 0.041687 0.000000
# 6 0.000000 0.000000 0.000000 0.003302 0.000000 0.067654
#
#
# Mechanical properties :
#
#
# Convention : Reuss Voigt Hill
#
# Bulk Modulus (GPa) = 40.40122 46.47318 43.43720
# Shear Modulus (GPa) = 18.97416 21.56616 20.27016
#
# Velocity S-wave (km/s) = 3.11492 3.32087 3.21954
# Velocity P-wave (km/s) = 5.79626 6.20233 6.00273
#
# Compressibility (1/GPa) = 0.02475173
#
# Stress axis : x y z
#
# Youngs Moduli (GPa) = 44.25321 33.74172 79.27151
#
# Poissons Ratio (x) = 0.36504 0.46418
# Poissons Ratio (y) = 0.47876 0.26750
# Poissons Ratio (z) = 0.25913 0.11386
#
# Static dielectric constant tensor:
#      x y z
#    x 1.684790 0.000000 -0.001530 
#    y 0.000000 1.712310 0.000000 
#    z -0.001530 0.000000 1.745190 
# 
# From -- ./inp_files/14240.got.cif
#   From: 2010.05.17/outbox.cif.g08.bks.cpg/sg11_8_cif.got.tgz:14240.got - 2010.06.03 12:22:45.
