data_PCOD9160514
_publ_section_title
;
Structure prediction by ZEFSAII (Michael W. Deem and Ramdas Pophale) SiO2 
 PCOD9160514
Probable space group: P 21/M
;
_chemical_formula_sum "Si O2"
_cell_formula_units_Z 28
_cell_length_a 20.327566
_cell_length_b 7.888592
_cell_length_c 17.492966
_cell_angle_alpha 90.000000
_cell_angle_beta 30.966775
_cell_angle_gamma 90.000000
_cell_volume 1443.338689
_symmetry_space_group_name_H-M "P 21/M"
_symmetry_group_IT_number 11
_symmetry_cell_setting 'monoclinic'
loop_
_space_group_symop_operation_xyz
x,y,z
-x,1/2+y,-z
-x,-y,-z
x,1/2-y,z
loop_
_atom_site_type_symbol
_atom_site_label
_atom_site_fract_x
_atom_site_fract_y
_atom_site_fract_z
Si Si1 0.847320 0.542664 0.490338
Si Si2 0.857479 0.048285 0.812141
Si Si3 0.770063 0.544508 0.403480
Si Si4 0.972472 0.948175 0.940617
Si Si5 0.514444 0.954946 0.574146
Si Si6 0.270946 0.552111 0.908775
Si Si7 0.150080 0.047941 0.346313
O O1 0.849483 0.750000 0.489653
O O2 0.770369 0.490720 0.491940
O O3 0.797841 0.487772 0.623227
O O4 0.995368 0.484671 0.333029
O O5 0.867952 0.250000 0.813651
O O6 0.802517 0.020317 0.782067
O O7 0.774360 0.977272 0.964792
O O8 0.770926 0.750000 0.401218
O O9 0.901430 0.485846 0.234198
O O10 0.647758 0.484915 0.477677
O O11 0.943159 0.750000 0.967272
O O12 0.000000 0.000000 0.000000
O O13 0.851035 0.041362 0.025401
O O14 0.514552 0.750000 0.577977
O O15 0.394482 0.020776 0.743135
O O16 0.500000 0.000000 0.500000
O O17 0.300683 0.750000 0.893105
O O18 0.161156 0.250000 0.332280
O O19 0.000000 0.000000 0.500000
#
# Coordination Sequence:
#
# PCOD9160514 Si02
#       7
#     4   4   4   4   4   4   4
#     4   8  14  27  48  72 100 135 168 204 256 305
#     4   9  16  29  49  72 102 138 170 210 261 307
#     4  10  19  36  57  78 104 137 175 219 265 315
#     4  12  24  36  53  79 104 135 173 216 270 319
#     4  10  22  37  57  78 101 137 179 218 265 322
#     4  10  20  37  56  77 106 139 176 220 265 315
#     4   9  16  26  43  71 104 137 170 208 256 309
#
# _framework density 19.399466
#
# number of rings (size 3 to 8) (size 9 to 14) (size 15 to 20)
#    0.000    2.286    1.429    3.429    0.000    4.000 
#    0.000    0.714    0.000    0.857    0.000    0.000 
#    0.000    0.000    0.000    0.000    0.000    0.571 
#
# Total GULP energy -156150.034622 kJ/mol
# GULP energy per Si atom -5576.786951 kJ/mol
# Density = 1.935531 g / cm^3
# Si number density = 19.399466 Si / 1000 Ang^3
#
#
#
# Elastic Constant Matrix: (Units=GPa)
#
#
# Indices 1 2 3 4 5 6 
#
# 1 95.8402 -12.0935 8.8929 0.0000 21.6702 0.0000
# 2 -12.0935 20.8920 -5.7019 0.0000 0.7477 0.0000
# 3 8.8929 -5.7019 50.0127 0.0000 8.1620 0.0000
# 4 0.0000 0.0000 0.0000 0.0112 0.0000 15.8587
# 5 21.6702 0.7477 8.1620 0.0000 36.5029 0.0000
# 6 0.0000 0.0000 0.0000 15.8587 0.0000 16.4705
#
#
#
# Elastic Compliance Matrix: (Units=1/GPa)
#
#
# Indices 1 2 3 4 5 6 
#
# 1 0.013256 0.007919 -0.000149 0.000000 -0.007998 0.000000
# 2 0.007919 0.054329 0.005952 0.000000 -0.007145 0.000000
# 3 -0.000149 0.005952 0.021490 0.000000 -0.004839 0.000000
# 4 0.000000 0.000000 0.000000 -0.065538 0.000000 0.063103
# 5 -0.007998 -0.007145 -0.004839 0.000000 0.033371 0.000000
# 6 0.000000 0.000000 0.000000 0.063103 0.000000 -0.000044
#
#
# Mechanical properties :
#
#
# Convention : Reuss Voigt Hill
#
# Bulk Modulus (GPa) = 8.58236 16.54885 12.56561
# Shear Modulus (GPa) = 73.24997 22.30676 47.77837
#
# Velocity S-wave (km/s) = 6.15148 3.39464 4.96812
# Velocity P-wave (km/s) = 7.40864 4.89018 6.27701
#
# Compressibility (1/GPa) = 0.11651804
#
# Stress axis : x y z
#
# Youngs Moduli (GPa) = 75.44036 18.40631 46.53405
#
# Poissons Ratio (x) = -0.14575 0.00693
# Poissons Ratio (y) = -0.59739 -0.27697
# Poissons Ratio (z) = 0.01123 -0.10955
#
# Static dielectric constant tensor:
#      x y z
#    x 1.670510 0.000000 0.046850 
#    y 0.000000 1.723350 0.000000 
#    z 0.046850 0.000000 1.663390 
# 
# From -- ./inp_files/61231.got.cif
#   From: 2010.05.17/outbox.cif.g08.bks.cpg/sg11_31_cif.got.tgz:61231.got - 2010.06.03 12:22:45.
