data_PCOD9160863
_publ_section_title
;
Structure prediction by ZEFSAII (Michael W. Deem and Ramdas Pophale) SiO2 
 PCOD9160863
Probable space group: P 21/M
;
_chemical_formula_sum "Si O2"
_cell_formula_units_Z 26
_cell_length_a 14.586679
_cell_length_b 11.746142
_cell_length_c 8.098740
_cell_angle_alpha 90.000000
_cell_angle_beta 56.982796
_cell_angle_gamma 90.000000
_cell_volume 1163.525266
_symmetry_space_group_name_H-M "P 21/M"
_symmetry_group_IT_number 11
_symmetry_cell_setting 'monoclinic'
loop_
_space_group_symop_operation_xyz
x,y,z
-x,1/2+y,-z
-x,-y,-z
x,1/2-y,z
loop_
_atom_site_type_symbol
_atom_site_label
_atom_site_fract_x
_atom_site_fract_y
_atom_site_fract_z
Si Si1 0.738787 0.115805 0.499255
Si Si2 0.649726 0.750000 0.592195
Si Si3 0.676418 0.624979 0.073569
Si Si4 0.017556 0.876455 0.259143
Si Si5 0.841413 0.966889 0.680402
Si Si6 0.478297 0.018632 0.215978
Si Si7 0.181236 0.083531 0.756988
O O1 0.743746 0.250000 0.483368
O O2 0.616113 0.068645 0.635813
O O3 0.802805 0.066998 0.596430
O O4 0.795282 0.049529 0.292818
O O5 0.559494 0.646895 0.711850
O O6 0.742421 0.651405 0.449854
O O7 0.622918 0.750000 0.127059
O O8 0.589989 0.525631 0.190610
O O9 0.769482 0.624514 0.120466
O O10 0.737571 0.605829 0.840146
O O11 0.063877 0.750000 0.216780
O O12 0.931647 0.893744 0.495789
O O13 0.943143 0.892097 0.170006
O O14 0.105393 0.972824 0.212455
O O15 0.500000 0.000000 0.000000
#
# Coordination Sequence:
#
# PCOD9160863 Si02
#       7
#     4   2   4   4   4   4   4
#     4  10  21  40  60  86 127 160 203 255 305 367
#     4  10  22  42  60  88 128 164 206 254 304 378
#     4  12  24  41  62  93 127 162 211 256 301 371
#     4  10  19  38  63  87 119 165 205 253 315 368
#     4  10  22  35  62  95 119 159 210 258 310 360
#     4  11  24  37  63  90 120 163 208 255 315 356
#     4  10  22  42  63  87 123 169 204 247 309 370
#
# _framework density 22.345884000000002
#
# number of rings (size 3 to 8) (size 9 to 14) (size 15 to 20)
#    0.000    1.538    3.077    1.385    2.154    3.077 
#    5.538    0.769    0.000    0.000    0.000    0.000 
#    0.000    0.000    0.000    0.000    0.000    0.000 
#
# Total GULP energy -144778.294829 kJ/mol
# GULP energy per Si atom -5568.395955 kJ/mol
# Density = 2.229502 g / cm^3
# Si number density = 22.345884 Si / 1000 Ang^3
#
#
#
# Elastic Constant Matrix: (Units=GPa)
#
#
# Indices 1 2 3 4 5 6 
#
# 1 72.5000 15.9353 -0.3869 0.0000 3.4865 0.0000
# 2 15.9353 176.3104 14.3110 0.0000 -1.6836 0.0000
# 3 -0.3869 14.3110 24.9061 0.0000 -3.7962 0.0000
# 4 0.0000 0.0000 0.0000 15.3468 0.0000 -8.7165
# 5 3.4865 -1.6836 -3.7962 0.0000 25.1721 0.0000
# 6 0.0000 0.0000 0.0000 -8.7165 0.0000 26.2885
#
#
#
# Elastic Compliance Matrix: (Units=1/GPa)
#
#
# Indices 1 2 3 4 5 6 
#
# 1 0.014189 -0.001358 0.000704 0.000000 -0.001950 0.000000
# 2 -0.001358 0.006080 -0.003504 0.000000 0.000066 0.000000
# 3 0.000704 -0.003504 0.043116 0.000000 0.006170 0.000000
# 4 0.000000 0.000000 0.000000 0.080278 0.000000 0.026618
# 5 -0.001950 0.000066 0.006170 0.000000 0.040932 0.000000
# 6 0.000000 0.000000 0.000000 0.026618 0.000000 0.046865
#
#
# Mechanical properties :
#
#
# Convention : Reuss Voigt Hill
#
# Bulk Modulus (GPa) = 18.15979 37.04837 27.60408
# Shear Modulus (GPa) = 19.36986 29.61863 24.49425
#
# Velocity S-wave (km/s) = 2.94738 3.64464 3.31439
# Velocity P-wave (km/s) = 4.44151 5.85890 5.19874
#
# Compressibility (1/GPa) = 0.05506673
#
# Stress axis : x y z
#
# Youngs Moduli (GPa) = 70.47630 164.48325 23.19338
#
# Poissons Ratio (x) = 0.22340 -0.01632
# Poissons Ratio (y) = 0.09572 0.08128
# Poissons Ratio (z) = -0.04959 0.57641
#
# Static dielectric constant tensor:
#      x y z
#    x 1.910010 0.000000 0.062630 
#    y 0.000000 1.801140 0.000000 
#    z 0.062630 0.000000 1.854410 
# 
# From -- ./inp_files/21121.got.cif
#   From: 2010.05.17/outbox.cif.g08.bks.cpg/sg11_11_cif.got.tgz:21121.got - 2010.06.03 12:22:45.
