data_PCOD9160119
_publ_section_title
;
Structure prediction by ZEFSAII (Michael W. Deem and Ramdas Pophale) SiO2 
 PCOD9160119
Probable space group: P 21/M
;
_chemical_formula_sum "Si O2"
_cell_formula_units_Z 24
_cell_length_a 13.120045
_cell_length_b 9.284364
_cell_length_c 12.292002
_cell_angle_alpha 90.000000
_cell_angle_beta 52.119434
_cell_angle_gamma 90.000000
_cell_volume 1181.810993
_symmetry_space_group_name_H-M "P 21/M"
_symmetry_group_IT_number 11
_symmetry_cell_setting 'monoclinic'
loop_
_space_group_symop_operation_xyz
x,y,z
-x,1/2+y,-z
-x,-y,-z
x,1/2-y,z
loop_
_atom_site_type_symbol
_atom_site_label
_atom_site_fract_x
_atom_site_fract_y
_atom_site_fract_z
Si Si1 0.689583 0.082596 0.595751
Si Si2 0.011752 0.584281 0.602871
Si Si3 0.963538 0.579318 0.862566
Si Si4 0.448495 0.082640 0.138974
Si Si5 0.200390 0.419041 0.819191
Si Si6 0.544090 0.084156 0.311858
O O1 0.652541 0.250000 0.630924
O O2 0.669621 0.001804 0.725005
O O3 0.915402 0.988761 0.173482
O O4 0.589650 0.001204 0.582396
O O5 0.979059 0.750000 0.602764
O O6 0.162986 0.575158 0.536509
O O7 0.000000 0.500000 0.500000
O O8 0.067410 0.466151 0.240179
O O9 0.998115 0.750000 0.836898
O O10 0.848661 0.565332 0.023757
O O11 0.418093 0.250000 0.135417
O O12 0.549015 0.081351 0.175202
O O13 0.500000 0.000000 0.000000
O O14 0.214809 0.250000 0.785473
O O15 0.333238 0.503821 0.721577
O O16 0.536337 0.250000 0.351166
#
# Coordination Sequence:
#
# PCOD9160119 Si02
#       6
#     4   4   4   4   4   4
#     4   9  18  34  53  76 108 141 183 229 272 329
#     4  10  22  39  59  82 112 152 190 231 280 337
#     4   9  20  38  57  81 114 149 185 231 283 332
#     4   9  18  30  48  74 104 141 180 223 276 324
#     4  10  19  34  59  87 112 143 186 235 283 334
#     4   9  19  33  52  77 108 144 178 224 281 332
#
# _framework density 20.307814
#
# number of rings (size 3 to 8) (size 9 to 14) (size 15 to 20)
#    1.000    1.667    0.000    1.500    0.000    4.000 
#    0.000    4.167    0.000    0.000    0.000    0.000 
#    0.000    0.000    0.000    0.000    0.000    0.000 
#
# Total GULP energy -133776.772329 kJ/mol
# GULP energy per Si atom -5574.032180 kJ/mol
# Density = 2.026159 g / cm^3
# Si number density = 20.307814 Si / 1000 Ang^3
#
#
#
# Elastic Constant Matrix: (Units=GPa)
#
#
# Indices 1 2 3 4 5 6 
#
# 1 43.4746 29.8373 -1.6201 0.0000 -0.2776 0.0000
# 2 29.8373 116.9071 32.0150 0.0000 5.2517 0.0000
# 3 -1.6201 32.0150 87.8610 0.0000 26.6125 0.0000
# 4 0.0000 0.0000 0.0000 17.2039 0.0000 0.6083
# 5 -0.2776 5.2517 26.6125 0.0000 13.9106 0.0000
# 6 0.0000 0.0000 0.0000 0.6083 0.0000 31.4228
#
#
#
# Elastic Compliance Matrix: (Units=1/GPa)
#
#
# Indices 1 2 3 4 5 6 
#
# 1 0.029196 -0.008768 0.006073 0.000000 -0.007726 0.000000
# 2 -0.008768 0.012450 -0.007661 0.000000 0.009780 0.000000
# 3 0.006073 -0.007661 0.031798 0.000000 -0.057820 0.000000
# 4 0.000000 0.000000 0.000000 0.058166 0.000000 -0.001126
# 5 -0.007726 0.009780 -0.057820 0.000000 0.178656 0.000000
# 6 0.000000 0.000000 0.000000 -0.001126 0.000000 0.031846
#
#
# Mechanical properties :
#
#
# Convention : Reuss Voigt Hill
#
# Bulk Modulus (GPa) = 18.96287 40.96744 29.96515
# Shear Modulus (GPa) = 13.14403 25.04148 19.09275
#
# Velocity S-wave (km/s) = 2.54685 3.51536 3.06954
# Velocity P-wave (km/s) = 4.24342 6.05756 5.22975
#
# Compressibility (1/GPa) = 0.05273464
#
# Stress axis : x y z
#
# Youngs Moduli (GPa) = 34.25092 80.32128 31.44830
#
# Poissons Ratio (x) = 0.70423 -0.19099
# Poissons Ratio (y) = 0.30030 0.24091
# Poissons Ratio (z) = -0.20802 0.61531
#
# Static dielectric constant tensor:
#      x y z
#    x 1.723920 0.000000 0.019000 
#    y 0.000000 1.685640 0.000000 
#    z 0.019000 0.000000 1.756550 
# 
# From -- ./inp_files/42260.got.cif
#   From: 2010.05.17/outbox.cif.g08.bks.cpg/sg11_22_cif.got.tgz:42260.got - 2010.06.03 12:22:45.
