data_PCOD9160964
_publ_section_title
;
Structure prediction by ZEFSAII (Michael W. Deem and Ramdas Pophale) SiO2 
 PCOD9160964
Probable space group: P 21/M
;
_chemical_formula_sum "Si O2"
_cell_formula_units_Z 24
_cell_length_a 12.650340
_cell_length_b 7.487295
_cell_length_c 14.764061
_cell_angle_alpha 90.000000
_cell_angle_beta 108.487263
_cell_angle_gamma 90.000000
_cell_volume 1326.239165
_symmetry_space_group_name_H-M "P 21/M"
_symmetry_group_IT_number 11
_symmetry_cell_setting 'monoclinic'
loop_
_space_group_symop_operation_xyz
x,y,z
-x,1/2+y,-z
-x,-y,-z
x,1/2-y,z
loop_
_atom_site_type_symbol
_atom_site_label
_atom_site_fract_x
_atom_site_fract_y
_atom_site_fract_z
Si Si1 0.933893 0.966174 0.347502
Si Si2 0.248424 0.037168 0.836035
Si Si3 0.536134 0.465600 0.230314
Si Si4 0.164655 0.538086 0.481556
Si Si5 0.587095 0.035749 0.444685
Si Si6 0.608083 0.536228 0.966900
O O1 0.937131 0.750000 0.344083
O O2 0.862421 0.032692 0.242901
O O3 0.060252 0.032900 0.395117
O O4 0.868806 0.012292 0.422436
O O5 0.234471 0.250000 0.842412
O O6 0.350948 0.009707 0.793949
O O7 0.289269 0.966145 0.944824
O O8 0.529095 0.250000 0.230405
O O9 0.546182 0.531531 0.335516
O O10 0.430871 0.531063 0.142003
O O11 0.168343 0.750000 0.465300
O O12 0.288588 0.465974 0.500413
O O13 0.597110 0.250000 0.438314
O O14 0.500000 0.000000 0.500000
O O15 0.622038 0.750000 0.963462
O O16 0.500000 0.500000 0.000000
#
# Coordination Sequence:
#
# PCOD9160964 Si02
#       6
#     4   4   4   4   4   4
#     4   9  16  25  41  62  84 107 130 160 198 242
#     4   9  15  23  38  62  85 105 128 157 195 239
#     4   9  16  27  40  55  79 109 135 162 197 237
#     4   9  17  29  41  57  81 108 136 164 199 240
#     4  10  20  31  43  58  78 107 142 174 202 234
#     4   8  14  23  36  55  80 105 129 156 191 237
#
# _framework density 18.096285000000002
#
# number of rings (size 3 to 8) (size 9 to 14) (size 15 to 20)
#    0.000    3.000    1.667    0.000    0.000    1.333 
#    0.000    0.000    0.000    0.000    0.000    1.167 
#    0.000    0.000    0.000    0.000    0.000    0.000 
#
# Total GULP energy -133619.145506 kJ/mol
# GULP energy per Si atom -5567.464396 kJ/mol
# Density = 1.805510 g / cm^3
# Si number density = 18.096285 Si / 1000 Ang^3
#
#
#
# Elastic Constant Matrix: (Units=GPa)
#
#
# Indices 1 2 3 4 5 6 
#
# 1 101.8081 1.3748 82.9762 0.0000 26.6781 0.0000
# 2 1.3748 47.1008 0.9016 0.0000 4.1444 0.0000
# 3 82.9762 0.9016 159.4426 0.0000 51.6737 0.0000
# 4 0.0000 0.0000 0.0000 5.4322 0.0000 -4.3913
# 5 26.6781 4.1444 51.6737 0.0000 33.5002 0.0000
# 6 0.0000 0.0000 0.0000 -4.3913 0.0000 10.7497
#
#
#
# Elastic Compliance Matrix: (Units=1/GPa)
#
#
# Indices 1 2 3 4 5 6 
#
# 1 0.017064 -0.000353 -0.008975 0.000000 0.000299 0.000000
# 2 -0.000353 0.021648 0.001676 0.000000 -0.004982 0.000000
# 3 -0.008975 0.001676 0.017365 0.000000 -0.019845 0.000000
# 4 0.000000 0.000000 0.000000 0.274848 0.000000 0.112275
# 5 0.000299 -0.004982 -0.019845 0.000000 0.060839 0.000000
# 6 0.000000 0.000000 0.000000 0.112275 0.000000 0.138890
#
#
# Mechanical properties :
#
#
# Convention : Reuss Voigt Hill
#
# Bulk Modulus (GPa) = 24.52646 53.20629 38.86638
# Shear Modulus (GPa) = 8.93579 24.80969 16.87274
#
# Velocity S-wave (km/s) = 2.22455 3.70669 3.05681
# Velocity P-wave (km/s) = 4.49232 6.91267 5.82949
#
# Compressibility (1/GPa) = 0.04077230
#
# Stress axis : x y z
#
# Youngs Moduli (GPa) = 58.60364 46.19439 57.58864
#
# Poissons Ratio (x) = 0.01629 0.51686
# Poissons Ratio (y) = 0.02066 -0.09650
# Poissons Ratio (z) = 0.52597 -0.07741
#
# Static dielectric constant tensor:
#      x y z
#    x 1.588920 0.000000 0.066720 
#    y 0.000000 1.658100 0.000000 
#    z 0.066720 0.000000 1.683120 
# 
# From -- ./inp_files/24362.got.cif
#   From: 2010.05.17/outbox.cif.g08.bks.cpg/sg11_13_cif.got.tgz:24362.got - 2010.06.03 12:22:45.
