data_PCOD9160147
_publ_section_title
;
Structure prediction by ZEFSAII (Michael W. Deem and Ramdas Pophale) SiO2 
 PCOD9160147
Probable space group: P 21/M
;
_chemical_formula_sum "Si O2"
_cell_formula_units_Z 20
_cell_length_a 5.299632
_cell_length_b 10.002654
_cell_length_c 21.194261
_cell_angle_alpha 90.000000
_cell_angle_beta 116.815026
_cell_angle_gamma 90.000000
_cell_volume 1002.701511
_symmetry_space_group_name_H-M "P 21/M"
_symmetry_group_IT_number 11
_symmetry_cell_setting 'monoclinic'
loop_
_space_group_symop_operation_xyz
x,y,z
-x,1/2+y,-z
-x,-y,-z
x,1/2-y,z
loop_
_atom_site_type_symbol
_atom_site_label
_atom_site_fract_x
_atom_site_fract_y
_atom_site_fract_z
Si Si1 0.954791 0.099224 0.053603
Si Si2 0.759665 0.607584 0.119767
Si Si3 0.393869 0.907546 0.431491
Si Si4 0.729444 0.908432 0.339501
Si Si5 0.372604 0.522600 0.186981
O O1 0.888662 0.250000 0.027763
O O2 0.232341 0.095882 0.130104
O O3 0.728821 0.022317 0.072372
O O4 0.000000 0.000000 0.000000
O O5 0.726231 0.750000 0.082245
O O6 0.553623 0.600723 0.155343
O O7 0.088398 0.597915 0.177514
O O8 0.417960 0.750000 0.450841
O O9 0.581459 0.930120 0.390212
O O10 0.063421 0.934209 0.380379
O O11 0.500000 0.000000 0.500000
O O12 0.690630 0.750000 0.318753
O O13 0.573665 0.996363 0.268992
#
# Coordination Sequence:
#
# PCOD9160147 Si02
#       5
#     4   4   4   4   4
#     4  10  24  42  63  89 123 163 206 251 305 362
#     4  10  20  36  62  88 117 153 198 249 303 357
#     4  10  21  37  59  88 119 155 197 239 290 349
#     4  10  19  34  60  88 116 155 200 243 287 351
#     4  10  22  37  62  91 121 151 206 252 303 350
#
# _framework density 19.946116
#
# number of rings (size 3 to 8) (size 9 to 14) (size 15 to 20)
#    1.200    0.800    0.000    4.200    0.000    3.200 
#    0.000    2.000    0.000    0.000    0.000    0.000 
#    0.000    0.000    0.000    0.000    0.000    0.000 
#
# Total GULP energy -111427.131234 kJ/mol
# GULP energy per Si atom -5571.356562 kJ/mol
# Density = 1.990072 g / cm^3
# Si number density = 19.946116 Si / 1000 Ang^3
#
#
#
# Elastic Constant Matrix: (Units=GPa)
#
#
# Indices 1 2 3 4 5 6 
#
# 1 93.3639 6.0966 5.5055 0.0000 10.7802 0.0000
# 2 6.0966 102.7179 36.4337 0.0000 -1.4670 0.0000
# 3 5.5055 36.4337 99.6076 0.0000 11.6851 0.0000
# 4 0.0000 0.0000 0.0000 15.0367 0.0000 -11.2366
# 5 10.7802 -1.4670 11.6851 0.0000 29.8689 0.0000
# 6 0.0000 0.0000 0.0000 -11.2366 0.0000 -3.1792
#
#
#
# Elastic Compliance Matrix: (Units=1/GPa)
#
#
# Indices 1 2 3 4 5 6 
#
# 1 0.011232 -0.000780 0.000151 0.000000 -0.004151 0.000000
# 2 -0.000780 0.011387 -0.004424 0.000000 0.002571 0.000000
# 3 0.000151 -0.004424 0.012243 0.000000 -0.005061 0.000000
# 4 0.000000 0.000000 0.000000 0.018264 0.000000 -0.064553
# 5 -0.004151 0.002571 -0.005061 0.000000 0.037084 0.000000
# 6 0.000000 0.000000 0.000000 -0.064553 0.000000 -0.086384
#
#
# Mechanical properties :
#
#
# Convention : Reuss Voigt Hill
#
# Bulk Modulus (GPa) = 40.39037 43.52899 41.95968
# Shear Modulus (GPa) = 225.39088 24.85551 125.12319
#
# Velocity S-wave (km/s) = 10.64167 3.53389 7.92886
# Velocity P-wave (km/s) = 13.08768 6.20660 10.24229
#
# Compressibility (1/GPa) = 0.02475837
#
# Stress axis : x y z
#
# Youngs Moduli (GPa) = 89.03058 87.81564 81.68004
#
# Poissons Ratio (x) = 0.06846 -0.01236
# Poissons Ratio (y) = 0.06941 0.36133
# Poissons Ratio (z) = -0.01348 0.38848
#
# Static dielectric constant tensor:
#      x y z
#    x 1.714110 0.000000 0.028770 
#    y 0.000000 1.714750 0.000000 
#    z 0.028770 0.000000 1.713450 
# 
# From -- ./inp_files/8550.got.cif
#   From: 2010.05.17/outbox.cif.g08.bks.cpg/sg11_5_cif.got.tgz:8550.got - 2010.06.03 12:22:45.
