data_PCOD9160994
_publ_section_title
;
Structure prediction by ZEFSAII (Michael W. Deem and Ramdas Pophale) SiO2 
 PCOD9160994
Probable space group: P 21/M
;
_chemical_formula_sum "Si O2"
_cell_formula_units_Z 32
_cell_length_a 14.499550
_cell_length_b 10.520140
_cell_length_c 26.626422
_cell_angle_alpha 90.000000
_cell_angle_beta 26.162466
_cell_angle_gamma 90.000000
_cell_volume 1790.798223
_symmetry_space_group_name_H-M "P 21/M"
_symmetry_group_IT_number 11
_symmetry_cell_setting 'monoclinic'
loop_
_space_group_symop_operation_xyz
x,y,z
-x,1/2+y,-z
-x,-y,-z
x,1/2-y,z
loop_
_atom_site_type_symbol
_atom_site_label
_atom_site_fract_x
_atom_site_fract_y
_atom_site_fract_z
Si Si1 0.417920 0.108357 0.502800
Si Si2 0.088125 0.400350 0.144602
Si Si3 0.294483 0.600373 0.735770
Si Si4 0.986669 0.985504 0.708847
Si Si5 0.701653 0.396059 0.710643
Si Si6 0.032602 0.891185 0.576259
Si Si7 0.489484 0.896099 0.304067
Si Si8 0.455652 0.898661 0.101602
O O1 0.465542 0.250000 0.498895
O O2 0.532864 0.094716 0.393190
O O3 0.500000 0.000000 0.500000
O O4 0.169372 0.090426 0.617971
O O5 0.105787 0.250000 0.127509
O O6 0.000817 0.420570 0.243106
O O7 0.920697 0.444405 0.185381
O O8 0.322185 0.453887 0.024397
O O9 0.279089 0.750000 0.758209
O O10 0.362141 0.504104 0.746049
O O11 0.026154 0.902492 0.639833
O O12 0.751518 0.037000 0.818698
O O13 0.783320 0.250000 0.669004
O O14 0.566591 0.415968 0.726854
O O15 0.565524 0.407425 0.827760
O O16 0.887258 0.497878 0.625044
O O17 0.958225 0.750000 0.597705
O O18 0.267811 0.905323 0.441538
O O19 0.565713 0.750000 0.273374
O O20 0.446660 0.750000 0.092002
#
# Coordination Sequence:
#
# PCOD9160994 Si02
#       8
#     4   4   4   4   4   4   4   4
#     4  11  22  35  53  79 112 146 180 217 263 319
#     4  10  20  35  53  74 105 142 182 218 261 313
#     4  10  21  36  53  78 107 143 179 217 262 317
#     4  11  19  33  53  79 109 141 177 216 264 314
#     4   9  19  35  55  76 105 140 179 222 269 317
#     4  10  20  31  50  80 111 140 173 214 269 322
#     4  10  20  35  53  78 107 141 177 219 271 321
#     4   9  19  35  54  76 101 138 182 224 261 311
#
# _framework density 17.869126999999999
#
# number of rings (size 3 to 8) (size 9 to 14) (size 15 to 20)
#    0.000    2.000    2.500    1.500    0.000    2.500 
#    0.000    0.625    0.000    4.500    0.000    0.000 
#    0.000    0.000    0.000    0.000    0.000    0.000 
#
# Total GULP energy -178428.180472 kJ/mol
# GULP energy per Si atom -5575.880640 kJ/mol
# Density = 1.782846 g / cm^3
# Si number density = 17.869127 Si / 1000 Ang^3
#
#
#
# Elastic Constant Matrix: (Units=GPa)
#
#
# Indices 1 2 3 4 5 6 
#
# 1 95.0296 52.2507 12.4855 0.0000 -9.5986 0.0000
# 2 52.2507 83.0164 8.5013 0.0000 -9.4091 0.0000
# 3 12.4855 8.5013 57.0796 0.0000 -17.3597 0.0000
# 4 0.0000 0.0000 0.0000 17.6333 0.0000 -4.9282
# 5 -9.5986 -9.4091 -17.3597 0.0000 16.3249 0.0000
# 6 0.0000 0.0000 0.0000 -4.9282 0.0000 24.5822
#
#
#
# Elastic Compliance Matrix: (Units=1/GPa)
#
#
# Indices 1 2 3 4 5 6 
#
# 1 0.016395 -0.009898 -0.001353 0.000000 0.002497 0.000000
# 2 -0.009898 0.018873 0.001319 0.000000 0.006461 0.000000
# 3 -0.001353 0.001319 0.026025 0.000000 0.027639 0.000000
# 4 0.000000 0.000000 0.000000 0.060077 0.000000 0.012044
# 5 0.002497 0.006461 0.027639 0.000000 0.095839 0.000000
# 6 0.000000 0.000000 0.000000 0.012044 0.000000 0.043094
#
#
# Mechanical properties :
#
#
# Convention : Reuss Voigt Hill
#
# Bulk Modulus (GPa) = 24.13729 42.40007 33.26868
# Shear Modulus (GPa) = 17.00822 22.50060 19.75441
#
# Velocity S-wave (km/s) = 3.08851 3.55235 3.32852
# Velocity P-wave (km/s) = 5.12403 6.37223 5.78191
#
# Compressibility (1/GPa) = 0.04142966
#
# Stress axis : x y z
#
# Youngs Moduli (GPa) = 60.99423 52.98708 38.42485
#
# Poissons Ratio (x) = 0.52444 0.05198
# Poissons Ratio (y) = 0.60369 -0.05068
# Poissons Ratio (z) = 0.08251 -0.06989
#
# Static dielectric constant tensor:
#      x y z
#    x 1.606670 0.000000 -0.007350 
#    y 0.000000 1.615860 0.000000 
#    z -0.007350 0.000000 1.620040 
# 
# From -- ./inp_files/55683.got.cif
#   From: 2010.05.17/outbox.cif.g08.bks.cpg/sg11_28_cif.got.tgz:55683.got - 2010.06.03 12:22:45.
