data_PCOD9160711
_publ_section_title
;
Structure prediction by ZEFSAII (Michael W. Deem and Ramdas Pophale) SiO2 
 PCOD9160711
Probable space group: P 21/M
;
_chemical_formula_sum "Si O2"
_cell_formula_units_Z 26
_cell_length_a 9.618039
_cell_length_b 19.052174
_cell_length_c 13.066192
_cell_angle_alpha 90.000000
_cell_angle_beta 33.015706
_cell_angle_gamma 90.000000
_cell_volume 1304.584271
_symmetry_space_group_name_H-M "P 21/M"
_symmetry_group_IT_number 11
_symmetry_cell_setting 'monoclinic'
loop_
_space_group_symop_operation_xyz
x,y,z
-x,1/2+y,-z
-x,-y,-z
x,1/2-y,z
loop_
_atom_site_type_symbol
_atom_site_label
_atom_site_fract_x
_atom_site_fract_y
_atom_site_fract_z
Si Si1 0.126575 0.750000 0.835544
Si Si2 0.134346 0.387775 0.684118
Si Si3 0.439756 0.750000 0.427548
Si Si4 0.591607 0.095266 0.558551
Si Si5 0.015928 0.904650 0.869498
Si Si6 0.493409 0.556379 0.704746
Si Si7 0.667179 0.484762 0.994673
Si Si8 0.970314 0.250000 0.882809
O O1 0.331693 0.750000 0.613690
O O2 0.975160 0.822531 0.915107
O O3 0.208801 0.750000 0.905420
O O4 0.320616 0.402960 0.665527
O O5 0.326845 0.390186 0.469023
O O6 0.975897 0.318261 0.808338
O O7 0.926536 0.447577 0.801157
O O8 0.368565 0.674448 0.422660
O O9 0.743519 0.750000 0.247538
O O10 0.807263 0.089115 0.339333
O O11 0.590945 0.022297 0.619018
O O12 0.202419 0.933395 0.843677
O O13 0.763209 0.947825 0.000820
O O14 0.484181 0.563626 0.831528
O O15 0.500000 0.500000 0.000000
#
# Coordination Sequence:
#
# PCOD9160711 Si02
#       8
#     2   4   2   4   4   4   4   2
#     4  10  20  32  55  86 116 147 171 241 291 330
#     4  10  20  38  55  87 116 142 188 234 286 340
#     4   8  18  28  48  85 123 133 177 227 293 341
#     4   9  16  33  57  86 111 144 178 240 281 333
#     4  10  19  37  58  86 117 140 193 230 288 341
#     4  11  20  35  64  82 112 150 182 244 290 325
#     4  12  25  37  55  86 116 155 198 232 275 341
#     4  10  20  32  59  87 115 142 184 238 284 343
#
# _framework density 19.92972
#
# number of rings (size 3 to 8) (size 9 to 14) (size 15 to 20)
#    0.000    1.846    3.077    3.231    4.308    0.615 
#    0.000    0.769    0.000    0.000    0.000    0.000 
#    0.000    0.000    0.000    0.000    0.000    0.000 
#
# Total GULP energy -144897.350970 kJ/mol
# GULP energy per Si atom -5572.975037 kJ/mol
# Density = 1.988436 g / cm^3
# Si number density = 19.929720 Si / 1000 Ang^3
#
#
#
# Elastic Constant Matrix: (Units=GPa)
#
#
# Indices 1 2 3 4 5 6 
#
# 1 44.4567 27.9817 27.6829 0.0000 13.3952 0.0000
# 2 27.9817 104.9196 18.7247 0.0000 -6.4825 0.0000
# 3 27.6829 18.7247 81.4816 0.0000 10.7347 0.0000
# 4 0.0000 0.0000 0.0000 14.0441 0.0000 2.0538
# 5 13.3952 -6.4825 10.7347 0.0000 13.2925 0.0000
# 6 0.0000 0.0000 0.0000 2.0538 0.0000 2.8755
#
#
#
# Elastic Compliance Matrix: (Units=1/GPa)
#
#
# Indices 1 2 3 4 5 6 
#
# 1 0.055204 -0.017033 -0.007182 0.000000 -0.058137 0.000000
# 2 -0.017033 0.015908 -0.001289 0.000000 0.025964 0.000000
# 3 -0.007182 -0.001289 0.015822 0.000000 -0.006169 0.000000
# 4 0.000000 0.000000 0.000000 0.079509 0.000000 -0.056788
# 5 -0.058137 0.025964 -0.006169 0.000000 0.151461 0.000000
# 6 0.000000 0.000000 0.000000 -0.056788 0.000000 0.388327
#
#
# Mechanical properties :
#
#
# Convention : Reuss Voigt Hill
#
# Bulk Modulus (GPa) = 27.83559 42.18182 35.00871
# Shear Modulus (GPa) = 6.50015 16.47367 11.48691
#
# Velocity S-wave (km/s) = 1.80793 2.87816 2.40338
# Velocity P-wave (km/s) = 4.28431 5.67947 5.03049
#
# Compressibility (1/GPa) = 0.03592523
#
# Stress axis : x y z
#
# Youngs Moduli (GPa) = 18.11469 62.86133 63.20444
#
# Poissons Ratio (x) = 1.07071 0.45392
# Poissons Ratio (y) = 0.30855 0.08150
# Poissons Ratio (z) = 0.13010 0.08106
#
# Static dielectric constant tensor:
#      x y z
#    x 1.664670 0.000000 0.024770 
#    y 0.000000 1.819590 0.000000 
#    z 0.024770 0.000000 1.764330 
# 
# From -- ./inp_files/19497.got.cif
#   From: 2010.05.17/outbox.cif.g08.bks.cpg/sg11_10_cif.got.tgz:19497.got - 2010.06.03 12:22:45.
