data_PCOD9160319
_publ_section_title
;
Structure prediction by ZEFSAII (Michael W. Deem and Ramdas Pophale) SiO2 
 PCOD9160319
Probable space group: P 21/M
;
_chemical_formula_sum "Si O2"
_cell_formula_units_Z 24
_cell_length_a 15.044065
_cell_length_b 12.295533
_cell_length_c 21.211935
_cell_angle_alpha 90.000000
_cell_angle_beta 162.182626
_cell_angle_gamma 90.000000
_cell_volume 1200.581310
_symmetry_space_group_name_H-M "P 21/M"
_symmetry_group_IT_number 11
_symmetry_cell_setting 'monoclinic'
loop_
_space_group_symop_operation_xyz
x,y,z
-x,1/2+y,-z
-x,-y,-z
x,1/2-y,z
loop_
_atom_site_type_symbol
_atom_site_label
_atom_site_fract_x
_atom_site_fract_y
_atom_site_fract_z
Si Si1 0.662820 0.867015 0.257323
Si Si2 0.085782 0.955303 0.907095
Si Si3 0.164521 0.380879 0.392621
Si Si4 0.709258 0.964701 0.768278
Si Si5 0.029987 0.535133 0.607349
Si Si6 0.513958 0.872149 0.759256
O O1 0.668592 0.750000 0.229117
O O2 0.691316 0.967908 0.228251
O O3 0.926522 0.879543 0.484765
O O4 0.367907 0.877514 0.098649
O O5 0.972553 0.941491 0.760046
O O6 0.820820 0.928589 0.775211
O O7 0.227960 0.068743 0.027170
O O8 0.172406 0.250000 0.389779
O O9 0.484017 0.434880 0.614766
O O10 0.984674 0.411841 0.334142
O O11 0.581298 0.876532 0.729860
O O12 0.000000 0.000000 0.000000
O O13 0.773835 0.444796 0.430221
O O14 0.472758 0.750000 0.753028
#
# Coordination Sequence:
#
# PCOD9160319 Si02
#       6
#     4   4   4   4   4   4
#     4  10  19  35  58  80 110 149 188 233 278 322
#     4  10  21  36  54  85 117 144 185 227 272 340
#     4  11  22  38  59  82 115 151 180 225 286 335
#     4   9  20  37  56  81 108 138 188 235 267 327
#     4   9  20  35  55  84 110 142 195 236 266 326
#     4   9  18  35  57  78 109 149 187 233 279 316
#
# _framework density 19.990314999999999
#
# number of rings (size 3 to 8) (size 9 to 14) (size 15 to 20)
#    0.000    2.333    0.000    3.000    0.000    4.667 
#    0.000    7.500    0.000    0.000    0.000    0.000 
#    0.000    0.000    0.000    0.000    0.000    0.000 
#
# Total GULP energy -133679.253361 kJ/mol
# GULP energy per Si atom -5569.968890 kJ/mol
# Density = 1.994482 g / cm^3
# Si number density = 19.990315 Si / 1000 Ang^3
#
#
#
# Elastic Constant Matrix: (Units=GPa)
#
#
# Indices 1 2 3 4 5 6 
#
# 1 130.5667 18.2856 14.9108 0.0000 -1.5770 0.0000
# 2 18.2856 106.1623 26.9120 0.0000 -0.5531 0.0000
# 3 14.9108 26.9120 28.7514 0.0000 -4.1431 0.0000
# 4 0.0000 0.0000 0.0000 7.7237 0.0000 -3.1560
# 5 -1.5770 -0.5531 -4.1431 0.0000 34.9413 0.0000
# 6 0.0000 0.0000 0.0000 -3.1560 0.0000 13.0405
#
#
#
# Elastic Compliance Matrix: (Units=1/GPa)
#
#
# Indices 1 2 3 4 5 6 
#
# 1 0.008157 -0.000432 -0.003839 0.000000 -0.000094 0.000000
# 2 -0.000432 0.012422 -0.011576 0.000000 -0.001195 0.000000
# 3 -0.003839 -0.011576 0.048382 0.000000 0.005380 0.000000
# 4 0.000000 0.000000 0.000000 0.143680 0.000000 0.034773
# 5 -0.000094 -0.001195 0.005380 0.000000 0.029234 0.000000
# 6 0.000000 0.000000 0.000000 0.034773 0.000000 0.085100
#
#
# Mechanical properties :
#
#
# Convention : Reuss Voigt Hill
#
# Bulk Modulus (GPa) = 26.83315 42.85525 34.84420
# Shear Modulus (GPa) = 13.47375 24.83257 19.15316
#
# Velocity S-wave (km/s) = 2.59899 3.52835 3.09871
# Velocity P-wave (km/s) = 4.73905 6.17119 5.50192
#
# Compressibility (1/GPa) = 0.03726733
#
# Stress axis : x y z
#
# Youngs Moduli (GPa) = 122.59790 80.50140 20.66872
#
# Poissons Ratio (x) = 0.03479 0.07935
# Poissons Ratio (y) = 0.05299 0.23925
# Poissons Ratio (z) = 0.47067 0.93185
#
# Static dielectric constant tensor:
#      x y z
#    x 1.798340 0.000000 0.043110 
#    y 0.000000 1.689410 0.000000 
#    z 0.043110 0.000000 1.747470 
# 
# From -- ./inp_files/16938.got.cif
#   From: 2010.05.17/outbox.cif.g08.bks.cpg/sg11_9_cif.got.tgz:16938.got - 2010.06.03 12:22:45.
