data_PCOD9160937
_publ_section_title
;
Structure prediction by ZEFSAII (Michael W. Deem and Ramdas Pophale) SiO2 
 PCOD9160937
Probable space group: P 21/M
;
_chemical_formula_sum "Si O2"
_cell_formula_units_Z 28
_cell_length_a 10.464118
_cell_length_b 15.952519
_cell_length_c 8.659189
_cell_angle_alpha 90.000000
_cell_angle_beta 64.773804
_cell_angle_gamma 90.000000
_cell_volume 1307.618941
_symmetry_space_group_name_H-M "P 21/M"
_symmetry_group_IT_number 11
_symmetry_cell_setting 'monoclinic'
loop_
_space_group_symop_operation_xyz
x,y,z
-x,1/2+y,-z
-x,-y,-z
x,1/2-y,z
loop_
_atom_site_type_symbol
_atom_site_label
_atom_site_fract_x
_atom_site_fract_y
_atom_site_fract_z
Si Si1 0.439553 0.514628 0.270952
Si Si2 0.607112 0.157346 0.170934
Si Si3 0.514796 0.660101 0.453473
Si Si4 0.234059 0.899315 0.181146
Si Si5 0.993394 0.004588 0.186893
Si Si6 0.212972 0.396843 0.519939
Si Si7 0.960995 0.344516 0.433540
O O1 0.524768 0.430587 0.189088
O O2 0.514123 0.576583 0.352776
O O3 0.387850 0.574399 0.161890
O O4 0.294156 0.478315 0.414830
O O5 0.541827 0.250000 0.169735
O O6 0.612113 0.156237 0.355474
O O7 0.742066 0.151633 0.989568
O O8 0.504110 0.750000 0.375960
O O9 0.660483 0.657953 0.475844
O O10 0.151354 0.858336 0.368109
O O11 0.145913 0.980517 0.176652
O O12 0.948417 0.088566 0.301314
O O13 0.890514 0.930031 0.294618
O O14 0.000000 0.000000 0.000000
O O15 0.113139 0.357876 0.440160
O O16 0.948423 0.250000 0.383046
#
# Coordination Sequence:
#
# PCOD9160937 Si02
#       7
#     4   4   4   4   4   4   4
#     4  11  21  40  66  88 137 171 209 261 321 388
#     4  10  22  38  60  96 127 167 215 258 317 378
#     4  10  23  39  64  97 131 172 215 263 321 386
#     4  11  22  41  64  93 126 172 213 259 329 380
#     4  11  24  41  68  90 125 169 215 267 330 383
#     4  10  19  42  64  92 125 173 214 254 328 382
#     4  11  22  42  69  95 124 164 217 272 319 385
#
# _framework density 21.412966999999998
#
# number of rings (size 3 to 8) (size 9 to 14) (size 15 to 20)
#    0.000    1.429    2.857    3.857    4.000    1.714 
#    0.000    4.286    0.000    0.000    0.000    0.000 
#    0.000    0.000    0.000    0.000    0.000    0.000 
#
# Total GULP energy -155990.345408 kJ/mol
# GULP energy per Si atom -5571.083765 kJ/mol
# Density = 2.136423 g / cm^3
# Si number density = 21.412967 Si / 1000 Ang^3
#
#
#
# Elastic Constant Matrix: (Units=GPa)
#
#
# Indices 1 2 3 4 5 6 
#
# 1 44.6954 36.0918 22.5692 0.0000 5.0000 0.0000
# 2 36.0918 145.5314 51.5097 0.0000 3.8752 0.0000
# 3 22.5692 51.5097 120.8328 0.0000 8.0424 0.0000
# 4 0.0000 0.0000 0.0000 16.9547 0.0000 -0.2798
# 5 5.0000 3.8752 8.0424 0.0000 17.6149 0.0000
# 6 0.0000 0.0000 0.0000 -0.2798 0.0000 11.0771
#
#
#
# Elastic Compliance Matrix: (Units=1/GPa)
#
#
# Indices 1 2 3 4 5 6 
#
# 1 0.029298 -0.006255 -0.002417 0.000000 -0.005837 0.000000
# 2 -0.006255 0.009428 -0.002920 0.000000 0.001034 0.000000
# 3 -0.002417 -0.002920 0.010193 0.000000 -0.003325 0.000000
# 4 0.000000 0.000000 0.000000 0.059005 0.000000 0.001491
# 5 -0.005837 0.001034 -0.003325 0.000000 0.059718 0.000000
# 6 0.000000 0.000000 0.000000 0.001491 0.000000 0.090314
#
#
# Mechanical properties :
#
#
# Convention : Reuss Voigt Hill
#
# Bulk Modulus (GPa) = 38.85643 59.04457 48.95050
# Shear Modulus (GPa) = 17.25802 22.52192 19.88997
#
# Velocity S-wave (km/s) = 2.84203 3.24665 3.05105
# Velocity P-wave (km/s) = 5.38099 6.45665 5.94321
#
# Compressibility (1/GPa) = 0.02573576
#
# Stress axis : x y z
#
# Youngs Moduli (GPa) = 34.13182 106.06153 98.10214
#
# Poissons Ratio (x) = 0.66340 0.23716
# Poissons Ratio (y) = 0.21349 0.28644
# Poissons Ratio (z) = 0.08251 0.30968
#
# Static dielectric constant tensor:
#      x y z
#    x 1.822000 0.000000 0.008180 
#    y 0.000000 1.792960 0.000000 
#    z 0.008180 0.000000 1.850710 
# 
# From -- ./inp_files/17906.got.cif
#   From: 2010.05.17/outbox.cif.g08.bks.cpg/sg11_9_cif.got.tgz:17906.got - 2010.06.03 12:22:45.
