data_PCOD9160389
_publ_section_title
;
Structure prediction by ZEFSAII (Michael W. Deem and Ramdas Pophale) SiO2 
 PCOD9160389
Probable space group: P 21/M
;
_chemical_formula_sum "Si O2"
_cell_formula_units_Z 28
_cell_length_a 13.325794
_cell_length_b 14.846200
_cell_length_c 9.621665
_cell_angle_alpha 90.000000
_cell_angle_beta 49.444638
_cell_angle_gamma 90.000000
_cell_volume 1446.256737
_symmetry_space_group_name_H-M "P 21/M"
_symmetry_group_IT_number 11
_symmetry_cell_setting 'monoclinic'
loop_
_space_group_symop_operation_xyz
x,y,z
-x,1/2+y,-z
-x,-y,-z
x,1/2-y,z
loop_
_atom_site_type_symbol
_atom_site_label
_atom_site_fract_x
_atom_site_fract_y
_atom_site_fract_z
Si Si1 0.137795 0.054845 0.366498
Si Si2 0.577081 0.510785 0.782981
Si Si3 0.608538 0.353005 0.204210
Si Si4 0.933111 0.846869 0.321024
Si Si5 0.213478 0.349377 0.814882
Si Si6 0.151763 0.507297 0.056891
Si Si7 0.490376 0.905806 0.425084
O O1 0.267238 0.014243 0.324139
O O2 0.107779 0.143040 0.482742
O O3 0.171882 0.055156 0.174281
O O4 0.000000 0.000000 0.500000
O O5 0.516360 0.600062 0.761911
O O6 0.556031 0.431484 0.687753
O O7 0.500000 0.500000 0.000000
O O8 0.628872 0.250000 0.137747
O O9 0.592249 0.350770 0.386732
O O10 0.726370 0.423788 0.068721
O O11 0.998952 0.750000 0.237880
O O12 0.808713 0.851515 0.330370
O O13 0.027307 0.928491 0.193353
O O14 0.167124 0.250000 0.903874
O O15 0.365765 0.362315 0.714193
O O16 0.140755 0.435957 0.943352
O O17 0.500000 0.000000 0.500000
#
# Coordination Sequence:
#
# PCOD9160389 Si02
#       7
#     4   4   4   4   4   4   4
#     4  10  22  38  62  87 117 163 206 249 310 368
#     4  11  20  39  64  88 127 162 207 257 316 364
#     4  11  22  37  62  90 123 165 210 253 311 376
#     4  10  22  38  62  89 121 162 211 252 308 376
#     4  11  21  37  60  91 120 158 210 258 304 368
#     4  11  21  40  59  89 126 165 198 261 316 367
#     4  10  19  35  59  84 120 158 199 253 312 361
#
# _framework density 19.360323999999999
#
# number of rings (size 3 to 8) (size 9 to 14) (size 15 to 20)
#    0.000    1.429    4.286    3.000    0.000    2.286 
#    0.000    2.857    0.000    0.000    0.000    0.000 
#    0.000    0.000    0.000    0.000    0.000    0.000 
#
# Total GULP energy -155878.772003 kJ/mol
# GULP energy per Si atom -5567.099000 kJ/mol
# Density = 1.931626 g / cm^3
# Si number density = 19.360324 Si / 1000 Ang^3
#
#
#
# Elastic Constant Matrix: (Units=GPa)
#
#
# Indices 1 2 3 4 5 6 
#
# 1 99.9170 24.8151 29.7081 0.0000 4.3565 0.0000
# 2 24.8151 117.4502 32.1978 0.0000 7.6010 0.0000
# 3 29.7081 32.1978 92.3608 0.0000 13.6766 0.0000
# 4 0.0000 0.0000 0.0000 6.4779 0.0000 4.1785
# 5 4.3565 7.6010 13.6766 0.0000 36.6168 0.0000
# 6 0.0000 0.0000 0.0000 4.1785 0.0000 18.2653
#
#
#
# Elastic Compliance Matrix: (Units=1/GPa)
#
#
# Indices 1 2 3 4 5 6 
#
# 1 0.011314 -0.001544 -0.003122 0.000000 0.000140 0.000000
# 2 -0.001544 0.009645 -0.002749 0.000000 -0.000792 0.000000
# 3 -0.003122 -0.002749 0.013391 0.000000 -0.004059 0.000000
# 4 0.000000 0.000000 0.000000 0.181095 0.000000 -0.041428
# 5 0.000140 -0.000792 -0.004059 0.000000 0.028974 0.000000
# 6 0.000000 0.000000 0.000000 -0.041428 0.000000 0.064226
#
#
# Mechanical properties :
#
#
# Convention : Reuss Voigt Hill
#
# Bulk Modulus (GPa) = 51.22586 53.68555 52.45571
# Shear Modulus (GPa) = 15.15248 27.13913 21.14580
#
# Velocity S-wave (km/s) = 2.80063 3.74811 3.30847
# Velocity P-wave (km/s) = 6.08068 6.82063 6.46126
#
# Compressibility (1/GPa) = 0.01952139
#
# Stress axis : x y z
#
# Youngs Moduli (GPa) = 88.38804 103.67906 74.67965
#
# Poissons Ratio (x) = 0.16005 0.23313
# Poissons Ratio (y) = 0.13644 0.20526
# Poissons Ratio (z) = 0.27592 0.28497
#
# Static dielectric constant tensor:
#      x y z
#    x 1.685200 0.000000 -0.001230 
#    y 0.000000 1.692860 0.000000 
#    z -0.001230 0.000000 1.724370 
# 
# From -- ./inp_files/17921.got.cif
#   From: 2010.05.17/outbox.cif.g08.bks.cpg/sg11_9_cif.got.tgz:17921.got - 2010.06.03 12:22:45.
