data_PCOD9160025
_publ_section_title
;
Structure prediction by ZEFSAII (Michael W. Deem and Ramdas Pophale) SiO2 
 PCOD9160025
Probable space group: P 21/M
;
_chemical_formula_sum "Si O2"
_cell_formula_units_Z 28
_cell_length_a 29.674214
_cell_length_b 8.684087
_cell_length_c 9.203016
_cell_angle_alpha 90.000000
_cell_angle_beta 39.164263
_cell_angle_gamma 90.000000
_cell_volume 1497.746921
_symmetry_space_group_name_H-M "P 21/M"
_symmetry_group_IT_number 11
_symmetry_cell_setting 'monoclinic'
loop_
_space_group_symop_operation_xyz
x,y,z
-x,1/2+y,-z
-x,-y,-z
x,1/2-y,z
loop_
_atom_site_type_symbol
_atom_site_label
_atom_site_fract_x
_atom_site_fract_y
_atom_site_fract_z
Si Si1 0.209879 0.434632 0.063646
Si Si2 0.790120 0.065368 0.613039
Si Si3 0.932787 0.565176 0.755701
Si Si4 0.656311 0.435448 0.444854
Si Si5 0.067213 0.565176 0.919638
Si Si6 0.656310 0.564552 0.773589
Si Si7 0.500000 0.564894 0.163228
O O1 0.213590 0.250000 0.059756
O O2 0.203453 0.500006 0.241368
O O3 0.140209 0.478326 0.144234
O O4 0.280318 0.499000 0.810103
O O5 0.786407 0.250000 0.627698
O O6 0.859790 0.021673 0.345281
O O7 0.719682 0.000992 0.711693
O O8 0.937197 0.750000 0.749369
O O9 0.000000 0.500000 0.500000
O O10 0.932464 0.499999 0.918839
O O11 0.660683 0.250000 0.439178
O O12 0.662364 0.499996 0.594091
O O13 0.577380 0.480719 0.581813
O O14 0.062803 0.750000 0.935350
O O15 0.000000 0.500000 0.000000
O O16 0.660680 0.750000 0.757402
O O17 0.577379 0.519282 0.031289
O O18 0.499999 0.750000 0.157123
O O19 0.500000 0.500000 0.000000
#
# Coordination Sequence:
#
# PCOD9160025 Si02
#       7
#     4   4   4   4   4   4   4
#     4  11  24  40  58  83 114 150 190 234 282 334
#     4  11  24  40  58  83 114 150 190 234 282 334
#     4  11  24  41  63  89 118 150 187 230 278 332
#     4  10  19  34  57  84 114 148 188 234 282 336
#     4  11  24  41  63  89 118 150 187 230 278 332
#     4  10  19  34  57  84 114 148 188 234 282 336
#     4   8  16  30  51  80 111 144 184 230 280 332
#
# _framework density 18.694745000000001
#
# number of rings (size 3 to 8) (size 9 to 14) (size 15 to 20)
#    0.000    1.714    0.000    4.286    0.000   10.286 
#    0.000    0.714    0.000    0.000    0.000    0.000 
#    0.000    0.000    0.000    0.000    0.000    0.000 
#
# Total GULP energy -156381.348466 kJ/mol
# GULP energy per Si atom -5585.048160 kJ/mol
# Density = 1.865220 g / cm^3
# Si number density = 18.694745 Si / 1000 Ang^3
#
#
#
# Elastic Constant Matrix: (Units=GPa)
#
#
# Indices 1 2 3 4 5 6 
#
# 1 175.7002 55.1338 118.9247 0.0000 -18.6741 0.0000
# 2 55.1338 52.0570 60.9301 0.0000 -10.2251 0.0000
# 3 118.9247 60.9301 198.5682 0.0000 -21.6548 0.0000
# 4 0.0000 0.0000 0.0000 32.1340 0.0000 2.3795
# 5 -18.6741 -10.2251 -21.6548 0.0000 38.9389 0.0000
# 6 0.0000 0.0000 0.0000 2.3795 0.0000 33.4838
#
#
#
# Elastic Compliance Matrix: (Units=1/GPa)
#
#
# Indices 1 2 3 4 5 6 
#
# 1 0.010675 -0.005848 -0.004480 0.000000 0.001092 0.000000
# 2 -0.005848 0.033497 -0.006518 0.000000 0.002367 0.000000
# 3 -0.004480 -0.006518 0.009898 0.000000 0.001645 0.000000
# 4 0.000000 0.000000 0.000000 0.031284 0.000000 -0.002223
# 5 0.001092 0.002367 0.001645 0.000000 0.027741 0.000000
# 6 0.000000 0.000000 0.000000 -0.002223 0.000000 0.030023
#
#
# Mechanical properties :
#
#
# Convention : Reuss Voigt Hill
#
# Bulk Modulus (GPa) = 49.06986 99.58917 74.32951
# Shear Modulus (GPa) = 27.23261 33.66713 30.44987
#
# Velocity S-wave (km/s) = 3.82081 4.24829 4.04021
# Velocity P-wave (km/s) = 6.76533 8.80061 7.84922
#
# Compressibility (1/GPa) = 0.02037911
#
# Stress axis : x y z
#
# Youngs Moduli (GPa) = 93.67853 29.85335 101.02621
#
# Poissons Ratio (x) = 0.17458 0.45257
# Poissons Ratio (y) = 0.54782 0.65849
# Poissons Ratio (z) = 0.41965 0.19459
#
# Static dielectric constant tensor:
#      x y z
#    x 1.621140 0.000000 -0.034240 
#    y 0.000000 1.629940 0.000000 
#    z -0.034240 0.000000 1.640560 
# 
# From -- ./inp_files/28334.got.cif
#   From: 2010.05.17/outbox.cif.g08.bks.cpg/sg11_15_cif.got.tgz:28334.got - 2010.06.03 12:22:45.
