data_PCOD9160118
_publ_section_title
;
Structure prediction by ZEFSAII (Michael W. Deem and Ramdas Pophale) SiO2 
 PCOD9160118
Probable space group: P 21/M
;
_chemical_formula_sum "Si O2"
_cell_formula_units_Z 32
_cell_length_a 13.332405
_cell_length_b 15.346921
_cell_length_c 8.856922
_cell_angle_alpha 90.000000
_cell_angle_beta 119.383985
_cell_angle_gamma 90.000000
_cell_volume 1579.085717
_symmetry_space_group_name_H-M "P 21/M"
_symmetry_group_IT_number 11
_symmetry_cell_setting 'monoclinic'
loop_
_space_group_symop_operation_xyz
x,y,z
-x,1/2+y,-z
-x,-y,-z
x,1/2-y,z
loop_
_atom_site_type_symbol
_atom_site_label
_atom_site_fract_x
_atom_site_fract_y
_atom_site_fract_z
Si Si1 0.684314 0.028337 0.347613
Si Si2 0.580726 0.657217 0.343270
Si Si3 0.118100 0.076296 0.619370
Si Si4 0.408576 0.579834 0.419397
Si Si5 0.475013 0.847681 0.936595
Si Si6 0.983095 0.964148 0.744386
Si Si7 0.815580 0.488307 0.891599
Si Si8 0.266507 0.347582 0.980730
O O1 0.655096 0.089924 0.467796
O O2 0.604750 0.070782 0.161227
O O3 0.653638 0.931264 0.386429
O O4 0.807933 0.010710 0.367685
O O5 0.644091 0.750000 0.393608
O O6 0.492305 0.652726 0.416830
O O7 0.506281 0.653522 0.135545
O O8 0.061460 0.101888 0.417989
O O9 0.205226 0.138949 0.772509
O O10 0.025765 0.046313 0.675518
O O11 0.500000 0.500000 0.500000
O O12 0.304404 0.559474 0.228339
O O13 0.429684 0.750000 0.864988
O O14 0.597056 0.858987 0.941418
O O15 0.881859 0.991175 0.784159
O O16 0.092818 0.940903 0.930249
O O17 0.782628 0.579436 0.945750
O O18 0.244270 0.250000 0.018584
#
# Coordination Sequence:
#
# PCOD9160118 Si02
#       8
#     4   4   4   4   4   4   4   4
#     4  11  20  34  59  84 118 155 192 234 296 348
#     4  10  21  35  54  85 120 153 192 235 290 354
#     4  10  19  34  59  87 106 142 199 241 284 334
#     4  10  21  34  55  86 115 150 191 229 287 351
#     4  10  21  35  54  88 120 152 194 236 291 356
#     4   9  20  35  58  85 105 142 196 244 278 335
#     4  10  19  37  58  83 115 149 192 235 283 349
#     4  10  20  34  56  84 118 150 183 238 300 346
#
# _framework density 20.264890999999999
#
# number of rings (size 3 to 8) (size 9 to 14) (size 15 to 20)
#    0.000    2.000    2.500    1.875    3.500    0.500 
#    0.000    4.375    0.000   15.000    0.000    0.000 
#    0.000    0.000    0.000    0.000    0.000    0.000 
#
# Total GULP energy -178243.153608 kJ/mol
# GULP energy per Si atom -5570.098550 kJ/mol
# Density = 2.021877 g / cm^3
# Si number density = 20.264891 Si / 1000 Ang^3
#
#
#
# Elastic Constant Matrix: (Units=GPa)
#
#
# Indices 1 2 3 4 5 6 
#
# 1 68.5489 19.8178 5.5688 0.0000 -8.2183 0.0000
# 2 19.8178 44.2567 -4.9839 0.0000 0.2352 0.0000
# 3 5.5688 -4.9839 53.4435 0.0000 2.1787 0.0000
# 4 0.0000 0.0000 0.0000 -14.8029 0.0000 -6.4268
# 5 -8.2183 0.2352 2.1787 0.0000 45.6248 0.0000
# 6 0.0000 0.0000 0.0000 -6.4268 0.0000 9.7938
#
#
#
# Elastic Compliance Matrix: (Units=1/GPa)
#
#
# Indices 1 2 3 4 5 6 
#
# 1 0.017581 -0.008198 -0.002733 0.000000 0.003339 0.000000
# 2 -0.008198 0.026660 0.003413 0.000000 -0.001777 0.000000
# 3 -0.002733 0.003413 0.019373 0.000000 -0.001435 0.000000
# 4 0.000000 0.000000 0.000000 -0.052576 0.000000 -0.034501
# 5 0.003339 -0.001777 -0.001435 0.000000 0.022597 0.000000
# 6 0.000000 0.000000 0.000000 -0.034501 0.000000 0.079466
#
#
# Mechanical properties :
#
#
# Convention : Reuss Voigt Hill
#
# Bulk Modulus (GPa) = 20.58524 23.00605 21.79564
# Shear Modulus (GPa) = 34.64310 17.84623 26.24467
#
# Velocity S-wave (km/s) = 4.13911 2.97079 3.60263
# Velocity P-wave (km/s) = 5.74657 4.81090 5.29943
#
# Compressibility (1/GPa) = 0.04857851
#
# Stress axis : x y z
#
# Youngs Moduli (GPa) = 56.88115 37.50915 51.61861
#
# Poissons Ratio (x) = 0.30750 0.14105
# Poissons Ratio (y) = 0.46630 -0.17617
# Poissons Ratio (z) = 0.15543 -0.12801
#
# Static dielectric constant tensor:
#      x y z
#    x 1.742800 0.000000 -0.003200 
#    y 0.000000 1.725850 0.000000 
#    z -0.003200 0.000000 1.813600 
# 
# From -- ./inp_files/22230.got.cif
#   From: 2010.05.17/outbox.cif.g08.bks.cpg/sg11_12_cif.got.tgz:22230.got - 2010.06.03 12:22:45.
