data_PCOD9160316
_publ_section_title
;
Structure prediction by ZEFSAII (Michael W. Deem and Ramdas Pophale) SiO2 
 PCOD9160316
Probable space group: P 21/M
;
_chemical_formula_sum "Si O2"
_cell_formula_units_Z 28
_cell_length_a 4.972975
_cell_length_b 16.981452
_cell_length_c 15.272282
_cell_angle_alpha 90.000000
_cell_angle_beta 78.494081
_cell_angle_gamma 90.000000
_cell_volume 1263.800750
_symmetry_space_group_name_H-M "P 21/M"
_symmetry_group_IT_number 11
_symmetry_cell_setting 'monoclinic'
loop_
_space_group_symop_operation_xyz
x,y,z
-x,1/2+y,-z
-x,-y,-z
x,1/2-y,z
loop_
_atom_site_type_symbol
_atom_site_label
_atom_site_fract_x
_atom_site_fract_y
_atom_site_fract_z
Si Si1 0.188792 0.368521 0.147544
Si Si2 0.076926 0.531644 0.090330
Si Si3 0.052810 0.555885 0.362010
Si Si4 0.610549 0.523135 0.252686
Si Si5 0.732362 0.428885 0.473254
Si Si6 0.746053 0.166038 0.026729
Si Si7 0.292202 0.841590 0.697719
O O1 0.215659 0.462425 0.136202
O O2 0.484793 0.335948 0.107166
O O3 0.997328 0.345128 0.077502
O O4 0.023413 0.343680 0.244769
O O5 0.792075 0.546435 0.158182
O O6 0.264720 0.603765 0.050646
O O7 0.000000 0.500000 0.000000
O O8 0.305906 0.554413 0.280304
O O9 0.155971 0.602392 0.441057
O O10 0.778690 0.563620 0.322901
O O11 0.993489 0.470793 0.409904
O O12 0.608623 0.426638 0.265337
O O13 0.500000 0.500000 0.500000
O O14 0.655227 0.362279 0.407887
O O15 0.771134 0.250000 0.982256
O O16 0.383708 0.750000 0.709018
#
# Coordination Sequence:
#
# PCOD9160316 Si02
#       7
#     4   4   4   4   4   4   4
#     4  10  22  38  55  82 118 154 183 228 287 353
#     4   9  21  37  58  86 116 152 200 237 276 341
#     4  10  19  36  57  80 104 144 189 228 272 329
#     4  10  21  36  57  81 113 150 187 231 279 334
#     4  10  19  35  58  80 108 141 190 222 270 335
#     4  11  21  37  58  82 117 152 189 238 288 331
#     4  10  20  35  55  85 115 144 180 227 287 344
#
# _framework density 22.155391999999999
#
# number of rings (size 3 to 8) (size 9 to 14) (size 15 to 20)
#    0.000    2.000    2.857    1.714    0.000   12.571 
#    0.000    5.714    0.000    1.714    0.000    0.000 
#    0.000    0.000    0.000    0.000    0.000    0.000 
#
# Total GULP energy -155939.410616 kJ/mol
# GULP energy per Si atom -5569.264665 kJ/mol
# Density = 2.210496 g / cm^3
# Si number density = 22.155392 Si / 1000 Ang^3
#
#
#
# Elastic Constant Matrix: (Units=GPa)
#
#
# Indices 1 2 3 4 5 6 
#
# 1 67.5697 15.5697 -3.1976 0.0000 -0.5481 0.0000
# 2 15.5697 92.4739 20.3423 0.0000 0.1529 0.0000
# 3 -3.1976 20.3423 104.8675 0.0000 -0.7998 0.0000
# 4 0.0000 0.0000 0.0000 -42.7588 0.0000 102.8613
# 5 -0.5481 0.1529 -0.7998 0.0000 34.6983 0.0000
# 6 0.0000 0.0000 0.0000 102.8613 0.0000 -142.7737
#
#
#
# Elastic Compliance Matrix: (Units=1/GPa)
#
#
# Indices 1 2 3 4 5 6 
#
# 1 0.015504 -0.002836 0.001025 0.000000 0.000281 0.000000
# 2 -0.002836 0.011815 -0.002380 0.000000 -0.000152 0.000000
# 3 0.001025 -0.002380 0.010031 0.000000 0.000258 0.000000
# 4 0.000000 0.000000 0.000000 0.031900 0.000000 0.022983
# 5 0.000281 -0.000152 0.000258 0.000000 0.028831 0.000000
# 6 0.000000 0.000000 0.000000 0.022983 0.000000 0.009554
#
#
# Mechanical properties :
#
#
# Convention : Reuss Voigt Hill
#
# Bulk Modulus (GPa) = 34.52078 36.70443 35.61261
# Shear Modulus (GPa) = 39.78605 -14.68706 12.54949
#
# Velocity S-wave (km/s) = 4.24225 -2.57750 2.38256
# Velocity P-wave (km/s) = 6.29370 2.78294 4.86598
#
# Compressibility (1/GPa) = 0.02896806
#
# Stress axis : x y z
#
# Youngs Moduli (GPa) = 64.49997 84.63742 99.69435
#
# Poissons Ratio (x) = 0.24006 -0.10219
# Poissons Ratio (y) = 0.18294 0.23723
# Poissons Ratio (z) = -0.06612 0.20140
#
# Static dielectric constant tensor:
#      x y z
#    x 1.919970 0.000000 0.064680 
#    y 0.000000 2.034400 0.000000 
#    z 0.064680 0.000000 1.879340 
# 
# From -- ./inp_files/45900.got.cif
#   From: 2010.05.17/outbox.cif.g08.bks.cpg/sg11_23_cif.got.tgz:45900.got - 2010.06.03 12:22:45.
