data_PCOD9160263
_publ_section_title
;
Structure prediction by ZEFSAII (Michael W. Deem and Ramdas Pophale) SiO2 
 PCOD9160263
Probable space group: P 21/M
;
_chemical_formula_sum "Si O2"
_cell_formula_units_Z 32
_cell_length_a 15.607322
_cell_length_b 7.535809
_cell_length_c 12.308565
_cell_angle_alpha 90.000000
_cell_angle_beta 89.423654
_cell_angle_gamma 90.000000
_cell_volume 1447.583832
_symmetry_space_group_name_H-M "P 21/M"
_symmetry_group_IT_number 11
_symmetry_cell_setting 'monoclinic'
loop_
_space_group_symop_operation_xyz
x,y,z
-x,1/2+y,-z
-x,-y,-z
x,1/2-y,z
loop_
_atom_site_type_symbol
_atom_site_label
_atom_site_fract_x
_atom_site_fract_y
_atom_site_fract_z
Si Si1 0.251575 0.532524 0.653719
Si Si2 0.091215 0.536115 0.800370
Si Si3 0.372152 0.546485 0.001944
Si Si4 0.612882 0.040306 0.756759
Si Si5 0.424633 0.535413 0.771190
Si Si6 0.900774 0.535926 0.757918
Si Si7 0.818886 0.959178 0.983648
Si Si8 0.242619 0.539461 0.407147
O O1 0.250526 0.750000 0.655056
O O2 0.170466 0.473167 0.726003
O O3 0.341092 0.476463 0.706527
O O4 0.244457 0.470862 0.529630
O O5 0.090447 0.750000 0.794738
O O6 0.110737 0.487369 0.924487
O O7 0.998546 0.472463 0.762033
O O8 0.401954 0.750000 0.008902
O O9 0.417785 0.467523 0.895789
O O10 0.270392 0.545815 0.980017
O O11 0.382092 0.463420 0.121029
O O12 0.632032 0.250000 0.767223
O O13 0.683037 0.966096 0.672968
O O14 0.515387 0.018189 0.720402
O O15 0.421837 0.750000 0.774874
O O16 0.902577 0.750000 0.763722
O O17 0.847172 0.486154 0.652809
O O18 0.850614 0.473091 0.866542
O O19 0.802197 0.750000 0.974425
O O20 0.257995 0.750000 0.416382
#
# Coordination Sequence:
#
# PCOD9160263 Si02
#       8
#     4   4   4   4   4   4   4   4
#     4   9  19  37  59  81 106 145 192 228 268 325
#     4  10  20  38  60  80 112 151 183 220 274 335
#     4  10  19  35  57  80 107 149 185 215 277 341
#     4  10  21  35  54  82 112 142 181 225 275 329
#     4  10  20  35  57  81 108 144 184 223 272 332
#     4  10  22  37  56  84 114 146 182 226 277 326
#     4  11  21  33  54  86 116 141 179 229 275 323
#     4  10  21  38  59  80 108 147 189 231 271 322
#
# _framework density 22.105799000000001
#
# number of rings (size 3 to 8) (size 9 to 14) (size 15 to 20)
#    0.000    2.000    2.500    1.125    0.000    3.500 
#    0.000    1.250    0.000    0.000    0.000    0.000 
#    0.000    0.000    0.000    0.000    0.000    0.000 
#
# Total GULP energy -178855.140499 kJ/mol
# GULP energy per Si atom -5589.223141 kJ/mol
# Density = 2.205549 g / cm^3
# Si number density = 22.105799 Si / 1000 Ang^3
#
#
#
# Elastic Constant Matrix: (Units=GPa)
#
#
# Indices 1 2 3 4 5 6 
#
# 1 82.1802 -3.4608 11.0548 0.0000 6.6672 0.0000
# 2 -3.4608 57.3524 5.5532 0.0000 -1.2952 0.0000
# 3 11.0548 5.5532 108.1373 0.0000 14.0510 0.0000
# 4 0.0000 0.0000 0.0000 -0.7073 0.0000 12.0321
# 5 6.6672 -1.2952 14.0510 0.0000 10.8051 0.0000
# 6 0.0000 0.0000 0.0000 12.0321 0.0000 19.3220
#
#
#
# Elastic Compliance Matrix: (Units=1/GPa)
#
#
# Indices 1 2 3 4 5 6 
#
# 1 0.012844 0.000647 -0.000393 0.000000 -0.007337 0.000000
# 2 0.000647 0.017696 -0.001442 0.000000 0.003597 0.000000
# 3 -0.000393 -0.001442 0.011254 0.000000 -0.014566 0.000000
# 4 0.000000 0.000000 0.000000 -0.121954 0.000000 0.075942
# 5 -0.007337 0.003597 -0.014566 0.000000 0.116449 0.000000
# 6 0.000000 0.000000 0.000000 0.075942 0.000000 0.004464
#
#
# Mechanical properties :
#
#
# Convention : Reuss Voigt Hill
#
# Bulk Modulus (GPa) = 25.36896 30.44048 27.90472
# Shear Modulus (GPa) = 88.86000 21.51880 55.18940
#
# Velocity S-wave (km/s) = 6.34704 3.12339 5.00202
# Velocity P-wave (km/s) = 8.07553 5.17762 6.78314
#
# Compressibility (1/GPa) = 0.03941825
#
# Stress axis : x y z
#
# Youngs Moduli (GPa) = 77.85910 56.50984 88.85445
#
# Poissons Ratio (x) = -0.03658 0.03492
# Poissons Ratio (y) = -0.05041 0.12816
# Poissons Ratio (z) = 0.03060 0.08151
#
# Static dielectric constant tensor:
#      x y z
#    x 1.791320 0.000000 -0.004440 
#    y 0.000000 1.829220 0.000000 
#    z -0.004440 0.000000 1.792670 
# 
# From -- ./inp_files/38080.got.cif
#   From: 2010.05.17/outbox.cif.g08.bks.cpg/sg11_20_cif.got.tgz:38080.got - 2010.06.03 12:22:45.
