data_PCOD9160654
_publ_section_title
;
Structure prediction by ZEFSAII (Michael W. Deem and Ramdas Pophale) SiO2 
 PCOD9160654
Probable space group: P 21/M
;
_chemical_formula_sum "Si O2"
_cell_formula_units_Z 32
_cell_length_a 10.327109
_cell_length_b 16.913818
_cell_length_c 16.606234
_cell_angle_alpha 90.000000
_cell_angle_beta 35.230784
_cell_angle_gamma 90.000000
_cell_volume 1673.287157
_symmetry_space_group_name_H-M "P 21/M"
_symmetry_group_IT_number 11
_symmetry_cell_setting 'monoclinic'
loop_
_space_group_symop_operation_xyz
x,y,z
-x,1/2+y,-z
-x,-y,-z
x,1/2-y,z
loop_
_atom_site_type_symbol
_atom_site_label
_atom_site_fract_x
_atom_site_fract_y
_atom_site_fract_z
Si Si1 0.338502 0.436696 0.981864
Si Si2 0.259135 0.622418 0.991374
Si Si3 0.897225 0.839394 0.309100
Si Si4 0.079777 0.602448 0.540087
Si Si5 0.434921 0.346412 0.656888
Si Si6 0.935390 0.907127 0.028507
Si Si7 0.865840 0.071366 0.668061
Si Si8 0.288027 0.335014 0.163624
O O1 0.280195 0.529210 0.002336
O O2 0.168393 0.392865 0.006628
O O3 0.600241 0.426754 0.824226
O O4 0.302845 0.403362 0.089228
O O5 0.501418 0.657135 0.883980
O O6 0.086595 0.658244 0.143249
O O7 0.155787 0.633466 0.954932
O O8 0.870402 0.750000 0.351484
O O9 0.671374 0.863576 0.376864
O O10 0.988781 0.891617 0.334518
O O11 0.329917 0.611115 0.447298
O O12 0.096108 0.615907 0.436007
O O13 0.957164 0.517701 0.611624
O O14 0.929038 0.658930 0.670888
O O15 0.449473 0.250000 0.658261
O O16 0.261504 0.382277 0.809995
O O17 0.000000 0.000000 0.000000
O O18 0.300149 0.250000 0.115256
#
# Coordination Sequence:
#
# PCOD9160654 Si02
#       8
#     4   4   4   4   4   4   4   4
#     4  11  20  39  61  89 118 152 203 253 293 348
#     4  10  19  36  61  87 118 152 194 250 301 351
#     4  10  21  37  59  89 117 154 201 247 294 355
#     4  11  24  41  60  87 124 162 199 244 303 364
#     4  10  21  39  60  86 125 162 198 241 301 365
#     4   9  20  36  63  90 117 153 200 250 298 348
#     4  11  22  38  64  88 117 154 205 252 292 355
#     4  12  24  37  58  89 123 159 196 247 309 356
#
# _framework density 19.124033000000001
#
# number of rings (size 3 to 8) (size 9 to 14) (size 15 to 20)
#    0.000    1.500    3.750    1.875    0.000    2.500 
#    0.000    1.250    0.000    0.000    0.000    0.000 
#    0.000    0.000    0.000    0.000    0.000    0.000 
#
# Total GULP energy -178467.411502 kJ/mol
# GULP energy per Si atom -5577.106609 kJ/mol
# Density = 1.908051 g / cm^3
# Si number density = 19.124033 Si / 1000 Ang^3
#
#
#
# Elastic Constant Matrix: (Units=GPa)
#
#
# Indices 1 2 3 4 5 6 
#
# 1 142.7850 18.6670 38.7543 0.0000 -7.1328 0.0000
# 2 18.6670 44.2237 11.5285 0.0000 6.8187 0.0000
# 3 38.7543 11.5285 75.6303 0.0000 -7.3312 0.0000
# 4 0.0000 0.0000 0.0000 3.6613 0.0000 -1.9429
# 5 -7.1328 6.8187 -7.3312 0.0000 25.3284 0.0000
# 6 0.0000 0.0000 0.0000 -1.9429 0.0000 13.0072
#
#
#
# Elastic Compliance Matrix: (Units=1/GPa)
#
#
# Indices 1 2 3 4 5 6 
#
# 1 0.008499 -0.002949 -0.003700 0.000000 0.002116 0.000000
# 2 -0.002949 0.026081 -0.003319 0.000000 -0.008812 0.000000
# 3 -0.003700 -0.003319 0.016060 0.000000 0.004500 0.000000
# 4 0.000000 0.000000 0.000000 0.296645 0.000000 0.044311
# 5 0.002116 -0.008812 0.004500 0.000000 0.043752 0.000000
# 6 0.000000 0.000000 0.000000 0.044311 0.000000 0.083499
#
#
# Mechanical properties :
#
#
# Convention : Reuss Voigt Hill
#
# Bulk Modulus (GPa) = 32.56885 44.50431 38.53658
# Shear Modulus (GPa) = 9.90671 21.31199 15.60935
#
# Velocity S-wave (km/s) = 2.27848 3.34190 2.86005
# Velocity P-wave (km/s) = 4.89788 6.18166 5.57684
#
# Compressibility (1/GPa) = 0.03070419
#
# Stress axis : x y z
#
# Youngs Moduli (GPa) = 117.65838 38.34209 62.26477
#
# Poissons Ratio (x) = 0.11308 0.23041
# Poissons Ratio (y) = 0.34700 0.20663
# Poissons Ratio (z) = 0.43539 0.12724
#
# Static dielectric constant tensor:
#      x y z
#    x 1.685750 0.000000 -0.008270 
#    y 0.000000 1.743460 0.000000 
#    z -0.008270 0.000000 1.648840 
# 
# From -- ./inp_files/59451.got.cif
#   From: 2010.05.17/outbox.cif.g08.bks.cpg/sg11_30_cif.got.tgz:59451.got - 2010.06.03 12:22:45.
