data_PCOD9160231
_publ_section_title
;
Structure prediction by ZEFSAII (Michael W. Deem and Ramdas Pophale) SiO2 
 PCOD9160231
Probable space group: P 21/M
;
_chemical_formula_sum "Si O2"
_cell_formula_units_Z 24
_cell_length_a 7.878875
_cell_length_b 8.216977
_cell_length_c 17.067682
_cell_angle_alpha 90.000000
_cell_angle_beta 123.140820
_cell_angle_gamma 90.000000
_cell_volume 925.224627
_symmetry_space_group_name_H-M "P 21/M"
_symmetry_group_IT_number 11
_symmetry_cell_setting 'monoclinic'
loop_
_space_group_symop_operation_xyz
x,y,z
-x,1/2+y,-z
-x,-y,-z
x,1/2-y,z
loop_
_atom_site_type_symbol
_atom_site_label
_atom_site_fract_x
_atom_site_fract_y
_atom_site_fract_z
Si Si1 0.506639 0.557441 0.099051
Si Si2 0.910347 0.053764 0.061811
Si Si3 0.719974 0.433976 0.379072
Si Si4 0.727859 0.941111 0.547937
Si Si5 0.094600 0.438589 0.728441
Si Si6 0.316783 0.562538 0.227231
O O1 0.529897 0.750000 0.088245
O O2 0.729418 0.483147 0.172394
O O3 0.399394 0.550380 0.158344
O O4 0.324042 0.490991 0.997962
O O5 0.906889 0.250000 0.064524
O O6 0.080612 0.986961 0.164035
O O7 0.000000 0.000000 0.000000
O O8 0.774846 0.250000 0.371157
O O9 0.795714 0.474691 0.484326
O O10 0.803593 0.549561 0.332530
O O11 0.475789 0.454534 0.315070
O O12 0.729539 0.750000 0.536606
O O13 0.500000 0.000000 0.500000
O O14 0.876621 0.985320 0.656498
O O15 0.072422 0.250000 0.743453
O O16 0.336064 0.750000 0.256979
#
# Coordination Sequence:
#
# PCOD9160231 Si02
#       6
#     4   4   4   4   4   4
#     4   7  13  24  41  65  97 132 167 204 248 295
#     4   9  14  22  37  62  96 134 169 206 250 300
#     4  11  21  35  55  80 106 138 176 217 261 311
#     4  12  25  41  57  77 103 135 173 217 265 317
#     4  10  19  35  56  80 108 140 175 216 260 308
#     4   9  16  27  42  66  99 135 170 210 255 303
#
# _framework density 25.939647000000001
#
# number of rings (size 3 to 8) (size 9 to 14) (size 15 to 20)
#    0.000    2.333    0.000    7.000    0.000    0.000 
#    0.000    2.500    0.000    0.000    0.000    1.167 
#    0.000    0.000    0.000    0.000    0.000    0.000 
#
# Total GULP energy -134312.042821 kJ/mol
# GULP energy per Si atom -5596.335118 kJ/mol
# Density = 2.588061 g / cm^3
# Si number density = 25.939647 Si / 1000 Ang^3
#
#
#
# Elastic Constant Matrix: (Units=GPa)
#
#
# Indices 1 2 3 4 5 6 
#
# 1 109.6963 -2.9773 41.8135 0.0000 45.6415 0.0000
# 2 -2.9773 87.8727 12.4534 0.0000 12.7883 0.0000
# 3 41.8135 12.4534 210.4127 0.0000 28.2114 0.0000
# 4 0.0000 0.0000 0.0000 35.0868 0.0000 7.5867
# 5 45.6415 12.7883 28.2114 0.0000 66.0307 0.0000
# 6 0.0000 0.0000 0.0000 7.5867 0.0000 24.8657
#
#
#
# Elastic Compliance Matrix: (Units=1/GPa)
#
#
# Indices 1 2 3 4 5 6 
#
# 1 0.013555 0.002006 -0.001596 0.000000 -0.009076 0.000000
# 2 0.002006 0.012041 -0.000650 0.000000 -0.003441 0.000000
# 3 -0.001596 -0.000650 0.005244 0.000000 -0.001012 0.000000
# 4 0.000000 0.000000 0.000000 0.030514 0.000000 -0.009310
# 5 -0.009076 -0.003441 -0.001012 0.000000 0.022517 0.000000
# 6 0.000000 0.000000 0.000000 -0.009310 0.000000 0.043057
#
#
# Mechanical properties :
#
#
# Convention : Reuss Voigt Hill
#
# Bulk Modulus (GPa) = 32.93647 56.72899 44.83273
# Shear Modulus (GPa) = 36.35673 48.97610 42.66641
#
# Velocity S-wave (km/s) = 3.74784 4.34992 4.06006
# Velocity P-wave (km/s) = 5.60833 6.86630 6.26895
#
# Compressibility (1/GPa) = 0.03036148
#
# Stress axis : x y z
#
# Youngs Moduli (GPa) = 73.77280 83.04972 190.70379
#
# Poissons Ratio (x) = -0.16662 0.30427
# Poissons Ratio (y) = -0.14801 0.12395
# Poissons Ratio (z) = 0.11770 0.05398
#
# Static dielectric constant tensor:
#      x y z
#    x 2.187950 0.000000 -0.011910 
#    y 0.000000 1.918220 0.000000 
#    z -0.011910 0.000000 2.062130 
# 
# From -- ./inp_files/63288.got.cif
#   From: 2010.05.17/outbox.cif.g08.bks.cpg/sg11_32_cif.got.tgz:63288.got - 2010.06.03 12:22:45.
