data_PCOD9160068
_publ_section_title
;
Structure prediction by ZEFSAII (Michael W. Deem and Ramdas Pophale) SiO2 
 PCOD9160068
Probable space group: P 21/M
;
_chemical_formula_sum "Si O2"
_cell_formula_units_Z 32
_cell_length_a 21.475276
_cell_length_b 9.044824
_cell_length_c 16.183322
_cell_angle_alpha 90.000000
_cell_angle_beta 26.106576
_cell_angle_gamma 90.000000
_cell_volume 1383.250745
_symmetry_space_group_name_H-M "P 21/M"
_symmetry_group_IT_number 11
_symmetry_cell_setting 'monoclinic'
loop_
_space_group_symop_operation_xyz
x,y,z
-x,1/2+y,-z
-x,-y,-z
x,1/2-y,z
loop_
_atom_site_type_symbol
_atom_site_label
_atom_site_fract_x
_atom_site_fract_y
_atom_site_fract_z
Si Si1 0.930988 0.420906 0.466256
Si Si2 0.858911 0.923272 0.201372
Si Si3 0.951525 0.417742 0.242028
Si Si4 0.264898 0.423906 0.898765
Si Si5 0.468887 0.077224 0.242789
Si Si6 0.643219 0.923466 0.799593
Si Si7 0.784520 0.422619 0.868863
Si Si8 0.574541 0.076107 0.532112
O O1 0.080508 0.750000 0.496683
O O2 0.787700 0.504928 0.659387
O O3 0.940607 0.429259 0.353994
O O4 0.078194 0.487950 0.322830
O O5 0.864416 0.750000 0.182290
O O6 0.712899 0.987820 0.340444
O O7 0.865792 0.965169 0.290813
O O8 0.000000 0.000000 0.000000
O O9 0.908017 0.250000 0.270567
O O10 0.119362 0.434678 0.022166
O O11 0.271695 0.250000 0.917737
O O12 0.419720 0.458996 0.678637
O O13 0.241489 0.529392 0.004988
O O14 0.464100 0.250000 0.276886
O O15 0.363727 0.059143 0.291888
O O16 0.445350 0.968853 0.347423
O O17 0.628614 0.051514 0.017871
O O18 0.639174 0.750000 0.823873
O O19 0.500000 0.000000 0.000000
O O20 0.817207 0.250000 0.824398
O O21 0.600629 0.250000 0.491752
#
# Coordination Sequence:
#
# PCOD9160068 Si02
#       8
#     4   4   4   4   4   4   4   4
#     4  10  20  35  56  82 110 140 175 215 261 314
#     4  12  25  39  54  75 106 143 182 221 263 311
#     4   9  18  35  58  83 109 137 172 215 261 310
#     4   8  16  31  53  81 110 137 168 211 261 312
#     4   9  19  35  56  82 109 138 175 219 264 313
#     4  11  23  38  54  75 106 142 181 223 267 315
#     4   9  16  29  52  81 109 135 169 215 263 309
#     4  10  19  34  58  85 110 138 174 215 262 316
#
# _framework density 23.133911000000001
#
# number of rings (size 3 to 8) (size 9 to 14) (size 15 to 20)
#    0.000    2.250    0.000    4.125    0.000    6.500 
#    0.000    1.250    0.000    0.000    0.000    0.000 
#    0.000    0.000    0.000    0.000    0.000    0.000 
#
# Total GULP energy -178902.384160 kJ/mol
# GULP energy per Si atom -5590.699505 kJ/mol
# Density = 2.308126 g / cm^3
# Si number density = 23.133911 Si / 1000 Ang^3
#
#
#
# Elastic Constant Matrix: (Units=GPa)
#
#
# Indices 1 2 3 4 5 6 
#
# 1 65.1564 29.4647 24.4744 0.0000 -15.4023 0.0000
# 2 29.4647 107.8527 79.5839 0.0000 -24.8003 0.0000
# 3 24.4744 79.5839 167.1091 0.0000 -23.8518 0.0000
# 4 0.0000 0.0000 0.0000 44.4876 0.0000 -7.7638
# 5 -15.4023 -24.8003 -23.8518 0.0000 45.9442 0.0000
# 6 0.0000 0.0000 0.0000 -7.7638 0.0000 12.4040
#
#
#
# Elastic Compliance Matrix: (Units=1/GPa)
#
#
# Indices 1 2 3 4 5 6 
#
# 1 0.018104 -0.003870 -0.000259 0.000000 0.003845 0.000000
# 2 -0.003870 0.016047 -0.006506 0.000000 0.003987 0.000000
# 3 -0.000259 -0.006506 0.009296 0.000000 0.001227 0.000000
# 4 0.000000 0.000000 0.000000 0.025235 0.000000 0.015795
# 5 0.003845 0.003987 0.001227 0.000000 0.025844 0.000000
# 6 0.000000 0.000000 0.000000 0.015795 0.000000 0.090506
#
#
# Mechanical properties :
#
#
# Convention : Reuss Voigt Hill
#
# Bulk Modulus (GPa) = 45.09585 67.46267 56.27926
# Shear Modulus (GPa) = 23.39786 34.34016 28.86901
#
# Velocity S-wave (km/s) = 3.18372 3.85698 3.53641
# Velocity P-wave (km/s) = 5.74895 7.00430 6.40744
#
# Compressibility (1/GPa) = 0.02217499
#
# Stress axis : x y z
#
# Youngs Moduli (GPa) = 55.23521 62.31708 107.57561
#
# Poissons Ratio (x) = 0.24119 0.02791
# Poissons Ratio (y) = 0.21378 0.69992
# Poissons Ratio (z) = 0.01433 0.40545
#
# Static dielectric constant tensor:
#      x y z
#    x 1.923410 0.000000 0.033030 
#    y 0.000000 1.793570 0.000000 
#    z 0.033030 0.000000 1.908060 
# 
# From -- ./inp_files/67061.got.cif
#   From: 2010.05.17/outbox.cif.g08.bks.cpg/sg11_34_cif.got.tgz:67061.got - 2010.06.03 12:22:45.
