data_PCOD9160336
_publ_section_title
;
Structure prediction by ZEFSAII (Michael W. Deem and Ramdas Pophale) SiO2 
 PCOD9160336
Probable space group: P 21/M
;
_chemical_formula_sum "Si O2"
_cell_formula_units_Z 32
_cell_length_a 12.795041
_cell_length_b 7.963730
_cell_length_c 32.215619
_cell_angle_alpha 90.000000
_cell_angle_beta 28.462396
_cell_angle_gamma 90.000000
_cell_volume 1564.451896
_symmetry_space_group_name_H-M "P 21/M"
_symmetry_group_IT_number 11
_symmetry_cell_setting 'monoclinic'
loop_
_space_group_symop_operation_xyz
x,y,z
-x,1/2+y,-z
-x,-y,-z
x,1/2-y,z
loop_
_atom_site_type_symbol
_atom_site_label
_atom_site_fract_x
_atom_site_fract_y
_atom_site_fract_z
Si Si1 0.879268 0.456270 0.175072
Si Si2 0.786042 0.449445 0.301661
Si Si3 0.891176 0.547955 0.667580
Si Si4 0.499279 0.059060 0.246258
Si Si5 0.610928 0.450514 0.504785
Si Si6 0.348068 0.055401 0.979777
Si Si7 0.790636 0.051966 0.796176
Si Si8 0.247634 0.057345 0.917325
O O1 0.885310 0.250000 0.169174
O O2 0.820370 0.504017 0.242393
O O3 0.683145 0.514599 0.212968
O O4 0.125525 0.516665 0.077539
O O5 0.814618 0.250000 0.293053
O O6 0.549380 0.491671 0.402768
O O7 0.975091 0.524253 0.264680
O O8 0.894676 0.750000 0.661744
O O9 0.734364 0.480698 0.685392
O O10 0.800262 0.513651 0.745680
O O11 0.140618 0.483597 0.578867
O O12 0.460002 0.250000 0.274625
O O13 0.615599 0.058860 0.160792
O O14 0.500000 0.500000 0.500000
O O15 0.622504 0.250000 0.501531
O O16 0.359726 0.250000 0.990303
O O17 0.594919 0.981267 0.894186
O O18 0.306341 0.051532 0.944959
O O19 0.748610 0.250000 0.807376
O O20 0.276768 0.250000 0.893163
O O21 0.000000 0.000000 0.000000
#
# Coordination Sequence:
#
# PCOD9160336 Si02
#       8
#     4   4   4   4   4   4   4   4
#     4   9  19  37  58  78 111 158 197 228 272 336
#     4  11  23  39  59  82 110 150 198 236 275 338
#     4  10  21  35  57  89 117 140 179 233 289 346
#     4  10  19  35  58  83 113 149 188 232 284 336
#     4  11  22  38  61  88 116 144 179 234 293 343
#     4   9  18  32  52  81 113 148 188 228 278 333
#     4  11  21  34  56  84 117 149 182 234 292 336
#     4  11  19  30  50  79 112 147 189 235 279 326
#
# _framework density 20.454446000000001
#
# number of rings (size 3 to 8) (size 9 to 14) (size 15 to 20)
#    0.000    1.750    3.750    1.500    0.000    1.000 
#    0.000    1.875    0.000    0.000    0.000    0.000 
#    0.000    0.000    0.000    0.000    0.000    0.000 
#
# Total GULP energy -178453.111105 kJ/mol
# GULP energy per Si atom -5576.659722 kJ/mol
# Density = 2.040789 g / cm^3
# Si number density = 20.454446 Si / 1000 Ang^3
#
#
#
# Elastic Constant Matrix: (Units=GPa)
#
#
# Indices 1 2 3 4 5 6 
#
# 1 59.0356 -0.9594 58.2455 0.0000 -8.8594 0.0000
# 2 -0.9594 26.7255 -0.5190 0.0000 2.0201 0.0000
# 3 58.2455 -0.5190 155.4561 0.0000 -20.0455 0.0000
# 4 0.0000 0.0000 0.0000 13.9232 0.0000 2.9059
# 5 -8.8594 2.0201 -20.0455 0.0000 38.2790 0.0000
# 6 0.0000 0.0000 0.0000 2.9059 0.0000 8.5995
#
#
#
# Elastic Compliance Matrix: (Units=1/GPa)
#
#
# Indices 1 2 3 4 5 6 
#
# 1 0.026923 0.000699 -0.009959 0.000000 0.000979 0.000000
# 2 0.000699 0.037588 -0.000398 0.000000 -0.002030 0.000000
# 3 -0.009959 -0.000398 0.010583 0.000000 0.003258 0.000000
# 4 0.000000 0.000000 0.000000 0.077272 0.000000 -0.026112
# 5 0.000979 -0.002030 0.003258 0.000000 0.028164 0.000000
# 6 0.000000 0.000000 0.000000 -0.026112 0.000000 0.125110
#
#
# Mechanical properties :
#
#
# Convention : Reuss Voigt Hill
#
# Bulk Modulus (GPa) = 17.92819 39.41681 28.67250
# Shear Modulus (GPa) = 14.55400 24.45700 19.50550
#
# Velocity S-wave (km/s) = 2.67035 3.46161 3.09140
# Velocity P-wave (km/s) = 4.27687 5.94049 5.17596
#
# Compressibility (1/GPa) = 0.05577807
#
# Stress axis : x y z
#
# Youngs Moduli (GPa) = 37.14349 26.60400 94.49364
#
# Poissons Ratio (x) = -0.01860 0.94103
# Poissons Ratio (y) = -0.02597 0.03763
# Poissons Ratio (z) = 0.36990 0.01060
#
# Static dielectric constant tensor:
#      x y z
#    x 1.718100 0.000000 -0.055460 
#    y 0.000000 1.842600 0.000000 
#    z -0.055460 0.000000 1.753370 
# 
# From -- ./inp_files/73090.got.cif
#   From: 2010.05.17/outbox.cif.g08.bks.cpg/sg11_37_cif.got.tgz:73090.got - 2010.06.03 12:22:45.
