data_PCOD9160116
_publ_section_title
;
Structure prediction by ZEFSAII (Michael W. Deem and Ramdas Pophale) SiO2 
 PCOD9160116
Probable space group: P 21/M
;
_chemical_formula_sum "Si O2"
_cell_formula_units_Z 28
_cell_length_a 7.963590
_cell_length_b 14.682049
_cell_length_c 11.726869
_cell_angle_alpha 90.000000
_cell_angle_beta 107.789846
_cell_angle_gamma 90.000000
_cell_volume 1305.564436
_symmetry_space_group_name_H-M "P 21/M"
_symmetry_group_IT_number 11
_symmetry_cell_setting 'monoclinic'
loop_
_space_group_symop_operation_xyz
x,y,z
-x,1/2+y,-z
-x,-y,-z
x,1/2-y,z
loop_
_atom_site_type_symbol
_atom_site_label
_atom_site_fract_x
_atom_site_fract_y
_atom_site_fract_z
Si Si1 0.234726 0.556469 0.525177
Si Si2 0.106308 0.026693 0.910926
Si Si3 0.686791 0.851897 0.884604
Si Si4 0.341682 0.851586 0.951084
Si Si5 0.480756 0.147816 0.761993
Si Si6 0.615149 0.967939 0.661534
Si Si7 0.083592 0.086780 0.666254
O O1 0.277953 0.483996 0.432172
O O2 0.432367 0.586655 0.597871
O O3 0.149009 0.504271 0.613978
O O4 0.083470 0.621200 0.441539
O O5 0.016450 0.063085 0.778735
O O6 0.216715 0.936723 0.905184
O O7 0.224213 0.107978 0.984515
O O8 0.000000 0.000000 0.000000
O O9 0.746800 0.750000 0.874498
O O10 0.715402 0.914946 0.781544
O O11 0.482416 0.852098 0.878338
O O12 0.259976 0.750000 0.938818
O O13 0.440111 0.865277 0.093906
O O14 0.531187 0.250000 0.735141
O O15 0.267164 0.141056 0.716628
O O16 0.555399 0.066401 0.699327
#
# Coordination Sequence:
#
# PCOD9160116 Si02
#       7
#     4   4   4   4   4   4   4
#     4   9  20  37  59  85 114 163 202 241 288 351
#     4  12  23  36  61  91 123 156 194 245 311 357
#     4  11  22  38  63  92 119 153 197 245 303 364
#     4  10  20  36  57  87 121 155 195 236 295 366
#     4  10  19  34  59  86 117 156 196 244 297 351
#     4  10  19  38  62  85 122 153 202 248 294 349
#     4  10  20  36  58  83 121 155 199 243 296 350
#
# _framework density 21.446662
#
# number of rings (size 3 to 8) (size 9 to 14) (size 15 to 20)
#    0.000    1.714    2.857    3.000    0.000    0.571 
#    0.000    7.857    0.000   10.286    0.000    0.000 
#    0.000    0.000    0.000    0.000    0.000    0.000 
#
# Total GULP energy -156196.748209 kJ/mol
# GULP energy per Si atom -5578.455293 kJ/mol
# Density = 2.139785 g / cm^3
# Si number density = 21.446662 Si / 1000 Ang^3
#
#
#
# Elastic Constant Matrix: (Units=GPa)
#
#
# Indices 1 2 3 4 5 6 
#
# 1 39.1751 1.7989 -2.4011 0.0000 -11.7330 0.0000
# 2 1.7989 76.9281 21.9414 0.0000 -2.1600 0.0000
# 3 -2.4011 21.9414 100.1046 0.0000 -6.6143 0.0000
# 4 0.0000 0.0000 0.0000 -176.8713 0.0000 -146.5607
# 5 -11.7330 -2.1600 -6.6143 0.0000 41.9903 0.0000
# 6 0.0000 0.0000 0.0000 -146.5607 0.0000 -105.4457
#
#
#
# Elastic Compliance Matrix: (Units=1/GPa)
#
#
# Indices 1 2 3 4 5 6 
#
# 1 0.028049 -0.000825 0.001383 0.000000 0.008013 0.000000
# 2 -0.000825 0.013893 -0.003065 0.000000 0.000001 0.000000
# 3 0.001383 -0.003065 0.010822 0.000000 0.001934 0.000000
# 4 0.000000 0.000000 0.000000 0.037263 0.000000 -0.051793
# 5 0.008013 0.000001 0.001934 0.000000 0.026359 0.000000
# 6 0.000000 0.000000 0.000000 -0.051793 0.000000 0.062504
#
#
# Mechanical properties :
#
#
# Convention : Reuss Voigt Hill
#
# Bulk Modulus (GPa) = 20.94250 28.76512 24.85381
# Shear Modulus (GPa) = 25.02239 -35.07410 -5.02585
#
# Velocity S-wave (km/s) = 3.41944 -4.04841 -1.53248
# Velocity P-wave (km/s) = 5.03748 2.90022 2.91247
#
# Compressibility (1/GPa) = 0.04774979
#
# Stress axis : x y z
#
# Youngs Moduli (GPa) = 35.65191 71.98066 92.40237
#
# Poissons Ratio (x) = 0.05941 -0.12781
# Poissons Ratio (y) = 0.02943 0.28319
# Poissons Ratio (z) = -0.04931 0.22060
#
# Static dielectric constant tensor:
#      x y z
#    x 1.852710 0.000000 0.041340 
#    y 0.000000 1.809270 0.000000 
#    z 0.041340 0.000000 1.816590 
# 
# From -- ./inp_files/24977.got.cif
#   From: 2010.05.17/outbox.cif.g08.bks.cpg/sg11_13_cif.got.tgz:24977.got - 2010.06.03 12:22:45.
