data_PCOD9160697
_publ_section_title
;
Structure prediction by ZEFSAII (Michael W. Deem and Ramdas Pophale) SiO2 
 PCOD9160697
Probable space group: P 21/M
;
_chemical_formula_sum "Si O2"
_cell_formula_units_Z 32
_cell_length_a 12.136320
_cell_length_b 19.046429
_cell_length_c 8.795534
_cell_angle_alpha 90.000000
_cell_angle_beta 133.239408
_cell_angle_gamma 90.000000
_cell_volume 1481.122340
_symmetry_space_group_name_H-M "P 21/M"
_symmetry_group_IT_number 11
_symmetry_cell_setting 'monoclinic'
loop_
_space_group_symop_operation_xyz
x,y,z
-x,1/2+y,-z
-x,-y,-z
x,1/2-y,z
loop_
_atom_site_type_symbol
_atom_site_label
_atom_site_fract_x
_atom_site_fract_y
_atom_site_fract_z
Si Si1 0.205024 0.175887 0.087243
Si Si2 0.100894 0.825569 0.348454
Si Si3 0.612090 0.944710 0.709429
Si Si4 0.352976 0.470791 0.587760
Si Si5 0.133770 0.944591 0.599115
Si Si6 0.205096 0.172910 0.446543
Si Si7 0.840589 0.166942 0.125791
Si Si8 0.365710 0.830862 0.369073
O O1 0.259294 0.250000 0.070590
O O2 0.279408 0.105913 0.093826
O O3 0.234218 0.176752 0.293727
O O4 0.026250 0.173818 0.899819
O O5 0.094630 0.750000 0.420186
O O6 0.060791 0.884936 0.425947
O O7 0.260205 0.833386 0.418044
O O8 0.696141 0.976284 0.639456
O O9 0.490286 0.890152 0.518794
O O10 0.523458 0.000351 0.728451
O O11 0.262630 0.519513 0.618296
O O12 0.309999 0.391694 0.597559
O O13 0.198866 0.897789 0.799275
O O14 0.000000 0.000000 0.500000
O O15 0.239089 0.250000 0.545558
O O16 0.024290 0.160017 0.287800
O O17 0.813369 0.250000 0.142867
O O18 0.742818 0.157040 0.879032
O O19 0.424355 0.750000 0.410973
#
# Coordination Sequence:
#
# PCOD9160697 Si02
#       8
#     4   4   4   4   4   4   4   4
#     4   9  17  33  60  91 118 151 195 246 300 349
#     4  10  20  37  63  93 120 152 206 258 295 349
#     4  10  20  37  59  88 127 156 193 254 298 356
#     4  10  21  37  54  85 122 157 203 237 302 362
#     4  12  23  39  57  89 124 160 199 248 306 360
#     4   9  16  32  56  82 113 149 193 248 299 347
#     4  10  20  36  59  88 121 155 194 246 306 359
#     4  10  19  36  64  95 117 154 207 252 296 351
#
# _framework density 21.605238
#
# number of rings (size 3 to 8) (size 9 to 14) (size 15 to 20)
#    0.000    2.000    3.750    0.750    0.000    0.500 
#    6.750    4.375    0.000    0.000    0.000    0.000 
#    0.000    0.000    0.000    0.000    0.000    0.000 
#
# Total GULP energy -178230.099682 kJ/mol
# GULP energy per Si atom -5569.690615 kJ/mol
# Density = 2.155606 g / cm^3
# Si number density = 21.605238 Si / 1000 Ang^3
#
#
#
# Elastic Constant Matrix: (Units=GPa)
#
#
# Indices 1 2 3 4 5 6 
#
# 1 85.7539 52.4600 14.7890 0.0000 4.5898 0.0000
# 2 52.4600 124.4462 20.7900 0.0000 -7.1619 0.0000
# 3 14.7890 20.7900 30.2286 0.0000 -0.6993 0.0000
# 4 0.0000 0.0000 0.0000 -8.3107 0.0000 -24.2729
# 5 4.5898 -7.1619 -0.6993 0.0000 18.3119 0.0000
# 6 0.0000 0.0000 0.0000 -24.2729 0.0000 14.5448
#
#
#
# Elastic Compliance Matrix: (Units=1/GPa)
#
#
# Indices 1 2 3 4 5 6 
#
# 1 0.016909 -0.006921 -0.003676 0.000000 -0.007085 0.000000
# 2 -0.006921 0.012118 -0.004802 0.000000 0.006291 0.000000
# 3 -0.003676 -0.004802 0.038194 0.000000 0.000502 0.000000
# 4 0.000000 0.000000 0.000000 -0.020484 0.000000 -0.034185
# 5 -0.007085 0.006291 0.000502 0.000000 0.058865 0.000000
# 6 0.000000 0.000000 0.000000 -0.034185 0.000000 0.011704
#
#
# Mechanical properties :
#
#
# Convention : Reuss Voigt Hill
#
# Bulk Modulus (GPa) = 27.45671 46.27853 36.86762
# Shear Modulus (GPa) = 31.20222 15.06851 23.13537
#
# Velocity S-wave (km/s) = 3.80438 2.64379 3.27589
# Velocity P-wave (km/s) = 5.65983 5.54852 5.60445
#
# Compressibility (1/GPa) = 0.03642097
#
# Stress axis : x y z
#
# Youngs Moduli (GPa) = 59.14126 82.52455 26.18209
#
# Poissons Ratio (x) = 0.57119 0.09625
# Poissons Ratio (y) = 0.40934 0.12573
# Poissons Ratio (z) = 0.21740 0.39630
#
# Static dielectric constant tensor:
#      x y z
#    x 1.796750 0.000000 -0.000860 
#    y 0.000000 1.856360 0.000000 
#    z -0.000860 0.000000 1.809830 
# 
# From -- ./inp_files/19414.got.cif
#   From: 2010.05.17/outbox.cif.g08.bks.cpg/sg11_10_cif.got.tgz:19414.got - 2010.06.03 12:22:45.
