data_PCOD9160828
_publ_section_title
;
Structure prediction by ZEFSAII (Michael W. Deem and Ramdas Pophale) SiO2 
 PCOD9160828
Probable space group: P 21/M
;
_chemical_formula_sum "Si O2"
_cell_formula_units_Z 32
_cell_length_a 14.679455
_cell_length_b 14.096978
_cell_length_c 8.875726
_cell_angle_alpha 90.000000
_cell_angle_beta 118.428563
_cell_angle_gamma 90.000000
_cell_volume 1615.220843
_symmetry_space_group_name_H-M "P 21/M"
_symmetry_group_IT_number 11
_symmetry_cell_setting 'monoclinic'
loop_
_space_group_symop_operation_xyz
x,y,z
-x,1/2+y,-z
-x,-y,-z
x,1/2-y,z
loop_
_atom_site_type_symbol
_atom_site_label
_atom_site_fract_x
_atom_site_fract_y
_atom_site_fract_z
Si Si1 0.739236 0.856535 0.698690
Si Si2 0.104372 0.483421 0.674177
Si Si3 0.563981 0.409451 0.106183
Si Si4 0.646302 0.648210 0.936127
Si Si5 0.173002 0.864001 0.210485
Si Si6 0.063018 0.363561 0.941822
Si Si7 0.732338 0.434327 0.020681
Si Si8 0.261972 0.510761 0.542391
O O1 0.756725 0.750000 0.655340
O O2 0.653668 0.853132 0.761705
O O3 0.706372 0.928013 0.545384
O O4 0.845591 0.888216 0.867990
O O5 0.081806 0.411928 0.794420
O O6 0.160158 0.572557 0.801831
O O7 0.187573 0.462872 0.608274
O O8 0.000000 0.500000 0.500000
O O9 0.469851 0.348697 0.094841
O O10 0.639298 0.378208 0.028839
O O11 0.642592 0.440673 0.298581
O O12 0.500000 0.500000 0.000000
O O13 0.697765 0.750000 0.022600
O O14 0.699297 0.546312 0.014639
O O15 0.183349 0.750000 0.223700
O O16 0.204364 0.911668 0.393342
O O17 0.051574 0.887758 0.089092
O O18 0.243423 0.904979 0.130312
O O19 0.067314 0.250000 0.927309
#
# Coordination Sequence:
#
# PCOD9160828 Si02
#       8
#     4   4   4   4   4   4   4   4
#     4  10  21  38  63  94 121 155 202 251 302 356
#     4  11  21  34  58  87 119 162 200 242 304 352
#     4   9  22  41  60  87 117 156 197 245 310 366
#     4  10  19  37  66  88 113 154 199 249 312 359
#     4  11  23  39  60  87 122 168 204 245 299 356
#     4  10  21  38  59  87 127 167 204 241 294 363
#     4  10  21  40  60  89 121 158 205 253 298 364
#     4  11  22  38  62  87 123 156 198 257 297 360
#
# _framework density 19.811534000000002
#
# number of rings (size 3 to 8) (size 9 to 14) (size 15 to 20)
#    0.000    1.750    3.750    0.000    1.750    3.000 
#    0.000    7.500    0.000    0.000    0.000    0.000 
#    0.000    0.000    0.000    0.000    0.000    0.000 
#
# Total GULP energy -178255.032670 kJ/mol
# GULP energy per Si atom -5570.469771 kJ/mol
# Density = 1.976644 g / cm^3
# Si number density = 19.811534 Si / 1000 Ang^3
#
#
#
# Elastic Constant Matrix: (Units=GPa)
#
#
# Indices 1 2 3 4 5 6 
#
# 1 135.0780 32.4994 31.9766 0.0000 -12.2201 0.0000
# 2 32.4994 72.4173 4.3677 0.0000 -8.5472 0.0000
# 3 31.9766 4.3677 47.5312 0.0000 -14.4835 0.0000
# 4 0.0000 0.0000 0.0000 2.0416 0.0000 5.3836
# 5 -12.2201 -8.5472 -14.4835 0.0000 28.3940 0.0000
# 6 0.0000 0.0000 0.0000 5.3836 0.0000 21.0260
#
#
#
# Elastic Compliance Matrix: (Units=1/GPa)
#
#
# Indices 1 2 3 4 5 6 
#
# 1 0.009860 -0.004068 -0.006322 0.000000 -0.000206 0.000000
# 2 -0.004068 0.015996 0.002606 0.000000 0.004393 0.000000
# 3 -0.006322 0.002606 0.028965 0.000000 0.012838 0.000000
# 4 0.000000 0.000000 0.000000 1.508001 0.000000 -0.386116
# 5 -0.000206 0.004393 0.012838 0.000000 0.043001 0.000000
# 6 0.000000 0.000000 0.000000 -0.386116 0.000000 0.146423
#
#
# Mechanical properties :
#
#
# Convention : Reuss Voigt Hill
#
# Bulk Modulus (GPa) = 25.47693 43.63488 34.55591
# Shear Modulus (GPa) = 2.80757 22.70450 12.75603
#
# Velocity S-wave (km/s) = 1.19173 3.38897 2.54021
# Velocity P-wave (km/s) = 3.84463 6.11443 5.10722
#
# Compressibility (1/GPa) = 0.03925120
#
# Stress axis : x y z
#
# Youngs Moduli (GPa) = 101.42138 62.51622 34.52497
#
# Poissons Ratio (x) = 0.25431 0.21827
# Poissons Ratio (y) = 0.41257 -0.08996
# Poissons Ratio (z) = 0.64120 -0.16289
#
# Static dielectric constant tensor:
#      x y z
#    x 1.665800 0.000000 -0.060510 
#    y 0.000000 1.742550 0.000000 
#    z -0.060510 0.000000 1.639900 
# 
# From -- ./inp_files/22198.got.cif
#   From: 2010.05.17/outbox.cif.g08.bks.cpg/sg11_12_cif.got.tgz:22198.got - 2010.06.03 12:22:45.
