data_PCOD9160141
_publ_section_title
;
Structure prediction by ZEFSAII (Michael W. Deem and Ramdas Pophale) SiO2 
 PCOD9160141
Probable space group: P 21/M
;
_chemical_formula_sum "Si O2"
_cell_formula_units_Z 32
_cell_length_a 15.047132
_cell_length_b 7.485022
_cell_length_c 12.582518
_cell_angle_alpha 90.000000
_cell_angle_beta 75.017281
_cell_angle_gamma 90.000000
_cell_volume 1368.967782
_symmetry_space_group_name_H-M "P 21/M"
_symmetry_group_IT_number 11
_symmetry_cell_setting 'monoclinic'
loop_
_space_group_symop_operation_xyz
x,y,z
-x,1/2+y,-z
-x,-y,-z
x,1/2-y,z
loop_
_atom_site_type_symbol
_atom_site_label
_atom_site_fract_x
_atom_site_fract_y
_atom_site_fract_z
Si Si1 0.945949 0.460583 0.249764
Si Si2 0.606193 0.945333 0.475422
Si Si3 0.134859 0.964785 0.934552
Si Si4 0.898383 0.545091 0.645088
Si Si5 0.784538 0.467462 0.875210
Si Si6 0.407099 0.962836 0.967942
Si Si7 0.200055 0.031974 0.533323
Si Si8 0.663225 0.035782 0.226412
O O1 0.966763 0.250000 0.232354
O O2 0.935309 0.535066 0.133268
O O3 0.849463 0.477190 0.342211
O O4 0.020431 0.539463 0.308842
O O5 0.601492 0.750000 0.526259
O O6 0.694368 0.035406 0.505463
O O7 0.500000 0.000000 0.500000
O O8 0.641441 0.944586 0.343311
O O9 0.123580 0.750000 0.942511
O O10 0.235603 0.997487 0.852239
O O11 0.145034 0.027162 0.052790
O O12 0.925746 0.750000 0.613999
O O13 0.813828 0.540218 0.753018
O O14 0.863827 0.468204 0.544464
O O15 0.786843 0.250000 0.870541
O O16 0.683272 0.527142 0.941992
O O17 0.394934 0.750000 0.964429
O O18 0.404440 0.025218 0.847064
O O19 0.500000 0.000000 0.000000
O O20 0.202163 0.250000 0.530383
O O21 0.654912 0.250000 0.246662
#
# Coordination Sequence:
#
# PCOD9160141 Si02
#       8
#     4   4   4   4   4   4   4   4
#     4  10  19  34  60  85 105 141 188 224 266 329
#     4  11  23  37  55  80 108 141 181 227 279 330
#     4   8  15  31  56  80 104 136 175 222 266 312
#     4  10  22  37  53  80 116 148 180 223 273 325
#     4   9  19  36  54  76 109 146 182 220 270 325
#     4   9  19  34  55  81 107 141 182 225 274 327
#     4  10  22  39  55  77 113 146 178 228 280 323
#     4   9  17  34  56  76 104 140 176 221 275 322
#
# _framework density 23.375275999999999
#
# number of rings (size 3 to 8) (size 9 to 14) (size 15 to 20)
#    0.000    2.500    1.250    2.250    0.000    4.000 
#    0.000    6.250    0.000    0.000    0.000    0.000 
#    0.000    0.000    0.000    0.000    0.000    0.000 
#
# Total GULP energy -178582.860348 kJ/mol
# GULP energy per Si atom -5580.714386 kJ/mol
# Density = 2.332207 g / cm^3
# Si number density = 23.375276 Si / 1000 Ang^3
#
#
#
# Elastic Constant Matrix: (Units=GPa)
#
#
# Indices 1 2 3 4 5 6 
#
# 1 104.6348 1.0664 -1.2691 0.0000 21.8912 0.0000
# 2 1.0664 65.8137 -10.5264 0.0000 0.8080 0.0000
# 3 -1.2691 -10.5264 80.6168 0.0000 22.3875 0.0000
# 4 0.0000 0.0000 0.0000 8.6406 0.0000 -7.7785
# 5 21.8912 0.8080 22.3875 0.0000 44.7823 0.0000
# 6 0.0000 0.0000 0.0000 -7.7785 0.0000 13.9002
#
#
#
# Elastic Compliance Matrix: (Units=1/GPa)
#
#
# Indices 1 2 3 4 5 6 
#
# 1 0.010898 0.000213 0.001951 0.000000 -0.006306 0.000000
# 2 0.000213 0.015610 0.002495 0.000000 -0.001633 0.000000
# 3 0.001951 0.002495 0.015140 0.000000 -0.008567 0.000000
# 4 0.000000 0.000000 0.000000 0.233221 0.000000 0.130509
# 5 -0.006306 -0.001633 -0.008567 0.000000 0.029725 0.000000
# 6 0.000000 0.000000 0.000000 0.130509 0.000000 0.144974
#
#
# Mechanical properties :
#
#
# Convention : Reuss Voigt Hill
#
# Bulk Modulus (GPa) = 19.62124 25.51188 22.56656
# Shear Modulus (GPa) = 10.93520 30.91759 20.92639
#
# Velocity S-wave (km/s) = 2.16524 3.64079 2.99530
# Velocity P-wave (km/s) = 3.82926 5.34897 4.65160
#
# Compressibility (1/GPa) = 0.05096517
#
# Stress axis : x y z
#
# Youngs Moduli (GPa) = 91.76065 64.06116 66.05007
#
# Poissons Ratio (x) = -0.01363 -0.12884
# Poissons Ratio (y) = -0.01953 -0.16480
# Poissons Ratio (z) = -0.17899 -0.15984
#
# Static dielectric constant tensor:
#      x y z
#    x 1.957410 0.000000 0.045430 
#    y 0.000000 1.992190 0.000000 
#    z 0.045430 0.000000 1.857150 
# 
# From -- ./inp_files/38115.got.cif
#   From: 2010.05.17/outbox.cif.g08.bks.cpg/sg11_20_cif.got.tgz:38115.got - 2010.06.03 12:22:45.
