data_PCOD9160160
_publ_section_title
;
Structure prediction by ZEFSAII (Michael W. Deem and Ramdas Pophale) SiO2 
 PCOD9160160
Probable space group: P 21/M
;
_chemical_formula_sum "Si O2"
_cell_formula_units_Z 32
_cell_length_a 12.949335
_cell_length_b 9.018233
_cell_length_c 14.919416
_cell_angle_alpha 90.000000
_cell_angle_beta 78.314385
_cell_angle_gamma 90.000000
_cell_volume 1706.179931
_symmetry_space_group_name_H-M "P 21/M"
_symmetry_group_IT_number 11
_symmetry_cell_setting 'monoclinic'
loop_
_space_group_symop_operation_xyz
x,y,z
-x,1/2+y,-z
-x,-y,-z
x,1/2-y,z
loop_
_atom_site_type_symbol
_atom_site_label
_atom_site_fract_x
_atom_site_fract_y
_atom_site_fract_z
Si Si1 0.219843 0.421811 0.170067
Si Si2 0.692785 0.927785 0.378329
Si Si3 0.531593 0.577470 0.902653
Si Si4 0.890624 0.074338 0.647720
Si Si5 0.503893 0.927634 0.275646
Si Si6 0.916590 0.428226 0.295543
Si Si7 0.694614 0.071144 0.568133
Si Si8 0.027114 0.075151 0.088354
O O1 0.196875 0.250000 0.202492
O O2 0.342262 0.435161 0.130055
O O3 0.180180 0.532251 0.253357
O O4 0.148447 0.449434 0.095488
O O5 0.702409 0.750000 0.380063
O O6 0.599330 0.965266 0.325661
O O7 0.803086 0.000247 0.329907
O O8 0.667554 0.991689 0.480656
O O9 0.503071 0.750000 0.910757
O O10 0.483850 0.503029 0.822525
O O11 0.500000 0.500000 0.000000
O O12 0.910608 0.250000 0.640497
O O13 0.813330 0.032730 0.579371
O O14 0.999178 0.987828 0.646108
O O15 0.502208 0.750000 0.264271
O O16 0.392905 0.970216 0.342135
O O17 0.911434 0.250000 0.301993
O O18 0.961102 0.470562 0.188739
O O19 0.690266 0.250000 0.558281
O O20 0.010008 0.250000 0.080996
O O21 0.000000 0.000000 0.000000
#
# Coordination Sequence:
#
# PCOD9160160 Si02
#       8
#     4   4   4   4   4   4   4   4
#     4   9  19  36  55  79 112 149 189 237 291 344
#     4  11  24  39  60  88 120 159 201 246 298 357
#     4  11  23  38  60  88 118 156 200 247 301 355
#     4  10  19  34  61  89 113 148 193 240 292 350
#     4  10  22  42  62  86 121 157 199 251 300 353
#     4  10  22  40  58  81 120 158 195 244 297 352
#     4  10  21  38  62  89 119 155 196 245 302 360
#     4   9  19  35  56  81 108 144 188 234 286 345
#
# _framework density 18.755348999999999
#
# number of rings (size 3 to 8) (size 9 to 14) (size 15 to 20)
#    0.000    2.000    1.250    2.625    0.000    7.000 
#    0.000    3.750    0.000    0.000    0.000    0.000 
#    0.000    0.000    0.000    0.000    0.000    0.000 
#
# Total GULP energy -178663.427218 kJ/mol
# GULP energy per Si atom -5583.232101 kJ/mol
# Density = 1.871266 g / cm^3
# Si number density = 18.755349 Si / 1000 Ang^3
#
#
#
# Elastic Constant Matrix: (Units=GPa)
#
#
# Indices 1 2 3 4 5 6 
#
# 1 93.6171 36.0232 46.1528 0.0000 17.4391 0.0000
# 2 36.0232 38.2017 47.6202 0.0000 11.1793 0.0000
# 3 46.1528 47.6202 121.7903 0.0000 25.0985 0.0000
# 4 0.0000 0.0000 0.0000 35.1761 0.0000 -0.1217
# 5 17.4391 11.1793 25.0985 0.0000 27.0405 0.0000
# 6 0.0000 0.0000 0.0000 -0.1217 0.0000 26.7156
#
#
#
# Elastic Compliance Matrix: (Units=1/GPa)
#
#
# Indices 1 2 3 4 5 6 
#
# 1 0.017368 -0.015573 0.000605 0.000000 -0.005324 0.000000
# 2 -0.015573 0.065255 -0.019937 0.000000 0.001570 0.000000
# 3 0.000605 -0.019937 0.017508 0.000000 -0.008398 0.000000
# 4 0.000000 0.000000 0.000000 0.028429 0.000000 0.000130
# 5 -0.005324 0.001570 -0.008398 0.000000 0.047560 0.000000
# 6 0.000000 0.000000 0.000000 0.000130 0.000000 0.037432
#
#
# Mechanical properties :
#
#
# Convention : Reuss Voigt Hill
#
# Bulk Modulus (GPa) = 32.98217 57.02239 45.00228
# Shear Modulus (GPa) = 17.03760 26.04062 21.53911
#
# Velocity S-wave (km/s) = 3.01726 3.73022 3.39252
# Velocity P-wave (km/s) = 5.45547 7.00157 6.27631
#
# Compressibility (1/GPa) = 0.03031941
#
# Stress axis : x y z
#
# Youngs Moduli (GPa) = 57.57738 15.32458 57.11802
#
# Poissons Ratio (x) = 0.23865 -0.03454
# Poissons Ratio (y) = 0.89667 1.13875
# Poissons Ratio (z) = -0.03482 0.30552
#
# Static dielectric constant tensor:
#      x y z
#    x 1.653630 0.000000 0.000460 
#    y 0.000000 1.631340 0.000000 
#    z 0.000460 0.000000 1.633670 
# 
# From -- ./inp_files/42877.got.cif
#   From: 2010.05.17/outbox.cif.g08.bks.cpg/sg11_22_cif.got.tgz:42877.got - 2010.06.03 12:22:45.
