data_PCOD9160698
_publ_section_title
;
Structure prediction by ZEFSAII (Michael W. Deem and Ramdas Pophale) SiO2 
 PCOD9160698
Probable space group: P 21/M
;
_chemical_formula_sum "Si O2"
_cell_formula_units_Z 24
_cell_length_a 15.185260
_cell_length_b 14.980586
_cell_length_c 10.321524
_cell_angle_alpha 90.000000
_cell_angle_beta 28.647427
_cell_angle_gamma 90.000000
_cell_volume 1125.666146
_symmetry_space_group_name_H-M "P 21/M"
_symmetry_group_IT_number 11
_symmetry_cell_setting 'monoclinic'
loop_
_space_group_symop_operation_xyz
x,y,z
-x,1/2+y,-z
-x,-y,-z
x,1/2-y,z
loop_
_atom_site_type_symbol
_atom_site_label
_atom_site_fract_x
_atom_site_fract_y
_atom_site_fract_z
Si Si1 0.117406 0.648885 0.147774
Si Si2 0.897371 0.859294 0.190058
Si Si3 0.444223 0.141750 0.781413
Si Si4 0.484811 0.140707 0.427755
Si Si5 0.964387 0.904420 0.606835
Si Si6 0.169853 0.641751 0.604510
O O1 0.145774 0.750000 0.062670
O O2 0.321068 0.608117 0.879687
O O3 0.978169 0.608119 0.222583
O O4 0.034364 0.654381 0.396904
O O5 0.886766 0.750000 0.205055
O O6 0.038632 0.884114 0.893814
O O7 0.693973 0.891858 0.418073
O O8 0.439809 0.250000 0.789144
O O9 0.248320 0.110212 0.085968
O O10 0.471087 0.115888 0.596464
O O11 0.621824 0.113094 0.634532
O O12 0.478595 0.250000 0.429580
O O13 0.082612 0.889786 0.583093
O O14 0.000000 0.000000 0.500000
O O15 0.168760 0.750000 0.602286
#
# Coordination Sequence:
#
# PCOD9160698 Si02
#       6
#     4   4   4   4   4   4
#     4  10  20  36  58  88 116 140 186 254 298 328
#     4   9  16  30  59  91 112 135 181 245 301 342
#     4  10  19  36  65  90 109 147 200 248 293 347
#     4   9  16  30  59  91 112 135 181 245 301 342
#     4  12  26  40  54  82 127 170 195 230 287 352
#     4  10  19  36  65  90 109 147 200 248 293 347
#
# _framework density 21.320709000000001
#
# number of rings (size 3 to 8) (size 9 to 14) (size 15 to 20)
#    0.000    2.000    3.333    1.500    0.000    2.000 
#    0.000    5.000    0.000    0.000    0.000    0.000 
#    0.000    0.000    0.000    0.000    0.000    0.000 
#
# Total GULP energy -134066.171928 kJ/mol
# GULP energy per Si atom -5586.090497 kJ/mol
# Density = 2.127218 g / cm^3
# Si number density = 21.320709 Si / 1000 Ang^3
#
#
#
# Elastic Constant Matrix: (Units=GPa)
#
#
# Indices 1 2 3 4 5 6 
#
# 1 226.2590 15.4538 83.2232 0.0000 -18.7881 0.0000
# 2 15.4538 37.4180 11.4875 0.0000 -4.0401 0.0000
# 3 83.2232 11.4875 177.3310 0.0000 -30.9863 0.0000
# 4 0.0000 0.0000 0.0000 -14.4687 0.0000 49.0632
# 5 -18.7881 -4.0401 -30.9863 0.0000 49.8599 0.0000
# 6 0.0000 0.0000 0.0000 49.0632 0.0000 -62.7704
#
#
#
# Elastic Compliance Matrix: (Units=1/GPa)
#
#
# Indices 1 2 3 4 5 6 
#
# 1 0.005431 -0.001465 -0.002375 0.000000 0.000452 0.000000
# 2 -0.001465 0.027732 -0.000912 0.000000 0.001128 0.000000
# 3 -0.002375 -0.000912 0.007453 0.000000 0.003663 0.000000
# 4 0.000000 0.000000 0.000000 0.041875 0.000000 0.032731
# 5 0.000452 0.001128 0.003663 0.000000 0.022594 0.000000
# 6 0.000000 0.000000 0.000000 0.032731 0.000000 0.009652
#
#
# Mechanical properties :
#
#
# Convention : Reuss Voigt Hill
#
# Bulk Modulus (GPa) = 32.14173 73.48190 52.81181
# Shear Modulus (GPa) = 37.14397 16.58040 26.86219
#
# Velocity S-wave (km/s) = 4.17844 2.79169 3.55337
# Velocity P-wave (km/s) = 6.19574 6.70308 6.45440
#
# Compressibility (1/GPa) = 0.03111221
#
# Stress axis : x y z
#
# Youngs Moduli (GPa) = 184.13369 36.05953 134.17701
#
# Poissons Ratio (x) = 0.05283 0.31866
# Poissons Ratio (y) = 0.26977 0.12233
# Poissons Ratio (z) = 0.43730 0.03288
#
# Static dielectric constant tensor:
#      x y z
#    x 1.754540 0.000000 -0.021490 
#    y 0.000000 1.597200 0.000000 
#    z -0.021490 0.000000 1.733380 
# 
# From -- ./inp_files/22666.got.cif
#   From: 2010.05.17/outbox.cif.g08.bks.cpg/sg11_12_cif.got.tgz:22666.got - 2010.06.03 12:22:45.
