data_PCOD9160674
_publ_section_title
;
Structure prediction by ZEFSAII (Michael W. Deem and Ramdas Pophale) SiO2 
 PCOD9160674
Probable space group: P 21/M
;
_chemical_formula_sum "Si O2"
_cell_formula_units_Z 28
_cell_length_a 13.421204
_cell_length_b 17.297796
_cell_length_c 8.808794
_cell_angle_alpha 90.000000
_cell_angle_beta 137.655463
_cell_angle_gamma 90.000000
_cell_volume 1377.502998
_symmetry_space_group_name_H-M "P 21/M"
_symmetry_group_IT_number 11
_symmetry_cell_setting 'monoclinic'
loop_
_space_group_symop_operation_xyz
x,y,z
-x,1/2+y,-z
-x,-y,-z
x,1/2-y,z
loop_
_atom_site_type_symbol
_atom_site_label
_atom_site_fract_x
_atom_site_fract_y
_atom_site_fract_z
Si Si1 0.374510 0.657864 0.754539
Si Si2 0.098684 0.994118 0.760956
Si Si3 0.401238 0.436973 0.177517
Si Si4 0.880066 0.077540 0.723985
Si Si5 0.833629 0.341779 0.987024
Si Si6 0.665804 0.555606 0.559045
Si Si7 0.465908 0.840861 0.190972
O O1 0.355968 0.750000 0.727150
O O2 0.517786 0.630759 0.821299
O O3 0.232947 0.616856 0.521606
O O4 0.399254 0.632185 0.955823
O O5 0.026550 0.052510 0.802448
O O6 0.267254 0.023573 0.935788
O O7 0.000000 0.000000 0.500000
O O8 0.097573 0.906038 0.823005
O O9 0.529185 0.499145 0.360014
O O10 0.344754 0.415498 0.281183
O O11 0.882908 0.132666 0.874273
O O12 0.808285 0.996264 0.696003
O O13 0.861337 0.250000 0.046568
O O14 0.655968 0.354890 0.813003
O O15 0.627206 0.625580 0.405764
O O16 0.478688 0.750000 0.192411
#
# Coordination Sequence:
#
# PCOD9160674 Si02
#       7
#     4   4   4   4   4   4   4
#     4  10  22  39  61  95 128 166 215 272 324 379
#     4  12  25  42  65  98 130 177 213 265 325 398
#     4  10  21  38  62  89 124 159 211 261 316 375
#     4  11  23  38  67  91 125 167 216 263 323 390
#     4  11  22  42  66  91 126 169 218 269 318 382
#     4  10  19  36  62  91 118 156 211 269 303 373
#     4  10  20  35  61  92 125 163 210 265 325 374
#
# _framework density 20.326635
#
# number of rings (size 3 to 8) (size 9 to 14) (size 15 to 20)
#    0.000    1.429    2.857    3.429    2.000    2.857 
#    0.000    3.571    0.000    0.000    0.000    0.000 
#    0.000    0.000    0.000    0.000    0.000    0.000 
#
# Total GULP energy -156285.916017 kJ/mol
# GULP energy per Si atom -5581.639858 kJ/mol
# Density = 2.028037 g / cm^3
# Si number density = 20.326635 Si / 1000 Ang^3
#
#
#
# Elastic Constant Matrix: (Units=GPa)
#
#
# Indices 1 2 3 4 5 6 
#
# 1 56.2122 23.2639 2.3732 0.0000 5.1856 0.0000
# 2 23.2639 84.8036 26.1219 0.0000 -0.3611 0.0000
# 3 2.3732 26.1219 88.5699 0.0000 -4.3807 0.0000
# 4 0.0000 0.0000 0.0000 33.7217 0.0000 -4.8883
# 5 5.1856 -0.3611 -4.3807 0.0000 23.3458 0.0000
# 6 0.0000 0.0000 0.0000 -4.8883 0.0000 27.0125
#
#
#
# Elastic Compliance Matrix: (Units=1/GPa)
#
#
# Indices 1 2 3 4 5 6 
#
# 1 0.020640 -0.005986 0.000990 0.000000 -0.004491 0.000000
# 2 -0.005986 0.014713 -0.004140 0.000000 0.000780 0.000000
# 3 0.000990 -0.004140 0.012588 0.000000 0.002078 0.000000
# 4 0.000000 0.000000 0.000000 0.030453 0.000000 0.005511
# 5 -0.004491 0.000780 0.002078 0.000000 0.044234 0.000000
# 6 0.000000 0.000000 0.000000 0.005511 0.000000 0.038017
#
#
# Mechanical properties :
#
#
# Convention : Reuss Voigt Hill
#
# Bulk Modulus (GPa) = 33.70626 37.01153 35.35890
# Shear Modulus (GPa) = 26.48220 28.67113 27.57666
#
# Velocity S-wave (km/s) = 3.61339 3.75976 3.68730
# Velocity P-wave (km/s) = 5.83328 6.09062 5.96334
#
# Compressibility (1/GPa) = 0.02966808
#
# Stress axis : x y z
#
# Youngs Moduli (GPa) = 48.45041 67.96831 79.44178
#
# Poissons Ratio (x) = 0.40687 -0.07867
# Poissons Ratio (y) = 0.29003 0.32891
# Poissons Ratio (z) = -0.04798 0.28140
#
# Static dielectric constant tensor:
#      x y z
#    x 1.752350 0.000000 -0.003580 
#    y 0.000000 1.741980 0.000000 
#    z -0.003580 0.000000 1.752120 
# 
# From -- ./inp_files/22769.got.cif
#   From: 2010.05.17/outbox.cif.g08.bks.cpg/sg11_12_cif.got.tgz:22769.got - 2010.06.03 12:22:45.
