data_PCOD9160329
_publ_section_title
;
Structure prediction by ZEFSAII (Michael W. Deem and Ramdas Pophale) SiO2 
 PCOD9160329
Probable space group: P 21/M
;
_chemical_formula_sum "Si O2"
_cell_formula_units_Z 32
_cell_length_a 26.339800
_cell_length_b 8.568586
_cell_length_c 20.949654
_cell_angle_alpha 90.000000
_cell_angle_beta 159.831324
_cell_angle_gamma 90.000000
_cell_volume 1630.222696
_symmetry_space_group_name_H-M "P 21/M"
_symmetry_group_IT_number 11
_symmetry_cell_setting 'monoclinic'
loop_
_space_group_symop_operation_xyz
x,y,z
-x,1/2+y,-z
-x,-y,-z
x,1/2-y,z
loop_
_atom_site_type_symbol
_atom_site_label
_atom_site_fract_x
_atom_site_fract_y
_atom_site_fract_z
Si Si1 0.226482 0.061508 0.461589
Si Si2 0.501694 0.062739 0.701058
Si Si3 0.088566 0.067084 0.929367
Si Si4 0.165193 0.938448 0.883508
Si Si5 0.596462 0.437451 0.671816
Si Si6 0.336432 0.062150 0.731460
Si Si7 0.662335 0.567761 0.122618
Si Si8 0.095310 0.569422 0.668009
O O1 0.223056 0.250000 0.456446
O O2 0.365829 0.005202 0.583540
O O3 0.248858 0.018796 0.563358
O O4 0.074021 0.001583 0.251519
O O5 0.482490 0.250000 0.674410
O O6 0.525848 0.007205 0.656385
O O7 0.660556 0.036264 0.920531
O O8 0.088735 0.250000 0.942353
O O9 0.116063 0.028427 0.887581
O O10 0.233433 0.991918 0.132569
O O11 0.143949 0.750000 0.868151
O O12 0.080831 0.995402 0.721667
O O13 0.500000 0.500000 0.500000
O O14 0.596078 0.250000 0.672418
O O15 0.363065 0.250000 0.759224
O O16 0.277737 0.036207 0.734489
O O17 0.490264 0.970276 0.915034
O O18 0.689502 0.750000 0.141055
O O19 0.740908 0.459866 0.164000
O O20 0.062762 0.750000 0.634941
O O21 0.000000 0.500000 0.500000
#
# Coordination Sequence:
#
# PCOD9160329 Si02
#       8
#     4   4   4   4   4   4   4   4
#     4  10  19  35  58  82 112 150 191 232 283 339
#     4   8  16  33  60  87 108 140 189 233 273 330
#     4  11  23  37  56  88 122 151 188 233 283 337
#     4   9  19  38  59  77 104 147 195 239 286 346
#     4  10  20  39  65  92 120 154 192 228 274 332
#     4   9  19  34  54  75 101 142 186 230 283 344
#     4  10  20  34  50  74 104 137 184 235 289 347
#     4  11  23  36  52  73 103 141 187 239 293 344
#
# _framework density 19.629221000000001
#
# number of rings (size 3 to 8) (size 9 to 14) (size 15 to 20)
#    0.000    2.250    0.000    3.750    1.750    4.000 
#    0.000    3.750    0.000    0.000    0.000    0.000 
#    0.000    0.000    0.000    0.000    0.000    0.000 
#
# Total GULP energy -178450.531411 kJ/mol
# GULP energy per Si atom -5576.579107 kJ/mol
# Density = 1.958454 g / cm^3
# Si number density = 19.629221 Si / 1000 Ang^3
#
#
#
# Elastic Constant Matrix: (Units=GPa)
#
#
# Indices 1 2 3 4 5 6 
#
# 1 45.4243 7.2030 27.3259 0.0000 -10.6518 0.0000
# 2 7.2030 23.5438 15.9260 0.0000 -7.6624 0.0000
# 3 27.3259 15.9260 80.2878 0.0000 -13.8154 0.0000
# 4 0.0000 0.0000 0.0000 31.8633 0.0000 -0.8258
# 5 -10.6518 -7.6624 -13.8154 0.0000 37.7352 0.0000
# 6 0.0000 0.0000 0.0000 -0.8258 0.0000 17.9867
#
#
#
# Elastic Compliance Matrix: (Units=1/GPa)
#
#
# Indices 1 2 3 4 5 6 
#
# 1 0.028509 -0.001381 -0.008637 0.000000 0.004605 0.000000
# 2 -0.001381 0.050830 -0.008435 0.000000 0.006843 0.000000
# 3 -0.008637 -0.008435 0.017453 0.000000 0.002239 0.000000
# 4 0.000000 0.000000 0.000000 0.031421 0.000000 0.001443
# 5 0.004605 0.006843 0.002239 0.000000 0.030010 0.000000
# 6 0.000000 0.000000 0.000000 0.001443 0.000000 0.055663
#
#
# Mechanical properties :
#
#
# Convention : Reuss Voigt Hill
#
# Bulk Modulus (GPa) = 16.69834 27.79618 22.24726
# Shear Modulus (GPa) = 18.46698 24.10378 21.28538
#
# Velocity S-wave (km/s) = 3.07056 3.50802 3.29655
# Velocity P-wave (km/s) = 4.59309 5.53169 5.08410
#
# Compressibility (1/GPa) = 0.05988620
#
# Stress axis : x y z
#
# Youngs Moduli (GPa) = 35.07657 19.67358 57.29625
#
# Poissons Ratio (x) = 0.02717 0.49485
# Poissons Ratio (y) = 0.04844 0.48330
# Poissons Ratio (z) = 0.30294 0.16595
#
# Static dielectric constant tensor:
#      x y z
#    x 1.792910 0.000000 0.005780 
#    y 0.000000 1.676350 0.000000 
#    z 0.005780 0.000000 1.728460 
# 
# From -- ./inp_files/67183.got.cif
#   From: 2010.05.17/outbox.cif.g08.bks.cpg/sg11_34_cif.got.tgz:67183.got - 2010.06.03 12:22:45.
