data_PCOD9160645
_publ_section_title
;
Structure prediction by ZEFSAII (Michael W. Deem and Ramdas Pophale) SiO2 
 PCOD9160645
Probable space group: P 21/M
;
_chemical_formula_sum "Si O2"
_cell_formula_units_Z 32
_cell_length_a 11.591115
_cell_length_b 8.517344
_cell_length_c 31.817631
_cell_angle_alpha 90.000000
_cell_angle_beta 151.997093
_cell_angle_gamma 90.000000
_cell_volume 1474.850410
_symmetry_space_group_name_H-M "P 21/M"
_symmetry_group_IT_number 11
_symmetry_cell_setting 'monoclinic'
loop_
_space_group_symop_operation_xyz
x,y,z
-x,1/2+y,-z
-x,-y,-z
x,1/2-y,z
loop_
_atom_site_type_symbol
_atom_site_label
_atom_site_fract_x
_atom_site_fract_y
_atom_site_fract_z
Si Si1 0.714702 0.062596 0.983598
Si Si2 0.854771 0.934654 0.190960
Si Si3 0.929384 0.425149 0.299253
Si Si4 0.340893 0.429349 0.122320
Si Si5 0.034932 0.438916 0.463209
Si Si6 0.943933 0.939088 0.829390
Si Si7 0.500959 0.059845 0.260917
Si Si8 0.317681 0.929481 0.477535
O O1 0.727288 0.250000 0.986904
O O2 0.432869 0.018308 0.902912
O O3 0.776577 0.005714 0.956589
O O4 0.887857 0.010439 0.077083
O O5 0.865907 0.750000 0.205116
O O6 0.985571 0.034022 0.269303
O O7 0.973285 0.971191 0.184894
O O8 0.011825 0.250000 0.338125
O O9 0.635576 0.428074 0.208177
O O10 0.058781 0.550150 0.370157
O O11 0.252180 0.250000 0.096286
O O12 0.352091 0.502683 0.172408
O O13 0.044009 0.250000 0.467633
O O14 0.779814 0.488257 0.357953
O O15 0.000000 0.500000 0.500000
O O16 0.259317 0.495344 0.504902
O O17 0.973296 0.750000 0.833335
O O18 0.663725 0.971634 0.751575
O O19 0.505764 0.250000 0.256446
O O20 0.387414 0.750000 0.506604
O O21 0.500000 0.000000 0.500000
#
# Coordination Sequence:
#
# PCOD9160645 Si02
#       8
#     4   4   4   4   4   4   4   4
#     4   9  19  33  51  79 113 150 194 249 302 350
#     4  10  20  34  52  79 116 154 196 249 301 353
#     4  10  19  36  61  86 113 150 194 240 294 359
#     4   9  17  33  57  81 107 147 191 234 290 354
#     4  11  23  44  68  94 128 167 210 258 319 387
#     4  10  20  35  54  78 112 156 202 246 298 358
#     4   9  19  37  60  82 111 151 194 241 294 358
#     4  12  25  42  66  97 128 162 204 258 316 376
#
# _framework density 21.697116000000001
#
# number of rings (size 3 to 8) (size 9 to 14) (size 15 to 20)
#    0.000    2.000    1.250    2.625    0.000    3.000 
#    0.000    5.625    0.000    0.000    0.000    0.000 
#    0.000    0.000    0.000    0.000    0.000    0.000 
#
# Total GULP energy -178534.787673 kJ/mol
# GULP energy per Si atom -5579.212115 kJ/mol
# Density = 2.164773 g / cm^3
# Si number density = 21.697116 Si / 1000 Ang^3
#
#
#
# Elastic Constant Matrix: (Units=GPa)
#
#
# Indices 1 2 3 4 5 6 
#
# 1 165.3471 30.0850 23.5857 0.0000 -12.9663 0.0000
# 2 30.0850 40.1361 2.7461 0.0000 1.4677 0.0000
# 3 23.5857 2.7461 27.9818 0.0000 -10.9820 0.0000
# 4 0.0000 0.0000 0.0000 21.9690 0.0000 -8.5275
# 5 -12.9663 1.4677 -10.9820 0.0000 29.3642 0.0000
# 6 0.0000 0.0000 0.0000 -8.5275 0.0000 32.9077
#
#
#
# Elastic Compliance Matrix: (Units=1/GPa)
#
#
# Indices 1 2 3 4 5 6 
#
# 1 0.008005 -0.005689 -0.005497 0.000000 0.001763 0.000000
# 2 -0.005689 0.029290 0.000422 0.000000 -0.003818 0.000000
# 3 -0.005497 0.000422 0.046142 0.000000 0.014808 0.000000
# 4 0.000000 0.000000 0.000000 0.050609 0.000000 0.013115
# 5 0.001763 -0.003818 0.014808 0.000000 0.040563 0.000000
# 6 0.000000 0.000000 0.000000 0.013115 0.000000 0.033786
#
#
# Mechanical properties :
#
#
# Convention : Reuss Voigt Hill
#
# Bulk Modulus (GPa) = 16.15275 38.47760 27.31517
# Shear Modulus (GPa) = 19.95527 28.65139 24.30333
#
# Velocity S-wave (km/s) = 3.03598 3.63783 3.35045
# Velocity P-wave (km/s) = 4.44414 5.95127 5.25204
#
# Compressibility (1/GPa) = 0.06190897
#
# Stress axis : x y z
#
# Youngs Moduli (GPa) = 124.91492 34.14098 21.67244
#
# Poissons Ratio (x) = 0.19423 0.11914
# Poissons Ratio (y) = 0.71064 -0.00915
# Poissons Ratio (z) = 0.68671 -0.01442
#
# Static dielectric constant tensor:
#      x y z
#    x 1.834080 0.000000 0.010180 
#    y 0.000000 1.769910 0.000000 
#    z 0.010180 0.000000 1.806620 
# 
# From -- ./inp_files/73201.got.cif
#   From: 2010.05.17/outbox.cif.g08.bks.cpg/sg11_37_cif.got.tgz:73201.got - 2010.06.03 12:22:45.
