data_PCOD9160205
_publ_section_title
;
Structure prediction by ZEFSAII (Michael W. Deem and Ramdas Pophale) SiO2 
 PCOD9160205
Probable space group: P 21/M
;
_chemical_formula_sum "Si O2"
_cell_formula_units_Z 32
_cell_length_a 11.274239
_cell_length_b 26.246627
_cell_length_c 9.623404
_cell_angle_alpha 90.000000
_cell_angle_beta 151.760548
_cell_angle_gamma 90.000000
_cell_volume 1347.395751
_symmetry_space_group_name_H-M "P 21/M"
_symmetry_group_IT_number 11
_symmetry_cell_setting 'monoclinic'
loop_
_space_group_symop_operation_xyz
x,y,z
-x,1/2+y,-z
-x,-y,-z
x,1/2-y,z
loop_
_atom_site_type_symbol
_atom_site_label
_atom_site_fract_x
_atom_site_fract_y
_atom_site_fract_z
Si Si1 0.793947 0.193768 0.898167
Si Si2 0.543226 0.524087 0.841484
Si Si3 0.781689 0.029527 0.856252
Si Si4 0.762382 0.872370 0.997157
Si Si5 0.582559 0.882244 0.516637
Si Si6 0.821914 0.451849 0.322094
Si Si7 0.052264 0.102423 0.330255
Si Si8 0.237638 0.809175 0.461881
O O1 0.831816 0.250000 0.992051
O O2 0.505941 0.175328 0.597348
O O3 0.845033 0.193313 0.786212
O O4 0.933573 0.152317 0.136302
O O5 0.563857 0.504338 0.704612
O O6 0.730880 0.572651 0.037595
O O7 0.292317 0.549763 0.641713
O O8 0.594836 0.474374 0.990446
O O9 0.648125 0.082052 0.671377
O O10 0.939508 0.050931 0.149429
O O11 0.000000 0.000000 0.000000
O O12 0.771945 0.885082 0.840446
O O13 0.504267 0.839152 0.748847
O O14 0.006017 0.840038 0.289560
O O15 0.675850 0.898248 0.460711
O O16 0.961218 0.404336 0.393711
O O17 0.000000 0.500000 0.500000
O O18 0.262511 0.750000 0.533906
#
# Coordination Sequence:
#
# PCOD9160205 Si02
#       8
#     4   4   4   4   4   4   4   4
#     4   9  19  34  55  83 118 151 190 241 301 362
#     4  10  23  37  55  85 113 156 204 243 297 361
#     4  10  21  33  53  81 124 157 186 238 299 363
#     4  11  22  35  62  89 124 155 201 245 301 371
#     4  10  20  33  52  86 119 154 189 238 298 368
#     4  10  22  39  58  79 112 157 206 253 299 355
#     4  10  19  35  55  80 112 150 198 248 296 360
#     4  10  21  38  59  91 125 158 194 243 308 376
#
# _framework density 23.749517000000001
#
# number of rings (size 3 to 8) (size 9 to 14) (size 15 to 20)
#    0.000    2.000    1.250    1.875    5.250    5.000 
#    0.000    0.000    0.000    1.500    0.000    0.000 
#    0.000    0.000    0.000    0.000    0.000    0.000 
#
# Total GULP energy -178280.305525 kJ/mol
# GULP energy per Si atom -5571.259548 kJ/mol
# Density = 2.369546 g / cm^3
# Si number density = 23.749517 Si / 1000 Ang^3
#
#
#
# Elastic Constant Matrix: (Units=GPa)
#
#
# Indices 1 2 3 4 5 6 
#
# 1 111.2710 44.7815 27.6947 0.0000 27.8501 0.0000
# 2 44.7815 134.7554 22.2354 0.0000 9.7396 0.0000
# 3 27.6947 22.2354 43.9193 0.0000 14.3786 0.0000
# 4 0.0000 0.0000 0.0000 33.6399 0.0000 -4.6781
# 5 27.8501 9.7396 14.3786 0.0000 38.8695 0.0000
# 6 0.0000 0.0000 0.0000 -4.6781 0.0000 26.5862
#
#
#
# Elastic Compliance Matrix: (Units=1/GPa)
#
#
# Indices 1 2 3 4 5 6 
#
# 1 0.013078 -0.003119 -0.004387 0.000000 -0.006966 0.000000
# 2 -0.003119 0.008853 -0.002868 0.000000 0.001077 0.000000
# 3 -0.004387 -0.002868 0.029268 0.000000 -0.006965 0.000000
# 4 0.000000 0.000000 0.000000 0.030472 0.000000 0.005362
# 5 -0.006966 0.001077 -0.006965 0.000000 0.033025 0.000000
# 6 0.000000 0.000000 0.000000 0.005362 0.000000 0.038557
#
#
# Mechanical properties :
#
#
# Convention : Reuss Voigt Hill
#
# Bulk Modulus (GPa) = 32.84024 53.26318 43.05171
# Shear Modulus (GPa) = 27.15193 32.83473 29.99333
#
# Velocity S-wave (km/s) = 3.38488 3.72229 3.55759
# Velocity P-wave (km/s) = 5.39763 6.39919 5.91963
#
# Compressibility (1/GPa) = 0.03045045
#
# Stress axis : x y z
#
# Youngs Moduli (GPa) = 76.46714 112.96142 34.16743
#
# Poissons Ratio (x) = 0.35227 0.14990
# Poissons Ratio (y) = 0.23846 0.09799
# Poissons Ratio (z) = 0.33547 0.32398
#
# Static dielectric constant tensor:
#      x y z
#    x 2.052160 0.000000 0.016610 
#    y 0.000000 1.891910 0.000000 
#    z 0.016610 0.000000 2.069100 
# 
# From -- ./inp_files/36574.got.cif
#   From: 2010.05.17/outbox.cif.g08.bks.cpg/sg11_19_cif.got.tgz:36574.got - 2010.06.03 12:22:45.
