data_PCOD9160646
_publ_section_title
;
Structure prediction by ZEFSAII (Michael W. Deem and Ramdas Pophale) SiO2 
 PCOD9160646
Probable space group: P 21/M
;
_chemical_formula_sum "Si O2"
_cell_formula_units_Z 28
_cell_length_a 23.366989
_cell_length_b 8.799487
_cell_length_c 20.458804
_cell_angle_alpha 90.000000
_cell_angle_beta 160.213656
_cell_angle_gamma 90.000000
_cell_volume 1424.021502
_symmetry_space_group_name_H-M "P 21/M"
_symmetry_group_IT_number 11
_symmetry_cell_setting 'monoclinic'
loop_
_space_group_symop_operation_xyz
x,y,z
-x,1/2+y,-z
-x,-y,-z
x,1/2-y,z
loop_
_atom_site_type_symbol
_atom_site_label
_atom_site_fract_x
_atom_site_fract_y
_atom_site_fract_z
Si Si1 0.915189 0.576089 0.346598
Si Si2 0.341665 0.568235 0.631044
Si Si3 0.592013 0.066740 0.442555
Si Si4 0.952280 0.568427 0.239975
Si Si5 0.053398 0.432986 0.126949
Si Si6 0.758033 0.068777 0.912770
Si Si7 0.518599 0.924437 0.949850
O O1 0.976443 0.750000 0.410753
O O2 0.951192 0.510902 0.313451
O O3 0.000000 0.500000 0.500000
O O4 0.714552 0.574750 0.140947
O O5 0.375661 0.750000 0.669481
O O6 0.415541 0.514096 0.641724
O O7 0.417623 0.504994 0.780137
O O8 0.140758 0.547329 0.415112
O O9 0.598127 0.250000 0.450815
O O10 0.765750 0.001263 0.658047
O O11 0.422504 0.008021 0.294998
O O12 0.913883 0.750000 0.199732
O O13 0.822454 0.487100 0.052717
O O14 0.064999 0.250000 0.136966
O O15 0.000000 0.500000 0.000000
O O16 0.906248 0.473327 0.020985
O O17 0.739040 0.250000 0.891379
O O18 0.460646 0.750000 0.895066
O O19 0.500000 0.000000 0.000000
#
# Coordination Sequence:
#
# PCOD9160646 Si02
#       7
#     4   4   4   4   4   4   4
#     4  10  21  35  54  79 112 152 201 255 309 369
#     4   9  18  34  59  86 113 149 199 253 306 363
#     4  11  22  40  68  97 126 166 213 260 311 373
#     4  10  19  36  61  86 114 155 205 257 310 372
#     4  11  25  45  68  96 132 169 209 259 315 376
#     4  11  24  41  63  95 132 166 204 258 316 374
#     4  10  20  35  52  77 110 149 197 249 304 363
#
# _framework density 19.662624999999998
#
# number of rings (size 3 to 8) (size 9 to 14) (size 15 to 20)
#    0.000    1.714    1.429    3.000    0.000    6.857 
#    0.000    3.571    0.000    0.000    0.000    0.000 
#    0.000    0.000    0.000    0.000    0.000    0.000 
#
# Total GULP energy -156377.328512 kJ/mol
# GULP energy per Si atom -5584.904590 kJ/mol
# Density = 1.961787 g / cm^3
# Si number density = 19.662625 Si / 1000 Ang^3
#
#
#
# Elastic Constant Matrix: (Units=GPa)
#
#
# Indices 1 2 3 4 5 6 
#
# 1 107.4020 39.8448 69.4137 0.0000 -8.8701 0.0000
# 2 39.8448 48.5189 47.0320 0.0000 0.8200 0.0000
# 3 69.4137 47.0320 133.0328 0.0000 -13.0397 0.0000
# 4 0.0000 0.0000 0.0000 34.0742 0.0000 -2.6796
# 5 -8.8701 0.8200 -13.0397 0.0000 24.3844 0.0000
# 6 0.0000 0.0000 0.0000 -2.6796 0.0000 26.5491
#
#
#
# Elastic Compliance Matrix: (Units=1/GPa)
#
#
# Indices 1 2 3 4 5 6 
#
# 1 0.015910 -0.008206 -0.005072 0.000000 0.003351 0.000000
# 2 -0.008206 0.036895 -0.009684 0.000000 -0.009404 0.000000
# 3 -0.005072 -0.009684 0.014182 0.000000 0.006064 0.000000
# 4 0.000000 0.000000 0.000000 0.029583 0.000000 0.002986
# 5 0.003351 -0.009404 0.006064 0.000000 0.045788 0.000000
# 6 0.000000 0.000000 0.000000 0.002986 0.000000 0.037967
#
#
# Mechanical properties :
#
#
# Convention : Reuss Voigt Hill
#
# Bulk Modulus (GPa) = 47.47594 66.83719 57.15656
# Shear Modulus (GPa) = 21.43446 25.84575 23.64010
#
# Velocity S-wave (km/s) = 3.30527 3.62948 3.47116
# Velocity P-wave (km/s) = 6.22608 7.18540 6.72287
#
# Compressibility (1/GPa) = 0.02106330
#
# Stress axis : x y z
#
# Youngs Moduli (GPa) = 62.85477 27.10358 70.51428
#
# Poissons Ratio (x) = 0.22240 0.35764
# Poissons Ratio (y) = 0.51576 0.68288
# Poissons Ratio (z) = 0.31879 0.26248
#
# Static dielectric constant tensor:
#      x y z
#    x 1.704870 0.000000 -0.003320 
#    y 0.000000 1.683880 0.000000 
#    z -0.003320 0.000000 1.686930 
# 
# From -- ./inp_files/66746.got.cif
#   From: 2010.05.17/outbox.cif.g08.bks.cpg/sg11_34_cif.got.tgz:66746.got - 2010.06.03 12:22:45.
