data_PCOD9160515
_publ_section_title
;
Structure prediction by ZEFSAII (Michael W. Deem and Ramdas Pophale) SiO2 
 PCOD9160515
Probable space group: P 21/M
;
_chemical_formula_sum "Si O2"
_cell_formula_units_Z 28
_cell_length_a 9.812266
_cell_length_b 8.781575
_cell_length_c 25.556509
_cell_angle_alpha 90.000000
_cell_angle_beta 44.549429
_cell_angle_gamma 90.000000
_cell_volume 1544.848839
_symmetry_space_group_name_H-M "P 21/M"
_symmetry_group_IT_number 11
_symmetry_cell_setting 'monoclinic'
loop_
_space_group_symop_operation_xyz
x,y,z
-x,1/2+y,-z
-x,-y,-z
x,1/2-y,z
loop_
_atom_site_type_symbol
_atom_site_label
_atom_site_fract_x
_atom_site_fract_y
_atom_site_fract_z
Si Si1 0.275067 0.932563 0.214079
Si Si2 0.517394 0.932856 0.743815
Si Si3 0.111998 0.429086 0.818090
Si Si4 0.316466 0.933252 0.079951
Si Si5 0.520130 0.579881 0.549150
Si Si6 0.095875 0.921857 0.713056
Si Si7 0.213714 0.435353 0.429714
O O1 0.259535 0.750000 0.221245
O O2 0.322228 0.974190 0.140416
O O3 0.419927 0.993158 0.218456
O O4 0.068718 0.014544 0.280034
O O5 0.523277 0.750000 0.745600
O O6 0.670107 0.978755 0.655563
O O7 0.297721 0.984063 0.790167
O O8 0.130294 0.250000 0.824649
O O9 0.115176 0.460750 0.755236
O O10 0.889390 0.480372 0.890477
O O11 0.320406 0.750000 0.076861
O O12 0.500000 0.000000 0.000000
O O13 0.500000 0.500000 0.500000
O O14 0.595843 0.750000 0.519066
O O15 0.304384 0.587880 0.630582
O O16 0.654719 0.511345 0.557369
O O17 0.043750 0.750000 0.745716
O O18 0.206324 0.250000 0.431107
O O19 0.000000 0.500000 0.500000
#
# Coordination Sequence:
#
# PCOD9160515 Si02
#       7
#     4   4   4   4   4   4   4
#     4  10  22  38  57  87 119 148 188 237 284 337
#     4  11  22  39  60  84 115 153 197 241 286 346
#     4  10  20  36  59  87 115 148 188 233 282 336
#     4   9  20  38  61  89 120 149 185 230 278 337
#     4  10  22  38  54  77 109 143 187 240 286 339
#     4  10  19  36  57  79 108 146 190 238 283 336
#     4  10  23  41  56  79 113 150 193 241 292 342
#
# _framework density 18.124749000000001
#
# number of rings (size 3 to 8) (size 9 to 14) (size 15 to 20)
#    0.000    2.000    1.429    2.571    2.000    6.286 
#    0.000    0.714    0.000    0.000    0.000    0.000 
#    0.000    0.000    0.000    0.000    0.000    0.000 
#
# Total GULP energy -156017.640452 kJ/mol
# GULP energy per Si atom -5572.058588 kJ/mol
# Density = 1.808350 g / cm^3
# Si number density = 18.124749 Si / 1000 Ang^3
#
#
#
# Elastic Constant Matrix: (Units=GPa)
#
#
# Indices 1 2 3 4 5 6 
#
# 1 133.7300 26.5493 59.0125 0.0000 -15.7550 0.0000
# 2 26.5493 35.8929 30.3621 0.0000 -5.0533 0.0000
# 3 59.0125 30.3621 104.6950 0.0000 -21.6978 0.0000
# 4 0.0000 0.0000 0.0000 28.0832 0.0000 -5.3243
# 5 -15.7550 -5.0533 -21.6978 0.0000 25.0106 0.0000
# 6 0.0000 0.0000 0.0000 -5.3243 0.0000 30.3198
#
#
#
# Elastic Compliance Matrix: (Units=1/GPa)
#
#
# Indices 1 2 3 4 5 6 
#
# 1 0.010372 -0.003705 -0.004356 0.000000 0.002006 0.000000
# 2 -0.003705 0.038343 -0.009643 0.000000 -0.002953 0.000000
# 3 -0.004356 -0.009643 0.016863 0.000000 0.009937 0.000000
# 4 0.000000 0.000000 0.000000 0.036835 0.000000 0.006468
# 5 0.002006 -0.002953 0.009937 0.000000 0.049271 0.000000
# 6 0.000000 0.000000 0.000000 0.006468 0.000000 0.034118
#
#
# Mechanical properties :
#
#
# Convention : Reuss Voigt Hill
#
# Bulk Modulus (GPa) = 33.14635 56.24063 44.69349
# Shear Modulus (GPa) = 21.62024 27.24234 24.43129
#
# Velocity S-wave (km/s) = 3.45752 3.88112 3.67543
# Velocity P-wave (km/s) = 5.85379 7.15411 6.53636
#
# Compressibility (1/GPa) = 0.03016923
#
# Stress axis : x y z
#
# Youngs Moduli (GPa) = 96.41520 26.08069 59.30161
#
# Poissons Ratio (x) = 0.09662 0.25833
# Poissons Ratio (y) = 0.35717 0.57187
# Poissons Ratio (z) = 0.42000 0.25151
#
# Static dielectric constant tensor:
#      x y z
#    x 1.612890 0.000000 -0.018890 
#    y 0.000000 1.646250 0.000000 
#    z -0.018890 0.000000 1.629130 
# 
# From -- ./inp_files/28156.got.cif
#   From: 2010.05.17/outbox.cif.g08.bks.cpg/sg11_15_cif.got.tgz:28156.got - 2010.06.03 12:22:45.
