data_PCOD9160150
_publ_section_title
;
Structure prediction by ZEFSAII (Michael W. Deem and Ramdas Pophale) SiO2 
 PCOD9160150
Probable space group: P 21/M
;
_chemical_formula_sum "Si O2"
_cell_formula_units_Z 32
_cell_length_a 17.631428
_cell_length_b 15.988728
_cell_length_c 12.939206
_cell_angle_alpha 90.000000
_cell_angle_beta 26.992439
_cell_angle_gamma 90.000000
_cell_volume 1655.553791
_symmetry_space_group_name_H-M "P 21/M"
_symmetry_group_IT_number 11
_symmetry_cell_setting 'monoclinic'
loop_
_space_group_symop_operation_xyz
x,y,z
-x,1/2+y,-z
-x,-y,-z
x,1/2-y,z
loop_
_atom_site_type_symbol
_atom_site_label
_atom_site_fract_x
_atom_site_fract_y
_atom_site_fract_z
Si Si1 0.572610 0.657426 0.162349
Si Si2 0.309687 0.656331 0.952898
Si Si3 0.811358 0.098153 0.685607
Si Si4 0.191692 0.401850 0.305275
Si Si5 0.500834 0.000512 0.375828
Si Si6 0.927729 0.843669 0.334859
Si Si7 0.807606 0.157428 0.457429
Si Si8 0.877500 0.500513 0.245839
O O1 0.612590 0.750000 0.155377
O O2 0.593248 0.581246 0.217025
O O3 0.379266 0.657356 0.362169
O O4 0.682718 0.639802 0.927361
O O5 0.374420 0.750000 0.855508
O O6 0.413130 0.583476 0.773379
O O7 0.294568 0.639149 0.093782
O O8 0.120405 0.652274 0.138785
O O9 0.792827 0.139810 0.597093
O O10 0.005572 0.104156 0.483300
O O11 0.767430 0.000003 0.732567
O O12 0.182928 0.360856 0.428725
O O13 0.500000 0.000000 0.500000
O O14 0.311253 0.998044 0.566237
O O15 0.895656 0.750000 0.334272
O O16 0.900365 0.916519 0.286137
O O17 0.880598 0.250000 0.351424
O O18 0.903539 0.081239 0.286193
O O19 0.000000 0.500000 0.000000
#
# Coordination Sequence:
#
# PCOD9160150 Si02
#       8
#     4   4   4   4   4   4   4   4
#     4  10  22  39  59  85 117 153 191 235 290 347
#     4  10  21  38  60  87 120 156 192 235 290 346
#     4  10  19  34  60  90 120 152 189 233 285 345
#     4  10  19  34  60  90 120 152 189 233 285 345
#     4  11  24  41  61  84 114 152 199 247 294 345
#     4  10  21  38  60  87 120 156 192 235 290 346
#     4  10  22  39  59  85 117 153 191 235 290 347
#     4  11  24  41  61  84 114 152 199 247 294 345
#
# _framework density 19.328879000000001
#
# number of rings (size 3 to 8) (size 9 to 14) (size 15 to 20)
#    0.000    1.750    2.500    1.500    0.000    5.500 
#    0.000    2.500    0.000    0.000    0.000    0.000 
#    0.000    0.000    0.000    0.000    0.000    0.000 
#
# Total GULP energy -178786.116295 kJ/mol
# GULP energy per Si atom -5587.066134 kJ/mol
# Density = 1.928489 g / cm^3
# Si number density = 19.328879 Si / 1000 Ang^3
#
#
#
# Elastic Constant Matrix: (Units=GPa)
#
#
# Indices 1 2 3 4 5 6 
#
# 1 68.3967 59.3987 22.9556 0.0000 35.9448 0.0000
# 2 59.3987 208.5169 77.1131 0.0000 32.3877 0.0000
# 3 22.9556 77.1131 107.5405 0.0000 35.6064 0.0000
# 4 0.0000 0.0000 0.0000 8.8269 0.0000 -13.2443
# 5 35.9448 32.3877 35.6064 0.0000 31.9435 0.0000
# 6 0.0000 0.0000 0.0000 -13.2443 0.0000 16.0810
#
#
#
# Elastic Compliance Matrix: (Units=1/GPa)
#
#
# Indices 1 2 3 4 5 6 
#
# 1 0.061399 -0.013549 0.023673 0.000000 -0.081741 0.000000
# 2 -0.013549 0.009617 -0.009230 0.000000 0.015783 0.000000
# 3 0.023673 -0.009230 0.026287 0.000000 -0.046582 0.000000
# 4 0.000000 0.000000 0.000000 -0.480509 0.000000 -0.395747
# 5 -0.081741 0.015783 -0.046582 0.000000 0.159205 0.000000
# 6 0.000000 0.000000 0.000000 -0.395747 0.000000 -0.263753
#
#
# Mechanical properties :
#
#
# Convention : Reuss Voigt Hill
#
# Bulk Modulus (GPa) = 10.09159 78.15432 44.12295
# Shear Modulus (GPa) = -10.95261 26.36940 7.70839
#
# Velocity S-wave (km/s) = -2.38301 3.69758 1.99917
# Velocity P-wave (km/s) = 1.52949 7.66493 5.31093
#
# Compressibility (1/GPa) = 0.09909242
#
# Stress axis : x y z
#
# Youngs Moduli (GPa) = 16.28689 103.98114 38.04179
#
# Poissons Ratio (x) = 1.40882 -0.90057
# Poissons Ratio (y) = 0.22067 0.35111
# Poissons Ratio (z) = -0.38556 0.95972
#
# Static dielectric constant tensor:
#      x y z
#    x 1.634300 0.000000 -0.003580 
#    y 0.000000 1.654960 0.000000 
#    z -0.003580 0.000000 1.632400 
# 
# From -- ./inp_files/27817.got.cif
#   From: 2010.05.17/outbox.cif.g08.bks.cpg/sg11_14_cif.got.tgz:27817.got - 2010.06.03 12:22:45.
