data_PCOD9160526
_publ_section_title
;
Structure prediction by ZEFSAII (Michael W. Deem and Ramdas Pophale) SiO2 
 PCOD9160526
Probable space group: P 21/M
;
_chemical_formula_sum "Si O2"
_cell_formula_units_Z 26
_cell_length_a 8.459206
_cell_length_b 17.905648
_cell_length_c 12.096059
_cell_angle_alpha 90.000000
_cell_angle_beta 37.207802
_cell_angle_gamma 90.000000
_cell_volume 1107.921392
_symmetry_space_group_name_H-M "P 21/M"
_symmetry_group_IT_number 11
_symmetry_cell_setting 'monoclinic'
loop_
_space_group_symop_operation_xyz
x,y,z
-x,1/2+y,-z
-x,-y,-z
x,1/2-y,z
loop_
_atom_site_type_symbol
_atom_site_label
_atom_site_fract_x
_atom_site_fract_y
_atom_site_fract_z
Si Si1 0.931571 0.250000 0.999409
Si Si2 0.839420 0.974427 0.435301
Si Si3 0.940988 0.088226 0.052894
Si Si4 0.475537 0.250000 0.441577
Si Si5 0.860579 0.250000 0.772378
Si Si6 0.557819 0.948270 0.800749
Si Si7 0.625985 0.401508 0.443849
Si Si8 0.608850 0.093644 0.881329
O O1 0.072360 0.168826 0.948012
O O2 0.679246 0.250000 0.224534
O O3 0.859542 0.250000 0.908586
O O4 0.793906 0.943242 0.583253
O O5 0.633132 0.940176 0.463585
O O6 0.124427 0.952237 0.237836
O O7 0.740824 0.059634 0.487452
O O8 0.675604 0.093641 0.129264
O O9 0.860034 0.090926 0.225370
O O10 0.000000 0.000000 0.000000
O O11 0.537705 0.318012 0.487088
O O12 0.172557 0.250000 0.571845
O O13 0.711833 0.176939 0.809163
O O14 0.495651 0.037072 0.852740
O O15 0.579037 0.911146 0.908252
#
# Coordination Sequence:
#
# PCOD9160526 Si02
#       8
#     2   4   4   2   2   4   4   4
#     4  10  22  36  57  90 121 152 202 242 292 350
#     4  10  19  36  57  84 111 149 187 233 285 347
#     4  10  19  36  61  88 120 157 195 245 296 353
#     4  10  20  38  53  84 120 147 185 246 287 345
#     4  12  22  34  62  82 113 151 199 244 291 343
#     4  10  22  37  57  80 116 152 193 239 286 351
#     4   9  19  32  58  84 114 147 191 236 287 345
#     4  11  22  37  56  84 112 151 194 240 289 344
#
# _framework density 23.467369000000001
#
# number of rings (size 3 to 8) (size 9 to 14) (size 15 to 20)
#    0.000    1.846    3.077    1.385    0.000    1.231 
#    0.000    1.538    0.000    6.462    0.000    0.000 
#    0.000    0.000    0.000    0.000    0.000    0.000 
#
# Total GULP energy -144802.912174 kJ/mol
# GULP energy per Si atom -5569.342776 kJ/mol
# Density = 2.341396 g / cm^3
# Si number density = 23.467369 Si / 1000 Ang^3
#
#
#
# Elastic Constant Matrix: (Units=GPa)
#
#
# Indices 1 2 3 4 5 6 
#
# 1 37.6882 14.0375 19.1799 0.0000 4.1613 0.0000
# 2 14.0375 176.4741 13.2210 0.0000 -17.7160 0.0000
# 3 19.1799 13.2210 62.0699 0.0000 5.2877 0.0000
# 4 0.0000 0.0000 0.0000 23.2596 0.0000 -4.2664
# 5 4.1613 -17.7160 5.2877 0.0000 23.2868 0.0000
# 6 0.0000 0.0000 0.0000 -4.2664 0.0000 39.1207
#
#
#
# Elastic Compliance Matrix: (Units=1/GPa)
#
#
# Indices 1 2 3 4 5 6 
#
# 1 0.032717 -0.002491 -0.009096 0.000000 -0.005676 0.000000
# 2 -0.002491 0.006514 -0.001099 0.000000 0.005651 0.000000
# 3 -0.009096 -0.001099 0.019465 0.000000 -0.003631 0.000000
# 4 0.000000 0.000000 0.000000 0.043870 0.000000 0.004784
# 5 -0.005676 0.005651 -0.003631 0.000000 0.049080 0.000000
# 6 0.000000 0.000000 0.000000 0.004784 0.000000 0.026084
#
#
# Mechanical properties :
#
#
# Convention : Reuss Voigt Hill
#
# Bulk Modulus (GPa) = 30.00774 41.01210 35.50992
# Shear Modulus (GPa) = 23.34158 32.45302 27.89730
#
# Velocity S-wave (km/s) = 3.15721 3.72277 3.45159
# Velocity P-wave (km/s) = 5.10935 5.99940 5.57218
#
# Compressibility (1/GPa) = 0.03332473
#
# Stress axis : x y z
#
# Youngs Moduli (GPa) = 30.56533 153.50859 51.37459
#
# Poissons Ratio (x) = 0.38236 0.46728
# Poissons Ratio (y) = 0.07613 0.05647
# Poissons Ratio (z) = 0.27801 0.16874
#
# Static dielectric constant tensor:
#      x y z
#    x 1.937650 0.000000 0.007500 
#    y 0.000000 0.240060 0.000000 
#    z 0.007500 0.000000 1.920950 
# 
# From -- ./inp_files/50542.got.cif
#   From: 2010.05.17/outbox.cif.g08.bks.cpg/sg11_26_cif.got.tgz:50542.got - 2010.06.03 12:22:45.
