data_PCOD9160624
_publ_section_title
;
Structure prediction by ZEFSAII (Michael W. Deem and Ramdas Pophale) SiO2 
 PCOD9160624
Probable space group: P 21/M
;
_chemical_formula_sum "Si O2"
_cell_formula_units_Z 24
_cell_length_a 15.124447
_cell_length_b 13.633318
_cell_length_c 11.368718
_cell_angle_alpha 90.000000
_cell_angle_beta 28.527521
_cell_angle_gamma 90.000000
_cell_volume 1119.539570
_symmetry_space_group_name_H-M "P 21/M"
_symmetry_group_IT_number 11
_symmetry_cell_setting 'monoclinic'
loop_
_space_group_symop_operation_xyz
x,y,z
-x,1/2+y,-z
-x,-y,-z
x,1/2-y,z
loop_
_atom_site_type_symbol
_atom_site_label
_atom_site_fract_x
_atom_site_fract_y
_atom_site_fract_z
Si Si1 0.140244 0.539822 0.738637
Si Si2 0.524183 0.361467 0.517805
Si Si3 0.171078 0.066177 0.057570
Si Si4 0.618144 0.636427 0.965482
Si Si5 0.298994 0.858972 0.945261
Si Si6 0.618718 0.556173 0.718892
O O1 0.300744 0.601042 0.613184
O O2 0.237607 0.451482 0.554769
O O3 0.000000 0.500000 0.000000
O O4 0.015664 0.597227 0.788612
O O5 0.482829 0.250000 0.600177
O O6 0.342734 0.421504 0.766022
O O7 0.580270 0.362685 0.316040
O O8 0.235468 0.120012 0.100471
O O9 0.160713 0.950295 0.098750
O O10 0.560463 0.750000 0.031221
O O11 0.454886 0.556066 0.177336
O O12 0.694154 0.602630 0.749911
O O13 0.218900 0.750000 0.048709
O O14 0.440214 0.882585 0.885660
#
# Coordination Sequence:
#
# PCOD9160624 Si02
#       6
#     4   4   4   4   4   4
#     4  12  23  39  66  95 134 168 208 263 329 391
#     4  11  22  39  62  92 130 168 212 263 316 387
#     4  11  22  38  65  90 128 169 214 263 325 376
#     4  10  21  41  65  90 124 168 219 270 317 378
#     4  10  19  36  60  87 124 168 211 256 317 380
#     4  10  22  39  65  94 124 170 214 268 322 382
#
# _framework density 21.437383000000001
#
# number of rings (size 3 to 8) (size 9 to 14) (size 15 to 20)
#    0.000    1.333    5.000    2.500    0.000    2.000 
#    0.000    3.333    0.000    0.000    0.000    0.000 
#    0.000    0.000    0.000    0.000    0.000    0.000 
#
# Total GULP energy -134072.633587 kJ/mol
# GULP energy per Si atom -5586.359733 kJ/mol
# Density = 2.138859 g / cm^3
# Si number density = 21.437383 Si / 1000 Ang^3
#
#
#
# Elastic Constant Matrix: (Units=GPa)
#
#
# Indices 1 2 3 4 5 6 
#
# 1 109.4944 15.6443 5.9256 0.0000 -1.7725 0.0000
# 2 15.6443 127.9436 4.0206 0.0000 -0.8998 0.0000
# 3 5.9256 4.0206 30.9703 0.0000 -3.1934 0.0000
# 4 0.0000 0.0000 0.0000 8.4519 0.0000 7.3082
# 5 -1.7725 -0.8998 -3.1934 0.0000 41.2796 0.0000
# 6 0.0000 0.0000 0.0000 7.3082 0.0000 20.9255
#
#
#
# Elastic Compliance Matrix: (Units=1/GPa)
#
#
# Indices 1 2 3 4 5 6 
#
# 1 0.009381 -0.001094 -0.001627 0.000000 0.000253 0.000000
# 2 -0.001094 0.007976 -0.000820 0.000000 0.000063 0.000000
# 3 -0.001627 -0.000820 0.032960 0.000000 0.002462 0.000000
# 4 0.000000 0.000000 0.000000 0.169504 0.000000 -0.059199
# 5 0.000253 0.000063 0.002462 0.000000 0.024428 0.000000
# 6 0.000000 0.000000 0.000000 -0.059199 0.000000 0.068464
#
#
# Mechanical properties :
#
#
# Convention : Reuss Voigt Hill
#
# Bulk Modulus (GPa) = 23.12850 35.50992 29.31921
# Shear Modulus (GPa) = 14.96082 30.31925 22.64004
#
# Velocity S-wave (km/s) = 2.64462 3.76482 3.25330
# Velocity P-wave (km/s) = 4.48750 5.95810 5.27430
#
# Compressibility (1/GPa) = 0.04323670
#
# Stress axis : x y z
#
# Youngs Moduli (GPa) = 106.59437 125.37715 30.33937
#
# Poissons Ratio (x) = 0.13719 0.04936
# Poissons Ratio (y) = 0.11664 0.02486
# Poissons Ratio (z) = 0.17341 0.10275
#
# Static dielectric constant tensor:
#      x y z
#    x 1.797170 0.000000 0.032720 
#    y 0.000000 1.794370 0.000000 
#    z 0.032720 0.000000 1.775690 
# 
# From -- ./inp_files/39576.got.cif
#   From: 2010.05.17/outbox.cif.g08.bks.cpg/sg11_20_cif.got.tgz:39576.got - 2010.06.03 12:22:45.
