data_PCOD9160679
_publ_section_title
;
Structure prediction by ZEFSAII (Michael W. Deem and Ramdas Pophale) SiO2 
 PCOD9160679
Probable space group: P 21/M
;
_chemical_formula_sum "Si O2"
_cell_formula_units_Z 32
_cell_length_a 12.262222
_cell_length_b 21.894839
_cell_length_c 8.087488
_cell_angle_alpha 90.000000
_cell_angle_beta 134.301286
_cell_angle_gamma 90.000000
_cell_volume 1553.966582
_symmetry_space_group_name_H-M "P 21/M"
_symmetry_group_IT_number 11
_symmetry_cell_setting 'monoclinic'
loop_
_space_group_symop_operation_xyz
x,y,z
-x,1/2+y,-z
-x,-y,-z
x,1/2-y,z
loop_
_atom_site_type_symbol
_atom_site_label
_atom_site_fract_x
_atom_site_fract_y
_atom_site_fract_z
Si Si1 0.386581 0.678860 0.479520
Si Si2 0.612337 0.998746 0.776325
Si Si3 0.558272 0.085460 0.156820
Si Si4 0.072842 0.442148 0.985950
Si Si5 0.587452 0.132603 0.848036
Si Si6 0.103579 0.684954 0.709699
Si Si7 0.090451 0.941052 0.526380
Si Si8 0.027931 0.816325 0.006427
O O1 0.419458 0.750000 0.548368
O O2 0.425322 0.636279 0.678408
O O3 0.464514 0.660317 0.384332
O O4 0.203702 0.673774 0.251596
O O5 0.535101 0.968059 0.853606
O O6 0.500000 0.000000 0.500000
O O7 0.659059 0.068172 0.863759
O O8 0.758313 0.960131 0.884488
O O9 0.725879 0.058943 0.288291
O O10 0.493284 0.113218 0.914207
O O11 0.966255 0.434553 0.717166
O O12 0.069515 0.376093 0.063987
O O13 0.000000 0.500000 0.000000
O O14 0.716519 0.176083 0.061899
O O15 0.079274 0.750000 0.595268
O O16 0.049202 0.622695 0.570255
O O17 0.032219 0.688253 0.814070
O O18 0.000000 0.000000 0.500000
O O19 0.977347 0.750000 0.020240
#
# Coordination Sequence:
#
# PCOD9160679 Si02
#       8
#     4   4   4   4   4   4   4   4
#     4  10  19  36  62  93 124 162 215 265 316 386
#     4  12  24  40  62  89 130 173 215 271 331 391
#     4  11  22  39  61  94 129 169 213 262 337 390
#     4  12  22  37  62  91 123 160 213 264 320 381
#     4  10  20  37  59  89 127 160 212 261 321 378
#     4   9  19  36  61  92 125 159 207 265 323 383
#     4  11  22  37  60  95 129 158 212 266 324 386
#     4   9  18  35  58  87 121 160 202 257 318 377
#
# _framework density 20.592465000000001
#
# number of rings (size 3 to 8) (size 9 to 14) (size 15 to 20)
#    0.000    1.500    2.500    6.000    0.000    3.000 
#    0.000    0.625    0.000    0.000    0.000    4.375 
#    0.000    0.000    0.000    0.000    0.000    0.000 
#
# Total GULP energy -178374.920010 kJ/mol
# GULP energy per Si atom -5574.216250 kJ/mol
# Density = 2.054560 g / cm^3
# Si number density = 20.592465 Si / 1000 Ang^3
#
#
#
# Elastic Constant Matrix: (Units=GPa)
#
#
# Indices 1 2 3 4 5 6 
#
# 1 77.8331 47.0889 11.0853 0.0000 -8.4922 0.0000
# 2 47.0889 183.1345 17.1154 0.0000 -8.1248 0.0000
# 3 11.0853 17.1154 46.7415 0.0000 -14.5726 0.0000
# 4 0.0000 0.0000 0.0000 29.1365 0.0000 -9.8933
# 5 -8.4922 -8.1248 -14.5726 0.0000 29.5659 0.0000
# 6 0.0000 0.0000 0.0000 -9.8933 0.0000 21.4262
#
#
#
# Elastic Compliance Matrix: (Units=1/GPa)
#
#
# Indices 1 2 3 4 5 6 
#
# 1 0.015631 -0.003760 -0.001480 0.000000 0.002727 0.000000
# 2 -0.003760 0.006568 -0.001521 0.000000 -0.000025 0.000000
# 3 -0.001480 -0.001521 0.026041 0.000000 0.011992 0.000000
# 4 0.000000 0.000000 0.000000 0.040703 0.000000 0.018794
# 5 0.002727 -0.000025 0.011992 0.000000 0.040510 0.000000
# 6 0.000000 0.000000 0.000000 0.018794 0.000000 0.055350
#
#
# Mechanical properties :
#
#
# Convention : Reuss Voigt Hill
#
# Bulk Modulus (GPa) = 28.80335 50.92092 39.86213
# Shear Modulus (GPa) = 23.82109 31.52034 27.67072
#
# Velocity S-wave (km/s) = 3.40485 3.91663 3.66967
# Velocity P-wave (km/s) = 5.42909 6.72569 6.11187
#
# Compressibility (1/GPa) = 0.03471818
#
# Stress axis : x y z
#
# Youngs Moduli (GPa) = 63.97518 152.24646 38.40082
#
# Poissons Ratio (x) = 0.57243 0.05684
# Poissons Ratio (y) = 0.24054 0.05841
# Poissons Ratio (z) = 0.09469 0.23159
#
# Static dielectric constant tensor:
#      x y z
#    x 1.902630 0.000000 -0.037580 
#    y 0.000000 1.389000 0.000000 
#    z -0.037580 0.000000 1.729210 
# 
# From -- ./inp_files/19428.got.cif
#   From: 2010.05.17/outbox.cif.g08.bks.cpg/sg11_10_cif.got.tgz:19428.got - 2010.06.03 12:22:45.
