data_PCOD9160005
_publ_section_title
;
Structure prediction by ZEFSAII (Michael W. Deem and Ramdas Pophale) SiO2 
 PCOD9160005
Probable space group: P 21/M
;
_chemical_formula_sum "Si O2"
_cell_formula_units_Z 32
_cell_length_a 19.211487
_cell_length_b 9.144762
_cell_length_c 21.697606
_cell_angle_alpha 90.000000
_cell_angle_beta 158.538722
_cell_angle_gamma 90.000000
_cell_volume 1394.680690
_symmetry_space_group_name_H-M "P 21/M"
_symmetry_group_IT_number 11
_symmetry_cell_setting 'monoclinic'
loop_
_space_group_symop_operation_xyz
x,y,z
-x,1/2+y,-z
-x,-y,-z
x,1/2-y,z
loop_
_atom_site_type_symbol
_atom_site_label
_atom_site_fract_x
_atom_site_fract_y
_atom_site_fract_z
Si Si1 0.701911 0.077851 0.657249
Si Si2 0.294148 0.419299 0.708749
Si Si3 0.620513 0.085307 0.410777
Si Si4 0.053283 0.418601 0.383610
Si Si5 0.964193 0.078156 0.131233
Si Si6 0.703519 0.416489 0.795114
Si Si7 0.705677 0.073878 0.170782
Si Si8 0.369256 0.080828 0.077256
O O1 0.680984 0.250000 0.627223
O O2 0.790728 0.063437 0.799500
O O3 0.500000 0.000000 0.500000
O O4 0.837829 0.000842 0.720056
O O5 0.309816 0.250000 0.741412
O O6 0.168099 0.422848 0.543244
O O7 0.214979 0.519685 0.698019
O O8 0.499699 0.484452 0.859483
O O9 0.671024 0.250000 0.467529
O O10 0.494192 0.084312 0.243628
O O11 0.811294 0.997602 0.553040
O O12 0.476148 0.019768 0.341262
O O13 0.032741 0.250000 0.348602
O O14 0.846716 0.477541 0.232618
O O15 0.986918 0.250000 0.163733
O O16 0.847931 0.067266 0.970621
O O17 0.828470 0.997167 0.068403
O O18 0.629713 0.250000 0.737013
O O19 0.695846 0.250000 0.161030
O O20 0.500000 0.000000 0.000000
O O21 0.346222 0.250000 0.038371
#
# Coordination Sequence:
#
# PCOD9160005 Si02
#       8
#     4   4   4   4   4   4   4   4
#     4  11  23  38  54  76 107 144 182 222 266 316
#     4  10  19  34  57  83 108 138 175 218 266 317
#     4   9  17  29  52  83 110 135 170 216 264 311
#     4   9  19  35  56  80 108 140 175 215 264 318
#     4  10  19  34  57  83 108 138 175 218 266 317
#     4   9  19  35  56  80 108 140 175 215 264 318
#     4  11  23  38  54  76 107 144 182 222 266 316
#     4   9  17  31  52  81 112 139 170 214 262 313
#
# _framework density 22.944320999999999
#
# number of rings (size 3 to 8) (size 9 to 14) (size 15 to 20)
#    0.000    2.250    0.000    3.000    0.000    6.000 
#    0.000    1.250    0.000    4.500    0.000    0.000 
#    0.000    0.000    0.000    0.000    0.000    0.000 
#
# Total GULP energy -179014.096101 kJ/mol
# GULP energy per Si atom -5594.190503 kJ/mol
# Density = 2.289210 g / cm^3
# Si number density = 22.944321 Si / 1000 Ang^3
#
#
#
# Elastic Constant Matrix: (Units=GPa)
#
#
# Indices 1 2 3 4 5 6 
#
# 1 96.3216 25.0129 27.9378 0.0000 22.4590 0.0000
# 2 25.0129 119.1481 56.7588 0.0000 40.5961 0.0000
# 3 27.9378 56.7588 116.9561 0.0000 34.2691 0.0000
# 4 0.0000 0.0000 0.0000 30.5019 0.0000 11.7752
# 5 22.4590 40.5961 34.2691 0.0000 55.5924 0.0000
# 6 0.0000 0.0000 0.0000 11.7752 0.0000 26.4988
#
#
#
# Elastic Compliance Matrix: (Units=1/GPa)
#
#
# Indices 1 2 3 4 5 6 
#
# 1 0.011768 -0.000588 -0.001536 0.000000 -0.003378 0.000000
# 2 -0.000588 0.012688 -0.004115 0.000000 -0.006491 0.000000
# 3 -0.001536 -0.004115 0.012024 0.000000 -0.003786 0.000000
# 4 0.000000 0.000000 0.000000 0.039574 0.000000 -0.017585
# 5 -0.003378 -0.006491 -0.003786 0.000000 0.026427 0.000000
# 6 0.000000 0.000000 0.000000 -0.017585 0.000000 0.045552
#
#
# Mechanical properties :
#
#
# Convention : Reuss Voigt Hill
#
# Bulk Modulus (GPa) = 41.66352 61.31611 51.48982
# Shear Modulus (GPa) = 29.67170 37.36637 33.51903
#
# Velocity S-wave (km/s) = 3.60002 4.03993 3.82630
# Velocity P-wave (km/s) = 5.95635 6.96730 6.48157
#
# Compressibility (1/GPa) = 0.02400181
#
# Stress axis : x y z
#
# Youngs Moduli (GPa) = 84.97864 78.81175 83.16966
#
# Poissons Ratio (x) = 0.04632 0.12775
# Poissons Ratio (y) = 0.04995 0.34226
# Poissons Ratio (z) = 0.13052 0.32433
#
# Static dielectric constant tensor:
#      x y z
#    x 1.901590 0.000000 -0.088210 
#    y 0.000000 1.775560 0.000000 
#    z -0.088210 0.000000 1.879050 
# 
# From -- ./inp_files/72159.got.cif
#   From: 2010.05.17/outbox.cif.g08.bks.cpg/sg11_37_cif.got.tgz:72159.got - 2010.06.03 12:22:45.
