data_PCOD9160824
_publ_section_title
;
Structure prediction by ZEFSAII (Michael W. Deem and Ramdas Pophale) SiO2 
 PCOD9160824
Probable space group: P 21/M
;
_chemical_formula_sum "Si O2"
_cell_formula_units_Z 28
_cell_length_a 9.803897
_cell_length_b 13.797607
_cell_length_c 11.398288
_cell_angle_alpha 90.000000
_cell_angle_beta 113.155626
_cell_angle_gamma 90.000000
_cell_volume 1417.638849
_symmetry_space_group_name_H-M "P 21/M"
_symmetry_group_IT_number 11
_symmetry_cell_setting 'monoclinic'
loop_
_space_group_symop_operation_xyz
x,y,z
-x,1/2+y,-z
-x,-y,-z
x,1/2-y,z
loop_
_atom_site_type_symbol
_atom_site_label
_atom_site_fract_x
_atom_site_fract_y
_atom_site_fract_z
Si Si1 0.522642 0.485915 0.211885
Si Si2 0.887417 0.636514 0.134984
Si Si3 0.955413 0.362319 0.562021
Si Si4 0.000805 0.865497 0.922784
Si Si5 0.302584 0.958158 0.947593
Si Si6 0.690498 0.866559 0.692836
Si Si7 0.236210 0.049743 0.532775
O O1 0.612128 0.428344 0.140909
O O2 0.435259 0.416552 0.271107
O O3 0.639636 0.548720 0.324838
O O4 0.404791 0.548393 0.096750
O O5 0.851011 0.750000 0.111361
O O6 0.741254 0.571211 0.083977
O O7 0.978491 0.622648 0.284980
O O8 0.982927 0.606933 0.053301
O O9 0.911848 0.250000 0.533913
O O10 0.825194 0.439736 0.499366
O O11 0.091743 0.388190 0.521377
O O12 0.012810 0.750000 0.922935
O O13 0.848892 0.891487 0.805862
O O14 0.146046 0.907622 0.912469
O O15 0.674715 0.750000 0.685098
O O16 0.696602 0.910169 0.564649
#
# Coordination Sequence:
#
# PCOD9160824 Si02
#       7
#     4   4   4   4   4   4   4
#     4  11  25  40  62  92 128 167 209 252 320 374
#     4  10  19  37  65  93 119 155 210 261 309 361
#     4  10  22  39  66  95 122 163 216 268 311 367
#     4  10  22  39  65  95 121 160 212 262 305 366
#     4  11  22  41  65  93 124 167 204 261 317 371
#     4  11  24  42  65  93 128 169 211 258 314 376
#     4  11  23  42  62  91 130 169 212 256 313 382
#
# _framework density 19.751151
#
# number of rings (size 3 to 8) (size 9 to 14) (size 15 to 20)
#    0.000    1.429    2.857    2.143    4.000    1.143 
#    0.000    3.571    0.000    0.857    0.000    0.000 
#    0.000    0.000    0.000    0.000    0.000    0.000 
#
# Total GULP energy -156468.693054 kJ/mol
# GULP energy per Si atom -5588.167609 kJ/mol
# Density = 1.970620 g / cm^3
# Si number density = 19.751151 Si / 1000 Ang^3
#
#
#
# Elastic Constant Matrix: (Units=GPa)
#
#
# Indices 1 2 3 4 5 6 
#
# 1 110.1877 16.1502 30.2576 0.0000 -22.3657 0.0000
# 2 16.1502 39.2647 15.1131 0.0000 -5.6521 0.0000
# 3 30.2576 15.1131 75.1795 0.0000 -25.5460 0.0000
# 4 0.0000 0.0000 0.0000 19.8052 0.0000 0.6103
# 5 -22.3657 -5.6521 -25.5460 0.0000 34.6610 0.0000
# 6 0.0000 0.0000 0.0000 0.6103 0.0000 12.9568
#
#
#
# Elastic Compliance Matrix: (Units=1/GPa)
#
#
# Indices 1 2 3 4 5 6 
#
# 1 0.011145 -0.003024 -0.002137 0.000000 0.005124 0.000000
# 2 -0.003024 0.028433 -0.004784 0.000000 -0.000841 0.000000
# 3 -0.002137 -0.004784 0.019197 0.000000 0.011990 0.000000
# 4 0.000000 0.000000 0.000000 0.050565 0.000000 -0.002382
# 5 0.005124 -0.000841 0.011990 0.000000 0.040857 0.000000
# 6 0.000000 0.000000 0.000000 -0.002382 0.000000 0.077292
#
#
# Mechanical properties :
#
#
# Convention : Reuss Voigt Hill
#
# Bulk Modulus (GPa) = 25.71702 38.63042 32.17372
# Shear Modulus (GPa) = 19.20553 24.35867 21.78210
#
# Velocity S-wave (km/s) = 3.12168 3.51562 3.32449
# Velocity P-wave (km/s) = 5.10313 6.00670 5.57326
#
# Compressibility (1/GPa) = 0.03888476
#
# Stress axis : x y z
#
# Youngs Moduli (GPa) = 89.72258 35.17097 52.09023
#
# Poissons Ratio (x) = 0.10637 0.11130
# Poissons Ratio (y) = 0.27135 0.24922
# Poissons Ratio (z) = 0.19171 0.16827
#
# Static dielectric constant tensor:
#      x y z
#    x 1.684460 0.000000 -0.013310 
#    y 0.000000 1.697650 0.000000 
#    z -0.013310 0.000000 1.692290 
# 
# From -- ./inp_files/31738.got.cif
#   From: 2010.05.17/outbox.cif.g08.bks.cpg/sg11_16_cif.got.tgz:31738.got - 2010.06.03 12:22:45.
