data_PCOD9160441
_publ_section_title
;
Structure prediction by ZEFSAII (Michael W. Deem and Ramdas Pophale) SiO2 
 PCOD9160441
Probable space group: P 21/M
;
_chemical_formula_sum "Si O2"
_cell_formula_units_Z 32
_cell_length_a 5.373300
_cell_length_b 31.789965
_cell_length_c 7.319291
_cell_angle_alpha 90.000000
_cell_angle_beta 77.199488
_cell_angle_gamma 90.000000
_cell_volume 1219.187239
_symmetry_space_group_name_H-M "P 21/M"
_symmetry_group_IT_number 11
_symmetry_cell_setting 'monoclinic'
loop_
_space_group_symop_operation_xyz
x,y,z
-x,1/2+y,-z
-x,-y,-z
x,1/2-y,z
loop_
_atom_site_type_symbol
_atom_site_label
_atom_site_fract_x
_atom_site_fract_y
_atom_site_fract_z
Si Si1 0.698206 0.087880 0.824203
Si Si2 0.995685 0.470533 0.317587
Si Si3 0.776075 0.202894 0.273022
Si Si4 0.235683 0.379890 0.661556
Si Si5 0.508267 0.499365 0.272204
Si Si6 0.161826 0.203947 0.861702
Si Si7 0.535785 0.656285 0.934080
Si Si8 0.963564 0.878552 0.676629
O O1 0.503054 0.111369 0.714987
O O2 0.001760 0.088161 0.742585
O O3 0.589876 0.041279 0.811920
O O4 0.662888 0.118670 0.004332
O O5 0.805890 0.489880 0.199205
O O6 0.000000 0.500000 0.500000
O O7 0.298079 0.466563 0.233845
O O8 0.894752 0.422906 0.355231
O O9 0.763770 0.250000 0.351955
O O10 0.513507 0.185505 0.232224
O O11 0.877767 0.164151 0.376515
O O12 0.958256 0.204931 0.061835
O O13 0.123285 0.334345 0.731810
O O14 0.251623 0.382632 0.443233
O O15 0.500000 0.500000 0.500000
O O16 0.169770 0.250000 0.776607
O O17 0.429834 0.190819 0.913113
O O18 0.801025 0.630508 0.884192
#
# Coordination Sequence:
#
# PCOD9160441 Si02
#       8
#     4   4   4   4   4   4   4   4
#     4  11  22  41  66  95 127 174 223 267 321 392
#     4  10  21  38  60  92 126 173 211 262 322 393
#     4  10  21  41  66  90 129 176 215 262 335 407
#     4  11  22  38  64  97 127 166 215 276 326 381
#     4  10  19  35  60  88 121 163 214 262 316 379
#     4   9  19  38  62  91 123 167 219 267 322 398
#     4  10  22  40  64  93 128 179 218 267 328 399
#     4  11  25  39  66  97 136 167 222 277 336 389
#
# _framework density 26.246991999999999
#
# number of rings (size 3 to 8) (size 9 to 14) (size 15 to 20)
#    0.000    1.750    1.250    4.125    3.500    1.000 
#    0.000    1.250    0.000    0.000    0.000    0.000 
#    0.000    0.000    0.000    0.000    0.000    0.000 
#
# Total GULP energy -178469.778729 kJ/mol
# GULP energy per Si atom -5577.180585 kJ/mol
# Density = 2.618725 g / cm^3
# Si number density = 26.246992 Si / 1000 Ang^3
#
#
#
# Elastic Constant Matrix: (Units=GPa)
#
#
# Indices 1 2 3 4 5 6 
#
# 1 124.0555 32.1768 10.1126 0.0000 21.3498 0.0000
# 2 32.1768 201.7738 22.6861 0.0000 5.5832 0.0000
# 3 10.1126 22.6861 32.9833 0.0000 1.0451 0.0000
# 4 0.0000 0.0000 0.0000 27.6082 0.0000 7.9825
# 5 21.3498 5.5832 1.0451 0.0000 34.2462 0.0000
# 6 0.0000 0.0000 0.0000 7.9825 0.0000 31.6565
#
#
#
# Elastic Compliance Matrix: (Units=1/GPa)
#
#
# Indices 1 2 3 4 5 6 
#
# 1 0.009491 -0.001138 -0.001948 0.000000 -0.005672 0.000000
# 2 -0.001138 0.005528 -0.003451 0.000000 -0.000087 0.000000
# 3 -0.001948 -0.003451 0.033265 0.000000 0.000762 0.000000
# 4 0.000000 0.000000 0.000000 0.039070 0.000000 -0.009852
# 5 -0.005672 -0.000087 0.000762 0.000000 0.032727 0.000000
# 6 0.000000 0.000000 0.000000 -0.009852 0.000000 0.034073
#
#
# Mechanical properties :
#
#
# Convention : Reuss Voigt Hill
#
# Bulk Modulus (GPa) = 28.39968 54.30707 41.35338
# Shear Modulus (GPa) = 27.93885 38.29132 33.11509
#
# Velocity S-wave (km/s) = 3.26614 3.82368 3.55586
# Velocity P-wave (km/s) = 5.00672 6.34269 5.71389
#
# Compressibility (1/GPa) = 0.03521166
#
# Stress axis : x y z
#
# Youngs Moduli (GPa) = 105.36447 180.90361 30.06194
#
# Poissons Ratio (x) = 0.20579 0.05855
# Poissons Ratio (y) = 0.11986 0.10373
# Poissons Ratio (z) = 0.20522 0.62421
#
# Static dielectric constant tensor:
#      x y z
#    x 2.178790 0.000000 -0.108950 
#    y 0.000000 2.074940 0.000000 
#    z -0.108950 0.000000 2.161250 
# 
# From -- ./inp_files/10858.got.cif
#   From: 2010.05.17/outbox.cif.g08.bks.cpg/sg11_6_cif.got.tgz:10858.got - 2010.06.03 12:22:45.
