data_PCOD9160074
_publ_section_title
;
Structure prediction by ZEFSAII (Michael W. Deem and Ramdas Pophale) SiO2 
 PCOD9160074
Probable space group: P 21/M
;
_chemical_formula_sum "Si O2"
_cell_formula_units_Z 32
_cell_length_a 12.326260
_cell_length_b 7.688200
_cell_length_c 15.486026
_cell_angle_alpha 90.000000
_cell_angle_beta 88.774788
_cell_angle_gamma 90.000000
_cell_volume 1467.224861
_symmetry_space_group_name_H-M "P 21/M"
_symmetry_group_IT_number 11
_symmetry_cell_setting 'monoclinic'
loop_
_space_group_symop_operation_xyz
x,y,z
-x,1/2+y,-z
-x,-y,-z
x,1/2-y,z
loop_
_atom_site_type_symbol
_atom_site_label
_atom_site_fract_x
_atom_site_fract_y
_atom_site_fract_z
Si Si1 0.157734 0.461406 0.260668
Si Si2 0.510480 0.455817 0.138357
Si Si3 0.248835 0.956401 0.898156
Si Si4 0.253256 0.049241 0.617287
Si Si5 0.914794 0.048526 0.240821
Si Si6 0.493234 0.460975 0.663052
Si Si7 0.716891 0.539656 0.914220
Si Si8 0.708926 0.046382 0.571416
O O1 0.159781 0.250000 0.264245
O O2 0.222648 0.515936 0.173810
O O3 0.216932 0.524248 0.345797
O O4 0.033896 0.525199 0.255582
O O5 0.515756 0.250000 0.120130
O O6 0.630218 0.530956 0.120343
O O7 0.484054 0.480333 0.239837
O O8 0.407844 0.526105 0.086948
O O9 0.255623 0.750000 0.879154
O O10 0.158171 0.029047 0.835146
O O11 0.225912 0.981458 0.999183
O O12 0.250292 0.250000 0.644664
O O13 0.373115 0.979275 0.638785
O O14 0.159285 0.958332 0.672707
O O15 0.242777 0.038736 0.514759
O O16 0.934527 0.250000 0.217035
O O17 0.494693 0.250000 0.661357
O O18 0.589221 0.522743 0.598654
O O19 0.714732 0.750000 0.914042
O O20 0.698569 0.250000 0.551890
#
# Coordination Sequence:
#
# PCOD9160074 Si02
#       8
#     4   4   4   4   4   4   4   4
#     4  10  22  41  62  84 114 153 198 245 289 336
#     4  10  19  34  58  85 115 153 191 231 289 348
#     4  10  21  36  57  86 117 152 191 235 288 345
#     4  11  23  39  61  89 119 152 190 235 288 347
#     4  10  22  41  62  84 114 153 198 245 289 336
#     4  10  21  36  58  89 119 149 187 233 287 344
#     4  10  21  36  57  86 117 152 191 235 288 345
#     4  11  23  39  61  89 119 152 190 235 288 347
#
# _framework density 21.809882000000002
#
# number of rings (size 3 to 8) (size 9 to 14) (size 15 to 20)
#    0.000    1.750    2.500    1.500    0.000    4.500 
#    0.000    0.000    0.000    0.000    0.000    0.000 
#    0.000    0.000    0.000    0.000    0.000    0.000 
#
# Total GULP energy -178855.339495 kJ/mol
# GULP energy per Si atom -5589.229359 kJ/mol
# Density = 2.176024 g / cm^3
# Si number density = 21.809882 Si / 1000 Ang^3
#
#
#
# Elastic Constant Matrix: (Units=GPa)
#
#
# Indices 1 2 3 4 5 6 
#
# 1 126.0273 2.1590 18.1341 0.0000 3.9835 0.0000
# 2 2.1590 39.9424 -19.6034 0.0000 1.2311 0.0000
# 3 18.1341 -19.6034 80.4295 0.0000 -0.1493 0.0000
# 4 0.0000 0.0000 0.0000 27.5351 0.0000 -1.6063
# 5 3.9835 1.2311 -0.1493 0.0000 4.5422 0.0000
# 6 0.0000 0.0000 0.0000 -1.6063 0.0000 4.5098
#
#
#
# Elastic Compliance Matrix: (Units=1/GPa)
#
#
# Indices 1 2 3 4 5 6 
#
# 1 0.008510 -0.001348 -0.002261 0.000000 -0.007172 0.000000
# 2 -0.001348 0.028908 0.007338 0.000000 -0.006411 0.000000
# 3 -0.002261 0.007338 0.014732 0.000000 0.000478 0.000000
# 4 0.000000 0.000000 0.000000 0.037088 0.000000 0.013210
# 5 -0.007172 -0.006411 0.000478 0.000000 0.228202 0.000000
# 6 0.000000 0.000000 0.000000 0.013210 0.000000 0.226447
#
#
# Mechanical properties :
#
#
# Convention : Reuss Voigt Hill
#
# Bulk Modulus (GPa) = 16.77631 27.53097 22.15364
# Shear Modulus (GPa) = 8.98798 23.69804 16.34301
#
# Velocity S-wave (km/s) = 2.03224 3.29990 2.74038
# Velocity P-wave (km/s) = 3.63531 5.21245 4.49361
#
# Compressibility (1/GPa) = 0.05960786
#
# Stress axis : x y z
#
# Youngs Moduli (GPa) = 117.51055 34.59259 67.87788
#
# Poissons Ratio (x) = 0.04665 0.15345
# Poissons Ratio (y) = 0.15846 -0.49809
# Poissons Ratio (z) = 0.26565 -0.25384
#
# Static dielectric constant tensor:
#      x y z
#    x 1.804110 0.000000 0.007410 
#    y 0.000000 1.812020 0.000000 
#    z 0.007410 0.000000 1.762370 
# 
# From -- ./inp_files/45227.got.cif
#   From: 2010.05.17/outbox.cif.g08.bks.cpg/sg11_23_cif.got.tgz:45227.got - 2010.06.03 12:22:45.
