data_PCOD9160126
_publ_section_title
;
Structure prediction by ZEFSAII (Michael W. Deem and Ramdas Pophale) SiO2 
 PCOD9160126
Probable space group: P 21/M
;
_chemical_formula_sum "Si O2"
_cell_formula_units_Z 28
_cell_length_a 8.728202
_cell_length_b 14.757527
_cell_length_c 17.775894
_cell_angle_alpha 90.000000
_cell_angle_beta 143.998882
_cell_angle_gamma 90.000000
_cell_volume 1345.860899
_symmetry_space_group_name_H-M "P 21/M"
_symmetry_group_IT_number 11
_symmetry_cell_setting 'monoclinic'
loop_
_space_group_symop_operation_xyz
x,y,z
-x,1/2+y,-z
-x,-y,-z
x,1/2-y,z
loop_
_atom_site_type_symbol
_atom_site_label
_atom_site_fract_x
_atom_site_fract_y
_atom_site_fract_z
Si Si1 0.441822 0.857264 0.739125
Si Si2 0.506266 0.148876 0.727380
Si Si3 0.833735 0.523947 0.306330
Si Si4 0.388944 0.879928 0.392158
Si Si5 0.104430 0.359218 0.971576
Si Si6 0.217582 0.353314 0.854023
Si Si7 0.562676 0.424810 0.433016
O O1 0.392898 0.750000 0.728909
O O2 0.446104 0.881683 0.652469
O O3 0.241865 0.920851 0.705620
O O4 0.722345 0.880277 0.887549
O O5 0.485491 0.250000 0.752230
O O6 0.302351 0.081652 0.682030
O O7 0.461221 0.155624 0.620455
O O8 0.802428 0.112349 0.855647
O O9 0.724437 0.572153 0.186873
O O10 0.141913 0.540481 0.434690
O O11 0.498856 0.863430 0.518749
O O12 0.096120 0.844566 0.274247
O O13 0.382293 0.987622 0.372007
O O14 0.088692 0.250000 0.958898
O O15 0.253693 0.387004 0.954160
O O16 0.324639 0.250000 0.885224
#
# Coordination Sequence:
#
# PCOD9160126 Si02
#       7
#     4   4   4   4   4   4   4
#     4  11  23  38  57  80 119 162 188 224 288 348
#     4  10  19  34  59  88 110 140 190 249 287 320
#     4  11  22  36  57  89 117 146 192 241 279 335
#     4   9  18  35  58  80 109 144 185 234 275 333
#     4   8  18  37  58  83 113 148 195 236 276 343
#     4   9  18  36  61  87 113 144 186 243 291 326
#     4  10  21  38  55  81 117 146 185 240 277 336
#
# _framework density 20.804527
#
# number of rings (size 3 to 8) (size 9 to 14) (size 15 to 20)
#    0.000    2.286    1.429    2.143    0.000    4.571 
#    0.000    0.714    3.143    5.143    0.000    0.000 
#    0.000    0.000    0.000    0.000    0.000    0.000 
#
# Total GULP energy -156073.447181 kJ/mol
# GULP energy per Si atom -5574.051685 kJ/mol
# Density = 2.075717 g / cm^3
# Si number density = 20.804527 Si / 1000 Ang^3
#
#
#
# Elastic Constant Matrix: (Units=GPa)
#
#
# Indices 1 2 3 4 5 6 
#
# 1 88.1627 35.9782 21.6139 0.0000 -10.4299 0.0000
# 2 35.9782 101.1590 26.3796 0.0000 -2.9551 0.0000
# 3 21.6139 26.3796 77.3843 0.0000 -14.3783 0.0000
# 4 0.0000 0.0000 0.0000 33.9621 0.0000 10.9542
# 5 -10.4299 -2.9551 -14.3783 0.0000 22.3337 0.0000
# 6 0.0000 0.0000 0.0000 10.9542 0.0000 33.3326
#
#
#
# Elastic Compliance Matrix: (Units=1/GPa)
#
#
# Indices 1 2 3 4 5 6 
#
# 1 0.014137 -0.004495 -0.001477 0.000000 0.005057 0.000000
# 2 -0.004495 0.012302 -0.003437 0.000000 -0.002684 0.000000
# 3 -0.001477 -0.003437 0.016236 0.000000 0.009308 0.000000
# 4 0.000000 0.000000 0.000000 0.032936 0.000000 -0.010824
# 5 0.005057 -0.002684 0.009308 0.000000 0.052774 0.000000
# 6 0.000000 0.000000 0.000000 -0.010824 0.000000 0.033558
#
#
# Mechanical properties :
#
#
# Convention : Reuss Voigt Hill
#
# Bulk Modulus (GPa) = 41.91490 48.29438 45.10464
# Shear Modulus (GPa) = 26.49522 30.10798 28.30160
#
# Velocity S-wave (km/s) = 3.57253 3.80831 3.69230
# Velocity P-wave (km/s) = 6.09984 6.52698 6.31702
#
# Compressibility (1/GPa) = 0.02385786
#
# Stress axis : x y z
#
# Youngs Moduli (GPa) = 70.73438 81.28729 61.59135
#
# Poissons Ratio (x) = 0.36541 0.09095
# Poissons Ratio (y) = 0.31797 0.21168
# Poissons Ratio (z) = 0.10445 0.27937
#
# Static dielectric constant tensor:
#      x y z
#    x 1.770920 0.000000 -0.046370 
#    y 0.000000 1.797900 0.000000 
#    z -0.046370 0.000000 1.771500 
# 
# From -- ./inp_files/58136.got.cif
#   From: 2010.05.17/outbox.cif.g08.bks.cpg/sg11_30_cif.got.tgz:58136.got - 2010.06.03 12:22:45.
