data_PCOD9160683
_publ_section_title
;
Structure prediction by ZEFSAII (Michael W. Deem and Ramdas Pophale) SiO2 
 PCOD9160683
Probable space group: P 21/M
;
_chemical_formula_sum "Si O2"
_cell_formula_units_Z 32
_cell_length_a 11.738233
_cell_length_b 14.940416
_cell_length_c 16.716896
_cell_angle_alpha 90.000000
_cell_angle_beta 144.950852
_cell_angle_gamma 90.000000
_cell_volume 1683.619349
_symmetry_space_group_name_H-M "P 21/M"
_symmetry_group_IT_number 11
_symmetry_cell_setting 'monoclinic'
loop_
_space_group_symop_operation_xyz
x,y,z
-x,1/2+y,-z
-x,-y,-z
x,1/2-y,z
loop_
_atom_site_type_symbol
_atom_site_label
_atom_site_fract_x
_atom_site_fract_y
_atom_site_fract_z
Si Si1 0.605693 0.904796 0.073608
Si Si2 0.605228 0.850814 0.896335
Si Si3 0.945073 0.990783 0.060565
Si Si4 0.043905 0.857578 0.361864
Si Si5 0.268467 0.848085 0.979223
Si Si6 0.268777 0.507813 0.386618
Si Si7 0.964648 0.854582 0.658164
Si Si8 0.174711 0.857847 0.616743
O O1 0.839945 0.906432 0.220652
O O2 0.574842 0.850639 0.974349
O O3 0.496152 0.860888 0.085640
O O4 0.500000 0.000000 0.000000
O O5 0.627071 0.750000 0.878362
O O6 0.400412 0.893118 0.746523
O O7 0.801179 0.906475 0.990960
O O8 0.133832 0.988136 0.228616
O O9 0.814063 0.075372 0.012343
O O10 0.000000 0.000000 0.000000
O O11 0.029609 0.750000 0.339858
O O12 0.214132 0.904386 0.407253
O O13 0.079750 0.873153 0.476274
O O14 0.232954 0.750000 0.992775
O O15 0.147572 0.855192 0.826083
O O16 0.500000 0.500000 0.500000
O O17 0.194951 0.421924 0.395811
O O18 0.899066 0.750000 0.614426
O O19 0.045718 0.887144 0.618787
O O20 0.194140 0.750000 0.638824
#
# Coordination Sequence:
#
# PCOD9160683 Si02
#       8
#     4   4   4   4   4   4   4   4
#     4  12  20  37  63  95 124 158 196 245 313 380
#     4  11  21  38  66  92 120 160 203 253 313 373
#     4  11  25  42  60  85 120 156 213 263 294 357
#     4  11  24  41  62  94 131 160 197 254 310 369
#     4  10  19  36  63  89 118 155 196 246 307 366
#     4  11  25  42  59  86 117 166 214 244 303 364
#     4   9  18  38  63  88 119 154 196 249 299 363
#     4   9  20  37  61  95 124 152 195 244 310 374
#
# _framework density 19.006672999999999
#
# number of rings (size 3 to 8) (size 9 to 14) (size 15 to 20)
#    0.000    1.500    3.750    1.875    1.750    1.500 
#    2.250    0.000    0.000    0.000    0.000    0.000 
#    0.000    0.000    0.000    0.000    0.000    0.000 
#
# Total GULP energy -178694.681212 kJ/mol
# GULP energy per Si atom -5584.208788 kJ/mol
# Density = 1.896341 g / cm^3
# Si number density = 19.006673 Si / 1000 Ang^3
#
#
#
# Elastic Constant Matrix: (Units=GPa)
#
#
# Indices 1 2 3 4 5 6 
#
# 1 128.5505 51.9551 43.6160 0.0000 9.6415 0.0000
# 2 51.9551 105.2515 34.2845 0.0000 11.5646 0.0000
# 3 43.6160 34.2845 89.5130 0.0000 19.1395 0.0000
# 4 0.0000 0.0000 0.0000 16.3393 0.0000 -5.0814
# 5 9.6415 11.5646 19.1395 0.0000 36.9033 0.0000
# 6 0.0000 0.0000 0.0000 -5.0814 0.0000 -3.0059
#
#
#
# Elastic Compliance Matrix: (Units=1/GPa)
#
#
# Indices 1 2 3 4 5 6 
#
# 1 0.010666 -0.004101 -0.003718 0.000000 0.000427 0.000000
# 2 -0.004101 0.012497 -0.002452 0.000000 -0.001573 0.000000
# 3 -0.003718 -0.002452 0.015240 0.000000 -0.006165 0.000000
# 4 0.000000 0.000000 0.000000 0.040114 0.000000 -0.067810
# 5 0.000427 -0.001573 -0.006165 0.000000 0.030677 0.000000
# 6 0.000000 0.000000 0.000000 -0.067810 0.000000 -0.218045
#
#
# Mechanical properties :
#
#
# Convention : Reuss Voigt Hill
#
# Bulk Modulus (GPa) = 55.98400 64.78069 60.38235
# Shear Modulus (GPa) = -60.71081 22.94464 -18.88309
#
# Velocity S-wave (km/s) = -5.65784 3.47823 -3.15540
# Velocity P-wave (km/s) = 3.62805 7.09140 4.30843
#
# Compressibility (1/GPa) = 0.01786225
#
# Stress axis : x y z
#
# Youngs Moduli (GPa) = 93.75783 80.02001 65.61608
#
# Poissons Ratio (x) = 0.32815 0.24393
# Poissons Ratio (y) = 0.38449 0.16088
# Poissons Ratio (z) = 0.34855 0.19620
#
# Static dielectric constant tensor:
#      x y z
#    x 1.636270 0.000000 0.001060 
#    y 0.000000 1.702780 0.000000 
#    z 0.001060 0.000000 1.667230 
# 
# From -- ./inp_files/59530.got.cif
#   From: 2010.05.17/outbox.cif.g08.bks.cpg/sg11_30_cif.got.tgz:59530.got - 2010.06.03 12:22:45.
