data_PCOD9160714
_publ_section_title
;
Structure prediction by ZEFSAII (Michael W. Deem and Ramdas Pophale) SiO2 
 PCOD9160714
Probable space group: P 21/M
;
_chemical_formula_sum "Si O2"
_cell_formula_units_Z 28
_cell_length_a 12.880172
_cell_length_b 7.535489
_cell_length_c 27.044140
_cell_angle_alpha 90.000000
_cell_angle_beta 152.150340
_cell_angle_gamma 90.000000
_cell_volume 1226.212016
_symmetry_space_group_name_H-M "P 21/M"
_symmetry_group_IT_number 11
_symmetry_cell_setting 'monoclinic'
loop_
_space_group_symop_operation_xyz
x,y,z
-x,1/2+y,-z
-x,-y,-z
x,1/2-y,z
loop_
_atom_site_type_symbol
_atom_site_label
_atom_site_fract_x
_atom_site_fract_y
_atom_site_fract_z
Si Si1 0.876115 0.536132 0.187255
Si Si2 0.542147 0.458674 0.128476
Si Si3 0.261109 0.538118 0.421934
Si Si4 0.936520 0.967989 0.099708
Si Si5 0.607913 0.044042 0.755785
Si Si6 0.216376 0.966452 0.515746
Si Si7 0.272382 0.043490 0.690832
O O1 0.886002 0.750000 0.189785
O O2 0.648942 0.488954 0.119615
O O3 0.914390 0.474075 0.147543
O O4 0.070668 0.468532 0.305377
O O5 0.539601 0.250000 0.136512
O O6 0.691146 0.537170 0.235012
O O7 0.289385 0.524631 0.022549
O O8 0.500000 0.500000 0.500000
O O9 0.230196 0.750000 0.411331
O O10 0.249010 0.474004 0.472947
O O11 0.939085 0.750000 0.101552
O O12 0.162326 0.031156 0.168757
O O13 0.659552 0.250000 0.788392
O O14 0.484847 0.964537 0.751983
O O15 0.416335 0.032912 0.633583
O O16 0.220663 0.750000 0.519334
O O17 0.968309 0.029628 0.425447
O O18 0.264969 0.250000 0.673390
#
# Coordination Sequence:
#
# PCOD9160714 Si02
#       7
#     4   4   4   4   4   4   4
#     4  10  19  37  59  78 112 153 185 225 282 337
#     4  11  22  36  57  85 114 145 190 239 276 324
#     4  10  20  33  53  80 113 149 183 223 273 330
#     4   9  20  37  57  84 115 146 184 235 284 326
#     4  10  21  38  61  84 109 148 191 226 276 345
#     4  10  20  36  55  81 116 145 180 232 281 325
#     4  10  21  39  60  82 112 150 188 226 279 341
#
# _framework density 22.834551000000001
#
# number of rings (size 3 to 8) (size 9 to 14) (size 15 to 20)
#    0.000    2.000    1.429    2.143    0.000    4.000 
#    0.000    2.857    0.000    0.000    0.000    0.000 
#    0.000    0.000    0.000    0.000    0.000    0.000 
#
# Total GULP energy -156470.347364 kJ/mol
# GULP energy per Si atom -5588.226692 kJ/mol
# Density = 2.278258 g / cm^3
# Si number density = 22.834551 Si / 1000 Ang^3
#
#
#
# Elastic Constant Matrix: (Units=GPa)
#
#
# Indices 1 2 3 4 5 6 
#
# 1 100.2773 -7.3631 27.8010 0.0000 36.3507 0.0000
# 2 -7.3631 57.2694 -8.9344 0.0000 2.5121 0.0000
# 3 27.8010 -8.9344 82.2671 0.0000 33.7412 0.0000
# 4 0.0000 0.0000 0.0000 12.8637 0.0000 4.9049
# 5 36.3507 2.5121 33.7412 0.0000 47.0171 0.0000
# 6 0.0000 0.0000 0.0000 4.9049 0.0000 2.9873
#
#
#
# Elastic Compliance Matrix: (Units=1/GPa)
#
#
# Indices 1 2 3 4 5 6 
#
# 1 0.014153 0.002307 0.000009 0.000000 -0.011072 0.000000
# 2 0.002307 0.018509 0.003355 0.000000 -0.005180 0.000000
# 3 0.000009 0.003355 0.017846 0.000000 -0.012993 0.000000
# 4 0.000000 0.000000 0.000000 0.207892 0.000000 -0.341344
# 5 -0.011072 -0.005180 -0.012993 0.000000 0.039430 0.000000
# 6 0.000000 0.000000 0.000000 -0.341344 0.000000 0.895219
#
#
# Mechanical properties :
#
#
# Convention : Reuss Voigt Hill
#
# Bulk Modulus (GPa) = 16.16865 29.20230 22.68548
# Shear Modulus (GPa) = 4.15862 27.79429 15.97645
#
# Velocity S-wave (km/s) = 1.35098 3.49263 2.64798
# Velocity P-wave (km/s) = 3.08702 5.39268 4.39379
#
# Compressibility (1/GPa) = 0.06184808
#
# Stress axis : x y z
#
# Youngs Moduli (GPa) = 70.65758 54.02908 56.03535
#
# Poissons Ratio (x) = -0.12462 -0.00049
# Poissons Ratio (y) = -0.16298 -0.18801
# Poissons Ratio (z) = -0.00061 -0.18127
#
# Static dielectric constant tensor:
#      x y z
#    x 1.744670 0.000000 -0.099990 
#    y 0.000000 1.861990 0.000000 
#    z -0.099990 0.000000 1.683230 
# 
# From -- ./inp_files/71340.got.cif
#   From: 2010.05.17/outbox.cif.g08.bks.cpg/sg11_36_cif.got.tgz:71340.got - 2010.06.03 12:22:45.
