data_PCOD9160672
_publ_section_title
;
Structure prediction by ZEFSAII (Michael W. Deem and Ramdas Pophale) SiO2 
 PCOD9160672
Probable space group: P 21/M
;
_chemical_formula_sum "Si O2"
_cell_formula_units_Z 32
_cell_length_a 19.851476
_cell_length_b 12.504634
_cell_length_c 8.222267
_cell_angle_alpha 90.000000
_cell_angle_beta 52.407002
_cell_angle_gamma 90.000000
_cell_volume 1617.261358
_symmetry_space_group_name_H-M "P 21/M"
_symmetry_group_IT_number 11
_symmetry_cell_setting 'monoclinic'
loop_
_space_group_symop_operation_xyz
x,y,z
-x,1/2+y,-z
-x,-y,-z
x,1/2-y,z
loop_
_atom_site_type_symbol
_atom_site_label
_atom_site_fract_x
_atom_site_fract_y
_atom_site_fract_z
Si Si1 0.473690 0.949992 0.787981
Si Si2 0.758571 0.877575 0.000819
Si Si3 0.233863 0.056407 0.381396
Si Si4 0.950487 0.629741 0.242995
Si Si5 0.218788 0.625727 0.650029
Si Si6 0.632724 0.039590 0.352790
Si Si7 0.087661 0.027677 0.032556
Si Si8 0.411298 0.365614 0.116719
O O1 0.552937 0.003553 0.577748
O O2 0.516618 0.870462 0.852259
O O3 0.407616 0.908911 0.750788
O O4 0.429990 0.041375 0.961351
O O5 0.747375 0.750000 0.008653
O O6 0.757326 0.929828 0.824069
O O7 0.686601 0.936205 0.214082
O O8 0.849301 0.907199 0.946056
O O9 0.146547 0.113446 0.559717
O O10 0.318327 0.112284 0.328654
O O11 0.231281 0.938235 0.462459
O O12 0.978412 0.750000 0.236958
O O13 0.950227 0.604966 0.050160
O O14 0.012067 0.539379 0.226204
O O15 0.199319 0.750000 0.657456
O O16 0.303393 0.610436 0.634924
O O17 0.145161 0.561094 0.853949
O O18 0.410787 0.250000 0.036536
#
# Coordination Sequence:
#
# PCOD9160672 Si02
#       8
#     4   4   4   4   4   4   4   4
#     4  10  22  39  57  85 119 148 199 254 287 364
#     4  11  22  39  63  90 126 160 193 248 304 348
#     4  11  22  39  59  91 119 157 205 246 291 367
#     4  10  19  36  62  88 122 159 199 247 298 350
#     4  10  21  40  61  81 117 162 199 248 306 354
#     4  10  21  39  58  84 118 151 202 248 295 358
#     4   9  21  37  59  92 120 155 203 249 288 361
#     4  11  22  39  61  86 121 160 195 246 309 356
#
# _framework density 19.786535000000001
#
# number of rings (size 3 to 8) (size 9 to 14) (size 15 to 20)
#    0.000    1.750    2.500    1.875    0.000    2.000 
#    0.000    6.250    0.000    0.000    0.000    0.000 
#    0.000    0.000    0.000    0.000    0.000    0.000 
#
# Total GULP energy -178588.252912 kJ/mol
# GULP energy per Si atom -5580.882903 kJ/mol
# Density = 1.974150 g / cm^3
# Si number density = 19.786535 Si / 1000 Ang^3
#
#
#
# Elastic Constant Matrix: (Units=GPa)
#
#
# Indices 1 2 3 4 5 6 
#
# 1 80.2410 0.0672 11.1820 0.0000 -8.1896 0.0000
# 2 0.0672 77.8889 24.1679 0.0000 0.3907 0.0000
# 3 11.1820 24.1679 65.8370 0.0000 -13.8531 0.0000
# 4 0.0000 0.0000 0.0000 -2.3201 0.0000 -2.5784
# 5 -8.1896 0.3907 -13.8531 0.0000 30.9457 0.0000
# 6 0.0000 0.0000 0.0000 -2.5784 0.0000 7.2959
#
#
#
# Elastic Compliance Matrix: (Units=1/GPa)
#
#
# Indices 1 2 3 4 5 6 
#
# 1 0.012987 0.000554 -0.001863 0.000000 0.002596 0.000000
# 2 0.000554 0.014741 -0.006087 0.000000 -0.002764 0.000000
# 3 -0.001863 -0.006087 0.019488 0.000000 0.008308 0.000000
# 4 0.000000 0.000000 0.000000 -0.309469 0.000000 -0.109368
# 5 0.002596 -0.002764 0.008308 0.000000 0.036756 0.000000
# 6 0.000000 0.000000 0.000000 -0.109368 0.000000 0.098413
#
#
# Mechanical properties :
#
#
# Convention : Reuss Voigt Hill
#
# Bulk Modulus (GPa) = 30.84179 32.75568 31.79873
# Shear Modulus (GPa) = -49.26811 19.75427 -14.75692
#
# Velocity S-wave (km/s) = -4.99538 3.16313 -2.73391
# Velocity P-wave (km/s) = 4.20128 5.47092 2.47793
#
# Compressibility (1/GPa) = 0.03242354
#
# Stress axis : x y z
#
# Youngs Moduli (GPa) = 77.00291 67.83861 51.31387
#
# Poissons Ratio (x) = -0.03757 0.09558
# Poissons Ratio (y) = -0.04264 0.31234
# Poissons Ratio (z) = 0.14344 0.41293
#
# Static dielectric constant tensor:
#      x y z
#    x 1.744950 0.000000 -0.005520 
#    y 0.000000 1.656790 0.000000 
#    z -0.005520 0.000000 1.698340 
# 
# From -- ./inp_files/26580.got.cif
#   From: 2010.05.17/outbox.cif.g08.bks.cpg/sg11_14_cif.got.tgz:26580.got - 2010.06.03 12:22:45.
