data_PCOD9160891
_publ_section_title
;
Structure prediction by ZEFSAII (Michael W. Deem and Ramdas Pophale) SiO2 
 PCOD9160891
Probable space group: P 21/M
;
_chemical_formula_sum "Si O2"
_cell_formula_units_Z 30
_cell_length_a 10.001767
_cell_length_b 30.936723
_cell_length_c 5.090305
_cell_angle_alpha 90.000000
_cell_angle_beta 88.433380
_cell_angle_gamma 90.000000
_cell_volume 1574.463085
_symmetry_space_group_name_H-M "P 21/M"
_symmetry_group_IT_number 11
_symmetry_cell_setting 'monoclinic'
loop_
_space_group_symop_operation_xyz
x,y,z
-x,1/2+y,-z
-x,-y,-z
x,1/2-y,z
loop_
_atom_site_type_symbol
_atom_site_label
_atom_site_fract_x
_atom_site_fract_y
_atom_site_fract_z
Si Si1 0.731008 0.588946 0.721208
Si Si2 0.444901 0.615330 0.813662
Si Si3 0.509153 0.171938 0.687862
Si Si4 0.915475 0.331946 0.796860
Si Si5 0.850025 0.388177 0.299731
Si Si6 0.719615 0.250000 0.748670
Si Si7 0.781892 0.648137 0.219486
Si Si8 0.035837 0.471625 0.247824
O O1 0.571534 0.584784 0.756885
O O2 0.768089 0.610942 0.442150
O O3 0.812102 0.545151 0.756209
O O4 0.773292 0.623656 0.941674
O O5 0.466975 0.655245 0.609391
O O6 0.300858 0.596985 0.750274
O O7 0.450914 0.634240 0.107284
O O8 0.602423 0.212366 0.737578
O O9 0.349950 0.177637 0.739094
O O10 0.866944 0.367010 0.584351
O O11 0.834991 0.288118 0.758252
O O12 0.075899 0.328699 0.761043
O O13 0.882977 0.351028 0.085586
O O14 0.949853 0.427731 0.257548
O O15 0.000000 0.500000 0.500000
O O16 0.000000 0.500000 0.000000
#
# Coordination Sequence:
#
# PCOD9160891 Si02
#       8
#     4   4   4   4   4   2   4   4
#     4  10  20  38  65  85 120 155 208 239 301 371
#     4  10  20  40  61  87 111 169 201 235 296 378
#     4  10  22  35  60  84 122 156 204 249 299 346
#     4  12  23  37  63  89 126 163 207 253 305 368
#     4  12  22  42  62  90 123 165 202 246 318 375
#     4  12  24  38  58  98 126 158 204 268 300 354
#     4  10  19  39  59  86 115 167 204 244 292 372
#     4  12  24  39  63  97 124 155 204 263 311 366
#
# _framework density 19.054113000000001
#
# number of rings (size 3 to 8) (size 9 to 14) (size 15 to 20)
#    0.000    1.067    5.333    1.600    0.000    2.667 
#    0.000    1.333    0.000    4.800    0.000    0.000 
#    0.000    0.000    0.000    0.000    0.000    0.000 
#
# Total GULP energy -167051.738822 kJ/mol
# GULP energy per Si atom -5568.391294 kJ/mol
# Density = 1.901074 g / cm^3
# Si number density = 19.054113 Si / 1000 Ang^3
#
#
#
# Elastic Constant Matrix: (Units=GPa)
#
#
# Indices 1 2 3 4 5 6 
#
# 1 118.6608 4.3906 3.2890 0.0000 12.2101 0.0000
# 2 4.3906 46.4683 -5.0768 0.0000 -1.7994 0.0000
# 3 3.2890 -5.0768 62.0247 0.0000 2.9382 0.0000
# 4 0.0000 0.0000 0.0000 -12.4951 0.0000 3.8131
# 5 12.2101 -1.7994 2.9382 0.0000 20.6044 0.0000
# 6 0.0000 0.0000 0.0000 3.8131 0.0000 17.2986
#
#
#
# Elastic Compliance Matrix: (Units=1/GPa)
#
#
# Indices 1 2 3 4 5 6 
#
# 1 0.009033 -0.001097 -0.000313 0.000000 -0.005404 0.000000
# 2 -0.001097 0.021904 0.001741 0.000000 0.002315 0.000000
# 3 -0.000313 0.001741 0.016376 0.000000 -0.001998 0.000000
# 4 0.000000 0.000000 0.000000 -0.074987 0.000000 0.016529
# 5 -0.005404 0.002315 -0.001998 0.000000 0.052223 0.000000
# 6 0.000000 0.000000 0.000000 0.016529 0.000000 0.054165
#
#
# Mechanical properties :
#
#
# Convention : Reuss Voigt Hill
#
# Bulk Modulus (GPa) = 20.84375 25.81771 23.33073
# Shear Modulus (GPa) = 53.16818 20.05165 36.60992
#
# Velocity S-wave (km/s) = 5.28813 3.24752 4.38809
# Velocity P-wave (km/s) = 6.94614 5.25746 6.15994
#
# Compressibility (1/GPa) = 0.04797602
#
# Stress axis : x y z
#
# Youngs Moduli (GPa) = 110.70890 45.65463 61.06365
#
# Poissons Ratio (x) = 0.05008 0.01910
# Poissons Ratio (y) = 0.12144 -0.10633
# Poissons Ratio (z) = 0.03463 -0.07950
#
# Static dielectric constant tensor:
#      x y z
#    x 1.707090 0.000000 0.002270 
#    y 0.000000 1.597030 0.000000 
#    z 0.002270 0.000000 1.658770 
# 
# From -- ./inp_files/3258.got.cif
#   From: 2010.05.17/outbox.cif.g08.bks.cpg/sg11_2_cif.got.tgz:3258.got - 2010.06.03 12:22:45.
