data_PCOD9160447
_publ_section_title
;
Structure prediction by ZEFSAII (Michael W. Deem and Ramdas Pophale) SiO2 
 PCOD9160447
Probable space group: P 21/M
;
_chemical_formula_sum "Si O2"
_cell_formula_units_Z 32
_cell_length_a 10.400263
_cell_length_b 18.498186
_cell_length_c 19.725808
_cell_angle_alpha 90.000000
_cell_angle_beta 26.986582
_cell_angle_gamma 90.000000
_cell_volume 1722.088085
_symmetry_space_group_name_H-M "P 21/M"
_symmetry_group_IT_number 11
_symmetry_cell_setting 'monoclinic'
loop_
_space_group_symop_operation_xyz
x,y,z
-x,1/2+y,-z
-x,-y,-z
x,1/2-y,z
loop_
_atom_site_type_symbol
_atom_site_label
_atom_site_fract_x
_atom_site_fract_y
_atom_site_fract_z
Si Si1 0.353518 0.981445 0.139055
Si Si2 0.776210 0.667310 0.508867
Si Si3 0.372831 0.039373 0.744268
Si Si4 0.255702 0.952834 0.937416
Si Si5 0.381267 0.167779 0.938601
Si Si6 0.300272 0.668679 0.352058
Si Si7 0.302802 0.031199 0.533028
Si Si8 0.180180 0.668303 0.864330
O O1 0.441352 0.897513 0.112391
O O2 0.017997 0.992816 0.301300
O O3 0.493804 0.034460 0.128416
O O4 0.500000 0.000000 0.000000
O O5 0.861659 0.750000 0.451582
O O6 0.735424 0.617106 0.462699
O O7 0.479817 0.668806 0.686769
O O8 0.009623 0.639867 0.453934
O O9 0.538662 0.115031 0.673382
O O10 0.337397 0.007735 0.837456
O O11 0.557351 0.994752 0.603844
O O12 0.039377 0.038199 0.882695
O O13 0.205967 0.879768 0.918777
O O14 0.394226 0.250000 0.962206
O O15 0.497973 0.173834 0.807738
O O16 0.056601 0.143446 0.078589
O O17 0.249811 0.750000 0.402645
O O18 0.500000 0.000000 0.500000
O O19 0.101982 0.750000 0.919473
#
# Coordination Sequence:
#
# PCOD9160447 Si02
#       8
#     4   4   4   4   4   4   4   4
#     4  12  26  41  60  87 121 162 201 248 298 353
#     4  10  21  37  61  90 118 151 197 247 296 355
#     4  11  21  36  61  89 120 152 192 241 298 349
#     4  11  20  36  60  89 121 151 192 243 292 350
#     4  10  19  37  63  89 115 151 200 245 293 354
#     4  10  19  35  60  91 119 147 197 250 294 348
#     4  12  26  41  60  86 122 162 201 245 299 357
#     4  10  20  34  60  94 123 153 193 246 299 349
#
# _framework density 18.582093
#
# number of rings (size 3 to 8) (size 9 to 14) (size 15 to 20)
#    0.000    1.250    5.000    1.500    3.500    1.000 
#    0.000    1.250    0.000    4.500    0.000    0.000 
#    0.000    0.000    0.000    0.000    0.000    0.000 
#
# Total GULP energy -178224.351024 kJ/mol
# GULP energy per Si atom -5569.510969 kJ/mol
# Density = 1.853980 g / cm^3
# Si number density = 18.582093 Si / 1000 Ang^3
#
#
#
# Elastic Constant Matrix: (Units=GPa)
#
#
# Indices 1 2 3 4 5 6 
#
# 1 63.1870 40.0695 40.5294 0.0000 -19.1762 0.0000
# 2 40.0695 98.0742 19.4271 0.0000 -12.2667 0.0000
# 3 40.5294 19.4271 136.1446 0.0000 -26.4425 0.0000
# 4 0.0000 0.0000 0.0000 19.0297 0.0000 -8.3846
# 5 -19.1762 -12.2667 -26.4425 0.0000 35.4498 0.0000
# 6 0.0000 0.0000 0.0000 -8.3846 0.0000 20.2781
#
#
#
# Elastic Compliance Matrix: (Units=1/GPa)
#
#
# Indices 1 2 3 4 5 6 
#
# 1 0.027409 -0.009179 -0.005364 0.000000 0.007649 0.000000
# 2 -0.009179 0.013836 0.000846 0.000000 0.000454 0.000000
# 3 -0.005364 0.000846 0.009723 0.000000 0.004644 0.000000
# 4 0.000000 0.000000 0.000000 0.064256 0.000000 0.026569
# 5 0.007649 0.000454 0.004644 0.000000 0.035968 0.000000
# 6 0.000000 0.000000 0.000000 0.026569 0.000000 0.060300
#
#
# Mechanical properties :
#
#
# Convention : Reuss Voigt Hill
#
# Bulk Modulus (GPa) = 42.41891 55.27309 48.84600
# Shear Modulus (GPa) = 20.26408 28.11016 24.18712
#
# Velocity S-wave (km/s) = 3.30588 3.89364 3.61173
# Velocity P-wave (km/s) = 6.11957 7.07275 6.61336
#
# Compressibility (1/GPa) = 0.02357439
#
# Stress axis : x y z
#
# Youngs Moduli (GPa) = 36.48463 72.27717 102.84746
#
# Poissons Ratio (x) = 0.66343 0.55167
# Poissons Ratio (y) = 0.33489 -0.08704
# Poissons Ratio (z) = 0.19570 -0.06117
#
# Static dielectric constant tensor:
#      x y z
#    x 1.632290 0.000000 -0.050070 
#    y 0.000000 1.734290 0.000000 
#    z -0.050070 0.000000 1.685230 
# 
# From -- ./inp_files/68690.got.cif
#   From: 2010.05.17/outbox.cif.g08.bks.cpg/sg11_35_cif.got.tgz:68690.got - 2010.06.03 12:22:45.
