data_PCOD9160304
_publ_section_title
;
Structure prediction by ZEFSAII (Michael W. Deem and Ramdas Pophale) SiO2 
 PCOD9160304
Probable space group: P 21/M
;
_chemical_formula_sum "Si O2"
_cell_formula_units_Z 32
_cell_length_a 13.862319
_cell_length_b 17.641860
_cell_length_c 8.913345
_cell_angle_alpha 90.000000
_cell_angle_beta 142.538907
_cell_angle_gamma 90.000000
_cell_volume 1325.816745
_symmetry_space_group_name_H-M "P 21/M"
_symmetry_group_IT_number 11
_symmetry_cell_setting 'monoclinic'
loop_
_space_group_symop_operation_xyz
x,y,z
-x,1/2+y,-z
-x,-y,-z
x,1/2-y,z
loop_
_atom_site_type_symbol
_atom_site_label
_atom_site_fract_x
_atom_site_fract_y
_atom_site_fract_z
Si Si1 0.915350 0.832437 0.057383
Si Si2 0.690104 0.573637 0.139408
Si Si3 0.658439 0.162292 0.038772
Si Si4 0.173544 0.495334 0.134066
Si Si5 0.448570 0.042040 0.705626
Si Si6 0.583879 0.163798 0.271766
Si Si7 0.012518 0.334102 0.517241
Si Si8 0.203832 0.838080 0.182056
O O1 0.828366 0.750000 0.942098
O O2 0.009629 0.830604 0.330578
O O3 0.038899 0.833203 0.072323
O O4 0.828649 0.913892 0.953309
O O5 0.644841 0.552804 0.253380
O O6 0.872987 0.595262 0.367662
O O7 0.598080 0.513104 0.922249
O O8 0.602962 0.649908 0.972202
O O9 0.614516 0.250000 0.990511
O O10 0.642609 0.126435 0.188104
O O11 0.842875 0.157186 0.232133
O O12 0.533487 0.121532 0.778082
O O13 0.321315 0.484015 0.428986
O O14 0.192953 0.579390 0.086938
O O15 0.000000 0.500000 0.000000
O O16 0.628546 0.250000 0.310653
O O17 0.661878 0.144825 0.525617
O O18 0.074384 0.250000 0.547016
O O19 0.230249 0.750000 0.156271
#
# Coordination Sequence:
#
# PCOD9160304 Si02
#       8
#     4   4   4   4   4   4   4   4
#     4   9  18  32  54  81 111 148 190 238 286 345
#     4  10  20  32  53  81 115 137 177 239 294 340
#     4   9  18  32  53  77 108 147 183 230 287 349
#     4  10  20  34  56  82 114 151 199 241 282 339
#     4  10  21  35  51  81 114 147 185 232 291 348
#     4   9  14  26  49  75 103 135 173 225 285 332
#     4  10  19  35  57  86 112 143 191 237 288 345
#     4   9  15  28  52  78 104 139 190 241 285 332
#
# _framework density 24.136067000000001
#
# number of rings (size 3 to 8) (size 9 to 14) (size 15 to 20)
#    0.000    2.500    2.500    0.375    0.000    1.500 
#    0.000    0.625    0.000    0.000    0.000    0.875 
#    0.000    0.000    0.000    0.000    0.000    0.000 
#
# Total GULP energy -178216.260395 kJ/mol
# GULP energy per Si atom -5569.258137 kJ/mol
# Density = 2.408113 g / cm^3
# Si number density = 24.136067 Si / 1000 Ang^3
#
#
#
# Elastic Constant Matrix: (Units=GPa)
#
#
# Indices 1 2 3 4 5 6 
#
# 1 29.0417 32.1875 0.5081 0.0000 -1.7354 0.0000
# 2 32.1875 184.1918 78.0151 0.0000 -7.6584 0.0000
# 3 0.5081 78.0151 78.0711 0.0000 3.0694 0.0000
# 4 0.0000 0.0000 0.0000 40.7728 0.0000 4.1502
# 5 -1.7354 -7.6584 3.0694 0.0000 25.5243 0.0000
# 6 0.0000 0.0000 0.0000 4.1502 0.0000 21.3684
#
#
#
# Elastic Compliance Matrix: (Units=1/GPa)
#
#
# Indices 1 2 3 4 5 6 
#
# 1 0.051268 -0.015596 0.015370 0.000000 -0.003042 0.000000
# 2 -0.015596 0.014577 -0.014664 0.000000 0.005077 0.000000
# 3 0.015370 -0.014664 0.027625 0.000000 -0.006677 0.000000
# 4 0.000000 0.000000 0.000000 0.025021 0.000000 -0.004860
# 5 -0.003042 0.005077 -0.006677 0.000000 0.041298 0.000000
# 6 0.000000 0.000000 0.000000 -0.004860 0.000000 0.047742
#
#
# Mechanical properties :
#
#
# Convention : Reuss Voigt Hill
#
# Bulk Modulus (GPa) = 15.70098 56.96955 36.33527
# Shear Modulus (GPa) = 19.33943 29.57269 24.45606
#
# Velocity S-wave (km/s) = 2.83374 3.50415 3.18662
# Velocity P-wave (km/s) = 4.15043 6.32668 5.35037
#
# Compressibility (1/GPa) = 0.06369029
#
# Stress axis : x y z
#
# Youngs Moduli (GPa) = 19.50548 68.60271 36.19895
#
# Poissons Ratio (x) = 1.06991 -0.55639
# Poissons Ratio (y) = 0.30420 0.53083
# Poissons Ratio (z) = -0.29981 1.00601
#
# Static dielectric constant tensor:
#      x y z
#    x 2.001610 0.000000 0.034190 
#    y 0.000000 2.107220 0.000000 
#    z 0.034190 0.000000 2.109080 
# 
# From -- ./inp_files/41880.got.cif
#   From: 2010.05.17/outbox.cif.g08.bks.cpg/sg11_21_cif.got.tgz:41880.got - 2010.06.03 12:22:45.
