data_PCOD9160216
_publ_section_title
;
Structure prediction by ZEFSAII (Michael W. Deem and Ramdas Pophale) SiO2 
 PCOD9160216
Probable space group: P 21/M
;
_chemical_formula_sum "Si O2"
_cell_formula_units_Z 28
_cell_length_a 9.803695
_cell_length_b 8.613687
_cell_length_c 26.498727
_cell_angle_alpha 90.000000
_cell_angle_beta 139.618621
_cell_angle_gamma 90.000000
_cell_volume 1449.750766
_symmetry_space_group_name_H-M "P 21/M"
_symmetry_group_IT_number 11
_symmetry_cell_setting 'monoclinic'
loop_
_space_group_symop_operation_xyz
x,y,z
-x,1/2+y,-z
-x,-y,-z
x,1/2-y,z
loop_
_atom_site_type_symbol
_atom_site_label
_atom_site_fract_x
_atom_site_fract_y
_atom_site_fract_z
Si Si1 0.282582 0.062477 0.917034
Si Si2 0.843720 0.435446 0.228302
Si Si3 0.937144 0.563231 0.427609
Si Si4 0.624959 0.434710 0.487958
Si Si5 0.281997 0.565319 0.323983
Si Si6 0.411586 0.438928 0.748255
Si Si7 0.838701 0.436465 0.825782
O O1 0.282969 0.250000 0.915946
O O2 0.080634 0.009254 0.893794
O O3 0.244096 0.001727 0.849471
O O4 0.500000 0.000000 0.000000
O O5 0.841625 0.250000 0.226569
O O6 0.705611 0.497116 0.235747
O O7 0.084757 0.494980 0.298783
O O8 0.930124 0.750000 0.429668
O O9 0.132282 0.517749 0.446554
O O10 0.000000 0.500000 0.500000
O O11 0.723024 0.514500 0.339438
O O12 0.500000 0.500000 0.500000
O O13 0.617627 0.250000 0.487412
O O14 0.499725 0.494958 0.403996
O O15 0.284719 0.750000 0.332306
O O16 0.240232 0.533973 0.253497
O O17 0.408483 0.250000 0.749507
O O18 0.653608 0.493025 0.810287
O O19 0.846485 0.250000 0.834338
#
# Coordination Sequence:
#
# PCOD9160216 Si02
#       7
#     4   4   4   4   4   4   4
#     4  10  20  38  62  89 116 146 181 222 270 326
#     4  11  22  36  56  85 115 147 183 225 274 330
#     4  10  22  36  53  77 108 145 188 233 283 335
#     4  11  22  34  49  75 106 140 182 232 282 331
#     4  10  19  35  56  77 102 140 186 232 277 328
#     4  10  19  36  57  79 109 147 186 229 277 330
#     4   8  17  33  57  82 105 137 180 223 270 324
#
# _framework density 19.313663999999999
#
# number of rings (size 3 to 8) (size 9 to 14) (size 15 to 20)
#    0.000    2.000    0.000    5.143    0.000    4.000 
#    0.000    5.000    0.000    0.000    0.000    0.000 
#    0.000    0.000    0.000    0.000    0.000    0.000 
#
# Total GULP energy -156312.541793 kJ/mol
# GULP energy per Si atom -5582.590778 kJ/mol
# Density = 1.926971 g / cm^3
# Si number density = 19.313664 Si / 1000 Ang^3
#
#
#
# Elastic Constant Matrix: (Units=GPa)
#
#
# Indices 1 2 3 4 5 6 
#
# 1 109.1842 21.8200 20.3802 0.0000 24.3052 0.0000
# 2 21.8200 34.5316 1.5285 0.0000 7.4353 0.0000
# 3 20.3802 1.5285 73.2275 0.0000 23.9378 0.0000
# 4 0.0000 0.0000 0.0000 29.2590 0.0000 -3.6888
# 5 24.3052 7.4353 23.9378 0.0000 30.6102 0.0000
# 6 0.0000 0.0000 0.0000 -3.6888 0.0000 21.1424
#
#
#
# Elastic Compliance Matrix: (Units=1/GPa)
#
#
# Indices 1 2 3 4 5 6 
#
# 1 0.012207 -0.006039 -0.000782 0.000000 -0.007614 0.000000
# 2 -0.006039 0.033863 0.002815 0.000000 -0.005631 0.000000
# 3 -0.000782 0.002815 0.018587 0.000000 -0.014598 0.000000
# 4 0.000000 0.000000 0.000000 0.034946 0.000000 0.006097
# 5 -0.007614 -0.005631 -0.014598 0.000000 0.051498 0.000000
# 6 0.000000 0.000000 0.000000 0.006097 0.000000 0.048362
#
#
# Mechanical properties :
#
#
# Convention : Reuss Voigt Hill
#
# Bulk Modulus (GPa) = 17.65436 33.82230 25.73833
# Shear Modulus (GPa) = 22.08894 27.74995 24.91945
#
# Velocity S-wave (km/s) = 3.38552 3.79463 3.59590
# Velocity P-wave (km/s) = 4.94399 6.06210 5.53137
#
# Compressibility (1/GPa) = 0.05664322
#
# Stress axis : x y z
#
# Youngs Moduli (GPa) = 81.92274 29.53081 53.80078
#
# Poissons Ratio (x) = 0.17834 0.04209
# Poissons Ratio (y) = 0.49475 -0.15144
# Poissons Ratio (z) = 0.06409 -0.08312
#
# Static dielectric constant tensor:
#      x y z
#    x 1.703450 0.000000 0.014600 
#    y 0.000000 1.656500 0.000000 
#    z 0.014600 0.000000 1.663900 
# 
# From -- ./inp_files/28627.got.cif
#   From: 2010.05.17/outbox.cif.g08.bks.cpg/sg11_15_cif.got.tgz:28627.got - 2010.06.03 12:22:45.
