data_PCOD9160720
_publ_section_title
;
Structure prediction by ZEFSAII (Michael W. Deem and Ramdas Pophale) SiO2 
 PCOD9160720
Probable space group: P 21/M
;
_chemical_formula_sum "Si O2"
_cell_formula_units_Z 32
_cell_length_a 15.075594
_cell_length_b 7.964727
_cell_length_c 24.185681
_cell_angle_alpha 90.000000
_cell_angle_beta 151.256067
_cell_angle_gamma 90.000000
_cell_volume 1396.544406
_symmetry_space_group_name_H-M "P 21/M"
_symmetry_group_IT_number 11
_symmetry_cell_setting 'monoclinic'
loop_
_space_group_symop_operation_xyz
x,y,z
-x,1/2+y,-z
-x,-y,-z
x,1/2-y,z
loop_
_atom_site_type_symbol
_atom_site_label
_atom_site_fract_x
_atom_site_fract_y
_atom_site_fract_z
Si Si1 0.212492 0.560884 0.696180
Si Si2 0.057022 0.049875 0.939898
Si Si3 0.671035 0.946361 0.753436
Si Si4 0.442785 0.057245 0.529545
Si Si5 0.535015 0.955290 0.796154
Si Si6 0.945423 0.953757 0.641850
Si Si7 0.484276 0.438169 0.929580
Si Si8 0.875233 0.949114 0.143014
O O1 0.162104 0.750000 0.650803
O O2 0.344748 0.482437 0.720885
O O3 0.362008 0.562517 0.827422
O O4 0.039159 0.484286 0.635483
O O5 0.054997 0.250000 0.948192
O O6 0.005157 0.022250 0.846591
O O7 0.266674 0.994547 0.068734
O O8 0.889173 0.970575 0.881890
O O9 0.636005 0.750000 0.726479
O O10 0.556084 0.004266 0.743910
O O11 0.603262 0.038126 0.661701
O O12 0.393739 0.250000 0.495475
O O13 0.259375 0.979319 0.457171
O O14 0.500000 0.000000 0.500000
O O15 0.528544 0.750000 0.796785
O O16 0.950537 0.750000 0.639832
O O17 0.053337 0.999906 0.757588
O O18 0.409432 0.250000 0.883972
O O19 0.500000 0.500000 0.000000
O O20 0.695252 0.447185 0.028539
O O21 0.831614 0.750000 0.120790
#
# Coordination Sequence:
#
# PCOD9160720 Si02
#       8
#     4   4   4   4   4   4   4   4
#     4  10  19  37  59  82 115 155 195 243 293 346
#     4  10  20  36  58  86 119 159 200 245 295 350
#     4  11  23  39  61  88 117 156 199 245 296 354
#     4  11  24  44  66  91 117 149 194 246 300 354
#     4   9  19  37  60  86 119 157 199 237 292 357
#     4  10  22  37  59  86 115 151 197 247 296 348
#     4  12  22  32  49  78 117 159 198 237 284 343
#     4  11  21  33  54  83 118 156 193 237 293 351
#
# _framework density 22.913699999999999
#
# number of rings (size 3 to 8) (size 9 to 14) (size 15 to 20)
#    0.000    1.500    2.500    3.375    0.000    4.000 
#    0.000    2.500    0.000    0.000    0.000    0.000 
#    0.000    0.000    0.000    0.000    0.000    0.000 
#
# Total GULP energy -178439.284250 kJ/mol
# GULP energy per Si atom -5576.227633 kJ/mol
# Density = 2.286155 g / cm^3
# Si number density = 22.913700 Si / 1000 Ang^3
#
#
#
# Elastic Constant Matrix: (Units=GPa)
#
#
# Indices 1 2 3 4 5 6 
#
# 1 193.4053 17.2902 39.1014 0.0000 20.1457 0.0000
# 2 17.2902 29.7743 -11.0199 0.0000 6.1166 0.0000
# 3 39.1014 -11.0199 48.4611 0.0000 19.4119 0.0000
# 4 0.0000 0.0000 0.0000 11.0746 0.0000 2.5094
# 5 20.1457 6.1166 19.4119 0.0000 40.3767 0.0000
# 6 0.0000 0.0000 0.0000 2.5094 0.0000 20.2910
#
#
#
# Elastic Compliance Matrix: (Units=1/GPa)
#
#
# Indices 1 2 3 4 5 6 
#
# 1 0.007374 -0.007642 -0.008270 0.000000 0.001455 0.000000
# 2 -0.007642 0.049819 0.023520 0.000000 -0.015042 0.000000
# 3 -0.008270 0.023520 0.040166 0.000000 -0.018747 0.000000
# 4 0.000000 0.000000 0.000000 0.092900 0.000000 -0.011489
# 5 0.001455 -0.015042 -0.018747 0.000000 0.035333 0.000000
# 6 0.000000 0.000000 0.000000 -0.011489 0.000000 0.050704
#
#
# Mechanical properties :
#
#
# Convention : Reuss Voigt Hill
#
# Bulk Modulus (GPa) = 8.88301 40.26489 24.57395
# Shear Modulus (GPa) = 16.74451 29.43306 23.08878
#
# Velocity S-wave (km/s) = 2.70620 3.58791 3.17778
# Velocity P-wave (km/s) = 3.69456 5.89700 4.92059
#
# Compressibility (1/GPa) = 0.11257451
#
# Stress axis : x y z
#
# Youngs Moduli (GPa) = 135.60727 20.07262 24.89663
#
# Poissons Ratio (x) = 0.15340 0.20591
# Poissons Ratio (y) = 1.03633 -0.58557
# Poissons Ratio (z) = 1.12153 -0.47211
#
# Static dielectric constant tensor:
#      x y z
#    x 2.060690 0.000000 0.118710 
#    y 0.000000 1.746530 0.000000 
#    z 0.118710 0.000000 1.888260 
# 
# From -- ./inp_files/51622.got.cif
#   From: 2010.05.17/outbox.cif.g08.bks.cpg/sg11_26_cif.got.tgz:51622.got - 2010.06.03 12:22:45.
