data_PCOD9160302
_publ_section_title
;
Structure prediction by ZEFSAII (Michael W. Deem and Ramdas Pophale) SiO2 
 PCOD9160302
Probable space group: P 21/M
;
_chemical_formula_sum "Si O2"
_cell_formula_units_Z 24
_cell_length_a 10.779579
_cell_length_b 19.701792
_cell_length_c 10.534361
_cell_angle_alpha 90.000000
_cell_angle_beta 144.474468
_cell_angle_gamma 90.000000
_cell_volume 1299.992818
_symmetry_space_group_name_H-M "P 21/M"
_symmetry_group_IT_number 11
_symmetry_cell_setting 'monoclinic'
loop_
_space_group_symop_operation_xyz
x,y,z
-x,1/2+y,-z
-x,-y,-z
x,1/2-y,z
loop_
_atom_site_type_symbol
_atom_site_label
_atom_site_fract_x
_atom_site_fract_y
_atom_site_fract_z
Si Si1 0.384112 0.324133 0.153392
Si Si2 0.187095 0.904681 0.511379
Si Si3 0.984700 0.595908 0.068722
Si Si4 0.805125 0.826981 0.289142
Si Si5 0.386632 0.468113 0.780460
Si Si6 0.347098 0.523849 0.256804
O O1 0.470066 0.250000 0.256656
O O2 0.575736 0.377573 0.321560
O O3 0.173844 0.340123 0.061429
O O4 0.302198 0.325040 0.940016
O O5 0.062320 0.915130 0.276995
O O6 0.052394 0.848978 0.476889
O O7 0.206682 0.976238 0.597642
O O8 0.201401 0.589491 0.169064
O O9 0.823693 0.536082 0.899232
O O10 0.786422 0.750000 0.326172
O O11 0.696401 0.891851 0.265508
O O12 0.533067 0.467177 0.776390
O O13 0.500000 0.500000 0.000000
O O14 0.500000 0.500000 0.500000
#
# Coordination Sequence:
#
# PCOD9160302 Si02
#       6
#     4   4   4   4   4   4
#     4  10  19  35  57  85 121 153 196 249 301 356
#     4  11  19  37  61  88 115 155 205 247 294 350
#     4  10  20  36  59  86 116 150 202 242 298 355
#     4  10  22  36  54  86 124 158 193 247 308 361
#     4  12  21  38  62  92 118 157 204 251 297 364
#     4  11  21  38  59  88 121 154 195 253 306 349
#
# _framework density 18.461641
#
# number of rings (size 3 to 8) (size 9 to 14) (size 15 to 20)
#    0.000    1.333    5.000    2.000    0.000    0.667 
#    0.000    0.833    0.000    1.000    0.000    0.000 
#    0.000    0.000    0.000    0.000    0.000    0.000 
#
# Total GULP energy -133685.671681 kJ/mol
# GULP energy per Si atom -5570.236320 kJ/mol
# Density = 1.841962 g / cm^3
# Si number density = 18.461641 Si / 1000 Ang^3
#
#
#
# Elastic Constant Matrix: (Units=GPa)
#
#
# Indices 1 2 3 4 5 6 
#
# 1 109.7096 43.6271 41.6203 0.0000 9.6843 0.0000
# 2 43.6271 132.0325 39.2020 0.0000 7.7696 0.0000
# 3 41.6203 39.2020 81.0348 0.0000 12.3176 0.0000
# 4 0.0000 0.0000 0.0000 25.9688 0.0000 7.6297
# 5 9.6843 7.7696 12.3176 0.0000 23.1664 0.0000
# 6 0.0000 0.0000 0.0000 7.6297 0.0000 24.3363
#
#
#
# Elastic Compliance Matrix: (Units=1/GPa)
#
#
# Indices 1 2 3 4 5 6 
#
# 1 0.012043 -0.002475 -0.004731 0.000000 -0.001689 0.000000
# 2 -0.002475 0.009365 -0.003197 0.000000 -0.000406 0.000000
# 3 -0.004731 -0.003197 0.017248 0.000000 -0.006120 0.000000
# 4 0.000000 0.000000 0.000000 0.042414 0.000000 -0.013297
# 5 -0.001689 -0.000406 -0.006120 0.000000 0.047262 0.000000
# 6 0.000000 0.000000 0.000000 -0.013297 0.000000 0.045260
#
#
# Mechanical properties :
#
#
# Convention : Reuss Voigt Hill
#
# Bulk Modulus (GPa) = 56.02975 63.51953 59.77464
# Shear Modulus (GPa) = 24.95634 27.91614 26.43624
#
# Velocity S-wave (km/s) = 3.68066 3.89281 3.78822
# Velocity P-wave (km/s) = 6.96263 7.39501 7.18208
#
# Compressibility (1/GPa) = 0.01784766
#
# Stress axis : x y z
#
# Youngs Moduli (GPa) = 83.03379 106.78008 57.97900
#
# Poissons Ratio (x) = 0.26431 0.27432
# Poissons Ratio (y) = 0.20553 0.18539
# Poissons Ratio (z) = 0.39287 0.34143
#
# Static dielectric constant tensor:
#      x y z
#    x 1.680310 0.000000 0.030590 
#    y 0.000000 1.687780 0.000000 
#    z 0.030590 0.000000 1.630750 
# 
# From -- ./inp_files/36176.got.cif
#   From: 2010.05.17/outbox.cif.g08.bks.cpg/sg11_19_cif.got.tgz:36176.got - 2010.06.03 12:22:45.
