data_PCOD9160856
_publ_section_title
;
Structure prediction by ZEFSAII (Michael W. Deem and Ramdas Pophale) SiO2 
 PCOD9160856
Probable space group: P 21/M
;
_chemical_formula_sum "Si O2"
_cell_formula_units_Z 32
_cell_length_a 23.735572
_cell_length_b 7.982280
_cell_length_c 15.207178
_cell_angle_alpha 90.000000
_cell_angle_beta 151.536948
_cell_angle_gamma 90.000000
_cell_volume 1373.162662
_symmetry_space_group_name_H-M "P 21/M"
_symmetry_group_IT_number 11
_symmetry_cell_setting 'monoclinic'
loop_
_space_group_symop_operation_xyz
x,y,z
-x,1/2+y,-z
-x,-y,-z
x,1/2-y,z
loop_
_atom_site_type_symbol
_atom_site_label
_atom_site_fract_x
_atom_site_fract_y
_atom_site_fract_z
Si Si1 0.471909 0.952511 0.312831
Si Si2 0.889467 0.952351 0.788368
Si Si3 0.694213 0.445262 0.165777
Si Si4 0.785385 0.451866 0.976655
Si Si5 0.211605 0.442606 0.525639
Si Si6 0.719368 0.549456 0.702466
Si Si7 0.115715 0.951741 0.711338
Si Si8 0.546896 0.442863 0.219897
O O1 0.467080 0.750000 0.308579
O O2 0.345064 0.012416 0.171980
O O3 0.584678 0.012859 0.524152
O O4 0.501600 0.004263 0.254064
O O5 0.885349 0.750000 0.777428
O O6 0.877013 0.011465 0.670783
O O7 0.777571 0.012557 0.692231
O O8 0.000000 0.000000 0.000000
O O9 0.667763 0.250000 0.114720
O O10 0.772206 0.464643 0.360214
O O11 0.770798 0.510469 0.188783
O O12 0.568795 0.536021 0.999759
O O13 0.786367 0.250000 0.978254
O O14 0.798624 0.504718 0.894582
O O15 0.875219 0.510037 0.175418
O O16 0.179921 0.250000 0.501910
O O17 0.341436 0.450597 0.658620
O O18 0.714538 0.750000 0.690700
O O19 0.121886 0.750000 0.720615
O O20 0.000000 0.000000 0.500000
O O21 0.584518 0.250000 0.270722
#
# Coordination Sequence:
#
# PCOD9160856 Si02
#       8
#     4   4   4   4   4   4   4   4
#     4  10  19  38  62  85 124 161 192 239 300 361
#     4  10  23  42  63  85 118 160 202 250 301 349
#     4  11  23  42  64  89 123 161 200 247 302 360
#     4  10  21  38  61  89 120 158 195 239 297 353
#     4  11  23  42  64  89 123 161 200 247 302 360
#     4  10  21  38  61  89 120 158 195 239 297 353
#     4  10  23  42  63  85 118 160 202 250 301 349
#     4  12  23  36  61  95 124 157 199 245 300 363
#
# _framework density 23.303865999999999
#
# number of rings (size 3 to 8) (size 9 to 14) (size 15 to 20)
#    0.000    1.500    2.500    2.625    0.000    5.000 
#    0.000    5.000    0.000    0.000    0.000    0.000 
#    0.000    0.000    0.000    0.000    0.000    0.000 
#
# Total GULP energy -178925.480004 kJ/mol
# GULP energy per Si atom -5591.421250 kJ/mol
# Density = 2.325082 g / cm^3
# Si number density = 23.303866 Si / 1000 Ang^3
#
#
#
# Elastic Constant Matrix: (Units=GPa)
#
#
# Indices 1 2 3 4 5 6 
#
# 1 37.1322 -7.3704 0.8630 0.0000 -29.8670 0.0000
# 2 -7.3704 23.8919 -3.7215 0.0000 1.6402 0.0000
# 3 0.8630 -3.7215 125.3465 0.0000 -29.7160 0.0000
# 4 0.0000 0.0000 0.0000 30.4050 0.0000 -6.7333
# 5 -29.8670 1.6402 -29.7160 0.0000 41.2458 0.0000
# 6 0.0000 0.0000 0.0000 -6.7333 0.0000 21.3384
#
#
#
# Elastic Compliance Matrix: (Units=1/GPa)
#
#
# Indices 1 2 3 4 5 6 
#
# 1 0.105061 0.029564 0.021601 0.000000 0.090463 0.000000
# 2 0.029564 0.050399 0.007107 0.000000 0.024524 0.000000
# 3 0.021601 0.007107 0.014087 0.000000 0.025508 0.000000
# 4 0.000000 0.000000 0.000000 0.035360 0.000000 0.011158
# 5 0.090463 0.024524 0.025508 0.000000 0.107154 0.000000
# 6 0.000000 0.000000 0.000000 0.011158 0.000000 0.050385
#
#
# Mechanical properties :
#
#
# Convention : Reuss Voigt Hill
#
# Bulk Modulus (GPa) = 3.49539 18.43474 10.96507
# Shear Modulus (GPa) = 14.65134 31.70445 23.17790
#
# Velocity S-wave (km/s) = 2.51013 3.69247 3.15714
# Velocity P-wave (km/s) = 3.14709 5.10949 4.24329
#
# Compressibility (1/GPa) = 0.28609085
#
# Stress axis : x y z
#
# Youngs Moduli (GPa) = 9.51832 19.84167 70.98512
#
# Poissons Ratio (x) = -0.58661 -1.53333
# Poissons Ratio (y) = -0.28140 -0.50447
# Poissons Ratio (z) = -0.20560 -0.14101
#
# Static dielectric constant tensor:
#      x y z
#    x 1.875890 0.000000 -0.006270 
#    y 0.000000 1.908830 0.000000 
#    z -0.006270 0.000000 1.918150 
# 
# From -- ./inp_files/55734.got.cif
#   From: 2010.05.17/outbox.cif.g08.bks.cpg/sg11_28_cif.got.tgz:55734.got - 2010.06.03 12:22:45.
