data_PCOD9160777
_publ_section_title
;
Structure prediction by ZEFSAII (Michael W. Deem and Ramdas Pophale) SiO2 
 PCOD9160777
Probable space group: P 21/M
;
_chemical_formula_sum "Si O2"
_cell_formula_units_Z 28
_cell_length_a 27.069136
_cell_length_b 8.477070
_cell_length_c 10.326633
_cell_angle_alpha 90.000000
_cell_angle_beta 37.928510
_cell_angle_gamma 90.000000
_cell_volume 1456.553400
_symmetry_space_group_name_H-M "P 21/M"
_symmetry_group_IT_number 11
_symmetry_cell_setting 'monoclinic'
loop_
_space_group_symop_operation_xyz
x,y,z
-x,1/2+y,-z
-x,-y,-z
x,1/2-y,z
loop_
_atom_site_type_symbol
_atom_site_label
_atom_site_fract_x
_atom_site_fract_y
_atom_site_fract_z
Si Si1 0.058369 0.436318 0.768428
Si Si2 0.771786 0.059503 0.486522
Si Si3 0.755410 0.442953 0.971379
Si Si4 0.520073 0.560307 0.814231
Si Si5 0.357000 0.941305 0.030011
Si Si6 0.304297 0.940678 0.623434
Si Si7 0.936521 0.438558 0.527051
O O1 0.049875 0.250000 0.777277
O O2 0.148417 0.483080 0.622712
O O3 0.041061 0.508419 0.663598
O O4 0.000000 0.500000 0.000000
O O5 0.781348 0.250000 0.471277
O O6 0.697030 0.018272 0.733498
O O7 0.751393 0.011474 0.382381
O O8 0.755649 0.250000 0.968794
O O9 0.690177 0.496506 0.999861
O O10 0.845427 0.493977 0.747358
O O11 0.730089 0.493271 0.167411
O O12 0.520333 0.750000 0.816856
O O13 0.606061 0.500249 0.589172
O O14 0.500000 0.500000 0.000000
O O15 0.447735 0.505878 0.869168
O O16 0.358878 0.750000 0.019276
O O17 0.306506 0.750000 0.618802
O O18 0.935629 0.250000 0.533609
O O19 0.000000 0.500000 0.500000
#
# Coordination Sequence:
#
# PCOD9160777 Si02
#       7
#     4   4   4   4   4   4   4
#     4  12  26  43  64  94 126 162 207 260 314 372
#     4  10  19  37  62  86 118 158 200 248 303 365
#     4   9  19  37  61  85 115 158 201 237 295 368
#     4  11  21  35  57  86 118 155 199 251 302 354
#     4   9  17  34  59  83 113 156 198 240 298 358
#     4  10  21  37  59  88 119 157 198 243 300 366
#     4  11  23  42  66  94 126 167 208 254 308 372
#
# _framework density 19.223462999999999
#
# number of rings (size 3 to 8) (size 9 to 14) (size 15 to 20)
#    0.000    1.714    2.857    2.143    2.000    1.143 
#    0.000    1.429    0.000    0.000    0.000    0.000 
#    0.000    0.000    0.000    0.000    0.000    0.000 
#
# Total GULP energy -156422.139058 kJ/mol
# GULP energy per Si atom -5586.504966 kJ/mol
# Density = 1.917971 g / cm^3
# Si number density = 19.223463 Si / 1000 Ang^3
#
#
#
# Elastic Constant Matrix: (Units=GPa)
#
#
# Indices 1 2 3 4 5 6 
#
# 1 175.6233 29.8563 60.8516 0.0000 18.8175 0.0000
# 2 29.8563 33.2155 21.9759 0.0000 3.1608 0.0000
# 3 60.8516 21.9759 108.2869 0.0000 22.1597 0.0000
# 4 0.0000 0.0000 0.0000 24.5910 0.0000 -5.8318
# 5 18.8175 3.1608 22.1597 0.0000 38.0150 0.0000
# 6 0.0000 0.0000 0.0000 -5.8318 0.0000 29.0342
#
#
#
# Elastic Compliance Matrix: (Units=1/GPa)
#
#
# Indices 1 2 3 4 5 6 
#
# 1 0.007738 -0.004788 -0.003037 0.000000 -0.001662 0.000000
# 2 -0.004788 0.037803 -0.005476 0.000000 0.002419 0.000000
# 3 -0.003037 -0.005476 0.013230 0.000000 -0.005753 0.000000
# 4 0.000000 0.000000 0.000000 0.042699 0.000000 0.008577
# 5 -0.001662 0.002419 -0.005753 0.000000 0.030281 0.000000
# 6 0.000000 0.000000 0.000000 0.008577 0.000000 0.036165
#
#
# Mechanical properties :
#
#
# Convention : Reuss Voigt Hill
#
# Bulk Modulus (GPa) = 31.08550 60.27703 45.68127
# Shear Modulus (GPa) = 24.36151 31.95751 28.15951
#
# Velocity S-wave (km/s) = 3.56375 4.08170 3.83149
# Velocity P-wave (km/s) = 5.75669 7.32378 6.58700
#
# Compressibility (1/GPa) = 0.03216934
#
# Stress axis : x y z
#
# Youngs Moduli (GPa) = 129.22738 26.45265 75.58677
#
# Poissons Ratio (x) = 0.12667 0.22953
# Poissons Ratio (y) = 0.61880 0.41392
# Poissons Ratio (z) = 0.39241 0.14486
#
# Static dielectric constant tensor:
#      x y z
#    x 1.661970 0.000000 -0.000730 
#    y 0.000000 1.658330 0.000000 
#    z -0.000730 0.000000 1.644390 
# 
# From -- ./inp_files/28376.got.cif
#   From: 2010.05.17/outbox.cif.g08.bks.cpg/sg11_15_cif.got.tgz:28376.got - 2010.06.03 12:22:45.
