data_PCOD9160812
_publ_section_title
;
Structure prediction by ZEFSAII (Michael W. Deem and Ramdas Pophale) SiO2 
 PCOD9160812
Probable space group: P 21/M
;
_chemical_formula_sum "Si O2"
_cell_formula_units_Z 24
_cell_length_a 12.610138
_cell_length_b 13.045360
_cell_length_c 15.580394
_cell_angle_alpha 90.000000
_cell_angle_beta 152.611071
_cell_angle_gamma 90.000000
_cell_volume 1179.067924
_symmetry_space_group_name_H-M "P 21/M"
_symmetry_group_IT_number 11
_symmetry_cell_setting 'monoclinic'
loop_
_space_group_symop_operation_xyz
x,y,z
-x,1/2+y,-z
-x,-y,-z
x,1/2-y,z
loop_
_atom_site_type_symbol
_atom_site_label
_atom_site_fract_x
_atom_site_fract_y
_atom_site_fract_z
Si Si1 0.452116 0.628546 0.008841
Si Si2 0.181668 0.132135 0.867581
Si Si3 0.930580 0.569101 0.666139
Si Si4 0.510449 0.870921 0.244679
Si Si5 0.199601 0.438500 0.066178
Si Si6 0.740522 0.545253 0.706661
O O1 0.472943 0.750000 0.015735
O O2 0.179992 0.608264 0.817287
O O3 0.610668 0.591918 0.044162
O O4 0.550315 0.602782 0.173404
O O5 0.124084 0.250000 0.807406
O O6 0.257929 0.122527 0.021657
O O7 0.969669 0.054016 0.700187
O O8 0.736598 0.605069 0.462015
O O9 0.855594 0.602335 0.708295
O O10 0.450349 0.750000 0.208226
O O11 0.316442 0.949476 0.137934
O O12 0.278423 0.397627 0.215484
O O13 0.924255 0.455899 0.863202
O O14 0.500000 0.500000 0.500000
#
# Coordination Sequence:
#
# PCOD9160812 Si02
#       6
#     4   4   4   4   4   4
#     4  10  21  40  62  91 125 159 204 261 311 364
#     4  10  22  42  63  87 125 166 210 253 304 372
#     4  11  21  38  66  88 126 163 203 255 312 361
#     4  11  22  37  61  95 122 156 205 252 309 371
#     4  10  21  39  63  85 122 162 196 253 304 355
#     4  10  19  37  64  86 120 161 199 249 303 359
#
# _framework density 20.355060000000002
#
# number of rings (size 3 to 8) (size 9 to 14) (size 15 to 20)
#    0.000    1.667    5.000    1.000    0.000    0.667 
#    0.000   10.000    0.000    0.000    0.000    0.000 
#    0.000    0.000    0.000    0.000    0.000    0.000 
#
# Total GULP energy -133773.919119 kJ/mol
# GULP energy per Si atom -5573.913297 kJ/mol
# Density = 2.030873 g / cm^3
# Si number density = 20.355060 Si / 1000 Ang^3
#
#
#
# Elastic Constant Matrix: (Units=GPa)
#
#
# Indices 1 2 3 4 5 6 
#
# 1 131.1849 23.2712 38.6509 0.0000 2.6256 0.0000
# 2 23.2712 60.3897 4.2002 0.0000 -6.5619 0.0000
# 3 38.6509 4.2002 114.2293 0.0000 -15.0797 0.0000
# 4 0.0000 0.0000 0.0000 22.2043 0.0000 -3.2417
# 5 2.6256 -6.5619 -15.0797 0.0000 16.3623 0.0000
# 6 0.0000 0.0000 0.0000 -3.2417 0.0000 7.0628
#
#
#
# Elastic Compliance Matrix: (Units=1/GPa)
#
#
# Indices 1 2 3 4 5 6 
#
# 1 0.009704 -0.004216 -0.004050 0.000000 -0.006980 0.000000
# 2 -0.004216 0.019156 0.002079 0.000000 0.010274 0.000000
# 3 -0.004050 0.002079 0.011663 0.000000 0.012232 0.000000
# 4 0.000000 0.000000 0.000000 0.048271 0.000000 0.022155
# 5 -0.006980 0.010274 0.012232 0.000000 0.077630 0.000000
# 6 0.000000 0.000000 0.000000 0.022155 0.000000 0.151755
#
#
# Mechanical properties :
#
#
# Convention : Reuss Voigt Hill
#
# Bulk Modulus (GPa) = 35.52706 48.67206 42.09956
# Shear Modulus (GPa) = 14.70869 25.10467 19.90668
#
# Velocity S-wave (km/s) = 2.69105 3.51570 3.13065
# Velocity P-wave (km/s) = 5.21030 6.35953 5.81338
#
# Compressibility (1/GPa) = 0.02814756
#
# Stress axis : x y z
#
# Youngs Moduli (GPa) = 103.05434 52.20398 85.74138
#
# Poissons Ratio (x) = 0.22010 0.34723
# Poissons Ratio (y) = 0.43449 -0.17822
# Poissons Ratio (z) = 0.41735 -0.10851
#
# Static dielectric constant tensor:
#      x y z
#    x 1.815310 0.000000 -0.010500 
#    y 0.000000 1.768800 0.000000 
#    z -0.010500 0.000000 1.696070 
# 
# From -- ./inp_files/39711.got.cif
#   From: 2010.05.17/outbox.cif.g08.bks.cpg/sg11_20_cif.got.tgz:39711.got - 2010.06.03 12:22:45.
