data_PCOD9160161
_publ_section_title
;
Structure prediction by ZEFSAII (Michael W. Deem and Ramdas Pophale) SiO2 
 PCOD9160161
Probable space group: P 21/M
;
_chemical_formula_sum "Si O2"
_cell_formula_units_Z 24
_cell_length_a 11.590160
_cell_length_b 13.811580
_cell_length_c 13.654462
_cell_angle_alpha 90.000000
_cell_angle_beta 148.385822
_cell_angle_gamma 90.000000
_cell_volume 1145.781038
_symmetry_space_group_name_H-M "P 21/M"
_symmetry_group_IT_number 11
_symmetry_cell_setting 'monoclinic'
loop_
_space_group_symop_operation_xyz
x,y,z
-x,1/2+y,-z
-x,-y,-z
x,1/2-y,z
loop_
_atom_site_type_symbol
_atom_site_label
_atom_site_fract_x
_atom_site_fract_y
_atom_site_fract_z
Si Si1 0.437797 0.861106 0.284952
Si Si2 0.309362 0.986053 0.640566
Si Si3 0.826087 0.977399 0.236497
Si Si4 0.873727 0.473235 0.809750
Si Si5 0.716702 0.863156 0.980992
Si Si6 0.930764 0.362002 0.156040
O O1 0.479963 0.750000 0.340221
O O2 0.343254 0.919696 0.309757
O O3 0.640107 0.916002 0.381414
O O4 0.252130 0.862369 0.063506
O O5 0.078935 0.944914 0.436139
O O6 0.276430 0.007001 0.731543
O O7 0.522365 0.918262 0.782951
O O8 0.702017 0.897695 0.082752
O O9 0.836184 0.075984 0.178936
O O10 0.871699 0.571745 0.745113
O O11 0.043895 0.401010 0.879242
O O12 0.000000 0.500000 0.000000
O O13 0.696668 0.750000 0.954238
O O14 0.981215 0.250000 0.214330
#
# Coordination Sequence:
#
# PCOD9160161 Si02
#       6
#     4   4   4   4   4   4
#     4  10  19  34  61  89 117 155 199 238 292 355
#     4  11  22  40  60  86 116 161 196 241 294 348
#     4  10  23  40  59  84 124 150 199 249 289 341
#     4   9  16  35  58  88 117 149 193 241 290 346
#     4  11  22  38  62  87 117 155 194 240 297 347
#     4   9  18  34  59  86 115 154 192 236 289 346
#
# _framework density 20.946411000000001
#
# number of rings (size 3 to 8) (size 9 to 14) (size 15 to 20)
#    0.000    2.000    5.000    1.000    0.000    3.333 
#    0.000    6.667    0.000    2.000    0.000    0.000 
#    0.000    0.000    0.000    0.000    0.000    0.000 
#
# Total GULP energy -133972.176928 kJ/mol
# GULP energy per Si atom -5582.174039 kJ/mol
# Density = 2.089874 g / cm^3
# Si number density = 20.946411 Si / 1000 Ang^3
#
#
#
# Elastic Constant Matrix: (Units=GPa)
#
#
# Indices 1 2 3 4 5 6 
#
# 1 100.1241 45.8587 8.8639 0.0000 3.4168 0.0000
# 2 45.8587 135.8293 -12.1840 0.0000 3.3926 0.0000
# 3 8.8639 -12.1840 39.8496 0.0000 9.2851 0.0000
# 4 0.0000 0.0000 0.0000 7.2049 0.0000 -3.3956
# 5 3.4168 3.3926 9.2851 0.0000 31.0561 0.0000
# 6 0.0000 0.0000 0.0000 -3.3956 0.0000 11.1182
#
#
#
# Elastic Compliance Matrix: (Units=1/GPa)
#
#
# Indices 1 2 3 4 5 6 
#
# 1 0.012459 -0.004600 -0.004273 0.000000 0.000409 0.000000
# 2 -0.004600 0.009346 0.004300 0.000000 -0.001801 0.000000
# 3 -0.004273 0.004300 0.029408 0.000000 -0.008792 0.000000
# 4 0.000000 0.000000 0.000000 0.162132 0.000000 0.049517
# 5 0.000409 -0.001801 -0.008792 0.000000 0.034980 0.000000
# 6 0.000000 0.000000 0.000000 0.049517 0.000000 0.105066
#
#
# Mechanical properties :
#
#
# Convention : Reuss Voigt Hill
#
# Bulk Modulus (GPa) = 23.77132 40.09778 31.93455
# Shear Modulus (GPa) = 13.27815 25.42679 19.35247
#
# Velocity S-wave (km/s) = 2.52049 3.48788 3.04288
# Velocity P-wave (km/s) = 4.45463 5.95021 5.25589
#
# Compressibility (1/GPa) = 0.04206750
#
# Stress axis : x y z
#
# Youngs Moduli (GPa) = 80.26493 106.99898 34.00410
#
# Poissons Ratio (x) = 0.49218 0.14530
# Poissons Ratio (y) = 0.36921 -0.14622
# Poissons Ratio (z) = 0.34297 -0.46012
#
# Static dielectric constant tensor:
#      x y z
#    x 1.636630 0.000000 -0.079350 
#    y 0.000000 1.718920 0.000000 
#    z -0.079350 0.000000 1.726400 
# 
# From -- ./inp_files/50440.got.cif
#   From: 2010.05.17/outbox.cif.g08.bks.cpg/sg11_26_cif.got.tgz:50440.got - 2010.06.03 12:22:45.
