data_PCOD9160556
_publ_section_title
;
Structure prediction by ZEFSAII (Michael W. Deem and Ramdas Pophale) SiO2 
 PCOD9160556
Probable space group: P 21/M
;
_chemical_formula_sum "Si O2"
_cell_formula_units_Z 26
_cell_length_a 21.876419
_cell_length_b 7.694595
_cell_length_c 14.418871
_cell_angle_alpha 90.000000
_cell_angle_beta 30.241898
_cell_angle_gamma 90.000000
_cell_volume 1222.429052
_symmetry_space_group_name_H-M "P 21/M"
_symmetry_group_IT_number 11
_symmetry_cell_setting 'monoclinic'
loop_
_space_group_symop_operation_xyz
x,y,z
-x,1/2+y,-z
-x,-y,-z
x,1/2-y,z
loop_
_atom_site_type_symbol
_atom_site_label
_atom_site_fract_x
_atom_site_fract_y
_atom_site_fract_z
Si Si1 0.406719 0.061800 0.291869
Si Si2 0.584596 0.750000 0.120527
Si Si3 0.261072 0.552223 0.308898
Si Si4 0.186615 0.545501 0.703155
Si Si5 0.925813 0.541412 0.963874
Si Si6 0.992332 0.050015 0.678643
Si Si7 0.238883 0.960542 0.124789
O O1 0.468056 0.250000 0.218584
O O2 0.494369 0.902698 0.196623
O O3 0.342075 0.047504 0.276555
O O4 0.298279 0.048639 0.509087
O O5 0.674868 0.593188 0.042027
O O6 0.304039 0.750000 0.254051
O O7 0.264008 0.489949 0.199267
O O8 0.118892 0.549052 0.522314
O O9 0.199648 0.750000 0.665468
O O10 0.058740 0.484025 0.827301
O O11 0.171425 0.519760 0.832996
O O12 0.924561 0.750000 0.963366
O O13 0.916954 0.469703 0.872423
O O14 0.027062 0.250000 0.619641
O O15 0.900600 0.997616 0.717939
O O16 0.251900 0.750000 0.095076
#
# Coordination Sequence:
#
# PCOD9160556 Si02
#       7
#     4   2   4   4   4   4   4
#     4  12  24  41  65  95 129 165 213 264 318 379
#     4  12  26  46  66  88 120 178 220 268 314 360
#     4  11  22  41  63  96 130 165 209 262 325 382
#     4  10  19  36  58  93 132 163 199 251 314 384
#     4  10  20  32  58  95 132 163 197 248 319 384
#     4  11  22  38  64  96 130 169 205 259 323 385
#     4  10  26  45  63  92 126 168 221 265 312 376
#
# _framework density 21.269129
#
# number of rings (size 3 to 8) (size 9 to 14) (size 15 to 20)
#    0.000    1.231    3.077    2.769    4.308    1.846 
#    0.000    0.000    0.000    0.923    0.000    0.000 
#    0.000    0.000    0.000    0.000    0.000    0.000 
#
# Total GULP energy -144795.496936 kJ/mol
# GULP energy per Si atom -5569.057574 kJ/mol
# Density = 2.122072 g / cm^3
# Si number density = 21.269129 Si / 1000 Ang^3
#
#
#
# Elastic Constant Matrix: (Units=GPa)
#
#
# Indices 1 2 3 4 5 6 
#
# 1 4.9737 6.4760 37.2963 0.0000 -4.6606 0.0000
# 2 6.4760 113.7694 9.7527 0.0000 -13.9744 0.0000
# 3 37.2963 9.7527 33.3213 0.0000 5.0470 0.0000
# 4 0.0000 0.0000 0.0000 5.4601 0.0000 -21.4641
# 5 -4.6606 -13.9744 5.0470 0.0000 31.3743 0.0000
# 6 0.0000 0.0000 0.0000 -21.4641 0.0000 -47.7171
#
#
#
# Elastic Compliance Matrix: (Units=1/GPa)
#
#
# Indices 1 2 3 4 5 6 
#
# 1 -0.024304 -0.002273 0.029282 0.000000 -0.009333 0.000000
# 2 -0.002273 0.009485 -0.000841 0.000000 0.004023 0.000000
# 3 0.029282 -0.000841 -0.003198 0.000000 0.004489 0.000000
# 4 0.000000 0.000000 0.000000 0.066159 0.000000 -0.029760
# 5 -0.009333 0.004023 0.004489 0.000000 0.031556 0.000000
# 6 0.000000 0.000000 0.000000 -0.029760 0.000000 -0.007570
#
#
# Mechanical properties :
#
#
# Convention : Reuss Voigt Hill
#
# Bulk Modulus (GPa) = 29.13855 28.79050 28.96452
# Shear Modulus (GPa) = 160.08254 4.39274 82.23764
#
# Velocity S-wave (km/s) = 8.68496 1.43868 6.22489
# Velocity P-wave (km/s) = 10.69117 4.04047 8.08166
#
# Compressibility (1/GPa) = 0.03431880
#
# Stress axis : x y z
#
# Youngs Moduli (GPa) = -41.14632 105.42625 -312.71172
#
# Poissons Ratio (x) = 0.23965 9.15674
# Poissons Ratio (y) = -0.09353 -0.26306
# Poissons Ratio (z) = 1.20484 0.08869
#
# Static dielectric constant tensor:
#      x y z
#    x 1.771850 0.000000 0.026180 
#    y 0.000000 1.753920 0.000000 
#    z 0.026180 0.000000 1.799850 
# 
# From -- ./inp_files/54164.got.cif
#   From: 2010.05.17/outbox.cif.g08.bks.cpg/sg11_28_cif.got.tgz:54164.got - 2010.06.03 12:22:45.
