data_PCOD9160559
_publ_section_title
;
Structure prediction by ZEFSAII (Michael W. Deem and Ramdas Pophale) SiO2 
 PCOD9160559
Probable space group: P 21/M
;
_chemical_formula_sum "Si O2"
_cell_formula_units_Z 32
_cell_length_a 27.715731
_cell_length_b 10.523426
_cell_length_c 13.719920
_cell_angle_alpha 90.000000
_cell_angle_beta 26.879641
_cell_angle_gamma 90.000000
_cell_volume 1809.200382
_symmetry_space_group_name_H-M "P 21/M"
_symmetry_group_IT_number 11
_symmetry_cell_setting 'monoclinic'
loop_
_space_group_symop_operation_xyz
x,y,z
-x,1/2+y,-z
-x,-y,-z
x,1/2-y,z
loop_
_atom_site_type_symbol
_atom_site_label
_atom_site_fract_x
_atom_site_fract_y
_atom_site_fract_z
Si Si1 0.308387 0.609883 0.623095
Si Si2 0.338494 0.106917 0.416379
Si Si3 0.149226 0.602094 0.087934
Si Si4 0.913501 0.601825 0.472386
Si Si5 0.477040 0.028640 0.654698
Si Si6 0.759728 0.609554 0.936121
Si Si7 0.576201 0.390209 0.062382
Si Si8 0.722276 0.598283 0.698419
O O1 0.310798 0.750000 0.573121
O O2 0.297952 0.500140 0.562572
O O3 0.418716 0.592210 0.484961
O O4 0.212307 0.603106 0.872794
O O5 0.303060 0.250000 0.507355
O O6 0.466499 0.105050 0.199044
O O7 0.305681 0.083583 0.364353
O O8 0.146971 0.750000 0.127711
O O9 0.211815 0.507582 0.045979
O O10 0.029263 0.548884 0.289703
O O11 0.936774 0.750000 0.412554
O O12 0.832343 0.593271 0.709371
O O13 0.843473 0.559042 0.506711
O O14 0.500000 0.000000 0.500000
O O15 0.453957 0.911012 0.769612
O O16 0.366242 0.104999 0.858375
O O17 0.784723 0.750000 0.932426
O O18 0.625040 0.250000 0.961653
O O19 0.647250 0.506366 0.896663
O O20 0.709299 0.750000 0.746146
#
# Coordination Sequence:
#
# PCOD9160559 Si02
#       8
#     4   4   4   4   4   4   4   4
#     4  10  21  36  55  80 110 147 183 219 269 326
#     4   9  20  36  55  80 110 144 179 221 275 326
#     4  10  21  38  56  77 109 147 182 221 273 325
#     4   9  19  36  57  80 106 140 185 227 266 318
#     4  11  21  36  53  82 115 148 181 217 266 326
#     4  11  21  35  57  83 108 142 186 227 266 317
#     4  10  21  34  52  82 114 144 177 223 275 321
#     4  10  19  36  59  80 106 143 184 225 271 324
#
# _framework density 17.687370999999999
#
# number of rings (size 3 to 8) (size 9 to 14) (size 15 to 20)
#    0.000    2.000    2.500    1.125    0.000    4.500 
#    0.000    1.250    0.000    0.000    0.000    0.000 
#    0.000    0.000    0.000    0.000    0.000    0.000 
#
# Total GULP energy -178276.408441 kJ/mol
# GULP energy per Si atom -5571.137764 kJ/mol
# Density = 1.764711 g / cm^3
# Si number density = 17.687371 Si / 1000 Ang^3
#
#
#
# Elastic Constant Matrix: (Units=GPa)
#
#
# Indices 1 2 3 4 5 6 
#
# 1 68.3993 44.9487 23.3831 0.0000 12.8063 0.0000
# 2 44.9487 102.7760 27.6332 0.0000 11.4384 0.0000
# 3 23.3831 27.6332 76.6157 0.0000 -9.3832 0.0000
# 4 0.0000 0.0000 0.0000 22.3302 0.0000 3.9804
# 5 12.8063 11.4384 -9.3832 0.0000 14.6473 0.0000
# 6 0.0000 0.0000 0.0000 3.9804 0.0000 16.3842
#
#
#
# Elastic Compliance Matrix: (Units=1/GPa)
#
#
# Indices 1 2 3 4 5 6 
#
# 1 0.026178 -0.006604 -0.008441 0.000000 -0.023138 0.000000
# 2 -0.006604 0.014732 -0.004340 0.000000 -0.008511 0.000000
# 3 -0.008441 -0.004340 0.020089 0.000000 0.023639 0.000000
# 4 0.000000 0.000000 0.000000 0.046810 0.000000 -0.011372
# 5 -0.023138 -0.008511 0.023639 0.000000 0.110291 0.000000
# 6 0.000000 0.000000 0.000000 -0.011372 0.000000 0.063797
#
#
# Mechanical properties :
#
#
# Convention : Reuss Voigt Hill
#
# Bulk Modulus (GPa) = 44.98895 48.85790 46.92342
# Shear Modulus (GPa) = 15.24029 20.79406 18.01717
#
# Velocity S-wave (km/s) = 2.93857 3.43249 3.19509
# Velocity P-wave (km/s) = 6.08313 6.58728 6.34022
#
# Compressibility (1/GPa) = 0.02222768
#
# Stress axis : x y z
#
# Youngs Moduli (GPa) = 38.20058 67.87746 49.77859
#
# Poissons Ratio (x) = 0.44826 0.42019
# Poissons Ratio (y) = 0.25228 0.21606
# Poissons Ratio (z) = 0.32246 0.29462
#
# Static dielectric constant tensor:
#      x y z
#    x 1.609310 0.000000 -0.018220 
#    y 0.000000 1.627400 0.000000 
#    z -0.018220 0.000000 1.603560 
# 
# From -- ./inp_files/44218.got.cif
#   From: 2010.05.17/outbox.cif.g08.bks.cpg/sg11_23_cif.got.tgz:44218.got - 2010.06.03 12:22:45.
