data_PCOD9160082
_publ_section_title
;
Structure prediction by ZEFSAII (Michael W. Deem and Ramdas Pophale) SiO2 
 PCOD9160082
Probable space group: P 21/M
;
_chemical_formula_sum "Si O2"
_cell_formula_units_Z 28
_cell_length_a 11.704404
_cell_length_b 9.227274
_cell_length_c 15.212389
_cell_angle_alpha 90.000000
_cell_angle_beta 114.811054
_cell_angle_gamma 90.000000
_cell_volume 1491.285592
_symmetry_space_group_name_H-M "P 21/M"
_symmetry_group_IT_number 11
_symmetry_cell_setting 'monoclinic'
loop_
_space_group_symop_operation_xyz
x,y,z
-x,1/2+y,-z
-x,-y,-z
x,1/2-y,z
loop_
_atom_site_type_symbol
_atom_site_label
_atom_site_fract_x
_atom_site_fract_y
_atom_site_fract_z
Si Si1 0.554271 0.423272 0.603452
Si Si2 0.359881 0.076481 0.696476
Si Si3 0.164480 0.921465 0.334099
Si Si4 0.969607 0.578500 0.853400
Si Si5 0.132633 0.577730 0.529817
Si Si6 0.523403 0.075529 0.915059
Si Si7 0.803942 0.422667 0.946988
O O1 0.500000 0.500000 0.500000
O O2 0.551992 0.250000 0.588550
O O3 0.468611 0.455168 0.659777
O O4 0.699998 0.464359 0.661798
O O5 0.336187 0.250000 0.686388
O O6 0.416054 0.038377 0.809473
O O7 0.236701 0.991271 0.626928
O O8 0.145355 0.750000 0.313858
O O9 0.170948 0.946993 0.440361
O O10 0.056259 0.007938 0.249138
O O11 0.950297 0.750000 0.843391
O O12 0.870625 0.507018 0.889346
O O13 0.107336 0.551871 0.939315
O O14 0.122810 0.750000 0.540479
O O15 0.000000 0.500000 0.500000
O O16 0.523792 0.250000 0.925700
O O17 0.660608 0.035851 0.920303
O O18 0.500000 0.000000 0.000000
O O19 0.807144 0.250000 0.928098
#
# Coordination Sequence:
#
# PCOD9160082 Si02
#       7
#     4   4   4   4   4   4   4
#     4  10  19  34  58  86 116 148 187 234 286 344
#     4  10  21  38  61  87 117 152 190 241 299 349
#     4  10  21  37  56  82 117 155 187 227 289 346
#     4  10  20  33  57  89 115 146 189 236 283 339
#     4  11  24  41  60  82 114 154 195 236 282 343
#     4  10  22  40  61  84 114 154 198 244 292 344
#     4   9  19  38  58  80 116 153 186 233 294 344
#
# _framework density 18.775746999999999
#
# number of rings (size 3 to 8) (size 9 to 14) (size 15 to 20)
#    0.000    2.000    1.429    1.714    0.000    6.857 
#    0.000    4.286    0.000    0.000    0.000    0.000 
#    0.000    0.000    0.000    0.000    0.000    0.000 
#
# Total GULP energy -156390.572128 kJ/mol
# GULP energy per Si atom -5585.377576 kJ/mol
# Density = 1.873301 g / cm^3
# Si number density = 18.775747 Si / 1000 Ang^3
#
#
#
# Elastic Constant Matrix: (Units=GPa)
#
#
# Indices 1 2 3 4 5 6 
#
# 1 88.2381 41.8322 47.6785 0.0000 21.5125 0.0000
# 2 41.8322 44.1612 66.0335 0.0000 11.2216 0.0000
# 3 47.6785 66.0335 154.6291 0.0000 16.9548 0.0000
# 4 0.0000 0.0000 0.0000 38.1190 0.0000 -1.0335
# 5 21.5125 11.2216 16.9548 0.0000 25.0835 0.0000
# 6 0.0000 0.0000 0.0000 -1.0335 0.0000 27.3686
#
#
#
# Elastic Compliance Matrix: (Units=1/GPa)
#
#
# Indices 1 2 3 4 5 6 
#
# 1 0.025457 -0.031123 0.006814 0.000000 -0.012515 0.000000
# 2 -0.031123 0.103496 -0.035049 0.000000 0.004082 0.000000
# 3 0.006814 -0.035049 0.019716 0.000000 -0.003491 0.000000
# 4 0.000000 0.000000 0.000000 0.026261 0.000000 0.000992
# 5 -0.012515 0.004082 -0.003491 0.000000 0.051134 0.000000
# 6 0.000000 0.000000 0.000000 0.000992 0.000000 0.036576
#
#
# Mechanical properties :
#
#
# Convention : Reuss Voigt Hill
#
# Bulk Modulus (GPa) = 33.38430 66.45742 49.92086
# Shear Modulus (GPa) = 12.77660 26.87981 19.82820
#
# Velocity S-wave (km/s) = 2.61144 3.78779 3.25322
# Velocity P-wave (km/s) = 5.18767 7.38931 6.38412
#
# Compressibility (1/GPa) = 0.02995420
#
# Stress axis : x y z
#
# Youngs Moduli (GPa) = 39.28135 9.66220 50.71954
#
# Poissons Ratio (x) = 0.30071 -0.34558
# Poissons Ratio (y) = 1.22254 1.77765
# Poissons Ratio (z) = -0.26764 0.33865
#
# Static dielectric constant tensor:
#      x y z
#    x 1.640880 0.000000 0.002840 
#    y 0.000000 1.623730 0.000000 
#    z 0.002840 0.000000 1.650900 
# 
# From -- ./inp_files/37493.got.cif
#   From: 2010.05.17/outbox.cif.g08.bks.cpg/sg11_19_cif.got.tgz:37493.got - 2010.06.03 12:22:45.
