data_PCOD9160467
_publ_section_title
;
Structure prediction by ZEFSAII (Michael W. Deem and Ramdas Pophale) SiO2 
 PCOD9160467
Probable space group: P 21/M
;
_chemical_formula_sum "Si O2"
_cell_formula_units_Z 12
_cell_length_a 12.485455
_cell_length_b 5.454671
_cell_length_c 22.046962
_cell_angle_alpha 90.000000
_cell_angle_beta 161.210380
_cell_angle_gamma 90.000000
_cell_volume 483.620364
_symmetry_space_group_name_H-M "P 21/M"
_symmetry_group_IT_number 11
_symmetry_cell_setting 'monoclinic'
loop_
_space_group_symop_operation_xyz
x,y,z
-x,1/2+y,-z
-x,-y,-z
x,1/2-y,z
loop_
_atom_site_type_symbol
_atom_site_label
_atom_site_fract_x
_atom_site_fract_y
_atom_site_fract_z
Si Si1 0.428982 0.750000 0.998673
Si Si2 0.952047 0.750000 0.528445
Si Si3 0.129779 0.250000 0.147648
Si Si4 0.265200 0.250000 0.077557
Si Si5 0.048480 0.250000 0.612745
Si Si6 0.352304 0.250000 0.393573
O O1 0.042103 0.750000 0.806905
O O2 0.500000 0.500000 0.000000
O O3 0.667058 0.750000 0.184966
O O4 0.354679 0.750000 0.741053
O O5 0.854628 0.505541 0.510270
O O6 0.827506 0.750000 0.392181
O O7 0.249331 0.250000 0.142124
O O8 0.391938 0.250000 0.342523
O O9 0.917455 0.501583 0.040981
O O10 0.500000 0.500000 0.500000
#
# Coordination Sequence:
#
# PCOD9160467 Si02
#       6
#     2   2   2   2   2   2
#     4  12  26  45  68  95 132 177 223 270 322 384
#     4  10  19  35  61  89 118 153 198 257 319 381
#     4  10  22  38  59  88 121 160 204 255 320 381
#     4  10  19  35  61  89 118 153 198 257 319 381
#     4  10  22  38  59  88 121 160 204 255 320 381
#     4  12  26  45  68  95 132 177 223 270 322 384
#
# _framework density 24.812851999999999
#
# number of rings (size 3 to 8) (size 9 to 14) (size 15 to 20)
#    0.000    1.333    0.000    6.000    0.000    2.667 
#    0.000    0.000    0.000    0.000    0.000    0.000 
#    0.000    0.000    0.000    0.000    0.000    0.000 
#
# Total GULP energy -67278.722220 kJ/mol
# GULP energy per Si atom -5606.560185 kJ/mol
# Density = 2.475638 g / cm^3
# Si number density = 24.812852 Si / 1000 Ang^3
#
#
#
# Elastic Constant Matrix: (Units=GPa)
#
#
# Indices 1 2 3 4 5 6 
#
# 1 119.4710 81.1663 56.4602 0.0000 -24.5235 0.0000
# 2 81.1663 299.4918 88.6015 0.0000 -33.4186 0.0000
# 3 56.4602 88.6015 109.2289 0.0000 -50.3456 0.0000
# 4 0.0000 0.0000 0.0000 52.9113 0.0000 3.9926
# 5 -24.5235 -33.4186 -50.3456 0.0000 58.4049 0.0000
# 6 0.0000 0.0000 0.0000 3.9926 0.0000 34.9740
#
#
#
# Elastic Compliance Matrix: (Units=1/GPa)
#
#
# Indices 1 2 3 4 5 6 
#
# 1 0.011794 -0.001829 -0.004667 0.000000 -0.000117 0.000000
# 2 -0.001829 0.004707 -0.003294 0.000000 -0.000914 0.000000
# 3 -0.004667 -0.003294 0.020687 0.000000 0.013988 0.000000
# 4 0.000000 0.000000 0.000000 0.019064 0.000000 -0.002176
# 5 -0.000117 -0.000914 0.013988 0.000000 0.028607 0.000000
# 6 0.000000 0.000000 0.000000 -0.002176 0.000000 0.028841
#
#
# Mechanical properties :
#
#
# Convention : Reuss Voigt Hill
#
# Bulk Modulus (GPa) = 56.79232 108.96083 82.87658
# Shear Modulus (GPa) = 35.93254 49.38896 42.66075
#
# Velocity S-wave (km/s) = 3.80957 4.46630 4.15094
# Velocity P-wave (km/s) = 6.50296 8.40271 7.51312
#
# Compressibility (1/GPa) = 0.01760801
#
# Stress axis : x y z
#
# Youngs Moduli (GPa) = 84.78785 212.44043 48.33992
#
# Poissons Ratio (x) = 0.38851 0.22560
# Poissons Ratio (y) = 0.15506 0.15925
# Poissons Ratio (z) = 0.39570 0.69986
#
# Static dielectric constant tensor:
#      x y z
#    x 1.959900 0.000000 0.022480 
#    y 0.000000 2.052850 0.000000 
#    z 0.022480 0.000000 1.943300 
# 
# From -- ./inp_files/25407.got.cif
#   From: 2010.05.17/outbox.cif.g08.bks.cpg/sg11_13_cif.got.tgz:25407.got - 2010.06.03 12:22:45.
