data_PCOD9160925
_publ_section_title
;
Structure prediction by ZEFSAII (Michael W. Deem and Ramdas Pophale) SiO2 
 PCOD9160925
Probable space group: P 21/M
;
_chemical_formula_sum "Si O2"
_cell_formula_units_Z 22
_cell_length_a 6.835564
_cell_length_b 14.688480
_cell_length_c 11.726127
_cell_angle_alpha 90.000000
_cell_angle_beta 108.698864
_cell_angle_gamma 90.000000
_cell_volume 1115.206058
_symmetry_space_group_name_H-M "P 21/M"
_symmetry_group_IT_number 11
_symmetry_cell_setting 'monoclinic'
loop_
_space_group_symop_operation_xyz
x,y,z
-x,1/2+y,-z
-x,-y,-z
x,1/2-y,z
loop_
_atom_site_type_symbol
_atom_site_label
_atom_site_fract_x
_atom_site_fract_y
_atom_site_fract_z
Si Si1 0.923231 0.423848 0.821922
Si Si2 0.012351 0.906566 0.431729
Si Si3 0.648786 0.250000 0.476893
Si Si4 0.203169 0.396872 0.086580
Si Si5 0.117963 0.750000 0.886708
Si Si6 0.661124 0.250000 0.842930
Si Si7 0.528659 0.250000 0.202741
Si Si8 0.682382 0.750000 0.384543
O O1 0.982949 0.430481 0.701664
O O2 0.794705 0.509382 0.845019
O O3 0.780959 0.336223 0.814304
O O4 0.120626 0.413878 0.943085
O O5 0.208985 0.840796 0.493339
O O6 0.820297 0.840026 0.421554
O O7 0.000000 0.000000 0.500000
O O8 0.517250 0.250000 0.336637
O O9 0.498183 0.250000 0.556493
O O10 0.410448 0.338417 0.132506
O O11 0.026516 0.335900 0.114777
O O12 0.232451 0.750000 0.788574
O O13 0.298812 0.750000 0.015047
O O14 0.426749 0.250000 0.759341
#
# Coordination Sequence:
#
# PCOD9160925 Si02
#       8
#     4   4   2   4   2   2   2   2
#     4  10  20  43  63  89 128 152 206 248 303 360
#     4  11  26  41  66  90 122 167 204 251 302 365
#     4  11  26  45  58  94 127 159 210 251 299 365
#     4   9  22  40  63  90 123 164 187 259 306 349
#     4   9  21  38  61  92 122 157 203 245 303 360
#     4  10  19  40  66  89 119 158 203 258 298 353
#     4  11  24  38  66  87 126 159 203 244 306 364
#     4  11  24  43  65  88 120 165 205 256 300 358
#
# _framework density 19.727297
#
# number of rings (size 3 to 8) (size 9 to 14) (size 15 to 20)
#    0.000    1.818    1.818    1.091    7.636    3.636 
#    0.000    2.727    0.000    0.000    0.000    0.000 
#    0.000    0.000    0.000    0.000    0.000    0.000 
#
# Total GULP energy -122900.969072 kJ/mol
# GULP energy per Si atom -5586.407685 kJ/mol
# Density = 1.968240 g / cm^3
# Si number density = 19.727297 Si / 1000 Ang^3
#
#
#
# Elastic Constant Matrix: (Units=GPa)
#
#
# Indices 1 2 3 4 5 6 
#
# 1 59.2874 39.8847 10.2310 0.0000 -0.9972 0.0000
# 2 39.8847 178.2739 50.4028 0.0000 -7.3229 0.0000
# 3 10.2310 50.4028 68.8089 0.0000 -8.7153 0.0000
# 4 0.0000 0.0000 0.0000 69.3265 0.0000 2.1810
# 5 -0.9972 -7.3229 -8.7153 0.0000 18.1917 0.0000
# 6 0.0000 0.0000 0.0000 2.1810 0.0000 2.4855
#
#
#
# Elastic Compliance Matrix: (Units=1/GPa)
#
#
# Indices 1 2 3 4 5 6 
#
# 1 0.019869 -0.004557 0.000308 0.000000 -0.000598 0.000000
# 2 -0.004557 0.008122 -0.005205 0.000000 0.000526 0.000000
# 3 0.000308 -0.005205 0.019202 0.000000 0.007121 0.000000
# 4 0.000000 0.000000 0.000000 0.014834 0.000000 -0.013017
# 5 -0.000598 0.000526 0.007121 0.000000 0.058560 0.000000
# 6 0.000000 0.000000 0.000000 -0.013017 0.000000 0.413750
#
#
# Mechanical properties :
#
#
# Convention : Reuss Voigt Hill
#
# Bulk Modulus (GPa) = 35.35446 56.37859 45.86653
# Shear Modulus (GPa) = 8.88613 31.72421 20.30517
#
# Velocity S-wave (km/s) = 2.12468 4.01451 3.21174
# Velocity P-wave (km/s) = 4.89689 7.08021 6.08724
#
# Compressibility (1/GPa) = 0.02828497
#
# Stress axis : x y z
#
# Youngs Moduli (GPa) = 50.32865 123.12011 52.07772
#
# Poissons Ratio (x) = 0.56105 -0.01604
# Poissons Ratio (y) = 0.22934 0.27108
# Poissons Ratio (z) = -0.01550 0.64088
#
# Static dielectric constant tensor:
#      x y z
#    x 1.672970 0.000000 0.018920 
#    y 0.000000 1.583770 0.000000 
#    z 0.018920 0.000000 1.694290 
# 
# From -- ./inp_files/4287.got.cif
#   From: 2010.05.17/outbox.cif.g08.bks.cpg/sg11_3_cif.got.tgz:4287.got - 2010.06.03 12:22:45.
