data_PCOD9160200
_publ_section_title
;
Structure prediction by ZEFSAII (Michael W. Deem and Ramdas Pophale) SiO2 
 PCOD9160200
Probable space group: P 21/M
;
_chemical_formula_sum "Si O2"
_cell_formula_units_Z 32
_cell_length_a 21.059330
_cell_length_b 7.637572
_cell_length_c 27.020096
_cell_angle_alpha 90.000000
_cell_angle_beta 158.974455
_cell_angle_gamma 90.000000
_cell_volume 1559.265244
_symmetry_space_group_name_H-M "P 21/M"
_symmetry_group_IT_number 11
_symmetry_cell_setting 'monoclinic'
loop_
_space_group_symop_operation_xyz
x,y,z
-x,1/2+y,-z
-x,-y,-z
x,1/2-y,z
loop_
_atom_site_type_symbol
_atom_site_label
_atom_site_fract_x
_atom_site_fract_y
_atom_site_fract_z
Si Si1 0.280681 0.460705 0.202677
Si Si2 0.200022 0.460452 0.660996
Si Si3 0.482781 0.041529 0.785941
Si Si4 0.365072 0.539227 0.588817
Si Si5 0.886155 0.954379 0.099523
Si Si6 0.297026 0.460196 0.840753
Si Si7 0.975500 0.965334 0.273803
Si Si8 0.984807 0.040340 0.909557
O O1 0.282698 0.250000 0.200845
O O2 0.475395 0.524668 0.330189
O O3 0.198846 0.505614 0.196250
O O4 0.140453 0.526606 0.059311
O O5 0.217431 0.250000 0.674688
O O6 0.341370 0.525326 0.723365
O O7 0.242595 0.527522 0.746961
O O8 0.000000 0.500000 0.500000
O O9 0.499347 0.250000 0.803683
O O10 0.413960 0.004328 0.680786
O O11 0.677489 0.965491 0.936305
O O12 0.361397 0.750000 0.582535
O O13 0.171145 0.477481 0.432315
O O14 0.936217 0.750000 0.138754
O O15 0.928298 0.027491 0.184293
O O16 0.987504 0.030099 0.125498
O O17 0.277573 0.250000 0.825231
O O18 0.168466 0.524538 0.790694
O O19 0.500000 0.500000 0.000000
O O20 0.971699 0.750000 0.271147
O O21 0.007350 0.250000 0.923524
#
# Coordination Sequence:
#
# PCOD9160200 Si02
#       8
#     4   4   4   4   4   4   4   4
#     4   9  17  30  50  76 103 135 172 211 259 309
#     4  10  22  37  53  77 108 137 174 219 265 315
#     4  11  22  34  52  80 108 137 173 219 269 312
#     4  10  19  36  57  79 106 140 179 218 260 313
#     4  10  19  35  55  79 105 136 179 218 256 310
#     4  10  20  36  55  78 104 137 177 216 261 312
#     4   9  19  34  57  80 102 136 178 219 259 307
#     4   9  17  30  49  75 105 135 170 214 258 303
#
# _framework density 20.522487000000002
#
# number of rings (size 3 to 8) (size 9 to 14) (size 15 to 20)
#    0.000    2.250    1.250    1.875    0.000    3.500 
#    0.000    1.875    0.000    0.000    0.000    0.000 
#    0.000    0.000    0.000    0.000    0.000    0.000 
#
# Total GULP energy -178700.177636 kJ/mol
# GULP energy per Si atom -5584.380551 kJ/mol
# Density = 2.047578 g / cm^3
# Si number density = 20.522487 Si / 1000 Ang^3
#
#
#
# Elastic Constant Matrix: (Units=GPa)
#
#
# Indices 1 2 3 4 5 6 
#
# 1 235.3091 1.4627 112.0036 0.0000 13.2837 0.0000
# 2 1.4627 36.2054 -3.4087 0.0000 4.2490 0.0000
# 3 112.0036 -3.4087 118.8089 0.0000 -9.8884 0.0000
# 4 0.0000 0.0000 0.0000 -29.3192 0.0000 -10.6230
# 5 13.2837 4.2490 -9.8884 0.0000 33.7706 0.0000
# 6 0.0000 0.0000 0.0000 -10.6230 0.0000 4.6913
#
#
#
# Elastic Compliance Matrix: (Units=1/GPa)
#
#
# Indices 1 2 3 4 5 6 
#
# 1 0.008764 -0.000481 -0.008771 0.000000 -0.005955 0.000000
# 2 -0.000481 0.028092 0.001005 0.000000 -0.003051 0.000000
# 3 -0.008771 0.001005 0.017416 0.000000 0.008423 0.000000
# 4 0.000000 0.000000 0.000000 -0.018736 0.000000 -0.042425
# 5 -0.005955 -0.003051 0.008423 0.000000 0.034804 0.000000
# 6 0.000000 0.000000 0.000000 -0.042425 0.000000 0.117093
#
#
# Mechanical properties :
#
#
# Convention : Reuss Voigt Hill
#
# Bulk Modulus (GPa) = 26.47029 67.82654 47.14841
# Shear Modulus (GPa) = 23.09254 20.51293 21.80274
#
# Velocity S-wave (km/s) = 3.35809 3.16497 3.26296
# Velocity P-wave (km/s) = 5.28790 6.81745 6.10080
#
# Compressibility (1/GPa) = 0.03777821
#
# Stress axis : x y z
#
# Youngs Moduli (GPa) = 114.10370 35.59694 57.41921
#
# Poissons Ratio (x) = 0.01712 0.50365
# Poissons Ratio (y) = 0.05488 -0.05773
# Poissons Ratio (z) = 1.00085 -0.03579
#
# Static dielectric constant tensor:
#      x y z
#    x 1.738140 0.000000 0.006620 
#    y 0.000000 1.798230 0.000000 
#    z 0.006620 0.000000 1.683350 
# 
# From -- ./inp_files/72139.got.cif
#   From: 2010.05.17/outbox.cif.g08.bks.cpg/sg11_37_cif.got.tgz:72139.got - 2010.06.03 12:22:45.
