data_PCOD9160795
_publ_section_title
;
Structure prediction by ZEFSAII (Michael W. Deem and Ramdas Pophale) SiO2 
 PCOD9160795
Probable space group: P 21/M
;
_chemical_formula_sum "Si O2"
_cell_formula_units_Z 30
_cell_length_a 11.649927
_cell_length_b 12.374065
_cell_length_c 9.237789
_cell_angle_alpha 90.000000
_cell_angle_beta 107.143420
_cell_angle_gamma 90.000000
_cell_volume 1272.524349
_symmetry_space_group_name_H-M "P 21/M"
_symmetry_group_IT_number 11
_symmetry_cell_setting 'monoclinic'
loop_
_space_group_symop_operation_xyz
x,y,z
-x,1/2+y,-z
-x,-y,-z
x,1/2-y,z
loop_
_atom_site_type_symbol
_atom_site_label
_atom_site_fract_x
_atom_site_fract_y
_atom_site_fract_z
Si Si1 0.999145 0.250000 0.808020
Si Si2 0.826813 0.128319 0.814080
Si Si3 0.185538 0.066785 0.533335
Si Si4 0.447047 0.578551 0.268770
Si Si5 0.858657 0.530966 0.068133
Si Si6 0.917370 0.124720 0.351094
Si Si7 0.385625 0.127813 0.396541
Si Si8 0.346683 0.129553 0.862441
O O1 0.087803 0.150271 0.893860
O O2 0.905398 0.152216 0.703347
O O3 0.876619 0.250000 0.895258
O O4 0.685448 0.128605 0.769063
O O5 0.869295 0.025515 0.917173
O O6 0.262914 0.078792 0.417028
O O7 0.257562 0.127671 0.688204
O O8 0.053065 0.113827 0.461969
O O9 0.174325 0.945380 0.586940
O O10 0.522206 0.622722 0.434252
O O11 0.434659 0.451115 0.292973
O O12 0.523597 0.602079 0.154944
O O13 0.911286 0.442701 0.198704
O O14 0.717210 0.546096 0.054242
O O15 0.886811 0.250000 0.321490
O O16 0.366732 0.250000 0.343765
O O17 0.350743 0.250000 0.924496
#
# Coordination Sequence:
#
# PCOD9160795 Si02
#       8
#     2   4   4   4   4   4   4   4
#     4  10  24  42  60  86 118 162 190 246 288 364
#     4  10  23  40  62  86 122 148 195 247 297 348
#     4   9  19  34  54  85 116 159 195 239 289 360
#     4  10  21  39  60  90 115 155 197 241 295 352
#     4  11  22  41  60  88 114 159 200 238 298 349
#     4  10  20  35  55  85 121 153 203 244 296 339
#     4  10  20  38  60  85 122 155 198 240 298 347
#     4  10  19  37  63  80 116 153 197 238 289 354
#
# _framework density 23.575188000000001
#
# number of rings (size 3 to 8) (size 9 to 14) (size 15 to 20)
#    0.400    1.600    0.667    4.000    1.867    0.533 
#    2.400   12.667    0.000    0.000    0.000    0.000 
#    0.000    0.000    0.000    0.000    0.000    0.000 
#
# Total GULP energy -167117.128217 kJ/mol
# GULP energy per Si atom -5570.570941 kJ/mol
# Density = 2.352153 g / cm^3
# Si number density = 23.575188 Si / 1000 Ang^3
#
#
#
# Elastic Constant Matrix: (Units=GPa)
#
#
# Indices 1 2 3 4 5 6 
#
# 1 109.0036 48.0086 3.5819 0.0000 20.3618 0.0000
# 2 48.0086 198.2114 30.5880 0.0000 -5.2993 0.0000
# 3 3.5819 30.5880 41.4118 0.0000 3.2726 0.0000
# 4 0.0000 0.0000 0.0000 6.4796 0.0000 0.4715
# 5 20.3618 -5.2993 3.2726 0.0000 26.8876 0.0000
# 6 0.0000 0.0000 0.0000 0.4715 0.0000 27.5023
#
#
#
# Elastic Compliance Matrix: (Units=1/GPa)
#
#
# Indices 1 2 3 4 5 6 
#
# 1 0.012748 -0.003763 0.002523 0.000000 -0.010702 0.000000
# 2 -0.003763 0.006878 -0.005137 0.000000 0.004831 0.000000
# 3 0.002523 -0.005137 0.028226 0.000000 -0.006358 0.000000
# 4 0.000000 0.000000 0.000000 0.154524 0.000000 -0.002649
# 5 -0.010702 0.004831 -0.006358 0.000000 0.047023 0.000000
# 6 0.000000 0.000000 0.000000 -0.002649 0.000000 0.036406
#
#
# Mechanical properties :
#
#
# Convention : Reuss Voigt Hill
#
# Bulk Modulus (GPa) = 28.49176 56.99820 42.74498
# Shear Modulus (GPa) = 16.11559 29.93712 23.02635
#
# Velocity S-wave (km/s) = 2.61738 3.56737 3.12864
# Velocity P-wave (km/s) = 4.60933 6.41856 5.58766
#
# Compressibility (1/GPa) = 0.03509787
#
# Stress axis : x y z
#
# Youngs Moduli (GPa) = 78.44565 145.38179 35.42797
#
# Poissons Ratio (x) = 0.54708 -0.08937
# Poissons Ratio (y) = 0.29519 0.18199
# Poissons Ratio (z) = -0.19789 0.74681
#
# Static dielectric constant tensor:
#      x y z
#    x 1.943050 0.000000 0.013550 
#    y 0.000000 1.900800 0.000000 
#    z 0.013550 0.000000 1.940010 
# 
# From -- ./inp_files/34880.got.cif
#   From: 2010.05.17/outbox.cif.g08.bks.cpg/sg11_18_cif.got.tgz:34880.got - 2010.06.03 12:22:45.
