data_PCOD9160276
_publ_section_title
;
Structure prediction by ZEFSAII (Michael W. Deem and Ramdas Pophale) SiO2 
 PCOD9160276
Probable space group: P 21/M
;
_chemical_formula_sum "Si O2"
_cell_formula_units_Z 28
_cell_length_a 12.470844
_cell_length_b 17.642517
_cell_length_c 20.688241
_cell_angle_alpha 90.000000
_cell_angle_beta 159.039436
_cell_angle_gamma 90.000000
_cell_volume 1628.281938
_symmetry_space_group_name_H-M "P 21/M"
_symmetry_group_IT_number 11
_symmetry_cell_setting 'monoclinic'
loop_
_space_group_symop_operation_xyz
x,y,z
-x,1/2+y,-z
-x,-y,-z
x,1/2-y,z
loop_
_atom_site_type_symbol
_atom_site_label
_atom_site_fract_x
_atom_site_fract_y
_atom_site_fract_z
Si Si1 0.423363 0.959112 0.389921
Si Si2 0.538539 0.835059 0.863901
Si Si3 0.863320 0.064736 0.575700
Si Si4 0.895462 0.336649 0.723337
Si Si5 0.266983 0.995600 0.701970
Si Si6 0.078012 0.961942 0.975354
Si Si7 0.663052 0.837779 0.784114
O O1 0.355783 0.873073 0.370959
O O2 0.500000 0.000000 0.500000
O O3 0.689066 0.985808 0.492660
O O4 0.120781 0.994799 0.190000
O O5 0.402246 0.750000 0.789714
O O6 0.326405 0.907517 0.752300
O O7 0.680628 0.842784 0.871876
O O8 0.797491 0.838689 0.063252
O O9 0.918419 0.111012 0.672694
O O10 0.629184 0.115103 0.402586
O O11 0.157513 0.044098 0.701553
O O12 0.828182 0.250000 0.668069
O O13 0.000000 0.000000 0.500000
O O14 0.575578 0.028430 0.846556
O O15 0.945580 0.877614 0.908907
O O16 0.000000 0.000000 0.000000
O O17 0.635030 0.750000 0.750679
#
# Coordination Sequence:
#
# PCOD9160276 Si02
#       7
#     4   4   4   4   4   4   4
#     4   9  18  35  54  81 107 143 188 233 274 336
#     4  10  20  35  56  80 110 147 190 234 286 338
#     4  10  21  34  57  86 114 147 189 234 290 348
#     4  10  19  35  57  82 108 149 192 234 285 342
#     4  12  21  36  57  88 117 154 192 238 292 339
#     4  11  19  35  57  81 111 145 194 233 273 341
#     4  10  19  36  58  81 109 147 189 241 287 336
#
# _framework density 17.196038999999999
#
# number of rings (size 3 to 8) (size 9 to 14) (size 15 to 20)
#    0.000    1.714    4.286    1.286    0.000    0.571 
#    0.000    2.857    0.000    0.000    0.000    0.000 
#    0.000    0.000    0.000    0.000    0.000    0.000 
#
# Total GULP energy -156076.763021 kJ/mol
# GULP energy per Si atom -5574.170108 kJ/mol
# Density = 1.715690 g / cm^3
# Si number density = 17.196039 Si / 1000 Ang^3
#
#
#
# Elastic Constant Matrix: (Units=GPa)
#
#
# Indices 1 2 3 4 5 6 
#
# 1 92.2477 48.6165 52.6835 0.0000 7.8369 0.0000
# 2 48.6165 135.5493 37.1915 0.0000 16.3107 0.0000
# 3 52.6835 37.1915 94.7908 0.0000 6.8885 0.0000
# 4 0.0000 0.0000 0.0000 25.2005 0.0000 1.2616
# 5 7.8369 16.3107 6.8885 0.0000 38.5055 0.0000
# 6 0.0000 0.0000 0.0000 1.2616 0.0000 28.5312
#
#
#
# Elastic Compliance Matrix: (Units=1/GPa)
#
#
# Indices 1 2 3 4 5 6 
#
# 1 0.017702 -0.004043 -0.008222 0.000000 -0.000420 0.000000
# 2 -0.004043 0.009538 -0.001278 0.000000 -0.002989 0.000000
# 3 -0.008222 -0.001278 0.015663 0.000000 -0.000587 0.000000
# 4 0.000000 0.000000 0.000000 0.039770 0.000000 -0.001759
# 5 -0.000420 -0.002989 -0.000587 0.000000 0.027427 0.000000
# 6 0.000000 0.000000 0.000000 -0.001759 0.000000 0.035127
#
#
# Mechanical properties :
#
#
# Convention : Reuss Voigt Hill
#
# Bulk Modulus (GPa) = 63.22034 66.61895 64.91964
# Shear Modulus (GPa) = 28.15550 30.72053 29.43802
#
# Velocity S-wave (km/s) = 4.05078 4.23127 4.14201
# Velocity P-wave (km/s) = 7.66307 7.91811 7.79164
#
# Compressibility (1/GPa) = 0.01581769
#
# Stress axis : x y z
#
# Youngs Moduli (GPa) = 56.48978 104.84748 63.84323
#
# Poissons Ratio (x) = 0.42387 0.52492
# Poissons Ratio (y) = 0.22837 0.08159
# Poissons Ratio (z) = 0.46446 0.13400
#
# Static dielectric constant tensor:
#      x y z
#    x 1.595300 0.000000 -0.013820 
#    y 0.000000 1.612560 0.000000 
#    z -0.013820 0.000000 1.570280 
# 
# From -- ./inp_files/13540.got.cif
#   From: 2010.05.17/outbox.cif.g08.bks.cpg/sg11_7_cif.got.tgz:13540.got - 2010.06.03 12:22:45.
