data_PCOD9160251
_publ_section_title
;
Structure prediction by ZEFSAII (Michael W. Deem and Ramdas Pophale) SiO2 
 PCOD9160251
Probable space group: P 21/M
;
_chemical_formula_sum "Si O2"
_cell_formula_units_Z 26
_cell_length_a 4.982049
_cell_length_b 12.957878
_cell_length_c 18.953802
_cell_angle_alpha 90.000000
_cell_angle_beta 107.675014
_cell_angle_gamma 90.000000
_cell_volume 1165.835360
_symmetry_space_group_name_H-M "P 21/M"
_symmetry_group_IT_number 11
_symmetry_cell_setting 'monoclinic'
loop_
_space_group_symop_operation_xyz
x,y,z
-x,1/2+y,-z
-x,-y,-z
x,1/2-y,z
loop_
_atom_site_type_symbol
_atom_site_label
_atom_site_fract_x
_atom_site_fract_y
_atom_site_fract_z
Si Si1 0.695516 0.922481 0.919609
Si Si2 0.283846 0.862055 0.007697
Si Si3 0.110448 0.945155 0.604945
Si Si4 0.596600 0.079625 0.586525
Si Si5 0.720979 0.250000 0.477655
Si Si6 0.313651 0.505561 0.774519
Si Si7 0.196641 0.867773 0.242512
O O1 0.548649 0.876329 0.977467
O O2 0.002605 0.874428 0.938047
O O3 0.486590 0.916721 0.837451
O O4 0.726547 0.044451 0.938562
O O5 0.288950 0.750000 0.041920
O O6 0.168486 0.841310 0.567883
O O7 0.289813 0.039152 0.584511
O O8 0.215577 0.940778 0.694444
O O9 0.787918 0.980788 0.582509
O O10 0.616687 0.161109 0.526330
O O11 0.744039 0.126372 0.668540
O O12 0.051037 0.450201 0.791660
O O13 0.521626 0.412175 0.769731
O O14 0.131987 0.750000 0.217669
#
# Coordination Sequence:
#
# PCOD9160251 Si02
#       7
#     4   4   4   4   2   4   4
#     4  10  21  39  61  86 125 156 189 244 291 335
#     4  10  21  38  61  91 116 154 203 234 281 351
#     4  10  24  39  58  87 117 149 200 242 285 356
#     4  10  22  39  58  83 114 151 194 246 298 335
#     4  12  22  40  62  84 116 156 196 244 288 352
#     4  10  21  38  58  81 126 150 188 243 292 338
#     4  10  19  35  56  85 111 154 197 240 292 354
#
# _framework density 22.301604000000001
#
# number of rings (size 3 to 8) (size 9 to 14) (size 15 to 20)
#    0.000    1.846    0.769    2.769    0.000    3.692 
#    2.769    0.000    0.000    0.000    0.000    0.000 
#    0.000    0.000    0.000    0.000    0.000    0.000 
#
# Total GULP energy -144909.765522 kJ/mol
# GULP energy per Si atom -5573.452520 kJ/mol
# Density = 2.225084 g / cm^3
# Si number density = 22.301604 Si / 1000 Ang^3
#
#
#
# Elastic Constant Matrix: (Units=GPa)
#
#
# Indices 1 2 3 4 5 6 
#
# 1 74.3579 4.8817 -10.9112 0.0000 9.6609 0.0000
# 2 4.8817 89.7257 6.5245 0.0000 -4.0527 0.0000
# 3 -10.9112 6.5245 58.3377 0.0000 2.2922 0.0000
# 4 0.0000 0.0000 0.0000 2.0703 0.0000 -2.2206
# 5 9.6609 -4.0527 2.2922 0.0000 20.7999 0.0000
# 6 0.0000 0.0000 0.0000 -2.2206 0.0000 -0.7946
#
#
#
# Elastic Compliance Matrix: (Units=1/GPa)
#
#
# Indices 1 2 3 4 5 6 
#
# 1 0.015006 -0.001397 0.003262 0.000000 -0.007602 0.000000
# 2 -0.001397 0.011481 -0.001666 0.000000 0.003069 0.000000
# 3 0.003262 -0.001666 0.018089 0.000000 -0.003833 0.000000
# 4 0.000000 0.000000 0.000000 0.120828 0.000000 -0.337670
# 5 -0.007602 0.003069 -0.003833 0.000000 0.052628 0.000000
# 6 0.000000 0.000000 0.000000 -0.337670 0.000000 -0.314817
#
#
# Mechanical properties :
#
#
# Convention : Reuss Voigt Hill
#
# Bulk Modulus (GPa) = 22.23540 24.82349 23.52944
# Shear Modulus (GPa) = -60.83416 19.21020 -20.81198
#
# Velocity S-wave (km/s) = -5.22849 2.93811 -3.05816
# Velocity P-wave (km/s) = 5.14369 4.76078 1.37706
#
# Compressibility (1/GPa) = 0.04497334
#
# Stress axis : x y z
#
# Youngs Moduli (GPa) = 66.63804 87.10151 55.28363
#
# Poissons Ratio (x) = 0.12168 -0.18032
# Poissons Ratio (y) = 0.09309 0.09210
# Poissons Ratio (z) = -0.21735 0.14510
#
# Static dielectric constant tensor:
#      x y z
#    x 1.793690 0.000000 0.030770 
#    y 0.000000 1.788590 0.000000 
#    z 0.030770 0.000000 1.869930 
# 
# From -- ./inp_files/62583.got.cif
#   From: 2010.05.17/outbox.cif.g08.bks.cpg/sg11_32_cif.got.tgz:62583.got - 2010.06.03 12:22:45.
