data_PCOD9160993
_publ_section_title
;
Structure prediction by ZEFSAII (Michael W. Deem and Ramdas Pophale) SiO2 
 PCOD9160993
Probable space group: P 21/M
;
_chemical_formula_sum "Si O2"
_cell_formula_units_Z 20
_cell_length_a 10.982476
_cell_length_b 13.927700
_cell_length_c 7.728191
_cell_angle_alpha 90.000000
_cell_angle_beta 45.963641
_cell_angle_gamma 90.000000
_cell_volume 849.816764
_symmetry_space_group_name_H-M "P 21/M"
_symmetry_group_IT_number 11
_symmetry_cell_setting 'monoclinic'
loop_
_space_group_symop_operation_xyz
x,y,z
-x,1/2+y,-z
-x,-y,-z
x,1/2-y,z
loop_
_atom_site_type_symbol
_atom_site_label
_atom_site_fract_x
_atom_site_fract_y
_atom_site_fract_z
Si Si1 0.336786 0.000131 0.921370
Si Si2 0.793500 0.144471 0.529190
Si Si3 0.549380 0.860298 0.902644
Si Si4 0.027528 0.636557 0.316575
Si Si5 0.818577 0.528267 0.264253
O O1 0.308789 0.052054 0.765861
O O2 0.338640 0.077387 0.074968
O O3 0.497548 0.929701 0.794523
O O4 0.180425 0.926841 0.091827
O O5 0.823273 0.250000 0.426786
O O6 0.628819 0.147155 0.814412
O O7 0.952105 0.118767 0.497128
O O8 0.762379 0.068502 0.413458
O O9 0.603315 0.750000 0.815552
O O10 0.055674 0.750000 0.266179
O O11 0.863258 0.604276 0.371651
O O12 0.000000 0.500000 0.000000
#
# Coordination Sequence:
#
# PCOD9160993 Si02
#       5
#     4   4   4   4   4
#     4   9  18  32  52  78 102 133 170 209 254 299
#     4   9  18  33  53  73  97 135 174 206 250 305
#     4   9  18  34  54  74 102 138 172 208 250 300
#     4   9  18  34  53  73 103 140 172 205 250 301
#     4  10  20  31  50  78 103 130 168 215 256 298
#
# _framework density 23.534485
#
# number of rings (size 3 to 8) (size 9 to 14) (size 15 to 20)
#    0.000    2.800    0.000    2.400    0.000    5.600 
#    0.000    3.000    0.000   16.800    0.000    0.000 
#    0.000    0.000    0.000    0.000    0.000    0.000 
#
# Total GULP energy -111651.278974 kJ/mol
# GULP energy per Si atom -5582.563949 kJ/mol
# Density = 2.348092 g / cm^3
# Si number density = 23.534485 Si / 1000 Ang^3
#
#
#
# Elastic Constant Matrix: (Units=GPa)
#
#
# Indices 1 2 3 4 5 6 
#
# 1 174.4906 60.5774 24.4154 0.0000 30.9524 0.0000
# 2 60.5774 108.4521 11.8938 0.0000 11.5441 0.0000
# 3 24.4154 11.8938 34.7079 0.0000 5.4903 0.0000
# 4 0.0000 0.0000 0.0000 22.6035 0.0000 -4.4389
# 5 30.9524 11.5441 5.4903 0.0000 43.7530 0.0000
# 6 0.0000 0.0000 0.0000 -4.4389 0.0000 18.3187
#
#
#
# Elastic Compliance Matrix: (Units=1/GPa)
#
#
# Indices 1 2 3 4 5 6 
#
# 1 0.008375 -0.003778 -0.003894 0.000000 -0.004439 0.000000
# 2 -0.003778 0.011489 -0.001247 0.000000 -0.000202 0.000000
# 3 -0.003894 -0.001247 0.032129 0.000000 -0.000947 0.000000
# 4 0.000000 0.000000 0.000000 0.046451 0.000000 0.011256
# 5 -0.004439 -0.000202 -0.000947 0.000000 0.026168 0.000000
# 6 0.000000 0.000000 0.000000 0.011256 0.000000 0.057316
#
#
# Mechanical properties :
#
#
# Convention : Reuss Voigt Hill
#
# Bulk Modulus (GPa) = 29.28011 56.82486 43.05249
# Shear Modulus (GPa) = 23.67939 31.65263 27.66601
#
# Velocity S-wave (km/s) = 3.17544 3.67133 3.43235
# Velocity P-wave (km/s) = 5.09047 6.49379 5.83448
#
# Compressibility (1/GPa) = 0.03415288
#
# Stress axis : x y z
#
# Youngs Moduli (GPa) = 119.40169 87.03656 31.12470
#
# Poissons Ratio (x) = 0.32886 0.12121
# Poissons Ratio (y) = 0.45115 0.03882
# Poissons Ratio (z) = 0.46501 0.10857
#
# Static dielectric constant tensor:
#      x y z
#    x 1.984710 0.000000 -0.037850 
#    y 0.000000 1.850290 0.000000 
#    z -0.037850 0.000000 1.937790 
# 
# From -- ./inp_files/12217.got.cif
#   From: 2010.05.17/outbox.cif.g08.bks.cpg/sg11_7_cif.got.tgz:12217.got - 2010.06.03 12:22:45.
