data_PCOD9160517
_publ_section_title
;
Structure prediction by ZEFSAII (Michael W. Deem and Ramdas Pophale) SiO2 
 PCOD9160517
Probable space group: P 21/M
;
_chemical_formula_sum "Si O2"
_cell_formula_units_Z 24
_cell_length_a 7.902761
_cell_length_b 16.950687
_cell_length_c 11.779830
_cell_angle_alpha 90.000000
_cell_angle_beta 37.371136
_cell_angle_gamma 90.000000
_cell_volume 957.803411
_symmetry_space_group_name_H-M "P 21/M"
_symmetry_group_IT_number 11
_symmetry_cell_setting 'monoclinic'
loop_
_space_group_symop_operation_xyz
x,y,z
-x,1/2+y,-z
-x,-y,-z
x,1/2-y,z
loop_
_atom_site_type_symbol
_atom_site_label
_atom_site_fract_x
_atom_site_fract_y
_atom_site_fract_z
Si Si1 0.447021 0.665561 0.913303
Si Si2 0.747366 0.665408 0.994888
Si Si3 0.266523 0.615194 0.591037
Si Si4 0.308295 0.994952 0.882021
Si Si5 0.232710 0.443873 0.549493
Si Si6 0.035597 0.663770 0.473157
O O1 0.293199 0.750000 0.977192
O O2 0.581819 0.667894 0.965044
O O3 0.309551 0.580685 0.965453
O O4 0.715354 0.666456 0.687174
O O5 0.712742 0.750000 0.073557
O O6 0.072950 0.658243 0.785894
O O7 0.643119 0.584495 0.104620
O O8 0.147654 0.525445 0.652900
O O9 0.586451 0.609906 0.461061
O O10 0.208079 0.647832 0.496320
O O11 0.537666 0.973795 0.664845
O O12 0.000000 0.000000 0.000000
O O13 0.986153 0.401130 0.613820
O O14 0.105792 0.750000 0.389317
#
# Coordination Sequence:
#
# PCOD9160517 Si02
#       6
#     4   4   4   4   4   4
#     4   8  17  33  54  79 109 145 188 232 274 332
#     4  10  20  36  58  81 106 146 193 231 279 339
#     4  10  19  36  57  80 109 145 185 230 278 335
#     4  11  20  34  53  85 113 147 183 231 283 331
#     4  10  21  35  56  84 112 145 188 232 282 330
#     4   9  18  33  55  84 110 143 187 229 279 334
#
# _framework density 25.057333
#
# number of rings (size 3 to 8) (size 9 to 14) (size 15 to 20)
#    0.000    2.333    1.667    2.500    0.000    2.000 
#    0.000    1.667    0.000    4.000    0.000    0.000 
#    0.000    0.000    0.000    0.000    0.000    0.000 
#
# Total GULP energy -134164.428715 kJ/mol
# GULP energy per Si atom -5590.184530 kJ/mol
# Density = 2.500030 g / cm^3
# Si number density = 25.057333 Si / 1000 Ang^3
#
#
#
# Elastic Constant Matrix: (Units=GPa)
#
#
# Indices 1 2 3 4 5 6 
#
# 1 62.2439 46.9765 -1.0122 0.0000 -3.0542 0.0000
# 2 46.9765 188.3670 27.6833 0.0000 -0.9694 0.0000
# 3 -1.0122 27.6833 57.9569 0.0000 -10.4479 0.0000
# 4 0.0000 0.0000 0.0000 -54.7302 0.0000 -91.9802
# 5 -3.0542 -0.9694 -10.4479 0.0000 22.1079 0.0000
# 6 0.0000 0.0000 0.0000 -91.9802 0.0000 -76.6176
#
#
#
# Elastic Compliance Matrix: (Units=1/GPa)
#
#
# Indices 1 2 3 4 5 6 
#
# 1 0.020646 -0.005696 0.003881 0.000000 0.004437 0.000000
# 2 -0.005696 0.007307 -0.004016 0.000000 -0.002365 0.000000
# 3 0.003881 -0.004016 0.021103 0.000000 0.010333 0.000000
# 4 0.000000 0.000000 0.000000 0.017956 0.000000 -0.021556
# 5 0.004437 -0.002365 0.010333 0.000000 0.050625 0.000000
# 6 0.000000 0.000000 0.000000 -0.021556 0.000000 0.012826
#
#
# Mechanical properties :
#
#
# Convention : Reuss Voigt Hill
#
# Bulk Modulus (GPa) = 26.74243 50.65146 38.69694
# Shear Modulus (GPa) = 32.34353 -6.18661 13.07846
#
# Velocity S-wave (km/s) = 3.59664 -1.57300 2.28708
# Velocity P-wave (km/s) = 5.28616 4.11813 4.73827
#
# Compressibility (1/GPa) = 0.03739376
#
# Stress axis : x y z
#
# Youngs Moduli (GPa) = 48.43595 136.84626 47.38651
#
# Poissons Ratio (x) = 0.77953 -0.18392
# Poissons Ratio (y) = 0.27591 0.19031
# Poissons Ratio (z) = -0.18799 0.54960
#
# Static dielectric constant tensor:
#      x y z
#    x 1.957200 0.000000 0.022970 
#    y 0.000000 2.117690 0.000000 
#    z 0.022970 0.000000 2.018470 
# 
# From -- ./inp_files/39560.got.cif
#   From: 2010.05.17/outbox.cif.g08.bks.cpg/sg11_20_cif.got.tgz:39560.got - 2010.06.03 12:22:45.
