data_PCOD9160414
_publ_section_title
;
Structure prediction by ZEFSAII (Michael W. Deem and Ramdas Pophale) SiO2 
 PCOD9160414
Probable space group: P 21/M
;
_chemical_formula_sum "Si O2"
_cell_formula_units_Z 20
_cell_length_a 17.911325
_cell_length_b 9.092818
_cell_length_c 7.250022
_cell_angle_alpha 90.000000
_cell_angle_beta 49.310336
_cell_angle_gamma 90.000000
_cell_volume 895.321635
_symmetry_space_group_name_H-M "P 21/M"
_symmetry_group_IT_number 11
_symmetry_cell_setting 'monoclinic'
loop_
_space_group_symop_operation_xyz
x,y,z
-x,1/2+y,-z
-x,-y,-z
x,1/2-y,z
loop_
_atom_site_type_symbol
_atom_site_label
_atom_site_fract_x
_atom_site_fract_y
_atom_site_fract_z
Si Si1 0.425688 0.579137 0.258259
Si Si2 0.065757 0.920967 0.634345
Si Si3 0.721143 0.079036 0.824550
Si Si4 0.126282 0.920283 0.968961
Si Si5 0.669840 0.924164 0.258484
O O1 0.451162 0.750000 0.244023
O O2 0.323318 0.571862 0.308250
O O3 0.407959 0.498528 0.478961
O O4 0.500000 0.500000 0.000000
O O5 0.042505 0.750000 0.631892
O O6 0.164241 0.963557 0.366139
O O7 0.097979 0.928125 0.798184
O O8 0.970113 0.021257 0.769125
O O9 0.712927 0.250000 0.894691
O O10 0.661277 0.979652 0.062736
O O11 0.146739 0.750000 0.980114
O O12 0.222033 0.016992 0.855801
O O13 0.664050 0.750000 0.281060
#
# Coordination Sequence:
#
# PCOD9160414 Si02
#       5
#     4   4   4   4   4
#     4  11  24  46  71  95 123 160 203 257 318 372
#     4   9  18  35  59  89 122 163 210 256 306 362
#     4  10  22  42  66  91 125 165 208 256 308 366
#     4  10  19  35  59  89 125 167 209 255 307 362
#     4  12  25  40  63  95 128 165 209 255 307 370
#
# _framework density 22.338339999999999
#
# number of rings (size 3 to 8) (size 9 to 14) (size 15 to 20)
#    0.000    1.600    2.000    3.000    0.000    4.800 
#    0.000    0.000    0.000    0.000    0.000    0.000 
#    0.000    0.000    0.000    0.000    0.000    0.000 
#
# Total GULP energy -111949.187725 kJ/mol
# GULP energy per Si atom -5597.459386 kJ/mol
# Density = 2.228750 g / cm^3
# Si number density = 22.338340 Si / 1000 Ang^3
#
#
#
# Elastic Constant Matrix: (Units=GPa)
#
#
# Indices 1 2 3 4 5 6 
#
# 1 47.6457 11.6422 -2.9708 0.0000 6.6883 0.0000
# 2 11.6422 137.7996 81.4168 0.0000 11.2275 0.0000
# 3 -2.9708 81.4168 153.5668 0.0000 6.4103 0.0000
# 4 0.0000 0.0000 0.0000 40.1573 0.0000 -0.5623
# 5 6.6883 11.2275 6.4103 0.0000 35.4908 0.0000
# 6 0.0000 0.0000 0.0000 -0.5623 0.0000 24.8729
#
#
#
# Elastic Compliance Matrix: (Units=1/GPa)
#
#
# Indices 1 2 3 4 5 6 
#
# 1 0.022323 -0.002812 0.002077 0.000000 -0.003692 0.000000
# 2 -0.002812 0.011119 -0.005869 0.000000 -0.001927 0.000000
# 3 0.002077 -0.005869 0.009675 0.000000 -0.000282 0.000000
# 4 0.000000 0.000000 0.000000 0.024910 0.000000 0.000563
# 5 -0.003692 -0.001927 -0.000282 0.000000 0.029533 0.000000
# 6 0.000000 0.000000 0.000000 0.000563 0.000000 0.040217
#
#
# Mechanical properties :
#
#
# Convention : Reuss Voigt Hill
#
# Bulk Modulus (GPa) = 33.43460 57.68760 45.56110
# Shear Modulus (GPa) = 31.06434 36.69913 33.88174
#
# Velocity S-wave (km/s) = 3.73316 4.05764 3.89878
# Velocity P-wave (km/s) = 5.79498 6.91615 6.38024
#
# Compressibility (1/GPa) = 0.02990913
#
# Stress axis : x y z
#
# Youngs Moduli (GPa) = 44.79628 89.93464 103.35510
#
# Poissons Ratio (x) = 0.25293 -0.21467
# Poissons Ratio (y) = 0.12598 0.60659
# Poissons Ratio (z) = -0.09304 0.52783
#
# Static dielectric constant tensor:
#      x y z
#    x 1.877530 0.000000 0.008640 
#    y 0.000000 1.744570 0.000000 
#    z 0.008640 0.000000 1.815630 
# 
# From -- ./inp_files/23911.got.cif
#   From: 2010.05.17/outbox.cif.g08.bks.cpg/sg11_12_cif.got.tgz:23911.got - 2010.06.03 12:22:45.
