data_PCOD9160295
_publ_section_title
;
Structure prediction by ZEFSAII (Michael W. Deem and Ramdas Pophale) SiO2 
 PCOD9160295
Probable space group: P 21/M
;
_chemical_formula_sum "Si O2"
_cell_formula_units_Z 28
_cell_length_a 14.769040
_cell_length_b 8.566288
_cell_length_c 20.997859
_cell_angle_alpha 90.000000
_cell_angle_beta 148.314245
_cell_angle_gamma 90.000000
_cell_volume 1395.386024
_symmetry_space_group_name_H-M "P 21/M"
_symmetry_group_IT_number 11
_symmetry_cell_setting 'monoclinic'
loop_
_space_group_symop_operation_xyz
x,y,z
-x,1/2+y,-z
-x,-y,-z
x,1/2-y,z
loop_
_atom_site_type_symbol
_atom_site_label
_atom_site_fract_x
_atom_site_fract_y
_atom_site_fract_z
Si Si1 0.474132 0.436175 0.693599
Si Si2 0.890903 0.435443 0.767072
Si Si3 0.173298 0.064924 0.135232
Si Si4 0.265992 0.562592 0.956758
Si Si5 0.161228 0.560842 0.754775
Si Si6 0.781280 0.938688 0.570214
Si Si7 0.610772 0.063386 0.225794
O O1 0.495585 0.250000 0.706228
O O2 0.660361 0.515664 0.805471
O O3 0.372160 0.482670 0.568744
O O4 0.370392 0.486222 0.694118
O O5 0.910611 0.250000 0.779312
O O6 0.810403 0.491946 0.784837
O O7 0.781343 0.487821 0.640147
O O8 0.079850 0.513378 0.872627
O O9 0.162029 0.250000 0.132990
O O10 0.000000 0.000000 0.000000
O O11 0.282792 0.750000 0.971527
O O12 0.261921 0.515938 0.879584
O O13 0.422704 0.481842 0.086403
O O14 0.163157 0.750000 0.754334
O O15 0.252350 0.506287 0.745109
O O16 0.963243 0.513840 0.646708
O O17 0.782880 0.750000 0.577750
O O18 0.623663 0.250000 0.239482
#
# Coordination Sequence:
#
# PCOD9160295 Si02
#       7
#     4   4   4   4   4   4   4
#     4  11  24  41  60  84 116 153 194 238 285 339
#     4  11  22  38  62  90 118 149 188 235 289 343
#     4  12  25  43  65  89 118 150 188 232 284 342
#     4  10  19  35  57  83 117 154 194 237 287 343
#     4   8  17  34  57  83 113 151 193 239 286 336
#     4   9  20  41  63  84 114 153 196 238 281 334
#     4  11  21  34  54  83 118 154 195 241 290 339
#
# _framework density 20.066132
#
# number of rings (size 3 to 8) (size 9 to 14) (size 15 to 20)
#    0.000    1.714    0.000    6.000    0.000    2.286 
#    0.000    6.429    0.000    0.000    0.000    0.000 
#    0.000    0.000    0.000    0.000    0.000    0.000 
#
# Total GULP energy -156538.957027 kJ/mol
# GULP energy per Si atom -5590.677037 kJ/mol
# Density = 2.002046 g / cm^3
# Si number density = 20.066132 Si / 1000 Ang^3
#
#
#
# Elastic Constant Matrix: (Units=GPa)
#
#
# Indices 1 2 3 4 5 6 
#
# 1 96.8660 9.1729 7.2624 0.0000 -18.2886 0.0000
# 2 9.1729 44.9939 22.1336 0.0000 -8.9959 0.0000
# 3 7.2624 22.1336 71.0809 0.0000 -13.5512 0.0000
# 4 0.0000 0.0000 0.0000 25.0512 0.0000 -6.3527
# 5 -18.2886 -8.9959 -13.5512 0.0000 18.1131 0.0000
# 6 0.0000 0.0000 0.0000 -6.3527 0.0000 28.3070
#
#
#
# Elastic Compliance Matrix: (Units=1/GPa)
#
#
# Indices 1 2 3 4 5 6 
#
# 1 0.012879 -0.000602 0.001509 0.000000 0.013834 0.000000
# 2 -0.000602 0.027326 -0.006970 0.000000 0.007749 0.000000
# 3 0.001509 -0.006970 0.018330 0.000000 0.011775 0.000000
# 4 0.000000 0.000000 0.000000 0.042327 0.000000 0.009499
# 5 0.013834 0.007749 0.011775 0.000000 0.081834 0.000000
# 6 0.000000 0.000000 0.000000 0.009499 0.000000 0.037459
#
#
# Mechanical properties :
#
#
# Convention : Reuss Voigt Hill
#
# Bulk Modulus (GPa) = 21.54787 32.23095 26.88941
# Shear Modulus (GPa) = 20.18154 25.91907 23.05031
#
# Velocity S-wave (km/s) = 3.17480 3.59790 3.39295
# Velocity P-wave (km/s) = 4.91944 5.77556 5.36460
#
# Compressibility (1/GPa) = 0.04640830
#
# Stress axis : x y z
#
# Youngs Moduli (GPa) = 77.64393 36.59514 54.55677
#
# Poissons Ratio (x) = 0.02203 -0.08232
# Poissons Ratio (y) = 0.04675 0.38027
# Poissons Ratio (z) = -0.11716 0.25507
#
# Static dielectric constant tensor:
#      x y z
#    x 1.707000 0.000000 -0.007420 
#    y 0.000000 1.668750 0.000000 
#    z -0.007420 0.000000 1.690020 
# 
# From -- ./inp_files/65445.got.cif
#   From: 2010.05.17/outbox.cif.g08.bks.cpg/sg11_33_cif.got.tgz:65445.got - 2010.06.03 12:22:45.
