data_PCOD9160481
_publ_section_title
;
Structure prediction by ZEFSAII (Michael W. Deem and Ramdas Pophale) SiO2 
 PCOD9160481
Probable space group: P 21/M
;
_chemical_formula_sum "Si O2"
_cell_formula_units_Z 32
_cell_length_a 10.544088
_cell_length_b 14.654561
_cell_length_c 9.365270
_cell_angle_alpha 90.000000
_cell_angle_beta 92.867808
_cell_angle_gamma 90.000000
_cell_volume 1445.299649
_symmetry_space_group_name_H-M "P 21/M"
_symmetry_group_IT_number 11
_symmetry_cell_setting 'monoclinic'
loop_
_space_group_symop_operation_xyz
x,y,z
-x,1/2+y,-z
-x,-y,-z
x,1/2-y,z
loop_
_atom_site_type_symbol
_atom_site_label
_atom_site_fract_x
_atom_site_fract_y
_atom_site_fract_z
Si Si1 0.938277 0.149739 0.851703
Si Si2 0.528652 0.970476 0.160124
Si Si3 0.425886 0.855895 0.380609
Si Si4 0.713952 0.646923 0.506057
Si Si5 0.914744 0.980473 0.638325
Si Si6 0.640553 0.351285 0.320522
Si Si7 0.121439 0.900775 0.829827
Si Si8 0.209427 0.391122 0.801573
O O1 0.891128 0.250000 0.806694
O O2 0.092167 0.154016 0.874395
O O3 0.907704 0.072321 0.732995
O O4 0.888934 0.123531 0.005464
O O5 0.419317 0.920607 0.244111
O O6 0.642344 0.895307 0.151416
O O7 0.567713 0.062255 0.248856
O O8 0.500000 0.000000 0.000000
O O9 0.419241 0.750000 0.337969
O O10 0.567155 0.871973 0.457714
O O11 0.336025 0.871348 0.510904
O O12 0.722678 0.750000 0.565714
O O13 0.780735 0.566534 0.596305
O O14 0.789263 0.644282 0.359849
O O15 0.989382 0.905474 0.738667
O O16 0.000000 0.000000 0.500000
O O17 0.577837 0.250000 0.309376
O O18 0.772424 0.344880 0.245527
O O19 0.172118 0.003434 0.813502
#
# Coordination Sequence:
#
# PCOD9160481 Si02
#       8
#     4   4   4   4   4   4   4   4
#     4  11  22  39  60  89 128 173 212 252 312 379
#     4  10  21  38  62  95 119 156 201 258 320 373
#     4   9  20  40  66  91 121 165 211 257 312 370
#     4  10  19  35  62  94 125 158 203 262 317 369
#     4  11  21  37  63  93 127 157 206 266 310 374
#     4  10  21  41  62  84 122 166 211 255 304 368
#     4  10  21  39  60  84 122 172 205 249 314 370
#     4   9  18  36  60  83 118 159 202 245 311 370
#
# _framework density 22.140737000000001
#
# number of rings (size 3 to 8) (size 9 to 14) (size 15 to 20)
#    0.000    2.000    2.500    2.625    0.000    2.000 
#    6.750    0.000    0.000    3.000    0.000    0.000 
#    0.000    0.000    0.000    0.000    0.000    0.000 
#
# Total GULP energy -178534.473982 kJ/mol
# GULP energy per Si atom -5579.202312 kJ/mol
# Density = 2.209034 g / cm^3
# Si number density = 22.140737 Si / 1000 Ang^3
#
#
#
# Elastic Constant Matrix: (Units=GPa)
#
#
# Indices 1 2 3 4 5 6 
#
# 1 37.6801 12.6815 32.4024 0.0000 -20.8632 0.0000
# 2 12.6815 138.3422 65.2568 0.0000 -5.7757 0.0000
# 3 32.4024 65.2568 152.7560 0.0000 -21.7860 0.0000
# 4 0.0000 0.0000 0.0000 27.1533 0.0000 -8.1933
# 5 -20.8632 -5.7757 -21.7860 0.0000 31.8769 0.0000
# 6 0.0000 0.0000 0.0000 -8.1933 0.0000 17.0734
#
#
#
# Elastic Compliance Matrix: (Units=1/GPa)
#
#
# Indices 1 2 3 4 5 6 
#
# 1 0.046229 -0.000350 -0.005928 0.000000 0.026142 0.000000
# 2 -0.000350 0.009091 -0.003997 0.000000 -0.001313 0.000000
# 3 -0.005928 -0.003997 0.009811 0.000000 0.002101 0.000000
# 4 0.000000 0.000000 0.000000 0.043064 0.000000 0.020666
# 5 0.026142 -0.001313 0.002101 0.000000 0.049678 0.000000
# 6 0.000000 0.000000 0.000000 0.020666 0.000000 0.068488
#
#
# Mechanical properties :
#
#
# Convention : Reuss Voigt Hill
#
# Bulk Modulus (GPa) = 22.43084 61.05109 41.74097
# Shear Modulus (GPa) = 19.10061 29.78322 24.44192
#
# Velocity S-wave (km/s) = 2.94035 3.67164 3.32615
# Velocity P-wave (km/s) = 4.65624 6.75341 5.80039
#
# Compressibility (1/GPa) = 0.04458147
#
# Stress axis : x y z
#
# Youngs Moduli (GPa) = 21.63122 109.99927 101.92729
#
# Poissons Ratio (x) = 0.03849 0.60426
# Poissons Ratio (y) = 0.00757 0.40737
# Poissons Ratio (z) = 0.12824 0.43964
#
# Static dielectric constant tensor:
#      x y z
#    x 1.925370 0.000000 0.008770 
#    y 0.000000 1.841400 0.000000 
#    z 0.008770 0.000000 1.796610 
# 
# From -- ./inp_files/18074.got.cif
#   From: 2010.05.17/outbox.cif.g08.bks.cpg/sg11_10_cif.got.tgz:18074.got - 2010.06.03 12:22:45.
