data_PCOD9160330
_publ_section_title
;
Structure prediction by ZEFSAII (Michael W. Deem and Ramdas Pophale) SiO2 
 PCOD9160330
Probable space group: P 21/M
;
_chemical_formula_sum "Si O2"
_cell_formula_units_Z 24
_cell_length_a 14.532490
_cell_length_b 14.189681
_cell_length_c 8.601510
_cell_angle_alpha 90.000000
_cell_angle_beta 42.161628
_cell_angle_gamma 90.000000
_cell_volume 1190.570287
_symmetry_space_group_name_H-M "P 21/M"
_symmetry_group_IT_number 11
_symmetry_cell_setting 'monoclinic'
loop_
_space_group_symop_operation_xyz
x,y,z
-x,1/2+y,-z
-x,-y,-z
x,1/2-y,z
loop_
_atom_site_type_symbol
_atom_site_label
_atom_site_fract_x
_atom_site_fract_y
_atom_site_fract_z
Si Si1 0.317214 0.049257 0.428701
Si Si2 0.969358 0.860130 0.164254
Si Si3 0.973996 0.140499 0.538050
Si Si4 0.427781 0.930100 0.710453
Si Si5 0.256408 0.643044 0.655143
Si Si6 0.769808 0.976989 0.796439
O O1 0.321115 0.938091 0.467085
O O2 0.311520 0.060255 0.250766
O O3 0.172707 0.085637 0.677710
O O4 0.446343 0.103298 0.340394
O O5 0.940851 0.750000 0.177360
O O6 0.014403 0.871410 0.288716
O O7 0.098711 0.883169 0.893766
O O8 0.951534 0.250000 0.530397
O O9 0.856400 0.068931 0.632769
O O10 0.117785 0.100335 0.294559
O O11 0.338855 0.860454 0.716013
O O12 0.500000 0.000000 0.500000
O O13 0.326332 0.989212 0.946155
O O14 0.260973 0.750000 0.588424
#
# Coordination Sequence:
#
# PCOD9160330 Si02
#       6
#     4   4   4   4   4   4
#     4  10  21  34  55  84 114 143 185 237 286 330
#     4   9  17  33  56  81 109 145 189 231 275 331
#     4   9  18  33  57  85 110 145 188 233 283 332
#     4  10  21  37  56  79 112 154 189 224 281 341
#     4  10  20  36  56  79 112 151 190 231 279 337
#     4  10  19  35  58  82 113 147 187 238 280 333
#
# _framework density 20.158405999999999
#
# number of rings (size 3 to 8) (size 9 to 14) (size 15 to 20)
#    0.000    2.333    1.667    1.000    0.000    1.333 
#    0.000    3.333    0.000    6.000    0.000    0.000 
#    0.000    0.000    0.000    0.000    0.000    0.000 
#
# Total GULP energy -133870.985241 kJ/mol
# GULP energy per Si atom -5577.957718 kJ/mol
# Density = 2.011252 g / cm^3
# Si number density = 20.158406 Si / 1000 Ang^3
#
#
#
# Elastic Constant Matrix: (Units=GPa)
#
#
# Indices 1 2 3 4 5 6 
#
# 1 46.9624 -14.2941 15.6652 0.0000 -9.6581 0.0000
# 2 -14.2941 41.7519 7.2073 0.0000 -2.5574 0.0000
# 3 15.6652 7.2073 48.9896 0.0000 -8.6131 0.0000
# 4 0.0000 0.0000 0.0000 7.3947 0.0000 5.6892
# 5 -9.6581 -2.5574 -8.6131 0.0000 16.5264 0.0000
# 6 0.0000 0.0000 0.0000 5.6892 0.0000 18.5081
#
#
#
# Elastic Compliance Matrix: (Units=1/GPa)
#
#
# Indices 1 2 3 4 5 6 
#
# 1 0.031751 0.013452 -0.009361 0.000000 0.015758 0.000000
# 2 0.013452 0.030341 -0.007219 0.000000 0.008794 0.000000
# 3 -0.009361 -0.007219 0.025661 0.000000 0.006786 0.000000
# 4 0.000000 0.000000 0.000000 0.177119 0.000000 -0.054444
# 5 0.015758 0.008794 0.006786 0.000000 0.074616 0.000000
# 6 0.000000 0.000000 0.000000 -0.054444 0.000000 0.070766
#
#
# Mechanical properties :
#
#
# Convention : Reuss Voigt Hill
#
# Bulk Modulus (GPa) = 12.27053 17.20674 14.73864
# Shear Modulus (GPa) = 11.26945 17.09419 14.18182
#
# Velocity S-wave (km/s) = 2.36698 2.91519 2.65527
# Velocity P-wave (km/s) = 3.68380 4.45931 4.08998
#
# Compressibility (1/GPa) = 0.08149604
#
# Stress axis : x y z
#
# Youngs Moduli (GPa) = 31.49464 32.95857 38.96950
#
# Poissons Ratio (x) = -0.44335 0.36481
# Poissons Ratio (y) = -0.42365 0.28132
# Poissons Ratio (z) = 0.29483 0.23793
#
# Static dielectric constant tensor:
#      x y z
#    x 1.789210 0.000000 0.017150 
#    y 0.000000 1.682220 0.000000 
#    z 0.017150 0.000000 1.750580 
# 
# From -- ./inp_files/21984.got.cif
#   From: 2010.05.17/outbox.cif.g08.bks.cpg/sg11_11_cif.got.tgz:21984.got - 2010.06.03 12:22:45.
