data_PCOD9160241
_publ_section_title
;
Structure prediction by ZEFSAII (Michael W. Deem and Ramdas Pophale) SiO2 
 PCOD9160241
Probable space group: P 21/M
;
_chemical_formula_sum "Si O2"
_cell_formula_units_Z 32
_cell_length_a 13.111608
_cell_length_b 8.017892
_cell_length_c 32.921859
_cell_angle_alpha 90.000000
_cell_angle_beta 26.426068
_cell_angle_gamma 90.000000
_cell_volume 1540.288771
_symmetry_space_group_name_H-M "P 21/M"
_symmetry_group_IT_number 11
_symmetry_cell_setting 'monoclinic'
loop_
_space_group_symop_operation_xyz
x,y,z
-x,1/2+y,-z
-x,-y,-z
x,1/2-y,z
loop_
_atom_site_type_symbol
_atom_site_label
_atom_site_fract_x
_atom_site_fract_y
_atom_site_fract_z
Si Si1 0.083280 0.954544 0.210587
Si Si2 0.439451 0.446130 0.922275
Si Si3 0.165996 0.950444 0.404614
Si Si4 0.689346 0.441919 0.208196
Si Si5 0.635139 0.946826 0.137742
Si Si6 0.248215 0.048628 0.603605
Si Si7 0.091839 0.551095 0.343363
Si Si8 0.895874 0.442546 0.889555
O O1 0.088016 0.750000 0.208375
O O2 0.308609 0.010768 0.155308
O O3 0.093691 0.009095 0.160124
O O4 0.854907 0.006472 0.316278
O O5 0.471939 0.250000 0.901760
O O6 0.317724 0.513722 0.924591
O O7 0.280849 0.465983 0.017918
O O8 0.185457 0.750000 0.395971
O O9 0.057025 0.013195 0.401156
O O10 0.425106 0.018530 0.313079
O O11 0.000000 0.000000 0.500000
O O12 0.738723 0.250000 0.199125
O O13 0.726179 0.472538 0.146743
O O14 0.859523 0.546576 0.175455
O O15 0.692273 0.750000 0.120235
O O16 0.359409 0.967920 0.238292
O O17 0.239264 0.250000 0.607438
O O18 0.072215 0.982248 0.632413
O O19 0.500000 0.000000 0.500000
O O20 0.050138 0.750000 0.359124
O O21 0.821991 0.250000 0.913813
#
# Coordination Sequence:
#
# PCOD9160241 Si02
#       8
#     4   4   4   4   4   4   4   4
#     4   9  19  37  61  83 112 153 195 234 286 349
#     4  10  19  36  63  89 111 148 195 238 292 356
#     4  10  20  36  59  86 112 148 192 237 290 348
#     4  11  23  39  57  81 115 154 195 242 291 341
#     4   9  17  34  61  85 107 143 188 237 290 346
#     4  10  19  35  56  82 111 144 185 230 280 337
#     4   8  15  31  55  77 103 141 183 225 275 336
#     4  11  23  38  56  84 120 157 192 237 289 346
#
# _framework density 20.775324999999999
#
# number of rings (size 3 to 8) (size 9 to 14) (size 15 to 20)
#    0.000    2.250    1.250    3.000    0.000    2.000 
#    0.000    8.125    0.000    0.000    0.000    0.000 
#    0.000    0.000    0.000    0.000    0.000    0.000 
#
# Total GULP energy -178536.832005 kJ/mol
# GULP energy per Si atom -5579.276000 kJ/mol
# Density = 2.072804 g / cm^3
# Si number density = 20.775325 Si / 1000 Ang^3
#
#
#
# Elastic Constant Matrix: (Units=GPa)
#
#
# Indices 1 2 3 4 5 6 
#
# 1 73.0652 -3.5862 36.7056 0.0000 22.4047 0.0000
# 2 -3.5862 25.8448 -5.2333 0.0000 5.0476 0.0000
# 3 36.7056 -5.2333 103.4585 0.0000 26.7604 0.0000
# 4 0.0000 0.0000 0.0000 27.8413 0.0000 3.8324
# 5 22.4047 5.0476 26.7604 0.0000 37.4616 0.0000
# 6 0.0000 0.0000 0.0000 3.8324 0.0000 8.2686
#
#
#
# Elastic Compliance Matrix: (Units=1/GPa)
#
#
# Indices 1 2 3 4 5 6 
#
# 1 0.018597 0.003403 -0.004208 0.000000 -0.008575 0.000000
# 2 0.003403 0.041880 0.003554 0.000000 -0.010217 0.000000
# 3 -0.004208 0.003554 0.013262 0.000000 -0.007436 0.000000
# 4 0.000000 0.000000 0.000000 0.038366 0.000000 -0.017782
# 5 -0.008575 -0.010217 -0.007436 0.000000 0.038511 0.000000
# 6 0.000000 0.000000 0.000000 -0.017782 0.000000 0.129181
#
#
# Mechanical properties :
#
#
# Convention : Reuss Voigt Hill
#
# Bulk Modulus (GPa) = 12.62048 28.68230 20.65139
# Shear Modulus (GPa) = 16.62739 26.34646 21.48692
#
# Velocity S-wave (km/s) = 2.83210 3.56499 3.21947
# Velocity P-wave (km/s) = 4.09663 5.54810 4.87667
#
# Compressibility (1/GPa) = 0.07923626
#
# Stress axis : x y z
#
# Youngs Moduli (GPa) = 53.77300 23.87791 75.40564
#
# Poissons Ratio (x) = -0.08126 0.31729
# Poissons Ratio (y) = -0.18300 -0.26797
# Poissons Ratio (z) = 0.22626 -0.08485
#
# Static dielectric constant tensor:
#      x y z
#    x 1.769920 0.000000 0.016150 
#    y 0.000000 1.742460 0.000000 
#    z 0.016150 0.000000 1.747350 
# 
# From -- ./inp_files/73115.got.cif
#   From: 2010.05.17/outbox.cif.g08.bks.cpg/sg11_37_cif.got.tgz:73115.got - 2010.06.03 12:22:45.
