data_PCOD9160228
_publ_section_title
;
Structure prediction by ZEFSAII (Michael W. Deem and Ramdas Pophale) SiO2 
 PCOD9160228
Probable space group: P 21/M
;
_chemical_formula_sum "Si O2"
_cell_formula_units_Z 28
_cell_length_a 15.382923
_cell_length_b 8.642246
_cell_length_c 22.550531
_cell_angle_alpha 90.000000
_cell_angle_beta 146.581750
_cell_angle_gamma 90.000000
_cell_volume 1651.102791
_symmetry_space_group_name_H-M "P 21/M"
_symmetry_group_IT_number 11
_symmetry_cell_setting 'monoclinic'
loop_
_space_group_symop_operation_xyz
x,y,z
-x,1/2+y,-z
-x,-y,-z
x,1/2-y,z
loop_
_atom_site_type_symbol
_atom_site_label
_atom_site_fract_x
_atom_site_fract_y
_atom_site_fract_z
Si Si1 0.755933 0.065148 0.845995
Si Si2 0.076907 0.564180 0.483496
Si Si3 0.152007 0.935834 0.746569
Si Si4 0.180261 0.435568 0.892263
Si Si5 0.475169 0.938008 0.867722
Si Si6 0.979720 0.065070 0.083721
Si Si7 0.563299 0.436768 0.291329
O O1 0.762471 0.250000 0.844938
O O2 0.577911 0.007834 0.751161
O O3 0.849193 0.019402 0.959617
O O4 0.854291 0.991063 0.848413
O O5 0.067539 0.750000 0.479197
O O6 0.261529 0.520306 0.587976
O O7 0.000000 0.500000 0.500000
O O8 0.980354 0.499362 0.373084
O O9 0.148720 0.750000 0.743635
O O10 0.323093 0.987981 0.818647
O O11 0.132977 0.995796 0.802215
O O12 0.180422 0.250000 0.889279
O O13 0.068022 0.489842 0.881555
O O14 0.358419 0.489144 0.010350
O O15 0.475488 0.750000 0.867896
O O16 0.457557 0.986780 0.789254
O O17 0.978319 0.250000 0.088135
O O18 0.550459 0.250000 0.285482
#
# Coordination Sequence:
#
# PCOD9160228 Si02
#       7
#     4   4   4   4   4   4   4
#     4  10  20  33  53  83 111 140 180 225 271 324
#     4  11  22  37  57  80 108 145 188 230 273 318
#     4  11  22  38  55  77 111 149 189 228 271 324
#     4  11  21  35  55  80 111 147 185 225 271 326
#     4   9  18  33  53  78 110 147 181 220 271 322
#     4  10  20  34  53  79 111 146 179 219 272 327
#     4  10  19  35  56  79 110 145 180 224 275 323
#
# _framework density 16.958361
#
# number of rings (size 3 to 8) (size 9 to 14) (size 15 to 20)
#    0.000    1.714    2.857    2.571    0.000    2.286 
#    0.000    2.143    0.000    0.857    0.000    0.000 
#    0.000    0.000    0.000    0.000    0.000    0.000 
#
# Total GULP energy -156385.846213 kJ/mol
# GULP energy per Si atom -5585.208793 kJ/mol
# Density = 1.691976 g / cm^3
# Si number density = 16.958361 Si / 1000 Ang^3
#
#
#
# Elastic Constant Matrix: (Units=GPa)
#
#
# Indices 1 2 3 4 5 6 
#
# 1 136.5515 40.5594 93.5336 0.0000 6.6083 0.0000
# 2 40.5594 45.5424 42.0455 0.0000 2.3143 0.0000
# 3 93.5336 42.0455 128.1853 0.0000 -3.7507 0.0000
# 4 0.0000 0.0000 0.0000 24.0909 0.0000 0.1236
# 5 6.6083 2.3143 -3.7507 0.0000 30.6885 0.0000
# 6 0.0000 0.0000 0.0000 0.1236 0.0000 27.9052
#
#
#
# Elastic Compliance Matrix: (Units=1/GPa)
#
#
# Indices 1 2 3 4 5 6 
#
# 1 0.015879 -0.004457 -0.010251 0.000000 -0.004336 0.000000
# 2 -0.004457 0.033159 -0.007697 0.000000 -0.002482 0.000000
# 3 -0.010251 -0.007697 0.017952 0.000000 0.004982 0.000000
# 4 0.000000 0.000000 0.000000 0.041510 0.000000 -0.000184
# 5 -0.004336 -0.002482 0.004982 0.000000 0.034315 0.000000
# 6 0.000000 0.000000 0.000000 -0.000184 0.000000 0.035836
#
#
# Mechanical properties :
#
#
# Convention : Reuss Voigt Hill
#
# Bulk Modulus (GPa) = 45.08732 73.61735 59.35234
# Shear Modulus (GPa) = 21.65871 25.47963 23.56917
#
# Velocity S-wave (km/s) = 3.57763 3.88039 3.73208
# Velocity P-wave (km/s) = 6.61141 7.97380 7.32435
#
# Compressibility (1/GPa) = 0.02217918
#
# Stress axis : x y z
#
# Youngs Moduli (GPa) = 62.97732 30.15806 55.70509
#
# Poissons Ratio (x) = 0.13441 0.57105
# Poissons Ratio (y) = 0.28068 0.42875
# Poissons Ratio (z) = 0.64560 0.23212
#
# Static dielectric constant tensor:
#      x y z
#    x 1.550840 0.000000 0.010340 
#    y 0.000000 1.569540 0.000000 
#    z 0.010340 0.000000 1.556810 
# 
# From -- ./inp_files/37388.got.cif
#   From: 2010.05.17/outbox.cif.g08.bks.cpg/sg11_19_cif.got.tgz:37388.got - 2010.06.03 12:22:45.
