data_PCOD9160748
_publ_section_title
;
Structure prediction by ZEFSAII (Michael W. Deem and Ramdas Pophale) SiO2 
 PCOD9160748
Probable space group: P 21/M
;
_chemical_formula_sum "Si O2"
_cell_formula_units_Z 20
_cell_length_a 17.416892
_cell_length_b 11.881637
_cell_length_c 9.391113
_cell_angle_alpha 90.000000
_cell_angle_beta 27.105634
_cell_angle_gamma 90.000000
_cell_volume 885.479770
_symmetry_space_group_name_H-M "P 21/M"
_symmetry_group_IT_number 11
_symmetry_cell_setting 'monoclinic'
loop_
_space_group_symop_operation_xyz
x,y,z
-x,1/2+y,-z
-x,-y,-z
x,1/2-y,z
loop_
_atom_site_type_symbol
_atom_site_label
_atom_site_fract_x
_atom_site_fract_y
_atom_site_fract_z
Si Si1 0.026498 0.872248 0.012627
Si Si2 0.533624 0.122618 0.062390
Si Si3 0.749332 0.575583 0.693644
Si Si4 0.296784 0.374525 0.904684
Si Si5 0.650667 0.457799 0.407709
O O1 0.987365 0.750000 0.005615
O O2 0.905029 0.877553 0.349993
O O3 0.223318 0.875169 0.722993
O O4 0.000000 0.000000 0.000000
O O5 0.554004 0.250000 0.076523
O O6 0.419737 0.120749 0.107379
O O7 0.431671 0.048245 0.347258
O O8 0.710431 0.058241 0.748786
O O9 0.763041 0.607924 0.835306
O O10 0.254958 0.250000 0.923770
O O11 0.499045 0.391962 0.583048
O O12 0.244475 0.470727 0.881414
#
# Coordination Sequence:
#
# PCOD9160748 Si02
#       5
#     4   4   4   4   4
#     4  12  25  42  63  94 130 166 207 260 317 371
#     4  10  19  37  60  87 123 163 212 258 302 366
#     4  10  22  37  58  90 122 164 204 255 311 364
#     4  10  20  38  61  86 120 163 208 253 305 367
#     4  10  22  37  61  92 120 163 207 255 306 369
#
# _framework density 22.586625999999999
#
# number of rings (size 3 to 8) (size 9 to 14) (size 15 to 20)
#    0.000    1.600    2.000    3.000    0.000    2.400 
#    0.000    1.000    0.000    0.000    0.000    0.000 
#    0.000    0.000    0.000    0.000    0.000    0.000 
#
# Total GULP energy -111598.465333 kJ/mol
# GULP energy per Si atom -5579.923267 kJ/mol
# Density = 2.253522 g / cm^3
# Si number density = 22.586626 Si / 1000 Ang^3
#
#
#
# Elastic Constant Matrix: (Units=GPa)
#
#
# Indices 1 2 3 4 5 6 
#
# 1 37.9229 18.6694 -4.4490 0.0000 12.7967 0.0000
# 2 18.6694 175.5549 29.5542 0.0000 6.4000 0.0000
# 3 -4.4490 29.5542 44.4250 0.0000 10.0295 0.0000
# 4 0.0000 0.0000 0.0000 9.8549 0.0000 0.8448
# 5 12.7967 6.4000 10.0295 0.0000 34.5831 0.0000
# 6 0.0000 0.0000 0.0000 0.8448 0.0000 11.2528
#
#
#
# Elastic Compliance Matrix: (Units=1/GPa)
#
#
# Indices 1 2 3 4 5 6 
#
# 1 0.035026 -0.004886 0.010144 0.000000 -0.014998 0.000000
# 2 -0.004886 0.007096 -0.005695 0.000000 0.002146 0.000000
# 3 0.010144 -0.005695 0.029880 0.000000 -0.011365 0.000000
# 4 0.000000 0.000000 0.000000 0.102130 0.000000 -0.007667
# 5 -0.014998 0.002146 -0.011365 0.000000 0.037364 0.000000
# 6 0.000000 0.000000 0.000000 -0.007667 0.000000 0.089442
#
#
# Mechanical properties :
#
#
# Convention : Reuss Voigt Hill
#
# Bulk Modulus (GPa) = 14.05895 38.38354 26.22124
# Shear Modulus (GPa) = 15.36002 25.41339 20.38671
#
# Velocity S-wave (km/s) = 2.61061 3.35797 3.00759
# Velocity P-wave (km/s) = 3.91471 5.66263 4.86777
#
# Compressibility (1/GPa) = 0.07112906
#
# Stress axis : x y z
#
# Youngs Moduli (GPa) = 28.55053 140.91977 33.46723
#
# Poissons Ratio (x) = 0.68850 -0.33949
# Poissons Ratio (y) = 0.13949 0.19058
# Poissons Ratio (z) = -0.28962 0.80249
#
# Static dielectric constant tensor:
#      x y z
#    x 1.840320 0.000000 0.028990 
#    y 0.000000 1.907580 0.000000 
#    z 0.028990 0.000000 1.848040 
# 
# From -- ./inp_files/11729.got.cif
#   From: 2010.05.17/outbox.cif.g08.bks.cpg/sg11_6_cif.got.tgz:11729.got - 2010.06.03 12:22:45.
