data_PCOD9160085
_publ_section_title
;
Structure prediction by ZEFSAII (Michael W. Deem and Ramdas Pophale) SiO2 
 PCOD9160085
Probable space group: P 21/M
;
_chemical_formula_sum "Si O2"
_cell_formula_units_Z 24
_cell_length_a 15.132936
_cell_length_b 8.369389
_cell_length_c 14.067562
_cell_angle_alpha 90.000000
_cell_angle_beta 140.942582
_cell_angle_gamma 90.000000
_cell_volume 1122.650292
_symmetry_space_group_name_H-M "P 21/M"
_symmetry_group_IT_number 11
_symmetry_cell_setting 'monoclinic'
loop_
_space_group_symop_operation_xyz
x,y,z
-x,1/2+y,-z
-x,-y,-z
x,1/2-y,z
loop_
_atom_site_type_symbol
_atom_site_label
_atom_site_fract_x
_atom_site_fract_y
_atom_site_fract_z
Si Si1 0.719749 0.562167 0.335093
Si Si2 0.557499 0.444989 0.804476
Si Si3 0.295529 0.563888 0.877944
Si Si4 0.778822 0.440306 0.839789
Si Si5 0.993910 0.068829 0.646132
Si Si6 0.060298 0.435526 0.199664
O O1 0.743586 0.750000 0.367748
O O2 0.603190 0.507820 0.313867
O O3 0.661718 0.529803 0.181077
O O4 0.865899 0.473308 0.470688
O O5 0.561946 0.250000 0.806951
O O6 0.641718 0.498261 0.781824
O O7 0.639286 0.494892 0.968532
O O8 0.331367 0.750000 0.896138
O O9 0.128138 0.543329 0.747216
O O10 0.767744 0.250000 0.813125
O O11 0.819539 0.525612 0.776291
O O12 0.912005 0.462111 0.021755
O O13 0.040962 0.250000 0.669721
O O14 0.936898 0.043050 0.705013
O O15 0.067496 0.250000 0.234138
#
# Coordination Sequence:
#
# PCOD9160085 Si02
#       6
#     4   4   4   4   4   4
#     4  11  23  39  58  84 117 154 191 233 286 341
#     4   9  19  37  61  86 116 151 188 233 285 337
#     4  11  21  39  62  86 114 149 192 239 285 336
#     4   9  17  34  58  86 116 146 183 231 284 338
#     4  12  24  39  58  84 115 153 195 237 283 336
#     4  10  19  34  58  87 116 146 185 236 286 335
#
# _framework density 21.377981999999999
#
# number of rings (size 3 to 8) (size 9 to 14) (size 15 to 20)
#    0.000    1.667    1.667    4.000    0.000    0.667 
#    0.000    5.000    0.000    0.000    0.000    0.000 
#    0.000    0.000    0.000    0.000    0.000    0.000 
#
# Total GULP energy -134167.965905 kJ/mol
# GULP energy per Si atom -5590.331913 kJ/mol
# Density = 2.132933 g / cm^3
# Si number density = 21.377982 Si / 1000 Ang^3
#
#
#
# Elastic Constant Matrix: (Units=GPa)
#
#
# Indices 1 2 3 4 5 6 
#
# 1 108.0424 -4.6906 -3.9451 0.0000 13.3545 0.0000
# 2 -4.6906 29.1605 2.6378 0.0000 -5.1060 0.0000
# 3 -3.9451 2.6378 24.2303 0.0000 8.9803 0.0000
# 4 0.0000 0.0000 0.0000 18.0896 0.0000 -5.0372
# 5 13.3545 -5.1060 8.9803 0.0000 27.6627 0.0000
# 6 0.0000 0.0000 0.0000 -5.0372 0.0000 26.0967
#
#
#
# Elastic Compliance Matrix: (Units=1/GPa)
#
#
# Indices 1 2 3 4 5 6 
#
# 1 0.010166 0.000207 0.003908 0.000000 -0.006138 0.000000
# 2 0.000207 0.036564 -0.007288 0.000000 0.009015 0.000000
# 3 0.003908 -0.007288 0.049902 0.000000 -0.019432 0.000000
# 4 0.000000 0.000000 0.000000 0.058420 0.000000 0.011276
# 5 -0.006138 0.009015 -0.019432 0.000000 0.047085 0.000000
# 6 0.000000 0.000000 0.000000 0.011276 0.000000 0.040496
#
#
# Mechanical properties :
#
#
# Convention : Reuss Voigt Hill
#
# Bulk Modulus (GPa) = 11.07599 16.60416 13.84008
# Shear Modulus (GPa) = 17.91635 25.53187 21.72411
#
# Velocity S-wave (km/s) = 2.89809 3.45962 3.19123
# Velocity P-wave (km/s) = 4.04856 4.87262 4.47958
#
# Compressibility (1/GPa) = 0.09028535
#
# Stress axis : x y z
#
# Youngs Moduli (GPa) = 98.36729 27.34933 20.03925
#
# Poissons Ratio (x) = -0.00566 -0.07830
# Poissons Ratio (y) = -0.02036 0.14604
# Poissons Ratio (z) = -0.38438 0.19932
#
# Static dielectric constant tensor:
#      x y z
#    x 1.795730 0.000000 0.008540 
#    y 0.000000 1.730570 0.000000 
#    z 0.008540 0.000000 1.764290 
# 
# From -- ./inp_files/51521.got.cif
#   From: 2010.05.17/outbox.cif.g08.bks.cpg/sg11_26_cif.got.tgz:51521.got - 2010.06.03 12:22:45.
