data_PCOD9160692
_publ_section_title
;
Structure prediction by ZEFSAII (Michael W. Deem and Ramdas Pophale) SiO2 
 PCOD9160692
Probable space group: P 21/M
;
_chemical_formula_sum "Si O2"
_cell_formula_units_Z 32
_cell_length_a 31.438387
_cell_length_b 7.645867
_cell_length_c 13.305571
_cell_angle_alpha 90.000000
_cell_angle_beta 27.294867
_cell_angle_gamma 90.000000
_cell_volume 1466.648686
_symmetry_space_group_name_H-M "P 21/M"
_symmetry_group_IT_number 11
_symmetry_cell_setting 'monoclinic'
loop_
_space_group_symop_operation_xyz
x,y,z
-x,1/2+y,-z
-x,-y,-z
x,1/2-y,z
loop_
_atom_site_type_symbol
_atom_site_label
_atom_site_fract_x
_atom_site_fract_y
_atom_site_fract_z
Si Si1 0.213001 0.538377 0.968565
Si Si2 0.905950 0.048595 0.380506
Si Si3 0.228094 0.045252 0.161430
Si Si4 0.561350 0.959859 0.273309
Si Si5 0.402187 0.536639 0.468165
Si Si6 0.112906 0.951711 0.980540
Si Si7 0.396982 0.959438 0.251879
Si Si8 0.204834 0.535340 0.581040
O O1 0.209402 0.750000 0.981499
O O2 0.317497 0.485206 0.717973
O O3 0.148256 0.475442 0.012745
O O4 0.191413 0.472764 0.124929
O O5 0.930179 0.250000 0.308307
O O6 0.852649 0.975608 0.394905
O O7 0.837581 0.041015 0.618717
O O8 0.002757 0.957820 0.201684
O O9 0.230926 0.250000 0.181173
O O10 0.333623 0.973128 0.942034
O O11 0.567669 0.750000 0.253979
O O12 0.500176 0.022436 0.307501
O O13 0.500000 0.000000 0.500000
O O14 0.402710 0.750000 0.465894
O O15 0.384740 0.475785 0.391725
O O16 0.145032 0.750000 0.914849
O O17 0.158165 0.024215 0.783571
O O18 0.388783 0.750000 0.273004
O O19 0.312331 0.020988 0.359885
O O20 0.500000 0.000000 0.000000
O O21 0.202652 0.750000 0.582071
#
# Coordination Sequence:
#
# PCOD9160692 Si02
#       8
#     4   4   4   4   4   4   4   4
#     4  10  19  36  64  88 111 150 194 237 291 349
#     4  11  24  40  59  84 117 156 192 237 293 348
#     4  11  24  39  56  85 122 155 192 241 286 337
#     4  10  20  34  55  82 111 146 187 228 272 326
#     4   9  17  33  57  81 110 149 189 226 275 341
#     4  10  20  39  66  90 110 143 193 246 295 348
#     4  10  20  36  57  85 118 153 189 229 278 338
#     4   9  19  38  62  87 116 151 193 235 285 347
#
# _framework density 21.818449999999999
#
# number of rings (size 3 to 8) (size 9 to 14) (size 15 to 20)
#    0.000    2.000    2.500    1.125    1.750    1.500 
#    0.000    3.125    0.000    0.000    0.000    0.000 
#    0.000    0.000    0.000    0.000    0.000    0.000 
#
# Total GULP energy -178765.034358 kJ/mol
# GULP energy per Si atom -5586.407324 kJ/mol
# Density = 2.176879 g / cm^3
# Si number density = 21.818450 Si / 1000 Ang^3
#
#
#
# Elastic Constant Matrix: (Units=GPa)
#
#
# Indices 1 2 3 4 5 6 
#
# 1 164.6334 -3.3133 46.5840 0.0000 -14.1824 0.0000
# 2 -3.3133 42.9261 -10.2544 0.0000 -0.9055 0.0000
# 3 46.5840 -10.2544 90.9994 0.0000 -16.9214 0.0000
# 4 0.0000 0.0000 0.0000 4.9859 0.0000 -7.3016
# 5 -14.1824 -0.9055 -16.9214 0.0000 30.5691 0.0000
# 6 0.0000 0.0000 0.0000 -7.3016 0.0000 11.0137
#
#
#
# Elastic Compliance Matrix: (Units=1/GPa)
#
#
# Indices 1 2 3 4 5 6 
#
# 1 0.007162 -0.000237 -0.003429 0.000000 0.001417 0.000000
# 2 -0.000237 0.024115 0.003289 0.000000 0.002425 0.000000
# 3 -0.003429 0.003289 0.014311 0.000000 0.006428 0.000000
# 4 0.000000 0.000000 0.000000 6.884252 0.000000 4.563974
# 5 0.001417 0.002425 0.006428 0.000000 0.037000 0.000000
# 6 0.000000 0.000000 0.000000 4.563974 0.000000 3.116522
#
#
# Mechanical properties :
#
#
# Convention : Reuss Voigt Hill
#
# Bulk Modulus (GPa) = 22.30438 40.51017 31.40728
# Shear Modulus (GPa) = 0.49510 27.01657 13.75583
#
# Velocity S-wave (km/s) = 0.47687 3.52269 2.51364
# Velocity P-wave (km/s) = 3.24779 5.92900 4.78023
#
# Compressibility (1/GPa) = 0.04483424
#
# Stress axis : x y z
#
# Youngs Moduli (GPa) = 139.62985 41.46868 69.87840
#
# Poissons Ratio (x) = 0.00981 0.23964
# Poissons Ratio (y) = 0.03303 -0.22986
# Poissons Ratio (z) = 0.47884 -0.13641
#
# Static dielectric constant tensor:
#      x y z
#    x 1.803890 0.000000 -0.011760 
#    y 0.000000 1.832550 0.000000 
#    z -0.011760 0.000000 1.752750 
# 
# From -- ./inp_files/45153.got.cif
#   From: 2010.05.17/outbox.cif.g08.bks.cpg/sg11_23_cif.got.tgz:45153.got - 2010.06.03 12:22:45.
