data_PCOD9160521
_publ_section_title
;
Structure prediction by ZEFSAII (Michael W. Deem and Ramdas Pophale) SiO2 
 PCOD9160521
Probable space group: P 21/M
;
_chemical_formula_sum "Si O2"
_cell_formula_units_Z 24
_cell_length_a 6.935263
_cell_length_b 17.236205
_cell_length_c 17.278337
_cell_angle_alpha 90.000000
_cell_angle_beta 43.885081
_cell_angle_gamma 90.000000
_cell_volume 1431.772334
_symmetry_space_group_name_H-M "P 21/M"
_symmetry_group_IT_number 11
_symmetry_cell_setting 'monoclinic'
loop_
_space_group_symop_operation_xyz
x,y,z
-x,1/2+y,-z
-x,-y,-z
x,1/2-y,z
loop_
_atom_site_type_symbol
_atom_site_label
_atom_site_fract_x
_atom_site_fract_y
_atom_site_fract_z
Si Si1 0.589899 0.341807 0.472884
Si Si2 0.815826 0.055314 0.274921
Si Si3 0.240388 0.568873 0.154416
Si Si4 0.129583 0.017034 0.043927
Si Si5 0.726011 0.053186 0.581694
Si Si6 0.073604 0.839461 0.341118
O O1 0.635434 0.250000 0.470331
O O2 0.736084 0.374847 0.353643
O O3 0.696827 0.391253 0.515222
O O4 0.257816 0.355095 0.559444
O O5 0.948548 0.072670 0.152433
O O6 0.545489 0.001532 0.340187
O O7 0.056454 0.001561 0.244155
O O8 0.146719 0.561013 0.092075
O O9 0.169078 0.642378 0.226024
O O10 0.563820 0.549679 0.058566
O O11 0.000000 0.000000 0.000000
O O12 0.759124 0.105908 0.648400
O O13 0.000000 0.000000 0.500000
O O14 0.118956 0.750000 0.348089
#
# Coordination Sequence:
#
# PCOD9160521 Si02
#       6
#     4   4   4   4   4   4
#     4  11  22  37  52  81 120 150 176 225 289 335
#     4  10  19  36  57  82 109 143 189 231 272 323
#     4   9  19  35  56  81 107 141 193 225 276 320
#     4   9  18  34  60  81 105 136 190 239 271 312
#     4  12  21  34  58  85 111 147 197 221 271 335
#     4  11  22  36  54  82 120 151 181 232 285 333
#
# _framework density 16.762440000000002
#
# number of rings (size 3 to 8) (size 9 to 14) (size 15 to 20)
#    1.000    0.667    3.333    3.000    0.000    0.000 
#    0.000    0.833    0.000    1.000    0.000    0.000 
#    0.000    0.000    0.000    0.000    0.000    0.000 
#
# Total GULP energy -133603.637282 kJ/mol
# GULP energy per Si atom -5566.818220 kJ/mol
# Density = 1.672429 g / cm^3
# Si number density = 16.762440 Si / 1000 Ang^3
#
#
#
# Elastic Constant Matrix: (Units=GPa)
#
#
# Indices 1 2 3 4 5 6 
#
# 1 90.8474 29.5162 40.7458 0.0000 8.8009 0.0000
# 2 29.5162 57.4772 32.1332 0.0000 -5.1628 0.0000
# 3 40.7458 32.1332 107.3441 0.0000 -15.0760 0.0000
# 4 0.0000 0.0000 0.0000 12.6693 0.0000 1.1963
# 5 8.8009 -5.1628 -15.0760 0.0000 23.6711 0.0000
# 6 0.0000 0.0000 0.0000 1.1963 0.0000 24.2143
#
#
#
# Elastic Compliance Matrix: (Units=1/GPa)
#
#
# Indices 1 2 3 4 5 6 
#
# 1 0.016948 -0.006291 -0.006181 0.000000 -0.011610 0.000000
# 2 -0.006291 0.023239 -0.003875 0.000000 0.004940 0.000000
# 3 -0.006181 -0.003875 0.014305 0.000000 0.010564 0.000000
# 4 0.000000 0.000000 0.000000 0.079301 0.000000 -0.003918
# 5 -0.011610 0.004940 0.010564 0.000000 0.054367 0.000000
# 6 0.000000 0.000000 0.000000 -0.003918 0.000000 0.041492
#
#
# Mechanical properties :
#
#
# Convention : Reuss Voigt Hill
#
# Bulk Modulus (GPa) = 45.87209 51.16213 48.51711
# Shear Modulus (GPa) = 18.54520 22.32916 20.43718
#
# Velocity S-wave (km/s) = 3.32980 3.65375 3.49553
# Velocity P-wave (km/s) = 6.49683 6.95615 6.73041
#
# Compressibility (1/GPa) = 0.02179975
#
# Stress axis : x y z
#
# Youngs Moduli (GPa) = 59.00366 43.03164 69.90356
#
# Poissons Ratio (x) = 0.27071 0.43204
# Poissons Ratio (y) = 0.37119 0.27086
# Poissons Ratio (z) = 0.36468 0.16674
#
# Static dielectric constant tensor:
#      x y z
#    x 1.566650 0.000000 0.005160 
#    y 0.000000 1.556560 0.000000 
#    z 0.005160 0.000000 1.580090 
# 
# From -- ./inp_files/57147.got.cif
#   From: 2010.05.17/outbox.cif.g08.bks.cpg/sg11_29_cif.got.tgz:57147.got - 2010.06.03 12:22:45.
