data_PCOD9160665
_publ_section_title
;
Structure prediction by ZEFSAII (Michael W. Deem and Ramdas Pophale) SiO2 
 PCOD9160665
Probable space group: P 21/M
;
_chemical_formula_sum "Si O2"
_cell_formula_units_Z 32
_cell_length_a 12.765186
_cell_length_b 9.287666
_cell_length_c 31.886197
_cell_angle_alpha 90.000000
_cell_angle_beta 26.791546
_cell_angle_gamma 90.000000
_cell_volume 1703.994479
_symmetry_space_group_name_H-M "P 21/M"
_symmetry_group_IT_number 11
_symmetry_cell_setting 'monoclinic'
loop_
_space_group_symop_operation_xyz
x,y,z
-x,1/2+y,-z
-x,-y,-z
x,1/2-y,z
loop_
_atom_site_type_symbol
_atom_site_label
_atom_site_fract_x
_atom_site_fract_y
_atom_site_fract_z
Si Si1 0.109175 0.923487 0.205270
Si Si2 0.440266 0.918845 0.920025
Si Si3 0.135986 0.080592 0.415005
Si Si4 0.679426 0.421532 0.205706
Si Si5 0.632568 0.917169 0.137008
Si Si6 0.727140 0.917345 0.404563
Si Si7 0.084855 0.588770 0.352825
Si Si8 0.954769 0.417741 0.869403
O O1 0.137392 0.750000 0.201368
O O2 0.864418 0.966362 0.313972
O O3 0.104524 0.953518 0.157424
O O4 0.319537 0.004497 0.152955
O O5 0.477018 0.750000 0.897058
O O6 0.326142 0.998451 0.920905
O O7 0.269901 0.929718 0.020663
O O8 0.108060 0.250000 0.429872
O O9 0.412355 0.048076 0.314535
O O10 0.041446 0.026980 0.404092
O O11 0.000000 0.000000 0.500000
O O12 0.704214 0.250000 0.191285
O O13 0.726104 0.502816 0.144956
O O14 0.849830 0.482355 0.180093
O O15 0.706968 0.750000 0.108714
O O16 0.351840 0.920119 0.242806
O O17 0.666841 0.750000 0.420459
O O18 0.917214 0.928523 0.373500
O O19 0.500000 0.000000 0.500000
O O20 0.050587 0.750000 0.382792
O O21 0.031715 0.250000 0.842984
#
# Coordination Sequence:
#
# PCOD9160665 Si02
#       8
#     4   4   4   4   4   4   4   4
#     4  10  21  41  62  82 115 157 202 242 287 352
#     4  11  22  36  59  91 119 149 196 246 295 349
#     4  10  21  36  57  85 113 146 190 236 287 346
#     4  10  22  39  58  85 119 151 194 247 293 344
#     4  10  19  36  62  85 112 153 193 236 291 347
#     4  10  21  37  57  85 115 148 192 238 289 344
#     4   9  18  35  56  79 110 146 188 236 284 338
#     4  10  23  40  59  85 120 159 196 240 294 355
#
# _framework density 18.779404
#
# number of rings (size 3 to 8) (size 9 to 14) (size 15 to 20)
#    0.000    2.000    1.250    1.875    0.000    6.000 
#    0.000    2.500    0.000    0.000    0.000    0.000 
#    0.000    0.000    0.000    0.000    0.000    0.000 
#
# Total GULP energy -178707.993774 kJ/mol
# GULP energy per Si atom -5584.624805 kJ/mol
# Density = 1.873666 g / cm^3
# Si number density = 18.779404 Si / 1000 Ang^3
#
#
#
# Elastic Constant Matrix: (Units=GPa)
#
#
# Indices 1 2 3 4 5 6 
#
# 1 62.3177 46.2091 26.4325 0.0000 15.5150 0.0000
# 2 46.2091 81.2528 49.4964 0.0000 8.9959 0.0000
# 3 26.4325 49.4964 70.2014 0.0000 18.6157 0.0000
# 4 0.0000 0.0000 0.0000 29.8172 0.0000 0.3696
# 5 15.5150 8.9959 18.6157 0.0000 31.5436 0.0000
# 6 0.0000 0.0000 0.0000 0.3696 0.0000 34.4159
#
#
#
# Elastic Compliance Matrix: (Units=1/GPa)
#
#
# Indices 1 2 3 4 5 6 
#
# 1 0.031862 -0.020138 0.005731 0.000000 -0.013311 0.000000
# 2 -0.020138 0.034603 -0.019946 0.000000 0.011808 0.000000
# 3 0.005731 -0.019946 0.030099 0.000000 -0.014894 0.000000
# 4 0.000000 0.000000 0.000000 0.033542 0.000000 -0.000360
# 5 -0.013311 0.011808 -0.014894 0.000000 0.043672 0.000000
# 6 0.000000 0.000000 0.000000 -0.000360 0.000000 0.029060
#
#
# Mechanical properties :
#
#
# Convention : Reuss Voigt Hill
#
# Bulk Modulus (GPa) = 35.89440 50.89420 43.39430
# Shear Modulus (GPa) = 17.80434 25.26426 21.53430
#
# Velocity S-wave (km/s) = 3.08243 3.67184 3.38997
# Velocity P-wave (km/s) = 5.64125 6.71836 6.20323
#
# Compressibility (1/GPa) = 0.02785950
#
# Stress axis : x y z
#
# Youngs Moduli (GPa) = 31.38509 28.89922 33.22321
#
# Poissons Ratio (x) = 0.58197 -0.19041
# Poissons Ratio (y) = 0.63203 0.66267
# Poissons Ratio (z) = -0.17988 0.57642
#
# Static dielectric constant tensor:
#      x y z
#    x 1.627510 0.000000 0.007180 
#    y 0.000000 1.645600 0.000000 
#    z 0.007180 0.000000 1.648410 
# 
# From -- ./inp_files/45273.got.cif
#   From: 2010.05.17/outbox.cif.g08.bks.cpg/sg11_23_cif.got.tgz:45273.got - 2010.06.03 12:22:45.
