data_PCOD9160062
_publ_section_title
;
Structure prediction by ZEFSAII (Michael W. Deem and Ramdas Pophale) SiO2 
 PCOD9160062
Probable space group: P 21/M
;
_chemical_formula_sum "Si O2"
_cell_formula_units_Z 32
_cell_length_a 21.455266
_cell_length_b 9.212080
_cell_length_c 11.479001
_cell_angle_alpha 90.000000
_cell_angle_beta 127.715046
_cell_angle_gamma 90.000000
_cell_volume 1794.761416
_symmetry_space_group_name_H-M "P 21/M"
_symmetry_group_IT_number 11
_symmetry_cell_setting 'monoclinic'
loop_
_space_group_symop_operation_xyz
x,y,z
-x,1/2+y,-z
-x,-y,-z
x,1/2-y,z
loop_
_atom_site_type_symbol
_atom_site_label
_atom_site_fract_x
_atom_site_fract_y
_atom_site_fract_z
Si Si1 0.608148 0.422331 0.551172
Si Si2 0.011621 0.085286 0.676248
Si Si3 0.871841 0.080157 0.330715
Si Si4 0.433604 0.421942 0.001093
Si Si5 0.765728 0.075350 0.589493
Si Si6 0.060510 0.582355 0.150168
Si Si7 0.737108 0.579135 0.309513
Si Si8 0.543036 0.423229 0.727922
O O1 0.591520 0.250000 0.515025
O O2 0.693664 0.452346 0.595093
O O3 0.598465 0.450597 0.678274
O O4 0.542157 0.515199 0.408680
O O5 0.038841 0.250000 0.683594
O O6 0.937768 0.057987 0.506604
O O7 0.976865 0.076446 0.764385
O O8 0.083321 0.978466 0.731521
O O9 0.853543 0.250000 0.301822
O O10 0.796528 0.990415 0.284107
O O11 0.450391 0.250000 0.032031
O O12 0.431020 0.495717 0.125298
O O13 0.500000 0.500000 0.000000
O O14 0.351110 0.438587 0.839350
O O15 0.771144 0.250000 0.576332
O O16 0.849872 0.026444 0.737279
O O17 0.749205 0.000306 0.446866
O O18 0.065229 0.750000 0.118051
O O19 0.000000 0.500000 0.000000
O O20 0.753408 0.750000 0.341822
O O21 0.539206 0.250000 0.743111
#
# Coordination Sequence:
#
# PCOD9160062 Si02
#       8
#     4   4   4   4   4   4   4   4
#     4   9  19  36  61  86 112 151 192 234 279 327
#     4   9  18  35  56  80 112 143 179 228 280 330
#     4  10  19  34  58  84 108 143 185 227 278 334
#     4  11  24  40  58  84 118 154 189 233 286 338
#     4  10  20  38  60  82 110 144 190 236 278 334
#     4  10  21  38  57  80 113 147 184 232 282 335
#     4  11  23  37  56  84 116 147 187 236 285 337
#     4  10  20  36  58  86 119 152 191 232 277 336
#
# _framework density 17.829668000000002
#
# number of rings (size 3 to 8) (size 9 to 14) (size 15 to 20)
#    0.000    2.000    1.250    2.250    0.000    6.500 
#    2.250    0.000    0.000    0.000    0.000    0.000 
#    0.000    0.000    0.000    0.000    0.000    0.000 
#
# Total GULP energy -178593.594984 kJ/mol
# GULP energy per Si atom -5581.049843 kJ/mol
# Density = 1.778909 g / cm^3
# Si number density = 17.829668 Si / 1000 Ang^3
#
#
#
# Elastic Constant Matrix: (Units=GPa)
#
#
# Indices 1 2 3 4 5 6 
#
# 1 103.4154 54.0170 37.3851 0.0000 25.9623 0.0000
# 2 54.0170 75.6856 49.4340 0.0000 19.3731 0.0000
# 3 37.3851 49.4340 84.4284 0.0000 8.9877 0.0000
# 4 0.0000 0.0000 0.0000 33.3257 0.0000 -1.4914
# 5 25.9623 19.3731 8.9877 0.0000 14.1551 0.0000
# 6 0.0000 0.0000 0.0000 -1.4914 0.0000 29.3129
#
#
#
# Elastic Compliance Matrix: (Units=1/GPa)
#
#
# Indices 1 2 3 4 5 6 
#
# 1 0.020878 -0.005689 -0.002860 0.000000 -0.028691 0.000000
# 2 -0.005689 0.033140 -0.014122 0.000000 -0.025956 0.000000
# 3 -0.002860 -0.014122 0.020124 0.000000 0.011795 0.000000
# 4 0.000000 0.000000 0.000000 0.030075 0.000000 0.001530
# 5 -0.028691 -0.025956 0.011795 0.000000 0.151304 0.000000
# 6 0.000000 0.000000 0.000000 0.001530 0.000000 0.034193
#
#
# Mechanical properties :
#
#
# Convention : Reuss Voigt Hill
#
# Bulk Modulus (GPa) = 34.72111 60.57795 47.64953
# Shear Modulus (GPa) = 14.50727 23.53830 19.02279
#
# Velocity S-wave (km/s) = 2.85557 3.63736 3.26991
# Velocity P-wave (km/s) = 5.51257 7.18959 6.40619
#
# Compressibility (1/GPa) = 0.02880092
#
# Stress axis : x y z
#
# Youngs Moduli (GPa) = 47.89780 30.17468 49.69299
#
# Poissons Ratio (x) = 0.17166 0.14210
# Poissons Ratio (y) = 0.27248 0.70176
# Poissons Ratio (z) = 0.13697 0.42613
#
# Static dielectric constant tensor:
#      x y z
#    x 1.611160 0.000000 -0.001610 
#    y 0.000000 1.613500 0.000000 
#    z -0.001610 0.000000 1.599090 
# 
# From -- ./inp_files/42932.got.cif
#   From: 2010.05.17/outbox.cif.g08.bks.cpg/sg11_22_cif.got.tgz:42932.got - 2010.06.03 12:22:45.
