data_PCOD9160384
_publ_section_title
;
Structure prediction by ZEFSAII (Michael W. Deem and Ramdas Pophale) SiO2 
 PCOD9160384
Probable space group: P 21/M
;
_chemical_formula_sum "Si O2"
_cell_formula_units_Z 32
_cell_length_a 20.248062
_cell_length_b 8.730624
_cell_length_c 11.240435
_cell_angle_alpha 90.000000
_cell_angle_beta 51.188448
_cell_angle_gamma 90.000000
_cell_volume 1548.343381
_symmetry_space_group_name_H-M "P 21/M"
_symmetry_group_IT_number 11
_symmetry_cell_setting 'monoclinic'
loop_
_space_group_symop_operation_xyz
x,y,z
-x,1/2+y,-z
-x,-y,-z
x,1/2-y,z
loop_
_atom_site_type_symbol
_atom_site_label
_atom_site_fract_x
_atom_site_fract_y
_atom_site_fract_z
Si Si1 0.405331 0.069487 0.594669
Si Si2 0.752770 0.926255 0.363694
Si Si3 0.056873 0.067609 0.544870
Si Si4 0.482700 0.571705 0.891818
Si Si5 0.776569 0.425547 0.751868
Si Si6 0.941570 0.937214 0.174046
Si Si7 0.673956 0.574588 0.057916
Si Si8 0.666735 0.580455 0.700310
O O1 0.418932 0.250000 0.550495
O O2 0.333216 0.999688 0.589448
O O3 0.352417 0.056674 0.776597
O O4 0.500000 0.000000 0.500000
O O5 0.754334 0.750000 0.315536
O O6 0.846488 0.990615 0.244183
O O7 0.738071 0.918070 0.520742
O O8 0.045731 0.250000 0.557756
O O9 0.042801 0.018518 0.701760
O O10 0.150842 0.024356 0.392583
O O11 0.000000 0.000000 0.500000
O O12 0.457700 0.750000 0.921532
O O13 0.413546 0.472147 0.905826
O O14 0.577614 0.562286 0.733466
O O15 0.500000 0.500000 0.000000
O O16 0.801842 0.250000 0.720752
O O17 0.692322 0.455894 0.767827
O O18 0.748969 0.475730 0.915150
O O19 0.943565 0.750000 0.170593
O O20 0.000000 0.000000 0.000000
O O21 0.696003 0.750000 0.010390
O O22 0.662325 0.750000 0.762967
#
# Coordination Sequence:
#
# PCOD9160384 Si02
#       8
#     4   4   4   4   4   4   4   4
#     4  10  22  40  63  89 122 167 217 266 322 384
#     4   9  18  38  64  87 115 162 210 252 311 379
#     4  11  24  45  70  98 134 173 215 267 332 401
#     4  11  21  32  53  83 115 157 204 253 307 363
#     4  12  24  38  61  91 122 159 207 259 316 377
#     4  10  22  41  68  99 133 171 219 273 328 396
#     4  11  23  38  56  85 127 168 211 260 315 381
#     4  10  19  35  59  83 115 155 200 253 311 370
#
# _framework density 20.667249999999999
#
# number of rings (size 3 to 8) (size 9 to 14) (size 15 to 20)
#    0.000    1.500    2.500    3.000    0.000    4.500 
#    0.000    2.500    0.000    0.000    0.000    0.000 
#    0.000    0.000    0.000    0.000    0.000    0.000 
#
# Total GULP energy -178206.058586 kJ/mol
# GULP energy per Si atom -5568.939331 kJ/mol
# Density = 2.062021 g / cm^3
# Si number density = 20.667250 Si / 1000 Ang^3
#
#
#
# Elastic Constant Matrix: (Units=GPa)
#
#
# Indices 1 2 3 4 5 6 
#
# 1 110.7375 22.9871 40.0187 0.0000 -1.4791 0.0000
# 2 22.9871 39.3565 24.3106 0.0000 8.4139 0.0000
# 3 40.0187 24.3106 122.2292 0.0000 -10.5568 0.0000
# 4 0.0000 0.0000 0.0000 30.1553 0.0000 -6.0059
# 5 -1.4791 8.4139 -10.5568 0.0000 25.7425 0.0000
# 6 0.0000 0.0000 0.0000 -6.0059 0.0000 26.2449
#
#
#
# Elastic Compliance Matrix: (Units=1/GPa)
#
#
# Indices 1 2 3 4 5 6 
#
# 1 0.011016 -0.005198 -0.002458 0.000000 0.001324 0.000000
# 2 -0.005198 0.035709 -0.006670 0.000000 -0.014706 0.000000
# 3 -0.002458 -0.006670 0.010874 0.000000 0.006498 0.000000
# 4 0.000000 0.000000 0.000000 0.034745 0.000000 0.007951
# 5 0.001324 -0.014706 0.006498 0.000000 0.046394 0.000000
# 6 0.000000 0.000000 0.000000 0.007951 0.000000 0.039922
#
#
# Mechanical properties :
#
#
# Convention : Reuss Voigt Hill
#
# Bulk Modulus (GPa) = 34.54870 49.66176 42.10523
# Shear Modulus (GPa) = 23.04546 28.76233 25.90389
#
# Velocity S-wave (km/s) = 3.34289 3.73458 3.54415
# Velocity P-wave (km/s) = 5.62608 6.53280 6.09632
#
# Compressibility (1/GPa) = 0.02894465
#
# Stress axis : x y z
#
# Youngs Moduli (GPa) = 90.78097 28.00398 91.96107
#
# Poissons Ratio (x) = 0.14558 0.22607
# Poissons Ratio (y) = 0.47192 0.61342
# Poissons Ratio (z) = 0.22317 0.18680
#
# Static dielectric constant tensor:
#      x y z
#    x 1.846460 0.000000 0.052520 
#    y 0.000000 1.734790 0.000000 
#    z 0.052520 0.000000 1.867940 
# 
# From -- ./inp_files/42826.got.cif
#   From: 2010.05.17/outbox.cif.g08.bks.cpg/sg11_22_cif.got.tgz:42826.got - 2010.06.03 12:22:45.
