data_PCOD9160780
_publ_section_title
;
Structure prediction by ZEFSAII (Michael W. Deem and Ramdas Pophale) SiO2 
 PCOD9160780
Probable space group: P 21/M
;
_chemical_formula_sum "Si O2"
_cell_formula_units_Z 32
_cell_length_a 11.239992
_cell_length_b 13.568795
_cell_length_c 9.727335
_cell_angle_alpha 90.000000
_cell_angle_beta 96.352258
_cell_angle_gamma 90.000000
_cell_volume 1474.438177
_symmetry_space_group_name_H-M "P 21/M"
_symmetry_group_IT_number 11
_symmetry_cell_setting 'monoclinic'
loop_
_space_group_symop_operation_xyz
x,y,z
-x,1/2+y,-z
-x,-y,-z
x,1/2-y,z
loop_
_atom_site_type_symbol
_atom_site_label
_atom_site_fract_x
_atom_site_fract_y
_atom_site_fract_z
Si Si1 0.780626 0.004719 0.914679
Si Si2 0.496866 0.132207 0.520574
Si Si3 0.243608 0.637222 0.537054
Si Si4 0.855523 0.563496 0.391725
Si Si5 0.450218 0.867405 0.161950
Si Si6 0.083111 0.635983 0.255313
Si Si7 0.282650 0.137542 0.869239
Si Si8 0.751424 0.632506 0.648224
O O1 0.768359 0.924895 0.791284
O O2 0.660705 0.070820 0.907599
O O3 0.885504 0.076790 0.877690
O O4 0.790716 0.942257 0.054153
O O5 0.484977 0.250000 0.530827
O O6 0.615290 0.115207 0.445586
O O7 0.521385 0.098560 0.678682
O O8 0.375112 0.098709 0.434258
O O9 0.222321 0.750000 0.580442
O O10 0.175138 0.552009 0.608911
O O11 0.198367 0.632946 0.372349
O O12 0.754087 0.621951 0.293507
O O13 0.849547 0.602356 0.546890
O O14 0.977689 0.589063 0.331405
O O15 0.421471 0.750000 0.160280
O O16 0.575198 0.878698 0.096797
O O17 0.055227 0.750000 0.224254
O O18 0.255897 0.250000 0.905590
O O19 0.750805 0.750000 0.667759
#
# Coordination Sequence:
#
# PCOD9160780 Si02
#       8
#     4   4   4   4   4   4   4   4
#     4  12  24  39  61  89 124 165 206 250 313 360
#     4   9  17  33  59  92 124 156 195 247 301 359
#     4  10  21  38  62  96 131 155 195 258 311 359
#     4  12  23  41  66  90 119 166 212 246 308 364
#     4  10  19  37  62  87 117 159 205 245 304 375
#     4  11  23  41  65  92 122 159 210 258 302 363
#     4  11  25  43  61  88 126 161 202 258 309 362
#     4  11  22  36  61  94 125 158 208 255 300 367
#
# _framework density 21.703181000000001
#
# number of rings (size 3 to 8) (size 9 to 14) (size 15 to 20)
#    0.000    1.250    3.750    2.625    1.750    1.500 
#    0.000    1.875    0.000    0.000    0.000    0.000 
#    0.000    0.000    0.000    0.000    0.000    0.000 
#
# Total GULP energy -178986.935938 kJ/mol
# GULP energy per Si atom -5593.341748 kJ/mol
# Density = 2.165378 g / cm^3
# Si number density = 21.703181 Si / 1000 Ang^3
#
#
#
# Elastic Constant Matrix: (Units=GPa)
#
#
# Indices 1 2 3 4 5 6 
#
# 1 65.7197 19.7416 1.2237 0.0000 -17.6980 0.0000
# 2 19.7416 144.1386 22.0951 0.0000 -22.7337 0.0000
# 3 1.2237 22.0951 42.2099 0.0000 -10.4938 0.0000
# 4 0.0000 0.0000 0.0000 31.8828 0.0000 -7.2998
# 5 -17.6980 -22.7337 -10.4938 0.0000 19.9570 0.0000
# 6 0.0000 0.0000 0.0000 -7.2998 0.0000 26.2806
#
#
#
# Elastic Compliance Matrix: (Units=1/GPa)
#
#
# Indices 1 2 3 4 5 6 
#
# 1 0.020740 -0.000326 0.004659 0.000000 0.020470 0.000000
# 2 -0.000326 0.008668 -0.002467 0.000000 0.008287 0.000000
# 3 0.004659 -0.002467 0.028962 0.000000 0.016549 0.000000
# 4 0.000000 0.000000 0.000000 0.033495 0.000000 0.009304
# 5 0.020470 0.008287 0.016549 0.000000 0.086403 0.000000
# 6 0.000000 0.000000 0.000000 0.009304 0.000000 0.040635
#
#
# Mechanical properties :
#
#
# Convention : Reuss Voigt Hill
#
# Bulk Modulus (GPa) = 16.10315 37.57655 26.83985
# Shear Modulus (GPa) = 21.19787 29.55794 25.37791
#
# Velocity S-wave (km/s) = 3.12864 3.69442 3.42324
# Velocity P-wave (km/s) = 4.52626 5.96236 5.29324
#
# Compressibility (1/GPa) = 0.06209964
#
# Stress axis : x y z
#
# Youngs Moduli (GPa) = 48.21608 115.37069 34.52804
#
# Poissons Ratio (x) = 0.03762 -0.16085
# Poissons Ratio (y) = 0.01572 0.08520
# Poissons Ratio (z) = -0.22462 0.28468
#
# Static dielectric constant tensor:
#      x y z
#    x 1.827720 0.000000 0.004580 
#    y 0.000000 1.796000 0.000000 
#    z 0.004580 0.000000 1.747170 
# 
# From -- ./inp_files/18086.got.cif
#   From: 2010.05.17/outbox.cif.g08.bks.cpg/sg11_10_cif.got.tgz:18086.got - 2010.06.03 12:22:45.
