data_PCOD9160563
_publ_section_title
;
Structure prediction by ZEFSAII (Michael W. Deem and Ramdas Pophale) SiO2 
 PCOD9160563
Probable space group: P 21/M
;
_chemical_formula_sum "Si O2"
_cell_formula_units_Z 24
_cell_length_a 7.499504
_cell_length_b 14.145366
_cell_length_c 15.121234
_cell_angle_alpha 90.000000
_cell_angle_beta 144.145757
_cell_angle_gamma 90.000000
_cell_volume 939.567357
_symmetry_space_group_name_H-M "P 21/M"
_symmetry_group_IT_number 11
_symmetry_cell_setting 'monoclinic'
loop_
_space_group_symop_operation_xyz
x,y,z
-x,1/2+y,-z
-x,-y,-z
x,1/2-y,z
loop_
_atom_site_type_symbol
_atom_site_label
_atom_site_fract_x
_atom_site_fract_y
_atom_site_fract_z
Si Si1 0.264582 0.361271 0.766706
Si Si2 0.744583 0.585193 0.583913
Si Si3 0.720893 0.361145 0.093177
Si Si4 0.332703 0.855431 0.568485
Si Si5 0.592205 0.355100 0.712780
Si Si6 0.837335 0.537704 0.848806
O O1 0.196471 0.250000 0.755433
O O2 0.495014 0.363828 0.775852
O O3 0.958577 0.400562 0.598203
O O4 0.413814 0.394987 0.918961
O O5 0.500000 0.500000 0.500000
O O6 0.583596 0.652895 0.591613
O O7 0.693502 0.626277 0.466069
O O8 0.100110 0.585758 0.755471
O O9 0.689810 0.250000 0.101915
O O10 0.956929 0.380158 0.108159
O O11 0.258023 0.750000 0.571467
O O12 0.495479 0.920376 0.707698
O O13 0.713106 0.250000 0.745407
O O14 0.817179 0.441503 0.783188
O O15 0.000000 0.500000 0.000000
#
# Coordination Sequence:
#
# PCOD9160563 Si02
#       6
#     4   4   4   4   4   4
#     4   9  20  37  60  85 110 149 193 230 281 340
#     4  11  20  36  58  86 110 146 192 233 277 338
#     4  10  19  36  59  81 112 152 192 229 276 344
#     4  10  21  39  61  83 114 152 190 229 280 344
#     4  11  21  35  57  84 115 145 186 239 283 326
#     4  11  20  33  56  87 112 146 191 232 278 332
#
# _framework density 25.543671
#
# number of rings (size 3 to 8) (size 9 to 14) (size 15 to 20)
#    0.000    1.667    5.000    3.000    0.000    1.333 
#    0.000    0.833    3.667    0.000    0.000    0.000 
#    0.000    0.000    0.000    0.000    0.000    0.000 
#
# Total GULP energy -133666.823687 kJ/mol
# GULP energy per Si atom -5569.450987 kJ/mol
# Density = 2.548553 g / cm^3
# Si number density = 25.543671 Si / 1000 Ang^3
#
#
#
# Elastic Constant Matrix: (Units=GPa)
#
#
# Indices 1 2 3 4 5 6 
#
# 1 36.9824 1.0596 25.7851 0.0000 -2.0427 0.0000
# 2 1.0596 127.5643 67.0830 0.0000 -2.0713 0.0000
# 3 25.7851 67.0830 263.0451 0.0000 -28.2940 0.0000
# 4 0.0000 0.0000 0.0000 33.0463 0.0000 0.8685
# 5 -2.0427 -2.0713 -28.2940 0.0000 40.0031 0.0000
# 6 0.0000 0.0000 0.0000 0.8685 0.0000 12.6997
#
#
#
# Elastic Compliance Matrix: (Units=1/GPa)
#
#
# Indices 1 2 3 4 5 6 
#
# 1 0.029280 0.001499 -0.003337 0.000000 -0.000788 0.000000
# 2 0.001499 0.009189 -0.002631 0.000000 -0.001309 0.000000
# 3 -0.003337 -0.002631 0.005159 0.000000 0.003342 0.000000
# 4 0.000000 0.000000 0.000000 0.030315 0.000000 -0.002073
# 5 -0.000788 -0.001309 0.003342 0.000000 0.027254 0.000000
# 6 0.000000 0.000000 0.000000 -0.002073 0.000000 0.078884
#
#
# Mechanical properties :
#
#
# Convention : Reuss Voigt Hill
#
# Bulk Modulus (GPa) = 28.82685 68.38304 48.60494
# Shear Modulus (GPa) = 24.92723 39.39409 32.16066
#
# Velocity S-wave (km/s) = 3.12728 3.93138 3.55215
# Velocity P-wave (km/s) = 4.93453 6.88744 5.99109
#
# Compressibility (1/GPa) = 0.03468988
#
# Stress axis : x y z
#
# Youngs Moduli (GPa) = 34.15272 108.82399 193.82467
#
# Poissons Ratio (x) = -0.16312 0.64683
# Poissons Ratio (y) = -0.05119 0.50998
# Poissons Ratio (z) = 0.11397 0.28633
#
# Static dielectric constant tensor:
#      x y z
#    x 2.029690 0.000000 0.009510 
#    y 0.000000 2.622200 0.000000 
#    z 0.009510 0.000000 2.165390 
# 
# From -- ./inp_files/64832.got.cif
#   From: 2010.05.17/outbox.cif.g08.bks.cpg/sg11_33_cif.got.tgz:64832.got - 2010.06.03 12:22:45.
