data_PCOD9160776
_publ_section_title
;
Structure prediction by ZEFSAII (Michael W. Deem and Ramdas Pophale) SiO2 
 PCOD9160776
Probable space group: P 21/M
;
_chemical_formula_sum "Si O2"
_cell_formula_units_Z 28
_cell_length_a 16.028334
_cell_length_b 8.823921
_cell_length_c 20.370291
_cell_angle_alpha 90.000000
_cell_angle_beta 149.498949
_cell_angle_gamma 90.000000
_cell_volume 1462.276925
_symmetry_space_group_name_H-M "P 21/M"
_symmetry_group_IT_number 11
_symmetry_cell_setting 'monoclinic'
loop_
_space_group_symop_operation_xyz
x,y,z
-x,1/2+y,-z
-x,-y,-z
x,1/2-y,z
loop_
_atom_site_type_symbol
_atom_site_label
_atom_site_fract_x
_atom_site_fract_y
_atom_site_fract_z
Si Si1 0.207019 0.565409 0.946583
Si Si2 0.109186 0.568926 0.632180
Si Si3 0.063278 0.431263 0.344694
Si Si4 0.295790 0.919420 0.308661
Si Si5 0.399495 0.578713 0.531334
Si Si6 0.537856 0.567123 0.097624
Si Si7 0.977986 0.073128 0.055632
O O1 0.202629 0.750000 0.944122
O O2 0.065510 0.517773 0.798949
O O3 0.159562 0.512086 0.987341
O O4 0.385324 0.521907 0.040843
O O5 0.124502 0.750000 0.634494
O O6 0.289410 0.495256 0.759080
O O7 0.000000 0.500000 0.500000
O O8 0.019207 0.540840 0.640813
O O9 0.086967 0.250000 0.353271
O O10 0.238107 0.512221 0.455989
O O11 0.237674 0.750000 0.251980
O O12 0.358509 0.913951 0.425785
O O13 0.440965 0.972065 0.358685
O O14 0.150670 0.040114 0.208094
O O15 0.435201 0.750000 0.577853
O O16 0.542661 0.750000 0.096858
O O17 0.500000 0.500000 0.000000
O O18 0.950102 0.250000 0.028335
O O19 0.000000 0.000000 0.000000
#
# Coordination Sequence:
#
# PCOD9160776 Si02
#       7
#     4   4   4   4   4   4   4
#     4   9  19  37  62  88 117 156 201 246 303 368
#     4  11  24  43  64  91 126 165 204 255 315 375
#     4  10  19  37  62  86 116 156 199 244 302 369
#     4  10  20  35  55  81 113 150 189 235 294 353
#     4  10  20  33  55  87 115 143 189 245 291 341
#     4  11  21  39  66  97 127 163 209 258 311 376
#     4  11  22  39  60  82 115 157 200 250 303 360
#
# _framework density 19.148219999999998
#
# number of rings (size 3 to 8) (size 9 to 14) (size 15 to 20)
#    0.000    1.714    2.857    2.143    0.000    2.286 
#    2.571    2.857    0.000    0.000    0.000    0.000 
#    0.000    0.000    0.000    0.000    0.000    0.000 
#
# Total GULP energy -156288.918646 kJ/mol
# GULP energy per Si atom -5581.747095 kJ/mol
# Density = 1.910464 g / cm^3
# Si number density = 19.148220 Si / 1000 Ang^3
#
#
#
# Elastic Constant Matrix: (Units=GPa)
#
#
# Indices 1 2 3 4 5 6 
#
# 1 150.8903 54.0173 55.5708 0.0000 21.1492 0.0000
# 2 54.0173 48.7067 17.1261 0.0000 1.8899 0.0000
# 3 55.5708 17.1261 72.9821 0.0000 12.3917 0.0000
# 4 0.0000 0.0000 0.0000 32.4668 0.0000 1.4634
# 5 21.1492 1.8899 12.3917 0.0000 38.0605 0.0000
# 6 0.0000 0.0000 0.0000 1.4634 0.0000 29.0574
#
#
#
# Elastic Compliance Matrix: (Units=1/GPa)
#
#
# Indices 1 2 3 4 5 6 
#
# 1 0.015026 -0.013899 -0.007282 0.000000 -0.005289 0.000000
# 2 -0.013899 0.035248 0.001373 0.000000 0.005526 0.000000
# 3 -0.007282 0.001373 0.019317 0.000000 -0.002311 0.000000
# 4 0.000000 0.000000 0.000000 0.030871 0.000000 -0.001555
# 5 -0.005289 0.005526 -0.002311 0.000000 0.029691 0.000000
# 6 0.000000 0.000000 0.000000 -0.001555 0.000000 0.034493
#
#
# Mechanical properties :
#
#
# Convention : Reuss Voigt Hill
#
# Bulk Modulus (GPa) = 33.35978 58.44530 45.90254
# Shear Modulus (GPa) = 23.33707 29.64126 26.48917
#
# Velocity S-wave (km/s) = 3.49486 3.93872 3.72341
# Velocity P-wave (km/s) = 5.80905 7.16055 6.51992
#
# Compressibility (1/GPa) = 0.02997622
#
# Stress axis : x y z
#
# Youngs Moduli (GPa) = 66.55138 28.37050 51.76868
#
# Poissons Ratio (x) = 0.39431 0.37697
# Poissons Ratio (y) = 0.92498 -0.07109
# Poissons Ratio (z) = 0.48461 -0.03896
#
# Static dielectric constant tensor:
#      x y z
#    x 1.670420 0.000000 -0.010730 
#    y 0.000000 1.664380 0.000000 
#    z -0.010730 0.000000 1.671880 
# 
# From -- ./inp_files/54510.got.cif
#   From: 2010.05.17/outbox.cif.g08.bks.cpg/sg11_28_cif.got.tgz:54510.got - 2010.06.03 12:22:45.
