data_PCOD9160394
_publ_section_title
;
Structure prediction by ZEFSAII (Michael W. Deem and Ramdas Pophale) SiO2 
 PCOD9160394
Probable space group: P 21/M
;
_chemical_formula_sum "Si O2"
_cell_formula_units_Z 32
_cell_length_a 14.617661
_cell_length_b 19.313665
_cell_length_c 10.663582
_cell_angle_alpha 90.000000
_cell_angle_beta 143.524040
_cell_angle_gamma 90.000000
_cell_volume 1789.727561
_symmetry_space_group_name_H-M "P 21/M"
_symmetry_group_IT_number 11
_symmetry_cell_setting 'monoclinic'
loop_
_space_group_symop_operation_xyz
x,y,z
-x,1/2+y,-z
-x,-y,-z
x,1/2-y,z
loop_
_atom_site_type_symbol
_atom_site_label
_atom_site_fract_x
_atom_site_fract_y
_atom_site_fract_z
Si Si1 0.897427 0.465658 0.277079
Si Si2 0.931201 0.967175 0.798107
Si Si3 0.395756 0.536151 0.559997
Si Si4 0.760535 0.671521 0.630555
Si Si5 0.270269 0.830694 0.939417
Si Si6 0.604405 0.826895 0.185660
Si Si7 0.452107 0.894148 0.367399
Si Si8 0.594317 0.952545 0.007166
O O1 0.858835 0.383960 0.250040
O O2 0.000000 0.500000 0.500000
O O3 0.967808 0.473692 0.215717
O O4 0.734255 0.504161 0.105602
O O5 0.888964 0.887286 0.780989
O O6 0.771107 0.006220 0.593765
O O7 0.000000 0.000000 0.000000
O O8 0.496218 0.468030 0.634366
O O9 0.390349 0.587134 0.435966
O O10 0.478213 0.569112 0.769748
O O11 0.809093 0.750000 0.711185
O O12 0.696681 0.668552 0.417575
O O13 0.609822 0.650167 0.544846
O O14 0.224897 0.750000 0.894079
O O15 0.424377 0.836248 0.023769
O O16 0.330936 0.856878 0.142509
O O17 0.624970 0.750000 0.156446
O O18 0.654559 0.886754 0.148843
O O19 0.500000 0.000000 0.000000
#
# Coordination Sequence:
#
# PCOD9160394 Si02
#       8
#     4   4   4   4   4   4   4   4
#     4  12  24  37  58  92 120 155 202 246 299 358
#     4  11  24  38  57  86 125 158 192 243 297 355
#     4  10  20  33  59  82 117 149 196 241 293 335
#     4   9  18  35  60  85 115 152 194 243 293 350
#     4  10  19  35  59  85 115 149 193 251 304 352
#     4   9  18  34  58  88 114 144 193 251 298 344
#     4   9  16  33  57  89 109 142 195 250 285 338
#     4  12  20  36  61  85 115 154 204 250 295 349
#
# _framework density 17.879816999999999
#
# number of rings (size 3 to 8) (size 9 to 14) (size 15 to 20)
#    0.000    1.750    2.500    4.875    3.500    0.500 
#    0.000    1.875    0.000    1.500    0.000    0.000 
#    0.000    0.000    0.000    0.000    0.000    0.000 
#
# Total GULP energy -178613.594496 kJ/mol
# GULP energy per Si atom -5581.674828 kJ/mol
# Density = 1.783912 g / cm^3
# Si number density = 17.879817 Si / 1000 Ang^3
#
#
#
# Elastic Constant Matrix: (Units=GPa)
#
#
# Indices 1 2 3 4 5 6 
#
# 1 87.2463 51.2511 21.5277 0.0000 10.5314 0.0000
# 2 51.2511 138.8083 37.4833 0.0000 0.0292 0.0000
# 3 21.5277 37.4833 62.8752 0.0000 3.4689 0.0000
# 4 0.0000 0.0000 0.0000 30.8262 0.0000 -3.9196
# 5 10.5314 0.0292 3.4689 0.0000 12.6102 0.0000
# 6 0.0000 0.0000 0.0000 -3.9196 0.0000 21.1586
#
#
#
# Elastic Compliance Matrix: (Units=1/GPa)
#
#
# Indices 1 2 3 4 5 6 
#
# 1 0.016920 -0.005821 -0.001568 0.000000 -0.013686 0.000000
# 2 -0.005821 0.010614 -0.004672 0.000000 0.006122 0.000000
# 3 -0.001568 -0.004672 0.019449 0.000000 -0.004030 0.000000
# 4 0.000000 0.000000 0.000000 0.033222 0.000000 0.006154
# 5 -0.013686 0.006122 -0.004030 0.000000 0.091825 0.000000
# 6 0.000000 0.000000 0.000000 0.006154 0.000000 0.048402
#
#
# Mechanical properties :
#
#
# Convention : Reuss Voigt Hill
#
# Bulk Modulus (GPa) = 43.74319 56.60601 50.17460
# Shear Modulus (GPa) = 19.82748 24.83019 22.32884
#
# Velocity S-wave (km/s) = 3.33367 3.73061 3.53771
# Velocity P-wave (km/s) = 6.27185 7.09115 6.69405
#
# Compressibility (1/GPa) = 0.02286070
#
# Stress axis : x y z
#
# Youngs Moduli (GPa) = 59.10112 94.21705 51.41638
#
# Poissons Ratio (x) = 0.54844 0.08062
# Poissons Ratio (y) = 0.34403 0.24023
# Poissons Ratio (z) = 0.09267 0.44020
#
# Static dielectric constant tensor:
#      x y z
#    x 1.606930 0.000000 0.017910 
#    y 0.000000 1.624350 0.000000 
#    z 0.017910 0.000000 1.624510 
# 
# From -- ./inp_files/40049.got.cif
#   From: 2010.05.17/outbox.cif.g08.bks.cpg/sg11_21_cif.got.tgz:40049.got - 2010.06.03 12:22:45.
