data_PCOD9160143
_publ_section_title
;
Structure prediction by ZEFSAII (Michael W. Deem and Ramdas Pophale) SiO2 
 PCOD9160143
Probable space group: P 21/M
;
_chemical_formula_sum "Si O2"
_cell_formula_units_Z 24
_cell_length_a 7.412474
_cell_length_b 20.871454
_cell_length_c 12.561518
_cell_angle_alpha 90.000000
_cell_angle_beta 34.914393
_cell_angle_gamma 90.000000
_cell_volume 1112.297928
_symmetry_space_group_name_H-M "P 21/M"
_symmetry_group_IT_number 11
_symmetry_cell_setting 'monoclinic'
loop_
_space_group_symop_operation_xyz
x,y,z
-x,1/2+y,-z
-x,-y,-z
x,1/2-y,z
loop_
_atom_site_type_symbol
_atom_site_label
_atom_site_fract_x
_atom_site_fract_y
_atom_site_fract_z
Si Si1 0.588593 0.980275 0.318757
Si Si2 0.874553 0.951323 0.728170
Si Si3 0.365705 0.057507 0.926901
Si Si4 0.787565 0.323075 0.699161
Si Si5 0.075348 0.678036 0.615306
Si Si6 0.406522 0.109078 0.490706
O O1 0.751254 0.951214 0.136414
O O2 0.717122 0.940369 0.358222
O O3 0.215028 0.961304 0.509602
O O4 0.562737 0.057513 0.334826
O O5 0.806910 0.876388 0.741352
O O6 0.638416 0.003645 0.799233
O O7 0.851961 0.956910 0.867216
O O8 0.521092 0.127120 0.863984
O O9 0.748092 0.250000 0.755703
O O10 0.783501 0.321833 0.572286
O O11 0.122737 0.351539 0.576644
O O12 0.971776 0.750000 0.690237
O O13 0.334972 0.653953 0.576127
#
# Coordination Sequence:
#
# PCOD9160143 Si02
#       6
#     4   4   4   4   4   4
#     4  10  19  36  59  85 116 148 184 242 288 329
#     4  10  20  34  62  87 113 153 189 239 284 338
#     4  11  20  36  60  89 116 149 196 236 285 344
#     4  11  21  35  60  84 114 156 190 234 290 339
#     4  10  21  38  59  85 115 154 193 232 287 343
#     4  10  19  34  60  87 111 150 190 233 286 337
#
# _framework density 21.576953
#
# number of rings (size 3 to 8) (size 9 to 14) (size 15 to 20)
#    0.000    1.667    5.000    2.000    0.000    0.667 
#    0.000    7.500    7.333    0.000    0.000    0.000 
#    0.000    0.000    0.000    0.000    0.000    0.000 
#
# Total GULP energy -133862.294890 kJ/mol
# GULP energy per Si atom -5577.595620 kJ/mol
# Density = 2.152784 g / cm^3
# Si number density = 21.576953 Si / 1000 Ang^3
#
#
#
# Elastic Constant Matrix: (Units=GPa)
#
#
# Indices 1 2 3 4 5 6 
#
# 1 42.9275 27.0595 0.5579 0.0000 3.3032 0.0000
# 2 27.0595 186.3427 17.4642 0.0000 -10.4382 0.0000
# 3 0.5579 17.4642 71.1484 0.0000 14.0148 0.0000
# 4 0.0000 0.0000 0.0000 19.4724 0.0000 5.2580
# 5 3.3032 -10.4382 14.0148 0.0000 30.5540 0.0000
# 6 0.0000 0.0000 0.0000 5.2580 0.0000 34.3155
#
#
#
# Elastic Compliance Matrix: (Units=1/GPa)
#
#
# Indices 1 2 3 4 5 6 
#
# 1 0.026376 -0.004295 0.001867 0.000000 -0.005175 0.000000
# 2 -0.004295 0.006410 -0.002267 0.000000 0.003694 0.000000
# 3 0.001867 -0.002267 0.016258 0.000000 -0.008434 0.000000
# 4 0.000000 0.000000 0.000000 0.053571 0.000000 -0.008208
# 5 -0.005175 0.003694 -0.008434 0.000000 0.038419 0.000000
# 6 0.000000 0.000000 0.000000 -0.008208 0.000000 0.030399
#
#
# Mechanical properties :
#
#
# Convention : Reuss Voigt Hill
#
# Bulk Modulus (GPa) = 25.21853 43.39798 34.30825
# Shear Modulus (GPa) = 25.76756 33.89084 29.82920
#
# Velocity S-wave (km/s) = 3.45949 3.96750 3.72217
# Velocity P-wave (km/s) = 5.26028 6.41443 5.86581
#
# Compressibility (1/GPa) = 0.03965339
#
# Stress axis : x y z
#
# Youngs Moduli (GPa) = 37.91258 156.01647 61.50689
#
# Poissons Ratio (x) = 0.67010 -0.11482
# Poissons Ratio (y) = 0.16284 0.13945
# Poissons Ratio (z) = -0.07078 0.35373
#
# Static dielectric constant tensor:
#      x y z
#    x 1.889240 0.000000 0.020050 
#    y 0.000000 1.822020 0.000000 
#    z 0.020050 0.000000 1.784080 
# 
# From -- ./inp_files/32599.got.cif
#   From: 2010.05.17/outbox.cif.g08.bks.cpg/sg11_17_cif.got.tgz:32599.got - 2010.06.03 12:22:45.
