data_PCOD9160496
_publ_section_title
;
Structure prediction by ZEFSAII (Michael W. Deem and Ramdas Pophale) SiO2 
 PCOD9160496
Probable space group: P 21/M
;
_chemical_formula_sum "Si O2"
_cell_formula_units_Z 24
_cell_length_a 11.705022
_cell_length_b 18.053330
_cell_length_c 7.093385
_cell_angle_alpha 90.000000
_cell_angle_beta 142.369634
_cell_angle_gamma 90.000000
_cell_volume 915.197824
_symmetry_space_group_name_H-M "P 21/M"
_symmetry_group_IT_number 11
_symmetry_cell_setting 'monoclinic'
loop_
_space_group_symop_operation_xyz
x,y,z
-x,1/2+y,-z
-x,-y,-z
x,1/2-y,z
loop_
_atom_site_type_symbol
_atom_site_label
_atom_site_fract_x
_atom_site_fract_y
_atom_site_fract_z
Si Si1 0.581058 0.945015 0.361460
Si Si2 0.547651 0.835113 0.668909
Si Si3 0.024134 0.093109 0.137838
Si Si4 0.710396 0.831844 0.251094
Si Si5 0.817296 0.162889 0.534076
Si Si6 0.813478 0.043980 0.197907
O O1 0.555829 0.894500 0.513843
O O2 0.802083 0.965992 0.646420
O O3 0.579519 0.889653 0.183003
O O4 0.394568 0.992418 0.082928
O O5 0.548176 0.750000 0.595275
O O6 0.366785 0.842419 0.569648
O O7 0.719707 0.842884 0.040792
O O8 0.102941 0.155711 0.385228
O O9 0.851895 0.063738 0.031467
O O10 0.977027 0.129370 0.879334
O O11 0.636057 0.750000 0.183063
O O12 0.845854 0.250000 0.529928
O O13 0.808045 0.112930 0.334864
O O14 0.000000 0.000000 0.500000
#
# Coordination Sequence:
#
# PCOD9160496 Si02
#       6
#     4   4   4   4   4   4
#     4  10  22  41  61  94 132 171 220 276 331 398
#     4  10  19  35  64  96 134 173 210 269 344 402
#     4  10  24  41  65 101 130 172 220 283 336 402
#     4   9  19  36  60  95 135 169 210 271 337 400
#     4  11  23  41  69 104 134 171 228 286 341 406
#     4  12  27  48  69  95 138 190 232 277 335 405
#
# _framework density 26.223841
#
# number of rings (size 3 to 8) (size 9 to 14) (size 15 to 20)
#    1.000    0.667    3.333    1.000    2.333    3.333 
#    0.000    0.833    0.000    0.000    0.000    0.000 
#    0.000    0.000    0.000    0.000    0.000    0.000 
#
# Total GULP energy -134085.207089 kJ/mol
# GULP energy per Si atom -5586.883629 kJ/mol
# Density = 2.616415 g / cm^3
# Si number density = 26.223841 Si / 1000 Ang^3
#
#
#
# Elastic Constant Matrix: (Units=GPa)
#
#
# Indices 1 2 3 4 5 6 
#
# 1 135.9656 39.9044 39.8792 0.0000 -10.6424 0.0000
# 2 39.9044 97.6129 31.6348 0.0000 -31.6196 0.0000
# 3 39.8792 31.6348 122.3817 0.0000 -19.8502 0.0000
# 4 0.0000 0.0000 0.0000 29.8920 0.0000 9.4811
# 5 -10.6424 -31.6196 -19.8502 0.0000 43.4820 0.0000
# 6 0.0000 0.0000 0.0000 9.4811 0.0000 -10.0692
#
#
#
# Elastic Compliance Matrix: (Units=1/GPa)
#
#
# Indices 1 2 3 4 5 6 
#
# 1 0.008887 -0.003314 -0.002243 0.000000 -0.001259 0.000000
# 2 -0.003314 0.015123 -0.001271 0.000000 0.009606 0.000000
# 3 -0.002243 -0.001271 0.009711 0.000000 0.002960 0.000000
# 4 0.000000 0.000000 0.000000 0.025760 0.000000 0.024256
# 5 -0.001259 0.009606 0.002960 0.000000 0.031026 0.000000
# 6 0.000000 0.000000 0.000000 0.024256 0.000000 -0.076474
#
#
# Mechanical properties :
#
#
# Convention : Reuss Voigt Hill
#
# Bulk Modulus (GPa) = 49.84141 64.31077 57.07609
# Shear Modulus (GPa) = 145.44319 28.96374 87.20346
#
# Velocity S-wave (km/s) = 7.45537 3.32698 5.77284
# Velocity P-wave (km/s) = 9.65182 6.27179 8.13919
#
# Compressibility (1/GPa) = 0.02006364
#
# Stress axis : x y z
#
# Youngs Moduli (GPa) = 112.52633 66.12559 102.97735
#
# Poissons Ratio (x) = 0.21912 0.23103
# Poissons Ratio (y) = 0.37287 0.13092
# Poissons Ratio (z) = 0.25245 0.08407
#
# Static dielectric constant tensor:
#      x y z
#    x 2.083520 0.000000 0.121470 
#    y 0.000000 2.067260 0.000000 
#    z 0.121470 0.000000 2.119850 
# 
# From -- ./inp_files/5423.got.cif
#   From: 2010.05.17/outbox.cif.g08.bks.cpg/sg11_3_cif.got.tgz:5423.got - 2010.06.03 12:22:45.
