data_PCOD9160758
_publ_section_title
;
Structure prediction by ZEFSAII (Michael W. Deem and Ramdas Pophale) SiO2 
 PCOD9160758
Probable space group: P 21/M
;
_chemical_formula_sum "Si O2"
_cell_formula_units_Z 28
_cell_length_a 8.372646
_cell_length_b 7.892174
_cell_length_c 28.714491
_cell_angle_alpha 90.000000
_cell_angle_beta 43.200181
_cell_angle_gamma 90.000000
_cell_volume 1298.868855
_symmetry_space_group_name_H-M "P 21/M"
_symmetry_group_IT_number 11
_symmetry_cell_setting 'monoclinic'
loop_
_space_group_symop_operation_xyz
x,y,z
-x,1/2+y,-z
-x,-y,-z
x,1/2-y,z
loop_
_atom_site_type_symbol
_atom_site_label
_atom_site_fract_x
_atom_site_fract_y
_atom_site_fract_z
Si Si1 0.809072 0.454525 0.078868
Si Si2 0.616369 0.452562 0.426363
Si Si3 0.103634 0.943727 0.281965
Si Si4 0.050643 0.542816 0.847436
Si Si5 0.553698 0.955048 0.711466
Si Si6 0.252093 0.454085 0.427176
Si Si7 0.314068 0.445589 0.146662
O O1 0.787825 0.250000 0.087720
O O2 0.897202 0.514600 0.110904
O O3 0.557011 0.520367 0.114431
O O4 0.000000 0.500000 0.000000
O O5 0.500000 0.500000 0.500000
O O6 0.627875 0.250000 0.421918
O O7 0.447202 0.516473 0.421501
O O8 0.874682 0.517476 0.360922
O O9 0.098882 0.750000 0.268312
O O10 0.322534 0.978941 0.268704
O O11 0.135229 0.049638 0.228204
O O12 0.038010 0.750000 0.850733
O O13 0.282520 0.497663 0.768989
O O14 0.820041 0.480233 0.869625
O O15 0.566617 0.750000 0.710483
O O16 0.690455 0.015837 0.636792
O O17 0.266467 0.250000 0.422817
O O18 0.000000 0.500000 0.500000
O O19 0.365631 0.250000 0.124175
#
# Coordination Sequence:
#
# PCOD9160758 Si02
#       7
#     4   4   4   4   4   4   4
#     4  10  21  38  61  90 124 160 198 245 300 360
#     4  11  23  40  59  83 115 154 199 247 300 359
#     4  12  24  37  57  88 121 154 195 247 303 358
#     4   9  18  36  63  90 114 152 207 250 292 357
#     4  10  19  37  61  83 110 152 200 245 295 354
#     4  10  22  37  57  82 111 149 195 245 297 354
#     4  10  20  39  65  88 116 159 205 247 296 355
#
# _framework density 21.557220000000001
#
# number of rings (size 3 to 8) (size 9 to 14) (size 15 to 20)
#    0.000    1.714    1.429    3.429    0.000    7.429 
#    0.000    2.857    0.000    0.000    0.000    0.000 
#    0.000    0.000    0.000    0.000    0.000    0.000 
#
# Total GULP energy -156422.314421 kJ/mol
# GULP energy per Si atom -5586.511229 kJ/mol
# Density = 2.150815 g / cm^3
# Si number density = 21.557220 Si / 1000 Ang^3
#
#
#
# Elastic Constant Matrix: (Units=GPa)
#
#
# Indices 1 2 3 4 5 6 
#
# 1 176.8432 5.3628 55.6208 0.0000 1.5589 0.0000
# 2 5.3628 28.8896 -7.7242 0.0000 -2.7483 0.0000
# 3 55.6208 -7.7242 112.6063 0.0000 2.0984 0.0000
# 4 0.0000 0.0000 0.0000 27.8382 0.0000 0.9572
# 5 1.5589 -2.7483 2.0984 0.0000 28.9460 0.0000
# 6 0.0000 0.0000 0.0000 0.9572 0.0000 7.5943
#
#
#
# Elastic Compliance Matrix: (Units=1/GPa)
#
#
# Indices 1 2 3 4 5 6 
#
# 1 0.006834 -0.002241 -0.003523 0.000000 -0.000325 0.000000
# 2 -0.002241 0.036291 0.003535 0.000000 0.003310 0.000000
# 3 -0.003523 0.003535 0.010868 0.000000 -0.000262 0.000000
# 4 0.000000 0.000000 0.000000 0.036078 0.000000 -0.004547
# 5 -0.000325 0.003310 -0.000262 0.000000 0.034898 0.000000
# 6 0.000000 0.000000 0.000000 -0.004547 0.000000 0.132250
#
#
# Mechanical properties :
#
#
# Convention : Reuss Voigt Hill
#
# Bulk Modulus (GPa) = 20.18866 47.20646 33.69756
# Shear Modulus (GPa) = 17.97340 30.54769 24.26054
#
# Velocity S-wave (km/s) = 2.89061 3.76846 3.35834
# Velocity P-wave (km/s) = 4.53060 6.39381 5.54108
#
# Compressibility (1/GPa) = 0.04953275
#
# Stress axis : x y z
#
# Youngs Moduli (GPa) = 146.33444 27.55535 92.01268
#
# Poissons Ratio (x) = 0.06176 0.32417
# Poissons Ratio (y) = 0.32801 -0.32525
# Poissons Ratio (z) = 0.51555 -0.09740
#
# Static dielectric constant tensor:
#      x y z
#    x 1.793310 0.000000 -0.011020 
#    y 0.000000 1.780450 0.000000 
#    z -0.011020 0.000000 1.733050 
# 
# From -- ./inp_files/70820.got.cif
#   From: 2010.05.17/outbox.cif.g08.bks.cpg/sg11_36_cif.got.tgz:70820.got - 2010.06.03 12:22:45.
