data_PCOD9160047
_publ_section_title
;
Structure prediction by ZEFSAII (Michael W. Deem and Ramdas Pophale) SiO2 
 PCOD9160047
Probable space group: P 21/M
;
_chemical_formula_sum "Si O2"
_cell_formula_units_Z 32
_cell_length_a 27.523463
_cell_length_b 8.556581
_cell_length_c 21.525716
_cell_angle_alpha 90.000000
_cell_angle_beta 160.549161
_cell_angle_gamma 90.000000
_cell_volume 1688.116760
_symmetry_space_group_name_H-M "P 21/M"
_symmetry_group_IT_number 11
_symmetry_cell_setting 'monoclinic'
loop_
_space_group_symop_operation_xyz
x,y,z
-x,1/2+y,-z
-x,-y,-z
x,1/2-y,z
loop_
_atom_site_type_symbol
_atom_site_label
_atom_site_fract_x
_atom_site_fract_y
_atom_site_fract_z
Si Si1 0.345523 0.564575 0.132780
Si Si2 0.025105 0.433138 0.758514
Si Si3 0.848061 0.561171 0.790427
Si Si4 0.952369 0.564125 0.542344
Si Si5 0.497209 0.065212 0.194091
Si Si6 0.551190 0.562047 0.495747
Si Si7 0.778364 0.561612 0.211902
Si Si8 0.810159 0.564043 0.600792
O O1 0.366008 0.750000 0.146342
O O2 0.408814 0.472167 0.150495
O O3 0.437208 0.519864 0.304250
O O4 0.176598 0.526797 0.939009
O O5 0.057712 0.250000 0.798496
O O6 0.929726 0.480734 0.702558
O O7 0.940729 0.477070 0.593458
O O8 0.849499 0.750000 0.793357
O O9 0.711241 0.507156 0.667092
O O10 0.822272 0.514605 0.687582
O O11 0.000000 0.500000 0.000000
O O12 0.949653 0.750000 0.549418
O O13 0.105869 0.517678 0.695063
O O14 0.829852 0.522610 0.343546
O O15 0.525970 0.250000 0.224276
O O16 0.649675 0.976501 0.382040
O O17 0.385612 0.018674 0.004695
O O18 0.500000 0.500000 0.500000
O O19 0.555193 0.750000 0.503534
O O20 0.792914 0.750000 0.221866
O O21 0.832928 0.750000 0.625342
#
# Coordination Sequence:
#
# PCOD9160047 Si02
#       8
#     4   4   4   4   4   4   4   4
#     4  11  22  40  63  88 120 160 203 248 298 357
#     4  12  25  40  59  90 124 156 202 258 305 355
#     4  10  23  43  63  87 119 157 199 243 294 357
#     4  10  19  34  57  86 121 161 200 243 300 361
#     4  11  21  37  62  93 122 155 199 250 300 350
#     4  10  23  42  62  90 123 155 196 246 295 351
#     4   9  19  34  56  88 123 156 198 249 298 352
#     4  11  24  44  64  85 119 162 204 246 298 365
#
# _framework density 18.956033999999999
#
# number of rings (size 3 to 8) (size 9 to 14) (size 15 to 20)
#    0.000    1.500    2.500    2.625    1.750    3.500 
#    0.000    0.625    0.000    0.000    0.000    0.000 
#    0.000    0.000    0.000    0.000    0.000    0.000 
#
# Total GULP energy -178826.450533 kJ/mol
# GULP energy per Si atom -5588.326579 kJ/mol
# Density = 1.891289 g / cm^3
# Si number density = 18.956034 Si / 1000 Ang^3
#
#
#
# Elastic Constant Matrix: (Units=GPa)
#
#
# Indices 1 2 3 4 5 6 
#
# 1 80.7920 6.3262 24.2393 0.0000 1.2961 0.0000
# 2 6.3262 21.2712 4.3040 0.0000 -10.5026 0.0000
# 3 24.2393 4.3040 91.5994 0.0000 -13.5426 0.0000
# 4 0.0000 0.0000 0.0000 30.6897 0.0000 1.2800
# 5 1.2961 -10.5026 -13.5426 0.0000 25.4453 0.0000
# 6 0.0000 0.0000 0.0000 1.2800 0.0000 32.2356
#
#
#
# Elastic Compliance Matrix: (Units=1/GPa)
#
#
# Indices 1 2 3 4 5 6 
#
# 1 0.014232 -0.006092 -0.004297 0.000000 -0.005526 0.000000
# 2 -0.006092 0.061721 0.002740 0.000000 0.027244 0.000000
# 3 -0.004297 0.002740 0.013161 0.000000 0.008354 0.000000
# 4 0.000000 0.000000 0.000000 0.032638 0.000000 -0.001296
# 5 -0.005526 0.027244 0.008354 0.000000 0.055273 0.000000
# 6 0.000000 0.000000 0.000000 -0.001296 0.000000 0.031073
#
#
# Mechanical properties :
#
#
# Convention : Reuss Voigt Hill
#
# Bulk Modulus (GPa) = 13.54724 29.26685 21.40705
# Shear Modulus (GPa) = 20.16116 28.26032 24.21074
#
# Velocity S-wave (km/s) = 3.26479 3.86532 3.57768
# Velocity P-wave (km/s) = 4.62320 5.94927 5.32765
#
# Compressibility (1/GPa) = 0.07381575
#
# Stress axis : x y z
#
# Youngs Moduli (GPa) = 70.26260 16.20192 75.98451
#
# Poissons Ratio (x) = 0.09870 0.32651
# Poissons Ratio (y) = 0.42804 -0.20819
# Poissons Ratio (z) = 0.30192 -0.04439
#
# Static dielectric constant tensor:
#      x y z
#    x 1.630790 0.000000 -0.018840 
#    y 0.000000 1.634100 0.000000 
#    z -0.018840 0.000000 1.656360 
# 
# From -- ./inp_files/67285.got.cif
#   From: 2010.05.17/outbox.cif.g08.bks.cpg/sg11_34_cif.got.tgz:67285.got - 2010.06.03 12:22:45.
