data_PCOD9160495
_publ_section_title
;
Structure prediction by ZEFSAII (Michael W. Deem and Ramdas Pophale) SiO2 
 PCOD9160495
Probable space group: P 21/M
;
_chemical_formula_sum "Si O2"
_cell_formula_units_Z 28
_cell_length_a 9.179880
_cell_length_b 14.390895
_cell_length_c 20.615496
_cell_angle_alpha 90.000000
_cell_angle_beta 32.281963
_cell_angle_gamma 90.000000
_cell_volume 1454.554432
_symmetry_space_group_name_H-M "P 21/M"
_symmetry_group_IT_number 11
_symmetry_cell_setting 'monoclinic'
loop_
_space_group_symop_operation_xyz
x,y,z
-x,1/2+y,-z
-x,-y,-z
x,1/2-y,z
loop_
_atom_site_type_symbol
_atom_site_label
_atom_site_fract_x
_atom_site_fract_y
_atom_site_fract_z
Si Si1 0.502747 0.358192 0.780273
Si Si2 0.834790 0.850357 0.960095
Si Si3 0.945781 0.858059 0.698041
Si Si4 0.032497 0.477068 0.563075
Si Si5 0.102214 0.046893 0.828689
Si Si6 0.394294 0.953685 0.605230
Si Si7 0.486039 0.600965 0.972195
O O1 0.537358 0.250000 0.750499
O O2 0.346413 0.363447 0.907560
O O3 0.318420 0.408686 0.795735
O O4 0.791133 0.409385 0.675820
O O5 0.981073 0.750000 0.910364
O O6 0.635326 0.843979 0.973104
O O7 0.016853 0.942677 0.883925
O O8 0.936046 0.750000 0.682930
O O9 0.667091 0.887071 0.839740
O O10 0.005721 0.928855 0.616493
O O11 0.183558 0.874864 0.662270
O O12 0.328458 0.430273 0.461774
O O13 0.000000 0.500000 0.500000
O O14 0.231324 0.028275 0.709747
O O15 0.832163 0.110608 0.924650
O O16 0.500000 0.000000 0.500000
O O17 0.500000 0.500000 0.000000
#
# Coordination Sequence:
#
# PCOD9160495 Si02
#       7
#     4   4   4   4   4   4   4
#     4  11  25  42  61  90 127 169 217 263 314 385
#     4  10  21  37  62  93 125 163 209 259 321 383
#     4  11  23  41  67 100 129 162 218 275 322 386
#     4  11  23  44  66  89 127 175 216 265 324 379
#     4  11  21  40  63  92 127 169 202 264 321 379
#     4  10  22  39  65  91 122 167 213 258 323 375
#     4  10  19  35  64  92 127 164 204 258 325 370
#
# _framework density 19.249880000000001
#
# number of rings (size 3 to 8) (size 9 to 14) (size 15 to 20)
#    0.000    1.429    4.286    2.571    2.000    2.286 
#    0.000    2.143    0.000    0.000    0.000    0.000 
#    0.000    0.000    0.000    0.000    0.000    0.000 
#
# Total GULP energy -156168.279314 kJ/mol
# GULP energy per Si atom -5577.438547 kJ/mol
# Density = 1.920607 g / cm^3
# Si number density = 19.249880 Si / 1000 Ang^3
#
#
#
# Elastic Constant Matrix: (Units=GPa)
#
#
# Indices 1 2 3 4 5 6 
#
# 1 84.6681 31.2851 38.4852 0.0000 -2.6874 0.0000
# 2 31.2851 122.9394 40.7889 0.0000 -0.1693 0.0000
# 3 38.4852 40.7889 110.2273 0.0000 -2.9799 0.0000
# 4 0.0000 0.0000 0.0000 -4.1572 0.0000 -20.2512
# 5 -2.6874 -0.1693 -2.9799 0.0000 44.5034 0.0000
# 6 0.0000 0.0000 0.0000 -20.2512 0.0000 -1.2955
#
#
#
# Elastic Compliance Matrix: (Units=1/GPa)
#
#
# Indices 1 2 3 4 5 6 
#
# 1 0.014606 -0.002313 -0.004228 0.000000 0.000590 0.000000
# 2 -0.002313 0.009641 -0.002768 0.000000 -0.000288 0.000000
# 3 -0.004228 -0.002768 0.011586 0.000000 0.000510 0.000000
# 4 0.000000 0.000000 0.000000 0.003201 0.000000 -0.050037
# 5 0.000590 -0.000288 0.000510 0.000000 0.022539 0.000000
# 6 0.000000 0.000000 0.000000 -0.050037 0.000000 0.010272
#
#
# Mechanical properties :
#
#
# Convention : Reuss Voigt Hill
#
# Bulk Modulus (GPa) = 58.08675 59.88372 58.98523
# Shear Modulus (GPa) = 51.97527 21.62853 36.80190
#
# Velocity S-wave (km/s) = 5.20182 3.35560 4.37716
# Velocity P-wave (km/s) = 8.14366 6.79629 7.50029
#
# Compressibility (1/GPa) = 0.01721563
#
# Stress axis : x y z
#
# Youngs Moduli (GPa) = 68.46510 103.72780 86.31043
#
# Poissons Ratio (x) = 0.23997 0.36488
# Poissons Ratio (y) = 0.15839 0.23887
# Poissons Ratio (z) = 0.28944 0.28707
#
# Static dielectric constant tensor:
#      x y z
#    x 1.698000 0.000000 -0.004050 
#    y 0.000000 1.665620 0.000000 
#    z -0.004050 0.000000 1.741050 
# 
# From -- ./inp_files/63875.got.cif
#   From: 2010.05.17/outbox.cif.g08.bks.cpg/sg11_32_cif.got.tgz:63875.got - 2010.06.03 12:22:45.
