data_PCOD9160285
_publ_section_title
;
Structure prediction by ZEFSAII (Michael W. Deem and Ramdas Pophale) SiO2 
 PCOD9160285
Probable space group: P 21/M
;
_chemical_formula_sum "Si O2"
_cell_formula_units_Z 20
_cell_length_a 10.134864
_cell_length_b 13.164033
_cell_length_c 10.358551
_cell_angle_alpha 90.000000
_cell_angle_beta 139.721555
_cell_angle_gamma 90.000000
_cell_volume 893.462472
_symmetry_space_group_name_H-M "P 21/M"
_symmetry_group_IT_number 11
_symmetry_cell_setting 'monoclinic'
loop_
_space_group_symop_operation_xyz
x,y,z
-x,1/2+y,-z
-x,-y,-z
x,1/2-y,z
loop_
_atom_site_type_symbol
_atom_site_label
_atom_site_fract_x
_atom_site_fract_y
_atom_site_fract_z
Si Si1 0.726065 0.130246 0.494472
Si Si2 0.429012 0.136805 0.055443
Si Si3 0.895204 0.505073 0.284446
Si Si4 0.694728 0.943373 0.771583
Si Si5 0.904231 0.368528 0.058693
O O1 0.732506 0.250000 0.528758
O O2 0.544810 0.074344 0.437519
O O3 0.939863 0.075689 0.669124
O O4 0.648929 0.120500 0.286575
O O5 0.419113 0.250000 0.997184
O O6 0.320604 0.062588 0.875421
O O7 0.296816 0.122291 0.088380
O O8 0.000000 0.500000 0.500000
O O9 0.871376 0.403807 0.181975
O O10 0.861524 0.895377 0.802432
O O11 0.764476 0.055973 0.867644
O O12 0.862955 0.250000 0.008268
#
# Coordination Sequence:
#
# PCOD9160285 Si02
#       5
#     4   4   4   4   4
#     4   9  18  36  61  83 104 140 191 238 280 334
#     4   8  16  34  57  79 101 137 184 231 278 329
#     4  11  23  34  52  80 118 153 187 226 276 336
#     4   8  17  35  59  84 107 139 185 238 287 336
#     4  10  19  35  57  82 117 150 181 235 290 334
#
# _framework density 22.384823999999998
#
# number of rings (size 3 to 8) (size 9 to 14) (size 15 to 20)
#    1.200    1.600    0.000    1.800    0.000    3.200 
#    0.000    2.000    0.000    0.000    0.000    0.000 
#    0.000    0.000    0.000    0.000    0.000    0.000 
#
# Total GULP energy -111462.853491 kJ/mol
# GULP energy per Si atom -5573.142675 kJ/mol
# Density = 2.233388 g / cm^3
# Si number density = 22.384824 Si / 1000 Ang^3
#
#
#
# Elastic Constant Matrix: (Units=GPa)
#
#
# Indices 1 2 3 4 5 6 
#
# 1 38.7140 26.9377 23.5494 0.0000 11.7351 0.0000
# 2 26.9377 144.0974 22.3274 0.0000 17.8681 0.0000
# 3 23.5494 22.3274 80.9515 0.0000 15.5354 0.0000
# 4 0.0000 0.0000 0.0000 29.0246 0.0000 1.6488
# 5 11.7351 17.8681 15.5354 0.0000 44.8446 0.0000
# 6 0.0000 0.0000 0.0000 1.6488 0.0000 10.6669
#
#
#
# Elastic Compliance Matrix: (Units=1/GPa)
#
#
# Indices 1 2 3 4 5 6 
#
# 1 0.035504 -0.004813 -0.008126 0.000000 -0.004558 0.000000
# 2 -0.004813 0.008141 -0.000498 0.000000 -0.001812 0.000000
# 3 -0.008126 -0.000498 0.015434 0.000000 -0.003022 0.000000
# 4 0.000000 0.000000 0.000000 0.034759 0.000000 -0.005373
# 5 -0.004558 -0.001812 -0.003022 0.000000 0.025261 0.000000
# 6 0.000000 0.000000 0.000000 -0.005373 0.000000 0.094578
#
#
# Mechanical properties :
#
#
# Convention : Reuss Voigt Hill
#
# Bulk Modulus (GPa) = 31.04995 45.48799 38.26897
# Shear Modulus (GPa) = 19.89765 29.63713 24.76739
#
# Velocity S-wave (km/s) = 2.98466 3.64261 3.32992
# Velocity P-wave (km/s) = 5.07727 6.16899 5.64956
#
# Compressibility (1/GPa) = 0.03220617
#
# Stress axis : x y z
#
# Youngs Moduli (GPa) = 28.16587 122.83113 64.79084
#
# Poissons Ratio (x) = 0.59116 0.52650
# Poissons Ratio (y) = 0.13556 0.03224
# Poissons Ratio (z) = 0.22888 0.06112
#
# Static dielectric constant tensor:
#      x y z
#    x 1.910000 0.000000 -0.015390 
#    y 0.000000 1.805090 0.000000 
#    z -0.015390 0.000000 1.829110 
# 
# From -- ./inp_files/34964.got.cif
#   From: 2010.05.17/outbox.cif.g08.bks.cpg/sg11_18_cif.got.tgz:34964.got - 2010.06.03 12:22:45.
