data_PCOD9160234
_publ_section_title
;
Structure prediction by ZEFSAII (Michael W. Deem and Ramdas Pophale) SiO2 
 PCOD9160234
Probable space group: P 21/M
;
_chemical_formula_sum "Si O2"
_cell_formula_units_Z 32
_cell_length_a 13.464372
_cell_length_b 11.926931
_cell_length_c 13.956555
_cell_angle_alpha 90.000000
_cell_angle_beta 40.529159
_cell_angle_gamma 90.000000
_cell_volume 1456.451764
_symmetry_space_group_name_H-M "P 21/M"
_symmetry_group_IT_number 11
_symmetry_cell_setting 'monoclinic'
loop_
_space_group_symop_operation_xyz
x,y,z
-x,1/2+y,-z
-x,-y,-z
x,1/2-y,z
loop_
_atom_site_type_symbol
_atom_site_label
_atom_site_fract_x
_atom_site_fract_y
_atom_site_fract_z
Si Si1 0.687718 0.619993 0.354494
Si Si2 0.517761 0.369787 0.096536
Si Si3 0.677299 0.579048 0.586225
Si Si4 0.188769 0.124224 0.005913
Si Si5 0.747102 0.550544 0.840637
Si Si6 0.962690 0.382853 0.892218
Si Si7 0.510854 0.124758 0.668334
Si Si8 0.976628 0.127025 0.649224
O O1 0.682374 0.750000 0.331712
O O2 0.664124 0.613503 0.485140
O O3 0.562319 0.570838 0.374460
O O4 0.863015 0.588507 0.205857
O O5 0.592320 0.250000 0.024322
O O6 0.459763 0.376693 0.247701
O O7 0.363864 0.381912 0.147199
O O8 0.633519 0.464621 0.979261
O O9 0.649654 0.446618 0.606367
O O10 0.843370 0.612776 0.501126
O O11 0.128545 0.250000 0.018353
O O12 0.366935 0.126127 0.845445
O O13 0.175519 0.119650 0.130910
O O14 0.127463 0.999814 0.017620
O O15 0.870019 0.474666 0.694907
O O16 0.925710 0.250000 0.949397
O O17 0.962441 0.376183 0.776250
O O18 0.564805 0.250000 0.610677
O O19 0.928120 0.250000 0.650406
#
# Coordination Sequence:
#
# PCOD9160234 Si02
#       8
#     4   4   4   4   4   4   4   4
#     4   9  18  35  58  80 112 150 188 241 295 342
#     4  11  22  36  59  87 114 143 190 242 280 333
#     4  11  20  37  57  84 110 145 194 240 285 331
#     4  10  19  35  56  80 116 156 191 233 289 349
#     4  10  21  38  56  84 115 152 187 226 286 349
#     4   8  16  32  55  84 112 150 195 237 286 342
#     4  10  21  36  54  80 113 153 194 235 293 351
#     4   9  18  35  58  80 113 151 187 234 289 342
#
# _framework density 21.971205000000001
#
# number of rings (size 3 to 8) (size 9 to 14) (size 15 to 20)
#    0.000    2.250    1.250    3.000    0.000    1.500 
#    0.000    6.875    0.000    3.000    0.000    0.000 
#    0.000    0.000    0.000    0.000    0.000    0.000 
#
# Total GULP energy -178253.154431 kJ/mol
# GULP energy per Si atom -5570.411076 kJ/mol
# Density = 2.192120 g / cm^3
# Si number density = 21.971205 Si / 1000 Ang^3
#
#
#
# Elastic Constant Matrix: (Units=GPa)
#
#
# Indices 1 2 3 4 5 6 
#
# 1 32.8683 23.4349 5.2260 0.0000 0.2203 0.0000
# 2 23.4349 133.9052 20.1433 0.0000 -7.2016 0.0000
# 3 5.2260 20.1433 43.2453 0.0000 0.1615 0.0000
# 4 0.0000 0.0000 0.0000 22.8691 0.0000 -5.3064
# 5 0.2203 -7.2016 0.1615 0.0000 23.3605 0.0000
# 6 0.0000 0.0000 0.0000 -5.3064 0.0000 15.3663
#
#
#
# Elastic Compliance Matrix: (Units=1/GPa)
#
#
# Indices 1 2 3 4 5 6 
#
# 1 0.034958 -0.006023 -0.001411 0.000000 -0.002177 0.000000
# 2 -0.006023 0.009217 -0.003576 0.000000 0.002923 0.000000
# 3 -0.001411 -0.003576 0.024965 0.000000 -0.001262 0.000000
# 4 0.000000 0.000000 0.000000 0.047536 0.000000 0.016415
# 5 -0.002177 0.002923 -0.001262 0.000000 0.043738 0.000000
# 6 0.000000 0.000000 0.000000 0.016415 0.000000 0.070746
#
#
# Mechanical properties :
#
#
# Convention : Reuss Voigt Hill
#
# Bulk Modulus (GPa) = 21.22263 34.18079 27.70171
# Shear Modulus (GPa) = 18.59522 23.06682 20.83102
#
# Velocity S-wave (km/s) = 2.91236 3.24368 3.08247
# Velocity P-wave (km/s) = 4.58141 5.44238 5.03035
#
# Compressibility (1/GPa) = 0.04711951
#
# Stress axis : x y z
#
# Youngs Moduli (GPa) = 28.60609 108.49253 40.05614
#
# Poissons Ratio (x) = 0.65343 0.05652
# Poissons Ratio (y) = 0.17229 0.14326
# Poissons Ratio (z) = 0.04036 0.38801
#
# Static dielectric constant tensor:
#      x y z
#    x 1.856930 0.000000 0.009490 
#    y 0.000000 1.881240 0.000000 
#    z 0.009490 0.000000 1.804050 
# 
# From -- ./inp_files/52258.got.cif
#   From: 2010.05.17/outbox.cif.g08.bks.cpg/sg11_27_cif.got.tgz:52258.got - 2010.06.03 12:22:45.
