data_PCOD9160912
_publ_section_title
;
Structure prediction by ZEFSAII (Michael W. Deem and Ramdas Pophale) SiO2 
 PCOD9160912
Probable space group: P 21/M
;
_chemical_formula_sum "Si O2"
_cell_formula_units_Z 32
_cell_length_a 15.397267
_cell_length_b 22.427608
_cell_length_c 9.138524
_cell_angle_alpha 90.000000
_cell_angle_beta 149.098651
_cell_angle_gamma 90.000000
_cell_volume 1620.671797
_symmetry_space_group_name_H-M "P 21/M"
_symmetry_group_IT_number 11
_symmetry_cell_setting 'monoclinic'
loop_
_space_group_symop_operation_xyz
x,y,z
-x,1/2+y,-z
-x,-y,-z
x,1/2-y,z
loop_
_atom_site_type_symbol
_atom_site_label
_atom_site_fract_x
_atom_site_fract_y
_atom_site_fract_z
Si Si1 0.122292 0.942516 0.676967
Si Si2 0.106945 0.818029 0.541693
Si Si3 0.562458 0.062087 0.658348
Si Si4 0.505053 0.316784 0.012438
Si Si5 0.287103 0.099045 0.500359
Si Si6 0.318519 0.520660 0.674776
Si Si7 0.997232 0.680853 0.049254
Si Si8 0.357742 0.629349 0.510328
O O1 0.055621 0.874014 0.569456
O O2 0.221816 0.949700 0.668247
O O3 0.255406 0.946095 0.001902
O O4 0.000000 0.000000 0.500000
O O5 0.075060 0.750000 0.549842
O O6 0.308833 0.821152 0.794861
O O7 0.017284 0.824705 0.254078
O O8 0.430107 0.081388 0.590201
O O9 0.572731 0.111556 0.546388
O O10 0.500000 0.000000 0.500000
O O11 0.443529 0.250000 0.900370
O O12 0.529589 0.330347 0.219368
O O13 0.379835 0.363351 0.759472
O O14 0.144743 0.137703 0.217751
O O15 0.223004 0.037544 0.477776
O O16 0.338583 0.567850 0.574141
O O17 0.500000 0.500000 0.000000
O O18 0.962866 0.750000 0.966624
O O19 0.176493 0.661039 0.240919
#
# Coordination Sequence:
#
# PCOD9160912 Si02
#       8
#     4   4   4   4   4   4   4   4
#     4  12  25  40  65  99 129 169 220 269 324 391
#     4   9  18  40  65  87 121 168 217 260 317 393
#     4  12  25  40  59 103 134 161 209 277 330 384
#     4  10  19  39  67  88 116 172 224 254 312 395
#     4  12  23  39  67  94 133 165 216 272 323 384
#     4  12  20  41  64  92 124 171 211 259 321 393
#     4  10  23  42  65  94 125 165 220 267 317 392
#     4  11  21  40  66  90 132 165 209 260 329 381
#
# _framework density 19.744899
#
# number of rings (size 3 to 8) (size 9 to 14) (size 15 to 20)
#    0.000    1.000    7.500    1.500    3.500    0.500 
#    0.000    3.750    0.000    1.500    0.000    0.000 
#    0.000    0.000    0.000    0.000    0.000    0.000 
#
# Total GULP energy -178764.193067 kJ/mol
# GULP energy per Si atom -5586.381033 kJ/mol
# Density = 1.969996 g / cm^3
# Si number density = 19.744899 Si / 1000 Ang^3
#
#
#
# Elastic Constant Matrix: (Units=GPa)
#
#
# Indices 1 2 3 4 5 6 
#
# 1 39.5858 7.4532 -2.3760 0.0000 -11.3450 0.0000
# 2 7.4532 133.4037 15.9017 0.0000 -5.6338 0.0000
# 3 -2.3760 15.9017 53.5829 0.0000 -8.4148 0.0000
# 4 0.0000 0.0000 0.0000 33.5970 0.0000 -4.6680
# 5 -11.3450 -5.6338 -8.4148 0.0000 11.7794 0.0000
# 6 0.0000 0.0000 0.0000 -4.6680 0.0000 32.7987
#
#
#
# Elastic Compliance Matrix: (Units=1/GPa)
#
#
# Indices 1 2 3 4 5 6 
#
# 1 0.038195 -0.001388 0.008761 0.000000 0.042382 0.000000
# 2 -0.001388 0.007879 -0.002273 0.000000 0.000807 0.000000
# 3 0.008761 -0.002273 0.023519 0.000000 0.024152 0.000000
# 4 0.000000 0.000000 0.000000 0.030365 0.000000 0.004322
# 5 0.042382 0.000807 0.024152 0.000000 0.143353 0.000000
# 6 0.000000 0.000000 0.000000 0.004322 0.000000 0.031104
#
#
# Mechanical properties :
#
#
# Convention : Reuss Voigt Hill
#
# Bulk Modulus (GPa) = 12.53250 29.83669 21.18460
# Shear Modulus (GPa) = 17.19327 29.34126 23.26726
#
# Velocity S-wave (km/s) = 2.95408 3.85907 3.43650
# Velocity P-wave (km/s) = 4.24222 5.91612 5.14767
#
# Compressibility (1/GPa) = 0.07979257
#
# Stress axis : x y z
#
# Youngs Moduli (GPa) = 26.18131 126.92549 42.51945
#
# Poissons Ratio (x) = 0.17623 -0.37253
# Poissons Ratio (y) = 0.03635 0.09664
# Poissons Ratio (z) = -0.22939 0.28849
#
# Static dielectric constant tensor:
#      x y z
#    x 1.676450 0.000000 0.008190 
#    y 0.000000 1.704580 0.000000 
#    z 0.008190 0.000000 1.695240 
# 
# From -- ./inp_files/23339.got.cif
#   From: 2010.05.17/outbox.cif.g08.bks.cpg/sg11_12_cif.got.tgz:23339.got - 2010.06.03 12:22:45.
