data_PCOD9160829
_publ_section_title
;
Structure prediction by ZEFSAII (Michael W. Deem and Ramdas Pophale) SiO2 
 PCOD9160829
Probable space group: P 21/M
;
_chemical_formula_sum "Si O2"
_cell_formula_units_Z 32
_cell_length_a 15.457592
_cell_length_b 13.323663
_cell_length_c 22.058713
_cell_angle_alpha 90.000000
_cell_angle_beta 159.823831
_cell_angle_gamma 90.000000
_cell_volume 1566.926746
_symmetry_space_group_name_H-M "P 21/M"
_symmetry_group_IT_number 11
_symmetry_cell_setting 'monoclinic'
loop_
_space_group_symop_operation_xyz
x,y,z
-x,1/2+y,-z
-x,-y,-z
x,1/2-y,z
loop_
_atom_site_type_symbol
_atom_site_label
_atom_site_fract_x
_atom_site_fract_y
_atom_site_fract_z
Si Si1 0.727639 0.629999 0.153394
Si Si2 0.004655 0.535974 0.434382
Si Si3 0.153129 0.638961 0.340973
Si Si4 0.176577 0.863942 0.762995
Si Si5 0.080847 0.135225 0.279115
Si Si6 0.513676 0.871372 0.731594
Si Si7 0.046607 0.041898 0.898576
Si Si8 0.531847 0.496574 0.620136
O O1 0.731599 0.750000 0.155547
O O2 0.767817 0.592441 0.248155
O O3 0.969444 0.596054 0.272551
O O4 0.466397 0.601647 0.950201
O O5 0.006680 0.435134 0.394959
O O6 0.000000 0.500000 0.500000
O O7 0.237529 0.609451 0.576565
O O8 0.219960 0.750000 0.403449
O O9 0.994120 0.631566 0.175830
O O10 0.404989 0.578486 0.492085
O O11 0.157740 0.750000 0.728309
O O12 0.111595 0.864212 0.791274
O O13 0.111940 0.250000 0.277785
O O14 0.980373 0.058718 0.161191
O O15 0.337401 0.094232 0.479845
O O16 0.559947 0.750000 0.755278
O O17 0.521835 0.937821 0.675168
O O18 0.707387 0.928727 0.903061
O O19 0.811528 0.034597 0.789288
#
# Coordination Sequence:
#
# PCOD9160829 Si02
#       8
#     4   4   4   4   4   4   4   4
#     4  10  21  39  65  94 124 165 217 264 318 382
#     4  12  25  39  65  94 130 167 206 264 319 382
#     4  10  19  37  66  96 126 164 216 277 327 377
#     4  10  22  41  64  91 127 170 211 258 318 388
#     4  10  21  41  67  92 129 169 211 265 324 388
#     4  12  26  46  66  93 134 175 215 266 325 387
#     4  11  25  39  62  97 129 164 218 273 322 381
#     4  11  22  42  65  91 127 167 218 272 326 380
#
# _framework density 20.422142000000001
#
# number of rings (size 3 to 8) (size 9 to 14) (size 15 to 20)
#    0.000    1.250    2.500    4.125    3.500    4.000 
#    0.000    1.250    0.000    0.000    0.000    0.000 
#    0.000    0.000    0.000    0.000    0.000    0.000 
#
# Total GULP energy -178331.175849 kJ/mol
# GULP energy per Si atom -5572.849245 kJ/mol
# Density = 2.037566 g / cm^3
# Si number density = 20.422142 Si / 1000 Ang^3
#
#
#
# Elastic Constant Matrix: (Units=GPa)
#
#
# Indices 1 2 3 4 5 6 
#
# 1 69.2208 17.8846 19.6825 0.0000 -10.7326 0.0000
# 2 17.8846 133.8521 36.5462 0.0000 -7.0428 0.0000
# 3 19.6825 36.5462 106.8763 0.0000 -13.1632 0.0000
# 4 0.0000 0.0000 0.0000 23.6682 0.0000 -3.4996
# 5 -10.7326 -7.0428 -13.1632 0.0000 30.3628 0.0000
# 6 0.0000 0.0000 0.0000 -3.4996 0.0000 17.8053
#
#
#
# Elastic Compliance Matrix: (Units=1/GPa)
#
#
# Indices 1 2 3 4 5 6 
#
# 1 0.016052 -0.001381 -0.001928 0.000000 0.004518 0.000000
# 2 -0.001381 0.008374 -0.002567 0.000000 0.000341 0.000000
# 3 -0.001928 -0.002567 0.011021 0.000000 0.003501 0.000000
# 4 0.000000 0.000000 0.000000 0.043515 0.000000 0.008553
# 5 0.004518 0.000341 0.003501 0.000000 0.036129 0.000000
# 6 0.000000 0.000000 0.000000 0.008553 0.000000 0.057844
#
#
# Mechanical properties :
#
#
# Convention : Reuss Voigt Hill
#
# Bulk Modulus (GPa) = 42.20163 50.90843 46.55503
# Shear Modulus (GPa) = 25.96256 30.08966 28.02611
#
# Velocity S-wave (km/s) = 3.56939 3.84263 3.70853
# Velocity P-wave (km/s) = 6.13978 6.68356 6.41743
#
# Compressibility (1/GPa) = 0.02369577
#
# Stress axis : x y z
#
# Youngs Moduli (GPa) = 62.29799 119.41239 90.73879
#
# Poissons Ratio (x) = 0.16488 0.17490
# Poissons Ratio (y) = 0.08602 0.23295
# Poissons Ratio (z) = 0.12008 0.30656
#
# Static dielectric constant tensor:
#      x y z
#    x 1.750800 0.000000 0.004460 
#    y 0.000000 1.774170 0.000000 
#    z 0.004460 0.000000 1.728130 
# 
# From -- ./inp_files/65789.got.cif
#   From: 2010.05.17/outbox.cif.g08.bks.cpg/sg11_33_cif.got.tgz:65789.got - 2010.06.03 12:22:45.
