data_PCOD9160137
_publ_section_title
;
Structure prediction by ZEFSAII (Michael W. Deem and Ramdas Pophale) SiO2 
 PCOD9160137
Probable space group: P 21/M
;
_chemical_formula_sum "Si O2"
_cell_formula_units_Z 24
_cell_length_a 9.766179
_cell_length_b 8.419528
_cell_length_c 14.115943
_cell_angle_alpha 90.000000
_cell_angle_beta 89.201539
_cell_angle_gamma 90.000000
_cell_volume 1160.593540
_symmetry_space_group_name_H-M "P 21/M"
_symmetry_group_IT_number 11
_symmetry_cell_setting 'monoclinic'
loop_
_space_group_symop_operation_xyz
x,y,z
-x,1/2+y,-z
-x,-y,-z
x,1/2-y,z
loop_
_atom_site_type_symbol
_atom_site_label
_atom_site_fract_x
_atom_site_fract_y
_atom_site_fract_z
Si Si1 0.149497 0.441576 0.896300
Si Si2 0.181674 0.567790 0.301234
Si Si3 0.436828 0.064624 0.403284
Si Si4 0.933185 0.434029 0.405004
Si Si5 0.685390 0.937288 0.293003
Si Si6 0.160602 0.062946 0.107337
O O1 0.126803 0.250000 0.893023
O O2 0.247716 0.482739 0.808243
O O3 0.001908 0.523829 0.888578
O O4 0.206137 0.480203 0.000335
O O5 0.137699 0.750000 0.310398
O O6 0.302020 0.529009 0.372899
O O7 0.226460 0.531305 0.193573
O O8 0.052305 0.458014 0.326427
O O9 0.404251 0.250000 0.412743
O O10 0.500000 0.000000 0.500000
O O11 0.552195 0.034964 0.322825
O O12 0.896987 0.250000 0.416044
O O13 0.801373 0.529391 0.370935
O O14 0.000000 0.500000 0.500000
O O15 0.652548 0.750000 0.292268
O O16 0.182261 0.250000 0.121149
#
# Coordination Sequence:
#
# PCOD9160137 Si02
#       6
#     4   4   4   4   4   4
#     4   9  19  35  59  90 126 162 199 246 303 363
#     4  12  24  41  62  89 122 161 205 254 306 361
#     4  12  26  45  65  88 120 162 206 252 307 370
#     4  12  24  39  60  89 120 156 200 254 305 360
#     4  11  22  40  63  91 124 160 201 249 303 363
#     4  10  19  34  59  92 125 160 202 249 302 362
#
# _framework density 20.679075999999998
#
# number of rings (size 3 to 8) (size 9 to 14) (size 15 to 20)
#    0.000    1.000    1.667    6.500    0.000    1.333 
#    0.000    0.833    0.000    0.000    0.000    0.000 
#    0.000    0.000    0.000    0.000    0.000    0.000 
#
# Total GULP energy -134271.185241 kJ/mol
# GULP energy per Si atom -5594.632718 kJ/mol
# Density = 2.063201 g / cm^3
# Si number density = 20.679076 Si / 1000 Ang^3
#
#
#
# Elastic Constant Matrix: (Units=GPa)
#
#
# Indices 1 2 3 4 5 6 
#
# 1 29.3864 -14.7688 -14.7428 0.0000 0.4802 0.0000
# 2 -14.7688 56.1041 16.4965 0.0000 -0.2875 0.0000
# 3 -14.7428 16.4965 91.0114 0.0000 1.1114 0.0000
# 4 0.0000 0.0000 0.0000 32.6365 0.0000 1.0856
# 5 0.4802 -0.2875 1.1114 0.0000 31.9567 0.0000
# 6 0.0000 0.0000 0.0000 1.0856 0.0000 29.2591
#
#
#
# Elastic Compliance Matrix: (Units=1/GPa)
#
#
# Indices 1 2 3 4 5 6 
#
# 1 0.041265 0.009391 0.004991 0.000000 -0.000709 0.000000
# 2 0.009391 0.020967 -0.002281 0.000000 0.000127 0.000000
# 3 0.004991 -0.002281 0.012216 0.000000 -0.000520 0.000000
# 4 0.000000 0.000000 0.000000 0.030678 0.000000 -0.001138
# 5 -0.000709 0.000127 -0.000520 0.000000 0.031322 0.000000
# 6 0.000000 0.000000 0.000000 -0.001138 0.000000 0.034220
#
#
# Mechanical properties :
#
#
# Convention : Reuss Voigt Hill
#
# Bulk Modulus (GPa) = 10.13679 16.71908 13.42793
# Shear Modulus (GPa) = 27.87862 31.40493 29.64178
#
# Velocity S-wave (km/s) = 3.67571 3.90125 3.79016
# Velocity P-wave (km/s) = 4.78822 5.32875 5.06570
#
# Compressibility (1/GPa) = 0.09865056
#
# Stress axis : x y z
#
# Youngs Moduli (GPa) = 24.23388 47.69296 81.86090
#
# Poissons Ratio (x) = -0.44790 -0.40855
# Poissons Ratio (y) = -0.22759 0.18671
# Poissons Ratio (z) = -0.12095 0.10878
#
# Static dielectric constant tensor:
#      x y z
#    x 1.705830 0.000000 -0.026080 
#    y 0.000000 1.698530 0.000000 
#    z -0.026080 0.000000 1.800770 
# 
# From -- ./inp_files/46532.got.cif
#   From: 2010.05.17/outbox.cif.g08.bks.cpg/sg11_24_cif.got.tgz:46532.got - 2010.06.03 12:22:45.
