data_PCOD9160146
_publ_section_title
;
Structure prediction by ZEFSAII (Michael W. Deem and Ramdas Pophale) SiO2 
 PCOD9160146
Probable space group: P 21/M
;
_chemical_formula_sum "Si O2"
_cell_formula_units_Z 32
_cell_length_a 11.782879
_cell_length_b 14.989920
_cell_length_c 16.236125
_cell_angle_alpha 90.000000
_cell_angle_beta 147.764103
_cell_angle_gamma 90.000000
_cell_volume 1529.647227
_symmetry_space_group_name_H-M "P 21/M"
_symmetry_group_IT_number 11
_symmetry_cell_setting 'monoclinic'
loop_
_space_group_symop_operation_xyz
x,y,z
-x,1/2+y,-z
-x,-y,-z
x,1/2-y,z
loop_
_atom_site_type_symbol
_atom_site_label
_atom_site_fract_x
_atom_site_fract_y
_atom_site_fract_z
Si Si1 0.304207 0.051551 0.844294
Si Si2 0.976802 0.418620 0.422369
Si Si3 0.335658 0.022068 0.222824
Si Si4 0.566528 0.651369 0.358832
Si Si5 0.704406 0.151940 0.399549
Si Si6 0.373280 0.849395 0.062470
Si Si7 0.014116 0.519659 0.874711
Si Si8 0.021577 0.851948 0.263201
O O1 0.407840 0.104932 0.832695
O O2 0.215739 0.124606 0.852573
O O3 0.140333 0.973135 0.721485
O O4 0.500000 0.000000 0.000000
O O5 0.833766 0.355507 0.393108
O O6 0.000000 0.500000 0.500000
O O7 0.194121 0.375165 0.522867
O O8 0.523677 0.078954 0.298502
O O9 0.452030 0.933153 0.330034
O O10 0.170072 0.009078 0.045687
O O11 0.194241 0.061413 0.210155
O O12 0.569719 0.750000 0.400502
O O13 0.416954 0.658493 0.186290
O O14 0.607341 0.250000 0.344067
O O15 0.851095 0.141494 0.571532
O O16 0.349369 0.750000 0.012545
O O17 0.165054 0.909985 0.920119
O O18 0.941126 0.433085 0.777479
O O19 0.045639 0.750000 0.247276
#
# Coordination Sequence:
#
# PCOD9160146 Si02
#       8
#     4   4   4   4   4   4   4   4
#     4  12  22  36  59  85 122 157 189 236 300 356
#     4  12  19  36  61  85 117 154 194 239 288 356
#     4  10  21  40  61  86 117 158 205 251 297 355
#     4  10  19  34  60  88 114 152 199 247 293 347
#     4  11  23  39  62  91 121 158 202 249 301 357
#     4  10  19  35  58  84 115 155 198 241 295 354
#     4  10  22  39  61  86 118 158 203 252 301 353
#     4  11  23  39  60  89 122 158 199 249 306 360
#
# _framework density 20.919858000000001
#
# number of rings (size 3 to 8) (size 9 to 14) (size 15 to 20)
#    0.000    1.250    5.000    1.500    0.000    4.000 
#    0.000    4.375    0.000    0.000    0.000    0.000 
#    0.000    0.000    0.000    0.000    0.000    0.000 
#
# Total GULP energy -178162.262203 kJ/mol
# GULP energy per Si atom -5567.570694 kJ/mol
# Density = 2.087224 g / cm^3
# Si number density = 20.919858 Si / 1000 Ang^3
#
#
#
# Elastic Constant Matrix: (Units=GPa)
#
#
# Indices 1 2 3 4 5 6 
#
# 1 62.2853 15.7810 8.2071 0.0000 19.8929 0.0000
# 2 15.7810 95.9063 18.9086 0.0000 0.5729 0.0000
# 3 8.2071 18.9086 30.7286 0.0000 6.7332 0.0000
# 4 0.0000 0.0000 0.0000 13.6983 0.0000 -9.9379
# 5 19.8929 0.5729 6.7332 0.0000 22.0099 0.0000
# 6 0.0000 0.0000 0.0000 -9.9379 0.0000 15.6916
#
#
#
# Elastic Compliance Matrix: (Units=1/GPa)
#
#
# Indices 1 2 3 4 5 6 
#
# 1 0.023897 -0.003964 0.000822 0.000000 -0.021746 0.000000
# 2 -0.003964 0.012612 -0.007948 0.000000 0.005686 0.000000
# 3 0.000822 -0.007948 0.040014 0.000000 -0.012777 0.000000
# 4 0.000000 0.000000 0.000000 0.135055 0.000000 0.085534
# 5 -0.021746 0.005686 -0.012777 0.000000 0.068849 0.000000
# 6 0.000000 0.000000 0.000000 0.085534 0.000000 0.117899
#
#
# Mechanical properties :
#
#
# Convention : Reuss Voigt Hill
#
# Bulk Modulus (GPa) = 18.40187 30.52375 24.46281
# Shear Modulus (GPa) = 11.39937 20.01487 15.70712
#
# Velocity S-wave (km/s) = 2.33686 3.09648 2.74309
# Velocity P-wave (km/s) = 4.01206 5.23514 4.66387
#
# Compressibility (1/GPa) = 0.05434229
#
# Stress axis : x y z
#
# Youngs Moduli (GPa) = 41.84673 79.28852 24.99142
#
# Poissons Ratio (x) = 0.31432 -0.02054
# Poissons Ratio (y) = 0.16589 0.19863
# Poissons Ratio (z) = -0.03440 0.63018
#
# Static dielectric constant tensor:
#      x y z
#    x 1.779400 0.000000 0.046270 
#    y 0.000000 2.719830 0.000000 
#    z 0.046270 0.000000 1.659840 
# 
# From -- ./inp_files/59502.got.cif
#   From: 2010.05.17/outbox.cif.g08.bks.cpg/sg11_30_cif.got.tgz:59502.got - 2010.06.03 12:22:45.
