data_PCOD9160345
_publ_section_title
;
Structure prediction by ZEFSAII (Michael W. Deem and Ramdas Pophale) SiO2 
 PCOD9160345
Probable space group: P 21/M
;
_chemical_formula_sum "Si O2"
_cell_formula_units_Z 24
_cell_length_a 7.435021
_cell_length_b 21.904073
_cell_length_c 7.574258
_cell_angle_alpha 90.000000
_cell_angle_beta 124.178651
_cell_angle_gamma 90.000000
_cell_volume 1020.481000
_symmetry_space_group_name_H-M "P 21/M"
_symmetry_group_IT_number 11
_symmetry_cell_setting 'monoclinic'
loop_
_space_group_symop_operation_xyz
x,y,z
-x,1/2+y,-z
-x,-y,-z
x,1/2-y,z
loop_
_atom_site_type_symbol
_atom_site_label
_atom_site_fract_x
_atom_site_fract_y
_atom_site_fract_z
Si Si1 0.926220 0.820556 0.677770
Si Si2 0.232568 0.821935 0.329494
Si Si3 0.927192 0.907694 0.020315
Si Si4 0.556362 0.868638 0.219752
Si Si5 0.632317 0.488028 0.753624
Si Si6 0.589905 0.180483 0.215050
O O1 0.875298 0.750000 0.701568
O O2 0.761346 0.844146 0.438988
O O3 0.164641 0.820263 0.723852
O O4 0.917389 0.867829 0.834936
O O5 0.198854 0.750000 0.332375
O O6 0.357143 0.835210 0.215219
O O7 0.388584 0.844003 0.574418
O O8 0.005854 0.857531 0.205459
O O9 0.139760 0.952028 0.151073
O O10 0.717619 0.951372 0.898372
O O11 0.516181 0.940756 0.220244
O O12 0.545529 0.851769 0.010193
O O13 0.500000 0.500000 0.500000
O O14 0.512024 0.250000 0.184445
#
# Coordination Sequence:
#
# PCOD9160345 Si02
#       6
#     4   4   4   4   4   4
#     4  11  20  34  60  89 114 149 190 235 292 346
#     4  10  20  38  61  85 119 153 188 241 296 344
#     4  10  20  34  59  84 113 152 194 235 286 343
#     4  11  21  38  61  82 117 154 194 234 286 346
#     4  10  19  35  58  84 112 154 198 236 280 337
#     4  10  21  38  57  85 120 150 187 239 293 346
#
# _framework density 23.518319000000002
#
# number of rings (size 3 to 8) (size 9 to 14) (size 15 to 20)
#    0.000    1.667    5.000    2.000    0.000    0.000 
#    3.000    0.833    0.000    5.000    0.000    0.000 
#    0.000    0.000    0.000    0.000    0.000    0.000 
#
# Total GULP energy -134135.134334 kJ/mol
# GULP energy per Si atom -5588.963931 kJ/mol
# Density = 2.346479 g / cm^3
# Si number density = 23.518319 Si / 1000 Ang^3
#
#
#
# Elastic Constant Matrix: (Units=GPa)
#
#
# Indices 1 2 3 4 5 6 
#
# 1 49.1921 35.5783 37.5547 0.0000 15.1172 0.0000
# 2 35.5783 124.1979 80.9780 0.0000 6.4979 0.0000
# 3 37.5547 80.9780 207.9079 0.0000 14.5280 0.0000
# 4 0.0000 0.0000 0.0000 54.1505 0.0000 6.1900
# 5 15.1172 6.4979 14.5280 0.0000 39.9159 0.0000
# 6 0.0000 0.0000 0.0000 6.1900 0.0000 15.7172
#
#
#
# Elastic Compliance Matrix: (Units=1/GPa)
#
#
# Indices 1 2 3 4 5 6 
#
# 1 0.029604 -0.006609 -0.002119 0.000000 -0.009365 0.000000
# 2 -0.006609 0.012270 -0.003715 0.000000 0.001858 0.000000
# 3 -0.002119 -0.003715 0.006712 0.000000 -0.001036 0.000000
# 4 0.000000 0.000000 0.000000 0.019338 0.000000 -0.007616
# 5 -0.009365 0.001858 -0.001036 0.000000 0.028674 0.000000
# 6 0.000000 0.000000 0.000000 -0.007616 0.000000 0.066624
#
#
# Mechanical properties :
#
#
# Convention : Reuss Voigt Hill
#
# Bulk Modulus (GPa) = 42.19423 76.61333 59.40378
# Shear Modulus (GPa) = 25.50928 37.10251 31.30589
#
# Velocity S-wave (km/s) = 3.29698 3.97621 3.65242
# Velocity P-wave (km/s) = 5.69855 7.32988 6.56508
#
# Compressibility (1/GPa) = 0.02369992
#
# Stress axis : x y z
#
# Youngs Moduli (GPa) = 33.77931 81.49991 148.98920
#
# Poissons Ratio (x) = 0.53863 0.31569
# Poissons Ratio (y) = 0.22325 0.55350
# Poissons Ratio (z) = 0.07157 0.30278
#
# Static dielectric constant tensor:
#      x y z
#    x 1.965220 0.000000 0.049120 
#    y 0.000000 1.922550 0.000000 
#    z 0.049120 0.000000 1.873360 
# 
# From -- ./inp_files/19256.got.cif
#   From: 2010.05.17/outbox.cif.g08.bks.cpg/sg11_10_cif.got.tgz:19256.got - 2010.06.03 12:22:45.
