data_PCOD9160042
_publ_section_title
;
Structure prediction by ZEFSAII (Michael W. Deem and Ramdas Pophale) SiO2 
 PCOD9160042
Probable space group: P 21/M
;
_chemical_formula_sum "Si O2"
_cell_formula_units_Z 32
_cell_length_a 12.535887
_cell_length_b 8.165346
_cell_length_c 21.491044
_cell_angle_alpha 90.000000
_cell_angle_beta 131.931548
_cell_angle_gamma 90.000000
_cell_volume 1636.542367
_symmetry_space_group_name_H-M "P 21/M"
_symmetry_group_IT_number 11
_symmetry_cell_setting 'monoclinic'
loop_
_space_group_symop_operation_xyz
x,y,z
-x,1/2+y,-z
-x,-y,-z
x,1/2-y,z
loop_
_atom_site_type_symbol
_atom_site_label
_atom_site_fract_x
_atom_site_fract_y
_atom_site_fract_z
Si Si1 0.982648 0.057181 0.298912
Si Si2 0.299259 0.937037 0.744586
Si Si3 0.447810 0.549804 0.362670
Si Si4 0.877798 0.442196 0.762599
Si Si5 0.158937 0.436901 0.571409
Si Si6 0.112641 0.059398 0.094710
Si Si7 0.270393 0.438532 0.474730
Si Si8 0.574842 0.443536 0.790361
O O1 0.980107 0.250000 0.315456
O O2 0.129398 0.986404 0.387095
O O3 0.829582 0.991422 0.263083
O O4 0.009492 0.034597 0.236604
O O5 0.326517 0.750000 0.774240
O O6 0.231790 0.946541 0.649443
O O7 0.450903 0.023762 0.792179
O O8 0.454131 0.750000 0.367200
O O9 0.285411 0.500343 0.315607
O O10 0.570185 0.486365 0.457473
O O11 0.468253 0.504352 0.297443
O O12 0.885918 0.250000 0.751574
O O13 0.901487 0.467749 0.844915
O O14 0.163595 0.250000 0.597650
O O15 0.230680 0.433380 0.532237
O O16 0.000000 0.500000 0.500000
O O17 0.091189 0.250000 0.098472
O O18 0.275574 0.029224 0.136073
O O19 0.000000 0.000000 0.000000
O O20 0.282627 0.250000 0.456439
O O21 0.600928 0.250000 0.796560
#
# Coordination Sequence:
#
# PCOD9160042 Si02
#       8
#     4   4   4   4   4   4   4   4
#     4  10  21  35  50  71 108 156 200 238 281 332
#     4  11  21  33  50  77 110 149 195 239 284 336
#     4   8  15  29  50  73 102 140 182 233 286 326
#     4  10  21  37  56  81 112 146 188 232 278 335
#     4  11  19  30  47  69 100 142 190 247 296 334
#     4  11  22  40  67  96 120 142 172 215 270 333
#     4   9  16  29  47  69 100 145 191 238 290 330
#     4  10  19  34  57  86 117 147 181 228 283 330
#
# _framework density 19.553419999999999
#
# number of rings (size 3 to 8) (size 9 to 14) (size 15 to 20)
#    0.000    2.000    2.500    3.375    0.000    1.500 
#    0.000    0.000    0.000    0.750    0.000    0.000 
#    0.000    0.000    0.000    0.000    0.000    0.000 
#
# Total GULP energy -178427.918678 kJ/mol
# GULP energy per Si atom -5575.872459 kJ/mol
# Density = 1.950892 g / cm^3
# Si number density = 19.553420 Si / 1000 Ang^3
#
#
#
# Elastic Constant Matrix: (Units=GPa)
#
#
# Indices 1 2 3 4 5 6 
#
# 1 117.9233 2.0087 32.6908 0.0000 3.5842 0.0000
# 2 2.0087 31.3039 -4.1356 0.0000 1.7856 0.0000
# 3 32.6908 -4.1356 60.1112 0.0000 16.9084 0.0000
# 4 0.0000 0.0000 0.0000 18.2025 0.0000 -2.1434
# 5 3.5842 1.7856 16.9084 0.0000 16.0057 0.0000
# 6 0.0000 0.0000 0.0000 -2.1434 0.0000 17.2176
#
#
#
# Elastic Compliance Matrix: (Units=1/GPa)
#
#
# Indices 1 2 3 4 5 6 
#
# 1 0.010388 -0.001968 -0.007388 0.000000 0.005697 0.000000
# 2 -0.001968 0.033434 0.006112 0.000000 -0.009746 0.000000
# 3 -0.007388 0.006112 0.029594 0.000000 -0.030291 0.000000
# 4 0.000000 0.000000 0.000000 0.055755 0.000000 0.006941
# 5 0.005697 -0.009746 -0.030291 0.000000 0.094288 0.000000
# 6 0.000000 0.000000 0.000000 0.006941 0.000000 0.058944
#
#
# Mechanical properties :
#
#
# Convention : Reuss Voigt Hill
#
# Bulk Modulus (GPa) = 14.94097 30.05181 22.49639
# Shear Modulus (GPa) = 16.06675 22.20347 19.13511
#
# Velocity S-wave (km/s) = 2.86961 3.37342 3.13166
# Velocity P-wave (km/s) = 4.31709 5.52953 4.96049
#
# Compressibility (1/GPa) = 0.06693006
#
# Stress axis : x y z
#
# Youngs Moduli (GPa) = 96.26084 29.90929 33.79024
#
# Poissons Ratio (x) = 0.05885 0.24963
# Poissons Ratio (y) = 0.18940 -0.20651
# Poissons Ratio (z) = 0.71114 -0.18279
#
# Static dielectric constant tensor:
#      x y z
#    x 1.724610 0.000000 0.019050 
#    y 0.000000 1.670850 0.000000 
#    z 0.019050 0.000000 1.692860 
# 
# From -- ./inp_files/64418.got.cif
#   From: 2010.05.17/outbox.cif.g08.bks.cpg/sg11_33_cif.got.tgz:64418.got - 2010.06.03 12:22:45.
