data_PCOD9160948
_publ_section_title
;
Structure prediction by ZEFSAII (Michael W. Deem and Ramdas Pophale) SiO2 
 PCOD9160948
Probable space group: P 21/M
;
_chemical_formula_sum "Si O2"
_cell_formula_units_Z 26
_cell_length_a 14.939762
_cell_length_b 7.413409
_cell_length_c 9.520156
_cell_angle_alpha 90.000000
_cell_angle_beta 69.422058
_cell_angle_gamma 90.000000
_cell_volume 987.124623
_symmetry_space_group_name_H-M "P 21/M"
_symmetry_group_IT_number 11
_symmetry_cell_setting 'monoclinic'
loop_
_space_group_symop_operation_xyz
x,y,z
-x,1/2+y,-z
-x,-y,-z
x,1/2-y,z
loop_
_atom_site_type_symbol
_atom_site_label
_atom_site_fract_x
_atom_site_fract_y
_atom_site_fract_z
Si Si1 0.352099 0.036453 0.278567
Si Si2 0.667173 0.467000 0.384557
Si Si3 0.140747 0.537472 0.870656
Si Si4 0.242765 0.042069 0.092599
Si Si5 0.008467 0.543817 0.710780
Si Si6 0.094379 0.750000 0.426416
Si Si7 0.560609 0.031933 0.178326
O O1 0.354600 0.250000 0.248441
O O2 0.457864 0.963061 0.185163
O O3 0.339813 0.017292 0.450647
O O4 0.266735 0.953883 0.231291
O O5 0.668897 0.250000 0.377378
O O6 0.764656 0.534692 0.259592
O O7 0.582124 0.525808 0.327114
O O8 0.135617 0.750000 0.848190
O O9 0.165189 0.518249 0.021198
O O10 0.050132 0.467625 0.833740
O O11 0.224053 0.250000 0.124420
O O12 0.346877 0.022977 0.960846
O O13 0.969960 0.750000 0.748878
O O14 0.095237 0.591319 0.553154
O O15 0.939159 0.408292 0.668914
O O16 0.558035 0.250000 0.176686
#
# Coordination Sequence:
#
# PCOD9160948 Si02
#       7
#     4   4   4   4   4   2   4
#     4  10  20  32  44  61  89 116 149 196 234 270
#     4   9  18  30  45  65  85 115 155 185 228 279
#     4   9  18  32  47  65  95 124 146 183 225 269
#     4  10  20  30  43  66  88 114 154 189 228 278
#     4   8  14  26  43  67 101 125 147 184 228 268
#     4   8  14  24  44  72  96 124 150 180 226 274
#     4   9  18  33  48  61  82 113 149 196 243 276
#
# _framework density 26.339126
#
# number of rings (size 3 to 8) (size 9 to 14) (size 15 to 20)
#    0.462    2.462    0.000    2.308    1.077    4.308 
#    0.000    0.000    0.000    0.000    0.000    0.000 
#    0.000    7.385    0.000    0.462    0.000    0.000 
#
# Total GULP energy -144759.966251 kJ/mol
# GULP energy per Si atom -5567.691010 kJ/mol
# Density = 2.627918 g / cm^3
# Si number density = 26.339126 Si / 1000 Ang^3
#
#
#
# Elastic Constant Matrix: (Units=GPa)
#
#
# Indices 1 2 3 4 5 6 
#
# 1 159.8031 18.6972 53.7818 0.0000 47.4906 0.0000
# 2 18.6972 103.4883 -19.2968 0.0000 17.1368 0.0000
# 3 53.7818 -19.2968 140.2419 0.0000 43.0841 0.0000
# 4 0.0000 0.0000 0.0000 16.1243 0.0000 17.5476
# 5 47.4906 17.1368 43.0841 0.0000 55.6542 0.0000
# 6 0.0000 0.0000 0.0000 17.5476 0.0000 4.7760
#
#
#
# Elastic Compliance Matrix: (Units=1/GPa)
#
#
# Indices 1 2 3 4 5 6 
#
# 1 0.008651 -0.000907 -0.001654 0.000000 -0.005822 0.000000
# 2 -0.000907 0.011421 0.003624 0.000000 -0.005548 0.000000
# 3 -0.001654 0.003624 0.010723 0.000000 -0.008006 0.000000
# 4 0.000000 0.000000 0.000000 -0.020683 0.000000 0.075993
# 5 -0.005822 -0.005548 -0.008006 0.000000 0.030842 0.000000
# 6 0.000000 0.000000 0.000000 0.075993 0.000000 -0.069829
#
#
# Mechanical properties :
#
#
# Convention : Reuss Voigt Hill
#
# Bulk Modulus (GPa) = 30.37584 56.65530 43.51557
# Shear Modulus (GPa) = -249.64881 38.66763 -105.49059
#
# Velocity S-wave (km/s) = -9.74619 3.83569 -6.33544
# Velocity P-wave (km/s) = 10.72816 6.41665 6.07947
#
# Compressibility (1/GPa) = 0.03292090
#
# Stress axis : x y z
#
# Youngs Moduli (GPa) = 115.59850 87.55615 93.25959
#
# Poissons Ratio (x) = 0.07942 0.15421
# Poissons Ratio (y) = 0.10486 -0.33796
# Poissons Ratio (z) = 0.19115 -0.31729
#
# Static dielectric constant tensor:
#      x y z
#    x 2.158650 0.000000 -0.047340 
#    y 0.000000 2.000880 0.000000 
#    z -0.047340 0.000000 2.148100 
# 
# From -- ./inp_files/23956.got.cif
#   From: 2010.05.17/outbox.cif.g08.bks.cpg/sg11_12_cif.got.tgz:23956.got - 2010.06.03 12:22:45.
