data_PCOD9160775
_publ_section_title
;
Structure prediction by ZEFSAII (Michael W. Deem and Ramdas Pophale) SiO2 
 PCOD9160775
Probable space group: P 21/M
;
_chemical_formula_sum "Si O2"
_cell_formula_units_Z 28
_cell_length_a 20.434414
_cell_length_b 8.843429
_cell_length_c 23.379627
_cell_angle_alpha 90.000000
_cell_angle_beta 160.261351
_cell_angle_gamma 90.000000
_cell_volume 1426.889771
_symmetry_space_group_name_H-M "P 21/M"
_symmetry_group_IT_number 11
_symmetry_cell_setting 'monoclinic'
loop_
_space_group_symop_operation_xyz
x,y,z
-x,1/2+y,-z
-x,-y,-z
x,1/2-y,z
loop_
_atom_site_type_symbol
_atom_site_label
_atom_site_fract_x
_atom_site_fract_y
_atom_site_fract_z
Si Si1 0.154068 0.423237 0.585422
Si Si2 0.388162 0.431794 0.461907
Si Si3 0.449188 0.923777 0.017791
Si Si4 0.418085 0.429956 0.265155
Si Si5 0.069061 0.932721 0.917736
Si Si6 0.128918 0.930758 0.839590
Si Si7 0.735819 0.569577 0.449038
O O1 0.089887 0.250000 0.524631
O O2 0.360317 0.425139 0.786425
O O3 0.187947 0.486256 0.549743
O O4 0.000000 0.500000 0.500000
O O5 0.500000 0.500000 0.500000
O O6 0.404436 0.250000 0.476907
O O7 0.483320 0.498468 0.597609
O O8 0.159310 0.468328 0.268199
O O9 0.395797 0.750000 0.960905
O O10 0.276924 0.993602 0.914154
O O11 0.500000 0.000000 0.000000
O O12 0.416520 0.250000 0.268559
O O13 0.551098 0.484259 0.321513
O O14 0.203115 0.492613 0.075942
O O15 0.088360 0.750000 0.936867
O O16 0.143642 0.985930 0.916477
O O17 0.168304 0.750000 0.874786
O O18 0.911240 0.948329 0.637930
O O19 0.691268 0.750000 0.407331
#
# Coordination Sequence:
#
# PCOD9160775 Si02
#       7
#     4   4   4   4   4   4   4
#     4  10  21  35  55  80 113 153 202 258 314 376
#     4  11  24  45  72  99 131 170 211 262 316 376
#     4  10  20  34  52  78 110 149 196 250 307 367
#     4  12  25  40  63  97 134 169 208 262 319 377
#     4  10  21  41  68  94 123 166 216 260 308 374
#     4   9  17  34  61  86 109 148 204 256 306 365
#     4  10  19  37  62  86 114 158 209 260 315 378
#
# _framework density 19.623100000000001
#
# number of rings (size 3 to 8) (size 9 to 14) (size 15 to 20)
#    0.000    1.714    1.429    3.429    0.000    6.286 
#    0.000    2.857    0.000    0.000    0.000    0.000 
#    0.000    0.000    0.000    0.000    0.000    0.000 
#
# Total GULP energy -156387.968654 kJ/mol
# GULP energy per Si atom -5585.284595 kJ/mol
# Density = 1.957844 g / cm^3
# Si number density = 19.623100 Si / 1000 Ang^3
#
#
#
# Elastic Constant Matrix: (Units=GPa)
#
#
# Indices 1 2 3 4 5 6 
#
# 1 126.1963 45.1622 67.7533 0.0000 6.8512 0.0000
# 2 45.1622 60.5914 53.1543 0.0000 4.6505 0.0000
# 3 67.7533 53.1543 119.3689 0.0000 4.3063 0.0000
# 4 0.0000 0.0000 0.0000 19.9251 0.0000 -0.5638
# 5 6.8512 4.6505 4.3063 0.0000 25.6182 0.0000
# 6 0.0000 0.0000 0.0000 -0.5638 0.0000 31.2972
#
#
#
# Elastic Compliance Matrix: (Units=1/GPa)
#
#
# Indices 1 2 3 4 5 6 
#
# 1 0.012312 -0.004880 -0.004757 0.000000 -0.001607 0.000000
# 2 -0.004880 0.029235 -0.010166 0.000000 -0.002293 0.000000
# 3 -0.004757 -0.010166 0.015586 0.000000 0.000498 0.000000
# 4 0.000000 0.000000 0.000000 0.050214 0.000000 0.000905
# 5 -0.001607 -0.002293 0.000498 0.000000 0.039797 0.000000
# 6 0.000000 0.000000 0.000000 0.000905 0.000000 0.031968
#
#
# Mechanical properties :
#
#
# Convention : Reuss Voigt Hill
#
# Bulk Modulus (GPa) = 57.05270 70.92182 63.98726
# Shear Modulus (GPa) = 22.26567 24.70720 23.48644
#
# Velocity S-wave (km/s) = 3.37214 3.55221 3.46334
# Velocity P-wave (km/s) = 6.65576 7.28318 6.97653
#
# Compressibility (1/GPa) = 0.01752765
#
# Stress axis : x y z
#
# Youngs Moduli (GPa) = 81.22192 34.20509 64.15909
#
# Poissons Ratio (x) = 0.16693 0.30521
# Poissons Ratio (y) = 0.39638 0.65222
# Poissons Ratio (z) = 0.38638 0.34772
#
# Static dielectric constant tensor:
#      x y z
#    x 1.702220 0.000000 0.007510 
#    y 0.000000 1.676890 0.000000 
#    z 0.007510 0.000000 1.688830 
# 
# From -- ./inp_files/69829.got.cif
#   From: 2010.05.17/outbox.cif.g08.bks.cpg/sg11_35_cif.got.tgz:69829.got - 2010.06.03 12:22:45.
