data_PCOD9160845
_publ_section_title
;
Structure prediction by ZEFSAII (Michael W. Deem and Ramdas Pophale) SiO2 
 PCOD9160845
Probable space group: P 21/M
;
_chemical_formula_sum "Si O2"
_cell_formula_units_Z 28
_cell_length_a 9.772435
_cell_length_b 8.454226
_cell_length_c 27.978634
_cell_angle_alpha 90.000000
_cell_angle_beta 40.059731
_cell_angle_gamma 90.000000
_cell_volume 1487.680420
_symmetry_space_group_name_H-M "P 21/M"
_symmetry_group_IT_number 11
_symmetry_cell_setting 'monoclinic'
loop_
_space_group_symop_operation_xyz
x,y,z
-x,1/2+y,-z
-x,-y,-z
x,1/2-y,z
loop_
_atom_site_type_symbol
_atom_site_label
_atom_site_fract_x
_atom_site_fract_y
_atom_site_fract_z
Si Si1 0.126954 0.060720 0.285888
Si Si2 0.104836 0.571901 0.189648
Si Si3 0.644675 0.941727 0.418135
Si Si4 0.268308 0.430907 0.053331
Si Si5 0.594704 0.929744 0.327485
Si Si6 0.479493 0.442646 0.759523
Si Si7 0.934543 0.563635 0.069462
O O1 0.131515 0.250000 0.282151
O O2 0.187432 0.985574 0.218477
O O3 0.299344 0.998459 0.277283
O O4 0.885376 0.004456 0.360078
O O5 0.182772 0.750000 0.157593
O O6 0.159596 0.450936 0.133688
O O7 0.850503 0.579830 0.259811
O O8 0.652382 0.750000 0.414365
O O9 0.550225 0.999721 0.391943
O O10 0.500000 0.000000 0.500000
O O11 0.276689 0.250000 0.035492
O O12 0.128956 0.527386 0.052981
O O13 0.500000 0.500000 0.000000
O O14 0.507756 0.750000 0.350766
O O15 0.537949 0.000314 0.290958
O O16 0.469121 0.250000 0.761092
O O17 0.280674 0.497222 0.846191
O O18 0.905164 0.750000 0.072278
O O19 0.000000 0.500000 0.000000
#
# Coordination Sequence:
#
# PCOD9160845 Si02
#       7
#     4   4   4   4   4   4   4
#     4  11  23  37  57  90 123 156 198 243 291 352
#     4  10  19  38  61  83 111 150 197 246 297 353
#     4  10  20  38  64  92 122 156 193 242 296 356
#     4  12  25  40  59  84 115 152 199 253 307 362
#     4   8  16  34  61  86 110 147 192 235 286 346
#     4  10  20  39  62  84 115 159 201 245 298 357
#     4  11  24  42  62  85 119 160 205 253 310 366
#
# _framework density 18.821245999999999
#
# number of rings (size 3 to 8) (size 9 to 14) (size 15 to 20)
#    0.000    1.714    1.429    4.714    2.000    1.143 
#    0.000    2.143    0.000    0.000    0.000    0.000 
#    0.000    0.000    0.000    0.000    0.000    0.000 
#
# Total GULP energy -156170.282213 kJ/mol
# GULP energy per Si atom -5577.510079 kJ/mol
# Density = 1.877841 g / cm^3
# Si number density = 18.821246 Si / 1000 Ang^3
#
#
#
# Elastic Constant Matrix: (Units=GPa)
#
#
# Indices 1 2 3 4 5 6 
#
# 1 163.0440 10.9091 61.6695 0.0000 23.2216 0.0000
# 2 10.9091 42.3561 6.5611 0.0000 3.4357 0.0000
# 3 61.6695 6.5611 89.5635 0.0000 23.2899 0.0000
# 4 0.0000 0.0000 0.0000 27.8618 0.0000 2.8917
# 5 23.2216 3.4357 23.2899 0.0000 27.8061 0.0000
# 6 0.0000 0.0000 0.0000 2.8917 0.0000 24.5533
#
#
#
# Elastic Compliance Matrix: (Units=1/GPa)
#
#
# Indices 1 2 3 4 5 6 
#
# 1 0.008518 -0.001188 -0.005071 0.000000 -0.002720 0.000000
# 2 -0.001188 0.024125 -0.000553 0.000000 -0.001526 0.000000
# 3 -0.005071 -0.000553 0.017359 0.000000 -0.010237 0.000000
# 4 0.000000 0.000000 0.000000 0.036336 0.000000 -0.004279
# 5 -0.002720 -0.001526 -0.010237 0.000000 0.046997 0.000000
# 6 0.000000 0.000000 0.000000 -0.004279 0.000000 0.041232
#
#
# Mechanical properties :
#
#
# Convention : Reuss Voigt Hill
#
# Bulk Modulus (GPa) = 27.48813 50.36032 38.92422
# Shear Modulus (GPa) = 24.96054 30.43247 27.69651
#
# Velocity S-wave (km/s) = 3.64564 4.02546 3.84025
# Velocity P-wave (km/s) = 5.68836 6.95852 6.35525
#
# Compressibility (1/GPa) = 0.03637934
#
# Stress axis : x y z
#
# Youngs Moduli (GPa) = 117.39582 41.45134 57.60577
#
# Poissons Ratio (x) = 0.04924 0.29212
# Poissons Ratio (y) = 0.13944 0.03183
# Poissons Ratio (z) = 0.59532 0.02291
#
# Static dielectric constant tensor:
#      x y z
#    x 1.715600 0.000000 -0.097990 
#    y 0.000000 1.760470 0.000000 
#    z -0.097990 0.000000 1.889210 
# 
# From -- ./inp_files/70860.got.cif
#   From: 2010.05.17/outbox.cif.g08.bks.cpg/sg11_36_cif.got.tgz:70860.got - 2010.06.03 12:22:45.
