data_PCOD9160016
_publ_section_title
;
Structure prediction by ZEFSAII (Michael W. Deem and Ramdas Pophale) SiO2 
 PCOD9160016
Probable space group: P 21/M
;
_chemical_formula_sum "Si O2"
_cell_formula_units_Z 32
_cell_length_a 15.922130
_cell_length_b 20.033360
_cell_length_c 9.529740
_cell_angle_alpha 90.000000
_cell_angle_beta 37.701358
_cell_angle_gamma 90.000000
_cell_volume 1858.938388
_symmetry_space_group_name_H-M "P 21/M"
_symmetry_group_IT_number 11
_symmetry_cell_setting 'monoclinic'
loop_
_space_group_symop_operation_xyz
x,y,z
-x,1/2+y,-z
-x,-y,-z
x,1/2-y,z
loop_
_atom_site_type_symbol
_atom_site_label
_atom_site_fract_x
_atom_site_fract_y
_atom_site_fract_z
Si Si1 0.566793 0.829086 0.315722
Si Si2 0.160155 0.441069 0.680632
Si Si3 0.849141 0.828596 0.078458
Si Si4 0.151644 0.560675 0.917259
Si Si5 0.841534 0.329103 0.323583
Si Si6 0.555475 0.329441 0.827777
Si Si7 0.446338 0.059203 0.168903
Si Si8 0.432885 0.559428 0.679496
O O1 0.542413 0.750000 0.368101
O O2 0.728335 0.842351 0.127876
O O3 0.516996 0.845986 0.225217
O O4 0.485754 0.872846 0.535990
O O5 0.175522 0.373938 0.752748
O O6 0.171124 0.501353 0.778182
O O7 0.283214 0.445722 0.409036
O O8 0.005764 0.442639 0.824806
O O9 0.842583 0.750000 0.121995
O O10 0.004874 0.842803 0.823061
O O11 0.171477 0.628266 0.800978
O O12 0.269172 0.555250 0.877360
O O13 0.829788 0.250000 0.310060
O O14 0.716336 0.346461 0.591628
O O15 0.543175 0.250000 0.867164
O O16 0.488812 0.372190 0.038094
O O17 0.514984 0.054854 0.231370
O O18 0.500000 0.000000 0.000000
O O19 0.500000 0.500000 0.500000
#
# Coordination Sequence:
#
# PCOD9160016 Si02
#       8
#     4   4   4   4   4   4   4   4
#     4  10  19  34  57  84 109 139 185 229 264 311
#     4  10  20  35  54  81 107 140 176 225 276 320
#     4   9  17  31  55  84 107 134 180 231 268 306
#     4  10  19  34  58  81 105 132 182 235 272 306
#     4   9  17  32  55  81 109 141 177 219 270 320
#     4  10  21  36  54  80 115 150 178 214 270 331
#     4  12  24  37  53  79 115 149 178 217 274 335
#     4  12  21  36  58  83 106 139 186 234 266 311
#
# _framework density 17.214126
#
# number of rings (size 3 to 8) (size 9 to 14) (size 15 to 20)
#    0.000    1.750    3.750    1.500    0.000    1.000 
#    0.000    1.875    0.000    0.000    0.000    0.000 
#    0.000    0.000    0.000    0.000    0.000    0.000 
#
# Total GULP energy -178542.715983 kJ/mol
# GULP energy per Si atom -5579.459874 kJ/mol
# Density = 1.717495 g / cm^3
# Si number density = 17.214126 Si / 1000 Ang^3
#
#
#
# Elastic Constant Matrix: (Units=GPa)
#
#
# Indices 1 2 3 4 5 6 
#
# 1 111.7944 35.6630 63.2744 0.0000 -11.8275 0.0000
# 2 35.6630 45.4984 46.2226 0.0000 0.1432 0.0000
# 3 63.2744 46.2226 144.4468 0.0000 -18.4356 0.0000
# 4 0.0000 0.0000 0.0000 31.5776 0.0000 2.8863
# 5 -11.8275 0.1432 -18.4356 0.0000 34.0388 0.0000
# 6 0.0000 0.0000 0.0000 2.8863 0.0000 19.8845
#
#
#
# Elastic Compliance Matrix: (Units=1/GPa)
#
#
# Indices 1 2 3 4 5 6 
#
# 1 0.013364 -0.007294 -0.003140 0.000000 0.002973 0.000000
# 2 -0.007294 0.037816 -0.009937 0.000000 -0.008075 0.000000
# 3 -0.003140 -0.009937 0.012187 0.000000 0.005551 0.000000
# 4 0.000000 0.000000 0.000000 0.032094 0.000000 -0.004659
# 5 0.002973 -0.008075 0.005551 0.000000 0.033452 0.000000
# 6 0.000000 0.000000 0.000000 -0.004659 0.000000 0.050967
#
#
# Mechanical properties :
#
#
# Convention : Reuss Voigt Hill
#
# Bulk Modulus (GPa) = 44.19927 65.78439 54.99183
# Shear Modulus (GPa) = 21.91419 27.53882 24.72650
#
# Velocity S-wave (km/s) = 3.57183 4.00406 3.79411
# Velocity P-wave (km/s) = 6.53778 7.72496 7.15603
#
# Compressibility (1/GPa) = 0.02262481
#
# Stress axis : x y z
#
# Youngs Moduli (GPa) = 74.82891 26.44372 82.05586
#
# Poissons Ratio (x) = 0.19288 0.25769
# Poissons Ratio (y) = 0.54579 0.81536
# Poissons Ratio (z) = 0.23500 0.26276
#
# Static dielectric constant tensor:
#      x y z
#    x 1.576620 0.000000 -0.048840 
#    y 0.000000 1.603730 0.000000 
#    z -0.048840 0.000000 1.569710 
# 
# From -- ./inp_files/23079.got.cif
#   From: 2010.05.17/outbox.cif.g08.bks.cpg/sg11_12_cif.got.tgz:23079.got - 2010.06.03 12:22:45.
