data_PCOD9160480
_publ_section_title
;
Structure prediction by ZEFSAII (Michael W. Deem and Ramdas Pophale) SiO2 
 PCOD9160480
Probable space group: P 21/M
;
_chemical_formula_sum "Si O2"
_cell_formula_units_Z 32
_cell_length_a 15.040769
_cell_length_b 13.816604
_cell_length_c 21.502587
_cell_angle_alpha 90.000000
_cell_angle_beta 20.647066
_cell_angle_gamma 90.000000
_cell_volume 1575.640948
_symmetry_space_group_name_H-M "P 21/M"
_symmetry_group_IT_number 11
_symmetry_cell_setting 'monoclinic'
loop_
_space_group_symop_operation_xyz
x,y,z
-x,1/2+y,-z
-x,-y,-z
x,1/2-y,z
loop_
_atom_site_type_symbol
_atom_site_label
_atom_site_fract_x
_atom_site_fract_y
_atom_site_fract_z
Si Si1 0.756389 0.556217 0.913156
Si Si2 0.785137 0.139456 0.734076
Si Si3 0.452349 0.862804 0.649199
Si Si4 0.010431 0.864606 0.621240
Si Si5 0.494954 0.994768 0.269646
Si Si6 0.921054 0.862547 0.935419
Si Si7 0.758773 0.636856 0.656278
Si Si8 0.983038 0.358756 0.743616
O O1 0.866393 0.613721 0.899622
O O2 0.887598 0.594954 0.764492
O O3 0.821990 0.443756 0.877947
O O4 0.459451 0.574177 0.102984
O O5 0.693669 0.250000 0.787086
O O6 0.974051 0.119542 0.554203
O O7 0.938767 0.134570 0.697943
O O8 0.446363 0.750000 0.673745
O O9 0.451891 0.933881 0.707919
O O10 0.720593 0.874801 0.439324
O O11 0.210354 0.880560 0.764862
O O12 0.067516 0.750000 0.589675
O O13 0.815005 0.874782 0.692031
O O14 0.258015 0.926297 0.441953
O O15 0.425540 0.061486 0.255832
O O16 0.733446 0.929021 0.097680
O O17 0.865778 0.750000 0.983602
O O18 0.691314 0.750000 0.688467
O O19 0.910770 0.250000 0.810033
#
# Coordination Sequence:
#
# PCOD9160480 Si02
#       8
#     4   4   4   4   4   4   4   4
#     4  12  23  41  62  89 127 171 209 246 308 375
#     4  10  19  35  62  91 125 163 207 250 311 380
#     4  10  21  43  69  93 121 163 212 260 312 370
#     4  11  23  37  58  91 132 166 206 253 307 370
#     4  12  21  40  64  96 120 160 209 265 317 365
#     4  11  26  43  64  90 126 168 211 257 311 371
#     4  10  21  38  62  93 125 165 207 256 311 374
#     4  10  21  39  64  93 122 159 206 262 312 368
#
# _framework density 20.309194999999999
#
# number of rings (size 3 to 8) (size 9 to 14) (size 15 to 20)
#    0.000    1.250    2.500    3.750    0.000    3.500 
#    0.000    2.500    0.000    1.500    0.000    0.000 
#    0.000    0.000    0.000    0.000    0.000    0.000 
#
# Total GULP energy -179145.315370 kJ/mol
# GULP energy per Si atom -5598.291105 kJ/mol
# Density = 2.026297 g / cm^3
# Si number density = 20.309195 Si / 1000 Ang^3
#
#
#
# Elastic Constant Matrix: (Units=GPa)
#
#
# Indices 1 2 3 4 5 6 
#
# 1 22.4344 9.9004 16.9831 0.0000 -15.6162 0.0000
# 2 9.9004 114.1445 64.0403 0.0000 -17.4111 0.0000
# 3 16.9831 64.0403 79.1699 0.0000 -21.1330 0.0000
# 4 0.0000 0.0000 0.0000 36.2899 0.0000 -6.3074
# 5 -15.6162 -17.4111 -21.1330 0.0000 28.3686 0.0000
# 6 0.0000 0.0000 0.0000 -6.3074 0.0000 21.1045
#
#
#
# Elastic Compliance Matrix: (Units=1/GPa)
#
#
# Indices 1 2 3 4 5 6 
#
# 1 0.076154 0.004876 -0.010350 0.000000 0.037204 0.000000
# 2 0.004876 0.016354 -0.013579 0.000000 0.002606 0.000000
# 3 -0.010350 -0.013579 0.027573 0.000000 0.006509 0.000000
# 4 0.000000 0.000000 0.000000 0.029066 0.000000 0.008687
# 5 0.037204 0.002606 0.006509 0.000000 0.062178 0.000000
# 6 0.000000 0.000000 0.000000 0.008687 0.000000 0.049979
#
#
# Mechanical properties :
#
#
# Convention : Reuss Voigt Hill
#
# Bulk Modulus (GPa) = 12.19871 44.17737 28.18804
# Shear Modulus (GPa) = 15.30297 25.47425 20.38861
#
# Velocity S-wave (km/s) = 2.74797 3.54548 3.17189
# Velocity P-wave (km/s) = 4.01099 6.20969 5.22725
#
# Compressibility (1/GPa) = 0.08197590
#
# Stress axis : x y z
#
# Youngs Moduli (GPa) = 13.13125 61.14787 36.26780
#
# Poissons Ratio (x) = -0.29817 0.37535
# Poissons Ratio (y) = -0.06403 0.49248
# Poissons Ratio (z) = 0.13590 0.83033
#
# Static dielectric constant tensor:
#      x y z
#    x 1.686950 0.000000 0.004410 
#    y 0.000000 1.748600 0.000000 
#    z 0.004410 0.000000 1.702450 
# 
# From -- ./inp_files/65732.got.cif
#   From: 2010.05.17/outbox.cif.g08.bks.cpg/sg11_33_cif.got.tgz:65732.got - 2010.06.03 12:22:45.
