data_PCOD9160421
_publ_section_title
;
Structure prediction by ZEFSAII (Michael W. Deem and Ramdas Pophale) SiO2 
 PCOD9160421
Probable space group: P 21/M
;
_chemical_formula_sum "Si O2"
_cell_formula_units_Z 24
_cell_length_a 15.182109
_cell_length_b 8.856932
_cell_length_c 10.328690
_cell_angle_alpha 90.000000
_cell_angle_beta 80.754544
_cell_angle_gamma 90.000000
_cell_volume 1370.824382
_symmetry_space_group_name_H-M "P 21/M"
_symmetry_group_IT_number 11
_symmetry_cell_setting 'monoclinic'
loop_
_space_group_symop_operation_xyz
x,y,z
-x,1/2+y,-z
-x,-y,-z
x,1/2-y,z
loop_
_atom_site_type_symbol
_atom_site_label
_atom_site_fract_x
_atom_site_fract_y
_atom_site_fract_z
Si Si1 0.931710 0.070135 0.914461
Si Si2 0.740895 0.929587 0.964026
Si Si3 0.447849 0.931433 0.391591
Si Si4 0.446634 0.431567 0.893185
Si Si5 0.072426 0.568221 0.385428
Si Si6 0.266681 0.070333 0.339942
O O1 0.937096 0.250000 0.919658
O O2 0.948157 0.025626 0.759926
O O3 0.831877 0.015838 0.970441
O O4 0.000000 0.000000 0.000000
O O5 0.755833 0.750000 0.976802
O O6 0.656671 0.977882 0.069566
O O7 0.717463 0.954680 0.817953
O O8 0.443563 0.750000 0.401390
O O9 0.504680 0.973286 0.250480
O O10 0.500000 0.000000 0.500000
O O11 0.348742 0.997869 0.397387
O O12 0.448260 0.250000 0.904145
O O13 0.500000 0.500000 0.000000
O O14 0.073212 0.750000 0.393677
O O15 0.171018 0.503942 0.392369
O O16 0.000000 0.500000 0.500000
O O17 0.262850 0.250000 0.363000
#
# Coordination Sequence:
#
# PCOD9160421 Si02
#       6
#     4   4   4   4   4   4
#     4  10  21  37  58  84 114 147 182 229 281 331
#     4   9  18  34  57  84 111 143 184 229 277 331
#     4  11  23  38  56  81 116 154 189 231 281 333
#     4  10  20  35  58  85 111 144 186 232 276 328
#     4  10  21  38  60  86 113 146 189 232 277 334
#     4  10  19  35  60  84 111 148 186 230 282 336
#
# _framework density 17.507715000000001
#
# number of rings (size 3 to 8) (size 9 to 14) (size 15 to 20)
#    0.000    2.000    1.667    2.000    0.000    4.000 
#    3.000    0.000    0.000    0.000    0.000    0.000 
#    0.000    0.000    0.000    0.000    0.000    0.000 
#
# Total GULP energy -133980.580092 kJ/mol
# GULP energy per Si atom -5582.524170 kJ/mol
# Density = 1.746787 g / cm^3
# Si number density = 17.507715 Si / 1000 Ang^3
#
#
#
# Elastic Constant Matrix: (Units=GPa)
#
#
# Indices 1 2 3 4 5 6 
#
# 1 178.9817 67.4057 101.9141 0.0000 4.2325 0.0000
# 2 67.4057 55.5429 54.0834 0.0000 4.1765 0.0000
# 3 101.9141 54.0834 117.7150 0.0000 -2.9213 0.0000
# 4 0.0000 0.0000 0.0000 26.2534 0.0000 2.5674
# 5 4.2325 4.1765 -2.9213 0.0000 36.8142 0.0000
# 6 0.0000 0.0000 0.0000 2.5674 0.0000 38.1000
#
#
#
# Elastic Compliance Matrix: (Units=1/GPa)
#
#
# Indices 1 2 3 4 5 6 
#
# 1 0.013040 -0.008543 -0.007393 0.000000 -0.001117 0.000000
# 2 -0.008543 0.039080 -0.010665 0.000000 -0.004298 0.000000
# 3 -0.007393 -0.010665 0.019886 0.000000 0.003638 0.000000
# 4 0.000000 0.000000 0.000000 0.038343 0.000000 -0.002584
# 5 -0.001117 -0.004298 0.003638 0.000000 0.028068 0.000000
# 6 0.000000 0.000000 0.000000 -0.002584 0.000000 0.026421
#
#
# Mechanical properties :
#
#
# Convention : Reuss Voigt Hill
#
# Bulk Modulus (GPa) = 53.17981 88.78289 70.98135
# Shear Modulus (GPa) = 22.29070 28.82262 25.55666
#
# Velocity S-wave (km/s) = 3.57205 4.06184 3.82480
# Velocity P-wave (km/s) = 6.88867 8.53340 7.75476
#
# Compressibility (1/GPa) = 0.01880413
#
# Stress axis : x y z
#
# Youngs Moduli (GPa) = 76.68454 25.58830 50.28733
#
# Poissons Ratio (x) = 0.21861 0.37175
# Poissons Ratio (y) = 0.65514 0.53633
# Poissons Ratio (z) = 0.56689 0.27291
#
# Static dielectric constant tensor:
#      x y z
#    x 1.571970 0.000000 -0.012880 
#    y 0.000000 1.585900 0.000000 
#    z -0.012880 0.000000 1.585260 
# 
# From -- ./inp_files/20373.got.cif
#   From: 2010.05.17/outbox.cif.g08.bks.cpg/sg11_11_cif.got.tgz:20373.got - 2010.06.03 12:22:45.
