data_PCOD9160127
_publ_section_title
;
Structure prediction by ZEFSAII (Michael W. Deem and Ramdas Pophale) SiO2 
 PCOD9160127
Probable space group: P 21/M
;
_chemical_formula_sum "Si O2"
_cell_formula_units_Z 28
_cell_length_a 15.994240
_cell_length_b 16.269810
_cell_length_c 5.641035
_cell_angle_alpha 90.000000
_cell_angle_beta 114.970382
_cell_angle_gamma 90.000000
_cell_volume 1330.715487
_symmetry_space_group_name_H-M "P 21/M"
_symmetry_group_IT_number 11
_symmetry_cell_setting 'monoclinic'
loop_
_space_group_symop_operation_xyz
x,y,z
-x,1/2+y,-z
-x,-y,-z
x,1/2-y,z
loop_
_atom_site_type_symbol
_atom_site_label
_atom_site_fract_x
_atom_site_fract_y
_atom_site_fract_z
Si Si1 0.303325 0.443073 0.776749
Si Si2 0.754333 0.379735 0.814538
Si Si3 0.839455 0.840132 0.620016
Si Si4 0.392206 0.018679 0.384443
Si Si5 0.794630 0.375657 0.351782
Si Si6 0.988960 0.656548 0.439863
Si Si7 0.904850 0.521848 0.016047
O O1 0.232161 0.367565 0.667630
O O2 0.365078 0.441614 0.608602
O O3 0.243785 0.529181 0.694660
O O4 0.356956 0.440743 0.092726
O O5 0.663061 0.433311 0.682045
O O6 0.769183 0.340305 0.577574
O O7 0.842888 0.440974 0.955343
O O8 0.751609 0.336891 0.064603
O O9 0.816436 0.750000 0.684118
O O10 0.839348 0.914068 0.801726
O O11 0.944011 0.838201 0.645651
O O12 0.500000 0.000000 0.500000
O O13 0.904271 0.364185 0.458538
O O14 0.973055 0.750000 0.319415
O O15 0.937271 0.577049 0.273516
O O16 0.000000 0.500000 0.000000
#
# Coordination Sequence:
#
# PCOD9160127 Si02
#       7
#     4   4   4   4   4   4   4
#     4  10  20  37  56  84 115 145 189 231 298 339
#     4  10  20  33  57  79 110 137 189 223 291 329
#     4  11  23  36  51  79 119 162 197 238 290 360
#     4  10  19  34  59  88 111 134 177 243 291 336
#     4  10  19  36  52  78 106 147 188 233 276 333
#     4  11  23  34  49  77 112 154 200 238 279 338
#     4  12  20  34  55  76 112 153 193 244 279 335
#
# _framework density 21.041309999999999
#
# number of rings (size 3 to 8) (size 9 to 14) (size 15 to 20)
#    0.000    1.429    4.286    3.429    0.000    1.714 
#    0.000    0.000    0.000    0.000    0.000   24.000 
#    0.000    0.000    0.000    0.000    0.000    0.000 
#
# Total GULP energy -156005.586102 kJ/mol
# GULP energy per Si atom -5571.628075 kJ/mol
# Density = 2.099342 g / cm^3
# Si number density = 21.041310 Si / 1000 Ang^3
#
#
#
# Elastic Constant Matrix: (Units=GPa)
#
#
# Indices 1 2 3 4 5 6 
#
# 1 122.3259 3.2920 33.7732 0.0000 0.7749 0.0000
# 2 3.2920 94.3202 17.6770 0.0000 -0.7147 0.0000
# 3 33.7732 17.6770 134.2214 0.0000 -22.4910 0.0000
# 4 0.0000 0.0000 0.0000 -23.6078 0.0000 10.4979
# 5 0.7749 -0.7147 -22.4910 0.0000 39.2355 0.0000
# 6 0.0000 0.0000 0.0000 10.4979 0.0000 -3.9739
#
#
#
# Elastic Compliance Matrix: (Units=1/GPa)
#
#
# Indices 1 2 3 4 5 6 
#
# 1 0.008878 0.000151 -0.002525 0.000000 -0.001620 0.000000
# 2 0.000151 0.010890 -0.001592 0.000000 -0.000717 0.000000
# 3 -0.002525 -0.001592 0.009181 0.000000 0.005284 0.000000
# 4 0.000000 0.000000 0.000000 0.242423 0.000000 0.640417
# 5 -0.001620 -0.000717 0.005284 0.000000 0.028535 0.000000
# 6 0.000000 0.000000 0.000000 0.640417 0.000000 1.440169
#
#
# Mechanical properties :
#
#
# Convention : Reuss Voigt Hill
#
# Bulk Modulus (GPa) = 47.58337 51.15020 49.36679
# Shear Modulus (GPa) = 2.84898 22.07244 12.46071
#
# Velocity S-wave (km/s) = 1.16487 3.24235 2.43616
# Velocity P-wave (km/s) = 4.94698 6.19510 5.60589
#
# Compressibility (1/GPa) = 0.02101574
#
# Stress axis : x y z
#
# Youngs Moduli (GPa) = 112.63390 91.82798 108.92162
#
# Poissons Ratio (x) = -0.01388 0.27507
# Poissons Ratio (y) = -0.01702 0.17345
# Poissons Ratio (z) = 0.28444 0.14623
#
# Static dielectric constant tensor:
#      x y z
#    x 1.761080 0.000000 -0.055660 
#    y 0.000000 1.815920 0.000000 
#    z -0.055660 0.000000 1.874130 
# 
# From -- ./inp_files/6714.got.cif
#   From: 2010.05.17/outbox.cif.g08.bks.cpg/sg11_4_cif.got.tgz:6714.got - 2010.06.03 12:22:45.
