data_PCOD9160916
_publ_section_title
;
Structure prediction by ZEFSAII (Michael W. Deem and Ramdas Pophale) SiO2 
 PCOD9160916
Probable space group: P 21/M
;
_chemical_formula_sum "Si O2"
_cell_formula_units_Z 24
_cell_length_a 11.938232
_cell_length_b 13.023804
_cell_length_c 11.791663
_cell_angle_alpha 90.000000
_cell_angle_beta 34.472468
_cell_angle_gamma 90.000000
_cell_volume 1037.712746
_symmetry_space_group_name_H-M "P 21/M"
_symmetry_group_IT_number 11
_symmetry_cell_setting 'monoclinic'
loop_
_space_group_symop_operation_xyz
x,y,z
-x,1/2+y,-z
-x,-y,-z
x,1/2-y,z
loop_
_atom_site_type_symbol
_atom_site_label
_atom_site_fract_x
_atom_site_fract_y
_atom_site_fract_z
Si Si1 0.314273 0.438369 0.604819
Si Si2 0.644805 0.358952 0.179174
Si Si3 0.567378 0.640128 0.871696
Si Si4 0.350149 0.922581 0.278441
Si Si5 0.898586 0.363753 0.323329
Si Si6 0.733595 0.581426 0.114876
O O1 0.500000 0.500000 0.500000
O O2 0.424777 0.370591 0.418094
O O3 0.181441 0.530041 0.666015
O O4 0.241157 0.378565 0.777859
O O5 0.730139 0.250000 0.144765
O O6 0.606299 0.359312 0.077485
O O7 0.773065 0.458947 0.096573
O O8 0.672798 0.750000 0.776924
O O9 0.685650 0.538208 0.737506
O O10 0.460095 0.629369 0.081566
O O11 0.156361 0.876181 0.498449
O O12 0.513222 0.915955 0.244851
O O13 0.818480 0.250000 0.355430
O O14 0.124502 0.367570 0.094876
#
# Coordination Sequence:
#
# PCOD9160916 Si02
#       6
#     4   4   4   4   4   4
#     4  10  19  40  59  84 118 150 195 245 291 352
#     4   9  18  37  63  85 114 159 200 242 299 349
#     4   9  17  34  63  88 114 161 203 242 302 350
#     4  10  20  40  61  85 125 156 199 257 289 350
#     4  12  24  38  60  90 123 160 198 241 301 356
#     4  10  22  40  58  88 124 153 198 247 293 356
#
# _framework density 23.127787999999999
#
# number of rings (size 3 to 8) (size 9 to 14) (size 15 to 20)
#    0.000    2.000    5.000    1.000    0.000    4.667 
#    0.000    9.167    0.000    4.000    0.000    0.000 
#    0.000    0.000    0.000    0.000    0.000    0.000 
#
# Total GULP energy -133621.909111 kJ/mol
# GULP energy per Si atom -5567.579546 kJ/mol
# Density = 2.307515 g / cm^3
# Si number density = 23.127788 Si / 1000 Ang^3
#
#
#
# Elastic Constant Matrix: (Units=GPa)
#
#
# Indices 1 2 3 4 5 6 
#
# 1 37.2327 1.4072 34.8411 0.0000 27.2019 0.0000
# 2 1.4072 124.1245 27.2969 0.0000 4.1951 0.0000
# 3 34.8411 27.2969 141.9860 0.0000 28.5301 0.0000
# 4 0.0000 0.0000 0.0000 -6.9537 0.0000 -17.3336
# 5 27.2019 4.1951 28.5301 0.0000 38.4314 0.0000
# 6 0.0000 0.0000 0.0000 -17.3336 0.0000 4.0853
#
#
#
# Elastic Compliance Matrix: (Units=1/GPa)
#
#
# Indices 1 2 3 4 5 6 
#
# 1 0.062371 0.002359 -0.008034 0.000000 -0.038439 0.000000
# 2 0.002359 0.008505 -0.001989 0.000000 -0.001122 0.000000
# 3 -0.008034 -0.001989 0.009650 0.000000 -0.001260 0.000000
# 4 0.000000 0.000000 0.000000 -0.012423 0.000000 -0.052708
# 5 -0.038439 -0.001122 -0.001260 0.000000 0.054286 0.000000
# 6 0.000000 0.000000 0.000000 -0.052708 0.000000 0.021145
#
#
# Mechanical properties :
#
#
# Convention : Reuss Voigt Hill
#
# Bulk Modulus (GPa) = 15.33798 47.82596 31.58197
# Shear Modulus (GPa) = 27.68642 23.09914 25.39278
#
# Velocity S-wave (km/s) = 3.46368 3.16375 3.31710
# Velocity P-wave (km/s) = 4.75839 5.83692 5.32503
#
# Compressibility (1/GPa) = 0.06519765
#
# Stress axis : x y z
#
# Youngs Moduli (GPa) = 16.03314 117.57923 103.62793
#
# Poissons Ratio (x) = -0.27736 0.83259
# Poissons Ratio (y) = -0.03782 0.20606
# Poissons Ratio (z) = 0.12882 0.23381
#
# Static dielectric constant tensor:
#      x y z
#    x 1.866050 0.000000 0.047360 
#    y 0.000000 1.973170 0.000000 
#    z 0.047360 0.000000 1.990940 
# 
# From -- ./inp_files/39545.got.cif
#   From: 2010.05.17/outbox.cif.g08.bks.cpg/sg11_20_cif.got.tgz:39545.got - 2010.06.03 12:22:45.
