data_PCOD9160422
_publ_section_title
;
Structure prediction by ZEFSAII (Michael W. Deem and Ramdas Pophale) SiO2 
 PCOD9160422
Probable space group: P 21/M
;
_chemical_formula_sum "Si O2"
_cell_formula_units_Z 28
_cell_length_a 9.719060
_cell_length_b 17.529147
_cell_length_c 15.769913
_cell_angle_alpha 90.000000
_cell_angle_beta 145.128080
_cell_angle_gamma 90.000000
_cell_volume 1536.087133
_symmetry_space_group_name_H-M "P 21/M"
_symmetry_group_IT_number 11
_symmetry_cell_setting 'monoclinic'
loop_
_space_group_symop_operation_xyz
x,y,z
-x,1/2+y,-z
-x,-y,-z
x,1/2-y,z
loop_
_atom_site_type_symbol
_atom_site_label
_atom_site_fract_x
_atom_site_fract_y
_atom_site_fract_z
Si Si1 0.876043 0.939844 0.065222
Si Si2 0.696401 0.442709 0.837628
Si Si3 0.575578 0.336417 0.344513
Si Si4 0.800282 0.500395 0.472527
Si Si5 0.528330 0.165191 0.122107
Si Si6 0.979555 0.661720 0.880394
Si Si7 0.907922 0.061539 0.221740
O O1 0.148774 0.942523 0.170514
O O2 0.841728 0.988028 0.132628
O O3 0.750741 0.859118 0.014956
O O4 0.741917 0.983045 0.919684
O O5 0.419962 0.447835 0.672924
O O6 0.820769 0.377112 0.957605
O O7 0.644254 0.250000 0.410352
O O8 0.707042 0.413452 0.442583
O O9 0.615139 0.335769 0.263290
O O10 0.289602 0.344518 0.217911
O O11 0.000000 0.500000 0.500000
O O12 0.913293 0.536581 0.613771
O O13 0.560718 0.250000 0.103644
O O14 0.678644 0.103158 0.146631
O O15 0.036650 0.750000 0.898945
O O16 0.981737 0.618856 0.791855
#
# Coordination Sequence:
#
# PCOD9160422 Si02
#       7
#     4   4   4   4   4   4   4
#     4  10  19  36  58  88 109 147 198 251 289 337
#     4  10  19  35  60  84 114 150 199 240 289 348
#     4  10  20  37  63  83 111 157 201 241 293 356
#     4  12  22  39  57  88 123 161 199 237 294 360
#     4  11  20  36  60  85 112 152 200 243 295 351
#     4  10  21  40  63  90 118 151 199 253 300 344
#     4  11  23  35  59  89 125 154 191 245 297 352
#
# _framework density 18.228131000000001
#
# number of rings (size 3 to 8) (size 9 to 14) (size 15 to 20)
#    0.000    1.429    4.286    2.571    0.000    3.429 
#    0.000    2.857    0.000    0.000    0.000    0.000 
#    0.000    0.000    0.000    0.000    0.000    0.000 
#
# Total GULP energy -156132.746998 kJ/mol
# GULP energy per Si atom -5576.169536 kJ/mol
# Density = 1.818664 g / cm^3
# Si number density = 18.228131 Si / 1000 Ang^3
#
#
#
# Elastic Constant Matrix: (Units=GPa)
#
#
# Indices 1 2 3 4 5 6 
#
# 1 95.6937 29.9082 55.2339 0.0000 -1.8981 0.0000
# 2 29.9082 118.4797 56.6569 0.0000 -1.8735 0.0000
# 3 55.2339 56.6569 86.6409 0.0000 10.8108 0.0000
# 4 0.0000 0.0000 0.0000 20.9748 0.0000 -1.2446
# 5 -1.8981 -1.8735 10.8108 0.0000 23.1558 0.0000
# 6 0.0000 0.0000 0.0000 -1.2446 0.0000 17.8662
#
#
#
# Elastic Compliance Matrix: (Units=1/GPa)
#
#
# Indices 1 2 3 4 5 6 
#
# 1 0.017953 0.002266 -0.013946 0.000000 0.008166 0.000000
# 2 0.002266 0.013146 -0.010828 0.000000 0.006305 0.000000
# 3 -0.013946 -0.010828 0.029483 0.000000 -0.015784 0.000000
# 4 0.000000 0.000000 0.000000 0.047874 0.000000 0.003335
# 5 0.008166 0.006305 -0.015784 0.000000 0.051734 0.000000
# 6 0.000000 0.000000 0.000000 0.003335 0.000000 0.056204
#
#
# Mechanical properties :
#
#
# Convention : Reuss Voigt Hill
#
# Bulk Modulus (GPa) = 64.24143 64.93469 64.58806
# Shear Modulus (GPa) = 18.75480 23.00037 20.87759
#
# Velocity S-wave (km/s) = 3.21112 3.55605 3.38797
# Velocity P-wave (km/s) = 7.00485 7.24992 7.12843
#
# Compressibility (1/GPa) = 0.01556628
#
# Stress axis : x y z
#
# Youngs Moduli (GPa) = 55.69972 76.07053 33.91824
#
# Poissons Ratio (x) = -0.17239 0.47303
# Poissons Ratio (y) = -0.12622 0.36726
# Poissons Ratio (z) = 0.77680 0.82367
#
# Static dielectric constant tensor:
#      x y z
#    x 1.636230 0.000000 0.007090 
#    y 0.000000 1.664670 0.000000 
#    z 0.007090 0.000000 1.607210 
# 
# From -- ./inp_files/48017.got.cif
#   From: 2010.05.17/outbox.cif.g08.bks.cpg/sg11_25_cif.got.tgz:48017.got - 2010.06.03 12:22:45.
