data_PCOD9160638
_publ_section_title
;
Structure prediction by ZEFSAII (Michael W. Deem and Ramdas Pophale) SiO2 
 PCOD9160638
Probable space group: P 21/M
;
_chemical_formula_sum "Si O2"
_cell_formula_units_Z 32
_cell_length_a 10.105190
_cell_length_b 11.439466
_cell_length_c 20.073383
_cell_angle_alpha 90.000000
_cell_angle_beta 129.312764
_cell_angle_gamma 90.000000
_cell_volume 1795.324231
_symmetry_space_group_name_H-M "P 21/M"
_symmetry_group_IT_number 11
_symmetry_cell_setting 'monoclinic'
loop_
_space_group_symop_operation_xyz
x,y,z
-x,1/2+y,-z
-x,-y,-z
x,1/2-y,z
loop_
_atom_site_type_symbol
_atom_site_label
_atom_site_fract_x
_atom_site_fract_y
_atom_site_fract_z
Si Si1 0.914108 0.451634 0.872098
Si Si2 0.934177 0.625201 0.211237
Si Si3 0.449202 0.048585 0.911296
Si Si4 0.607604 0.887349 0.724352
Si Si5 0.187423 0.874691 0.016813
Si Si6 0.588464 0.884855 0.558994
Si Si7 0.984316 0.883448 0.687690
Si Si8 0.651390 0.114189 0.244439
O O1 0.769460 0.539262 0.799721
O O2 0.840992 0.387910 0.913530
O O3 0.975333 0.373577 0.831100
O O4 0.080782 0.523379 0.948426
O O5 0.974865 0.750000 0.259064
O O6 0.729279 0.616358 0.139312
O O7 0.991626 0.500358 0.260452
O O8 0.614576 0.116890 0.938371
O O9 0.412049 0.953187 0.841558
O O10 0.500000 0.000000 0.000000
O O11 0.640155 0.750000 0.745933
O O12 0.579536 0.900073 0.636432
O O13 0.447927 0.923126 0.720521
O O14 0.117536 0.750000 0.971726
O O15 0.525878 0.750000 0.524140
O O16 0.788772 0.886591 0.601946
O O17 0.500000 0.000000 0.500000
O O18 0.005276 0.750000 0.724706
O O19 0.142315 0.894834 0.686687
O O20 0.611194 0.250000 0.221334
#
# Coordination Sequence:
#
# PCOD9160638 Si02
#       8
#     4   4   4   4   4   4   4   4
#     4  11  21  37  52  77 109 145 196 236 291 335
#     4  11  22  35  55  81 109 143 190 242 290 337
#     4  11  21  37  49  76 110 152 193 241 293 338
#     4  10  19  36  61  84 110 149 195 237 281 343
#     4  11  23  36  51  72 108 151 192 241 291 339
#     4  10  21  38  62  92 121 148 183 229 284 345
#     4   9  19  37  60  84 113 147 185 224 273 342
#     4   9  19  35  58  81 105 146 198 238 275 331
#
# _framework density 17.824079000000001
#
# number of rings (size 3 to 8) (size 9 to 14) (size 15 to 20)
#    0.000    1.750    3.750    1.125    0.000    2.000 
#    0.000    0.625    0.000    0.000    0.000    0.000 
#    0.000    0.000    0.000    0.000    0.000    0.000 
#
# Total GULP energy -178146.947455 kJ/mol
# GULP energy per Si atom -5567.092108 kJ/mol
# Density = 1.778351 g / cm^3
# Si number density = 17.824079 Si / 1000 Ang^3
#
#
#
# Elastic Constant Matrix: (Units=GPa)
#
#
# Indices 1 2 3 4 5 6 
#
# 1 120.3462 35.7562 30.1162 0.0000 15.5357 0.0000
# 2 35.7562 115.3558 40.0345 0.0000 11.7870 0.0000
# 3 30.1162 40.0345 46.7085 0.0000 10.7464 0.0000
# 4 0.0000 0.0000 0.0000 -53.7890 0.0000 -22.7083
# 5 15.5357 11.7870 10.7464 0.0000 15.7762 0.0000
# 6 0.0000 0.0000 0.0000 -22.7083 0.0000 -8.3343
#
#
#
# Elastic Compliance Matrix: (Units=1/GPa)
#
#
# Indices 1 2 3 4 5 6 
#
# 1 0.010581 -0.001087 -0.004364 0.000000 -0.006635 0.000000
# 2 -0.001087 0.012527 -0.009640 0.000000 -0.001722 0.000000
# 3 -0.004364 -0.009640 0.035386 0.000000 -0.012604 0.000000
# 4 0.000000 0.000000 0.000000 0.123699 0.000000 -0.337042
# 5 -0.006635 -0.001722 -0.012604 0.000000 0.079792 0.000000
# 6 0.000000 0.000000 0.000000 -0.337042 0.000000 0.798348
#
#
# Mechanical properties :
#
#
# Convention : Reuss Voigt Hill
#
# Bulk Modulus (GPa) = 35.32141 54.91379 45.11760
# Shear Modulus (GPa) = 4.54565 2.49751 3.52158
#
# Velocity S-wave (km/s) = 1.59869 1.18501 1.40714
# Velocity P-wave (km/s) = 4.82364 5.72258 5.29223
#
# Compressibility (1/GPa) = 0.02831144
#
# Stress axis : x y z
#
# Youngs Moduli (GPa) = 94.50963 79.82450 28.26009
#
# Poissons Ratio (x) = 0.08679 0.12332
# Poissons Ratio (y) = 0.10276 0.27243
# Poissons Ratio (z) = 0.41243 0.76952
#
# Static dielectric constant tensor:
#      x y z
#    x 1.621710 0.000000 0.004620 
#    y 0.000000 1.681830 0.000000 
#    z 0.004620 0.000000 1.577050 
# 
# From -- ./inp_files/63680.got.cif
#   From: 2010.05.17/outbox.cif.g08.bks.cpg/sg11_32_cif.got.tgz:63680.got - 2010.06.03 12:22:45.
