data_PCOD9160582
_publ_section_title
;
Structure prediction by ZEFSAII (Michael W. Deem and Ramdas Pophale) SiO2 
 PCOD9160582
Probable space group: P 21/M
;
_chemical_formula_sum "Si O2"
_cell_formula_units_Z 24
_cell_length_a 8.289635
_cell_length_b 24.592076
_cell_length_c 7.051719
_cell_angle_alpha 90.000000
_cell_angle_beta 45.912821
_cell_angle_gamma 90.000000
_cell_volume 1032.572570
_symmetry_space_group_name_H-M "P 21/M"
_symmetry_group_IT_number 11
_symmetry_cell_setting 'monoclinic'
loop_
_space_group_symop_operation_xyz
x,y,z
-x,1/2+y,-z
-x,-y,-z
x,1/2-y,z
loop_
_atom_site_type_symbol
_atom_site_label
_atom_site_fract_x
_atom_site_fract_y
_atom_site_fract_z
Si Si1 0.063441 0.392232 0.682406
Si Si2 0.617334 0.688528 0.737383
Si Si3 0.186767 0.811583 0.839486
Si Si4 0.447393 0.075219 0.633603
Si Si5 0.445980 0.687958 0.285547
Si Si6 0.783527 0.473259 0.080417
O O1 0.182026 0.355115 0.427383
O O2 0.270426 0.423772 0.606575
O O3 0.973262 0.350587 0.915194
O O4 0.862486 0.436385 0.837710
O O5 0.708398 0.750000 0.654640
O O6 0.444147 0.680903 0.704658
O O7 0.455423 0.685296 0.052105
O O8 0.121611 0.750000 0.937530
O O9 0.211926 0.816371 0.592084
O O10 0.432074 0.132499 0.751806
O O11 0.677730 0.064148 0.333445
O O12 0.385588 0.023394 0.813952
O O13 0.531251 0.750000 0.262807
O O14 0.000000 0.500000 0.000000
#
# Coordination Sequence:
#
# PCOD9160582 Si02
#       6
#     4   4   4   4   4   4
#     4  11  18  34  59  84 111 152 195 237 288 341
#     4  10  21  36  54  82 120 151 186 240 288 339
#     4  10  20  36  56  81 114 153 192 230 284 346
#     4  10  19  36  59  85 116 150 190 242 288 342
#     4  10  20  37  58  83 116 151 187 233 289 343
#     4   9  19  33  58  87 113 150 196 237 289 340
#
# _framework density 23.242916000000001
#
# number of rings (size 3 to 8) (size 9 to 14) (size 15 to 20)
#    0.000    2.000    3.333    0.500    0.000    0.667 
#    3.000    0.833    0.000   14.000    0.000    0.000 
#    0.000    0.000    0.000    0.000    0.000    0.000 
#
# Total GULP energy -133679.694310 kJ/mol
# GULP energy per Si atom -5569.987263 kJ/mol
# Density = 2.319001 g / cm^3
# Si number density = 23.242916 Si / 1000 Ang^3
#
#
#
# Elastic Constant Matrix: (Units=GPa)
#
#
# Indices 1 2 3 4 5 6 
#
# 1 18.4610 15.8874 15.6454 0.0000 4.6201 0.0000
# 2 15.8874 125.7217 31.5550 0.0000 -0.4480 0.0000
# 3 15.6454 31.5550 100.9789 0.0000 6.8290 0.0000
# 4 0.0000 0.0000 0.0000 44.7709 0.0000 -9.7943
# 5 4.6201 -0.4480 6.8290 0.0000 23.2068 0.0000
# 6 0.0000 0.0000 0.0000 -9.7943 0.0000 16.7137
#
#
#
# Elastic Compliance Matrix: (Units=1/GPa)
#
#
# Indices 1 2 3 4 5 6 
#
# 1 0.069667 -0.006874 -0.007855 0.000000 -0.011691 0.000000
# 2 -0.006874 0.009331 -0.001995 0.000000 0.002136 0.000000
# 3 -0.007855 -0.001995 0.011877 0.000000 -0.001970 0.000000
# 4 0.000000 0.000000 0.000000 0.025620 0.000000 0.015014
# 5 -0.011691 0.002136 -0.001970 0.000000 0.046039 0.000000
# 6 0.000000 0.000000 0.000000 0.015014 0.000000 0.068629
#
#
# Mechanical properties :
#
#
# Convention : Reuss Voigt Hill
#
# Bulk Modulus (GPa) = 17.41376 41.25968 29.33672
# Shear Modulus (GPa) = 17.62088 29.07653 23.34870
#
# Velocity S-wave (km/s) = 2.75638 3.54076 3.17290
# Velocity P-wave (km/s) = 4.19982 5.87418 5.10610
#
# Compressibility (1/GPa) = 0.05742585
#
# Stress axis : x y z
#
# Youngs Moduli (GPa) = 14.35404 107.16812 84.19727
#
# Poissons Ratio (x) = 0.73665 0.66140
# Poissons Ratio (y) = 0.09867 0.16800
# Poissons Ratio (z) = 0.11276 0.21384
#
# Static dielectric constant tensor:
#      x y z
#    x 1.872360 0.000000 -0.016310 
#    y 0.000000 1.967740 0.000000 
#    z -0.016310 0.000000 1.898430 
# 
# From -- ./inp_files/2919.got.cif
#   From: 2010.05.17/outbox.cif.g08.bks.cpg/sg11_2_cif.got.tgz:2919.got - 2010.06.03 12:22:45.
