data_PCOD9160660
_publ_section_title
;
Structure prediction by ZEFSAII (Michael W. Deem and Ramdas Pophale) SiO2 
 PCOD9160660
Probable space group: P 21/M
;
_chemical_formula_sum "Si O2"
_cell_formula_units_Z 26
_cell_length_a 8.278487
_cell_length_b 20.187361
_cell_length_c 11.913399
_cell_angle_alpha 90.000000
_cell_angle_beta 143.110471
_cell_angle_gamma 90.000000
_cell_volume 1195.131770
_symmetry_space_group_name_H-M "P 21/M"
_symmetry_group_IT_number 11
_symmetry_cell_setting 'monoclinic'
loop_
_space_group_symop_operation_xyz
x,y,z
-x,1/2+y,-z
-x,-y,-z
x,1/2-y,z
loop_
_atom_site_type_symbol
_atom_site_label
_atom_site_fract_x
_atom_site_fract_y
_atom_site_fract_z
Si Si1 0.615990 0.643372 0.633518
Si Si2 0.348007 0.616399 0.782799
Si Si3 0.915265 0.947943 0.116567
Si Si4 0.764186 0.033274 0.489620
Si Si5 0.524567 0.396038 0.673518
Si Si6 0.793118 0.100953 0.036093
Si Si7 0.359313 0.750000 0.660693
O O1 0.488009 0.571722 0.592390
O O2 0.567192 0.654119 0.474103
O O3 0.457328 0.693153 0.623712
O O4 0.930364 0.639562 0.832502
O O5 0.213023 0.564332 0.621200
O O6 0.272957 0.606649 0.870078
O O7 0.288107 0.690340 0.709845
O O8 0.667118 0.600030 0.953817
O O9 0.989032 0.951708 0.290016
O O10 0.181215 0.922119 0.202396
O O11 0.836153 0.022371 0.037827
O O12 0.681643 0.957060 0.443786
O O13 0.566924 0.373509 0.824524
#
# Coordination Sequence:
#
# PCOD9160660 Si02
#       7
#     4   4   4   4   4   4   2
#     4  10  21  40  62  87 112 160 207 250 286 348
#     4  11  25  39  57  89 129 166 191 244 306 374
#     4  11  20  36  60  96 126 155 197 245 309 358
#     4  10  19  36  61  90 126 156 193 244 296 354
#     4  11  19  35  63  94 124 148 200 253 295 353
#     4  12  22  35  62  98 126 150 195 252 317 358
#     4  10  24  48  62  74 118 170 214 240 296 360
#
# _framework density 21.754923000000002
#
# number of rings (size 3 to 8) (size 9 to 14) (size 15 to 20)
#    0.000    1.231    4.615    3.692    0.000    2.462 
#    0.000   13.077    0.000    0.000    0.000    0.000 
#    0.000    0.000    0.000    0.000    0.000    0.000 
#
# Total GULP energy -144901.872142 kJ/mol
# GULP energy per Si atom -5573.148929 kJ/mol
# Density = 2.170541 g / cm^3
# Si number density = 21.754923 Si / 1000 Ang^3
#
#
#
# Elastic Constant Matrix: (Units=GPa)
#
#
# Indices 1 2 3 4 5 6 
#
# 1 67.1381 3.1784 14.9190 0.0000 -23.6705 0.0000
# 2 3.1784 33.2137 -11.2997 0.0000 -2.4361 0.0000
# 3 14.9190 -11.2997 84.1944 0.0000 -27.8369 0.0000
# 4 0.0000 0.0000 0.0000 -1.7721 0.0000 -6.9113
# 5 -23.6705 -2.4361 -27.8369 0.0000 45.9392 0.0000
# 6 0.0000 0.0000 0.0000 -6.9113 0.0000 20.7804
#
#
#
# Elastic Compliance Matrix: (Units=1/GPa)
#
#
# Indices 1 2 3 4 5 6 
#
# 1 0.018247 -0.001210 -0.000386 0.000000 0.009104 0.000000
# 2 -0.001210 0.032696 0.006215 0.000000 0.004876 0.000000
# 3 -0.000386 0.006215 0.016036 0.000000 0.009848 0.000000
# 4 0.000000 0.000000 0.000000 -0.245659 0.000000 -0.081703
# 5 0.009104 0.004876 0.009848 0.000000 0.032685 0.000000
# 6 0.000000 0.000000 0.000000 -0.081703 0.000000 0.020949
#
#
# Mechanical properties :
#
#
# Convention : Reuss Voigt Hill
#
# Bulk Modulus (GPa) = 13.12027 22.01572 17.56800
# Shear Modulus (GPa) = -45.92232 24.83942 -10.54145
#
# Velocity S-wave (km/s) = -4.59943 3.38269 -2.20365
# Velocity P-wave (km/s) = 4.70769 5.03971 1.27208
#
# Compressibility (1/GPa) = 0.07621792
#
# Stress axis : x y z
#
# Youngs Moduli (GPa) = 54.80216 30.58493 62.36136
#
# Poissons Ratio (x) = 0.03700 0.02405
# Poissons Ratio (y) = 0.06629 -0.38756
# Poissons Ratio (z) = 0.02113 -0.19008
#
# Static dielectric constant tensor:
#      x y z
#    x 1.854340 0.000000 -0.025860 
#    y 0.000000 1.780260 0.000000 
#    z -0.025860 0.000000 1.846190 
# 
# From -- ./inp_files/19301.got.cif
#   From: 2010.05.17/outbox.cif.g08.bks.cpg/sg11_10_cif.got.tgz:19301.got - 2010.06.03 12:22:45.
