data_PCOD9160940
_publ_section_title
;
Structure prediction by ZEFSAII (Michael W. Deem and Ramdas Pophale) SiO2 
 PCOD9160940
Probable space group: P 21/M
;
_chemical_formula_sum "Si O2"
_cell_formula_units_Z 22
_cell_length_a 9.795549
_cell_length_b 5.687688
_cell_length_c 19.955039
_cell_angle_alpha 90.000000
_cell_angle_beta 132.472421
_cell_angle_gamma 90.000000
_cell_volume 820.048378
_symmetry_space_group_name_H-M "P 21/M"
_symmetry_group_IT_number 11
_symmetry_cell_setting 'monoclinic'
loop_
_space_group_symop_operation_xyz
x,y,z
-x,1/2+y,-z
-x,-y,-z
x,1/2-y,z
loop_
_atom_site_type_symbol
_atom_site_label
_atom_site_fract_x
_atom_site_fract_y
_atom_site_fract_z
Si Si1 0.599910 0.250000 0.817304
Si Si2 0.033879 0.750000 0.124707
Si Si3 0.136223 0.750000 0.966476
Si Si4 0.377339 0.499969 0.390897
Si Si5 0.233294 0.001348 0.698408
Si Si6 0.279670 0.250000 0.880360
Si Si7 0.235559 0.500022 0.541605
Si Si8 0.619820 0.250000 0.088084
O O1 0.456539 0.033801 0.769344
O O2 0.745429 0.250000 0.805369
O O3 0.724147 0.250000 0.925015
O O4 0.973808 0.499247 0.071151
O O5 0.926090 0.750000 0.159429
O O6 0.252245 0.750000 0.935879
O O7 0.500000 0.500000 0.500000
O O8 0.277429 0.750000 0.356902
O O9 0.541272 0.499926 0.390437
O O10 0.274469 0.250000 0.352194
O O11 0.163298 0.250000 0.704353
O O12 0.182528 0.001088 0.602011
O O13 0.176425 0.750000 0.707102
O O14 0.337773 0.496245 0.865868
O O15 0.409912 0.250000 0.991421
O O16 0.178865 0.250000 0.491818
O O17 0.178814 0.750000 0.492333
#
# Coordination Sequence:
#
# PCOD9160940 Si02
#       8
#     2   2   2   4   4   2   4   2
#     4  10  20  26  38  46  70  82 108 122 154 186
#     4  10  20  28  38  52  66  84  99 124 157 187
#     4  10  20  28  38  52  66  84  99 124 157 187
#     4   8  12  16  24  36  49  63  80 110 146 174
#     4   8  16  24  33  42  54  80 102 123 143 170
#     4   8  14  26  40  52  64  78  98 119 145 181
#     4   8  12  20  28  37  50  66  93 116 140 171
#     4   8  14  26  40  52  64  78  98 119 145 181
#
# _framework density 26.827686
#
# number of rings (size 3 to 8) (size 9 to 14) (size 15 to 20)
#    0.545    2.909    0.000    0.545    2.545    0.000 
#    0.000    0.000    0.000    0.000    0.000    0.000 
#    0.000    0.000    0.000    0.000    0.000    0.000 
#
# Total GULP energy -122794.745732 kJ/mol
# GULP energy per Si atom -5581.579351 kJ/mol
# Density = 2.676662 g / cm^3
# Si number density = 26.827686 Si / 1000 Ang^3
#
#
#
# Elastic Constant Matrix: (Units=GPa)
#
#
# Indices 1 2 3 4 5 6 
#
# 1 98.3688 17.0892 24.5990 0.0000 4.1896 0.0000
# 2 17.0892 354.4968 44.6384 0.0000 7.2169 0.0000
# 3 24.5990 44.6384 92.0405 0.0000 19.4204 0.0000
# 4 0.0000 0.0000 0.0000 7.0503 0.0000 -10.4090
# 5 4.1896 7.2169 19.4204 0.0000 33.1800 0.0000
# 6 0.0000 0.0000 0.0000 -10.4090 0.0000 14.9436
#
#
#
# Elastic Compliance Matrix: (Units=1/GPa)
#
#
# Indices 1 2 3 4 5 6 
#
# 1 0.010907 -0.000167 -0.002911 0.000000 0.000363 0.000000
# 2 -0.000167 0.003008 -0.001461 0.000000 0.000222 0.000000
# 3 -0.002911 -0.001461 0.013927 0.000000 -0.007466 0.000000
# 4 0.000000 0.000000 0.000000 -4.996052 0.000000 -3.480031
# 5 0.000363 0.000222 -0.007466 0.000000 0.034414 0.000000
# 6 0.000000 0.000000 0.000000 -3.480031 0.000000 -2.357118
#
#
# Mechanical properties :
#
#
# Convention : Reuss Voigt Hill
#
# Bulk Modulus (GPa) = 53.29122 79.72882 66.51002
# Shear Modulus (GPa) = -0.68723 41.60675 20.45976
#
# Velocity S-wave (km/s) = -0.50668 3.94240 2.76458
# Velocity P-wave (km/s) = 4.42324 7.10681 5.91912
#
# Compressibility (1/GPa) = 0.01876482
#
# Stress axis : x y z
#
# Youngs Moduli (GPa) = 91.68228 332.39954 71.80409
#
# Poissons Ratio (x) = 0.05540 0.20901
# Poissons Ratio (y) = 0.01528 0.10493
# Poissons Ratio (z) = 0.26687 0.48575
#
# Static dielectric constant tensor:
#      x y z
#    x 2.037930 0.000000 -0.032540 
#    y 0.000000 2.181160 0.000000 
#    z -0.032540 0.000000 2.111250 
# 
# From -- ./inp_files/44354.got.cif
#   From: 2010.05.17/outbox.cif.g08.bks.cpg/sg11_23_cif.got.tgz:44354.got - 2010.06.03 12:22:45.
