data_PCOD9160470
_publ_section_title
;
Structure prediction by ZEFSAII (Michael W. Deem and Ramdas Pophale) SiO2 
 PCOD9160470
Probable space group: P 21/M
;
_chemical_formula_sum "Si O2"
_cell_formula_units_Z 30
_cell_length_a 23.040986
_cell_length_b 12.256640
_cell_length_c 28.830953
_cell_angle_alpha 90.000000
_cell_angle_beta 169.246838
_cell_angle_gamma 90.000000
_cell_volume 1519.121514
_symmetry_space_group_name_H-M "P 21/M"
_symmetry_group_IT_number 11
_symmetry_cell_setting 'monoclinic'
loop_
_space_group_symop_operation_xyz
x,y,z
-x,1/2+y,-z
-x,-y,-z
x,1/2-y,z
loop_
_atom_site_type_symbol
_atom_site_label
_atom_site_fract_x
_atom_site_fract_y
_atom_site_fract_z
Si Si1 0.284565 0.124433 0.181630
Si Si2 0.703092 0.083169 0.595847
Si Si3 0.283909 0.941647 0.868556
Si Si4 0.786345 0.376979 0.501686
Si Si5 0.310227 0.438961 0.726023
Si Si6 0.386302 0.370574 0.093850
Si Si7 0.931400 0.750000 0.534138
Si Si8 0.607907 0.127155 0.628395
O O1 0.242303 0.250000 0.133243
O O2 0.538415 0.080042 0.345014
O O3 0.439581 0.121409 0.353386
O O4 0.936949 0.079483 0.905135
O O5 0.665039 0.952794 0.570492
O O6 0.641934 0.126200 0.599484
O O7 0.035408 0.117082 0.837102
O O8 0.087056 0.846649 0.689669
O O9 0.065290 0.038553 0.716698
O O10 0.500000 0.000000 0.000000
O O11 0.499688 0.899247 0.079806
O O12 0.874336 0.250000 0.581995
O O13 0.610131 0.374309 0.314239
O O14 0.517810 0.531330 0.863762
O O15 0.214528 0.345505 0.615089
O O16 0.000000 0.500000 0.500000
O O17 0.419313 0.250000 0.097849
O O18 0.561135 0.250000 0.608481
#
# Coordination Sequence:
#
# PCOD9160470 Si02
#       8
#     4   4   4   4   4   4   2   4
#     4  10  19  35  61  90 122 157 206 268 320 379
#     4  11  21  36  61  92 121 165 212 266 324 378
#     4  12  25  44  68  97 133 175 216 270 331 389
#     4  10  21  39  66  97 128 166 215 276 331 383
#     4  12  26  46  71 102 133 178 219 269 331 390
#     4  11  22  41  69  99 131 167 222 277 324 388
#     4  12  26  48  66  96 138 174 220 268 322 400
#     4  10  21  37  57  84 127 164 208 260 323 395
#
# _framework density 19.748256000000001
#
# number of rings (size 3 to 8) (size 9 to 14) (size 15 to 20)
#    0.000    1.067    4.000    2.800    1.867    1.600 
#    1.200    0.000    1.467    0.000    0.000    0.000 
#    0.000    0.000    0.000    0.000    0.000    0.000 
#
# Total GULP energy -167036.121705 kJ/mol
# GULP energy per Si atom -5567.870724 kJ/mol
# Density = 1.970331 g / cm^3
# Si number density = 19.748256 Si / 1000 Ang^3
#
#
#
# Elastic Constant Matrix: (Units=GPa)
#
#
# Indices 1 2 3 4 5 6 
#
# 1 64.0207 27.8443 33.1389 0.0000 -35.5487 0.0000
# 2 27.8443 134.2688 39.5793 0.0000 -0.8455 0.0000
# 3 33.1389 39.5793 79.9906 0.0000 -30.0752 0.0000
# 4 0.0000 0.0000 0.0000 25.6250 0.0000 -23.5767
# 5 -35.5487 -0.8455 -30.0752 0.0000 48.5246 0.0000
# 6 0.0000 0.0000 0.0000 -23.5767 0.0000 31.1046
#
#
#
# Elastic Compliance Matrix: (Units=1/GPa)
#
#
# Indices 1 2 3 4 5 6 
#
# 1 0.031004 -0.005712 -0.001976 0.000000 0.021389 0.000000
# 2 -0.005712 0.010194 -0.005455 0.000000 -0.007388 0.000000
# 3 -0.001976 -0.005455 0.020130 0.000000 0.010934 0.000000
# 4 0.000000 0.000000 0.000000 0.128962 0.000000 0.097751
# 5 0.021389 -0.007388 0.010934 0.000000 0.042925 0.000000
# 6 0.000000 0.000000 0.000000 0.097751 0.000000 0.106243
#
#
# Mechanical properties :
#
#
# Convention : Reuss Voigt Hill
#
# Bulk Modulus (GPa) = 28.53825 53.26721 40.90273
# Shear Modulus (GPa) = 13.24764 32.89868 23.07316
#
# Velocity S-wave (km/s) = 2.59284 4.08598 3.42184
# Velocity P-wave (km/s) = 4.84212 7.02082 6.03068
#
# Compressibility (1/GPa) = 0.03504069
#
# Stress axis : x y z
#
# Youngs Moduli (GPa) = 32.25418 98.09762 49.67596
#
# Poissons Ratio (x) = 0.56036 0.09816
# Poissons Ratio (y) = 0.18424 0.27100
# Poissons Ratio (z) = 0.06374 0.53516
#
# Static dielectric constant tensor:
#      x y z
#    x 1.691210 0.000000 -0.004190 
#    y 0.000000 1.770510 0.000000 
#    z -0.004190 0.000000 1.727590 
# 
# From -- ./inp_files/73771.got.cif
#   From: 2010.05.17/outbox.cif.g08.bks.cpg/sg11_37_cif.got.tgz:73771.got - 2010.06.03 12:22:45.
