data_PCOD9160680
_publ_section_title
;
Structure prediction by ZEFSAII (Michael W. Deem and Ramdas Pophale) SiO2 
 PCOD9160680
Probable space group: P 21/M
;
_chemical_formula_sum "Si O2"
_cell_formula_units_Z 26
_cell_length_a 9.674059
_cell_length_b 8.023137
_cell_length_c 18.169653
_cell_angle_alpha 90.000000
_cell_angle_beta 76.555958
_cell_angle_gamma 90.000000
_cell_volume 1371.616498
_symmetry_space_group_name_H-M "P 21/M"
_symmetry_group_IT_number 11
_symmetry_cell_setting 'monoclinic'
loop_
_space_group_symop_operation_xyz
x,y,z
-x,1/2+y,-z
-x,-y,-z
x,1/2-y,z
loop_
_atom_site_type_symbol
_atom_site_label
_atom_site_fract_x
_atom_site_fract_y
_atom_site_fract_z
Si Si1 0.878433 0.050773 0.571633
Si Si2 0.783483 0.554247 0.733173
Si Si3 0.664168 0.250000 0.161325
Si Si4 0.036162 0.750000 0.933658
Si Si5 0.788747 0.936021 0.900539
Si Si6 0.712661 0.250000 0.991639
Si Si7 0.528088 0.557571 0.262625
Si Si8 0.435548 0.550452 0.430677
O O1 0.873996 0.250000 0.574992
O O2 0.724765 0.986112 0.562215
O O3 0.891428 0.987821 0.654041
O O4 0.000000 0.000000 0.500000
O O5 0.747853 0.750000 0.731434
O O6 0.829674 0.524049 0.811299
O O7 0.639215 0.451961 0.737010
O O8 0.835658 0.250000 0.141057
O O9 0.606091 0.417884 0.205331
O O10 0.627924 0.250000 0.078612
O O11 0.930904 0.903700 0.930909
O O12 0.123174 0.750000 0.998403
O O13 0.720210 0.750000 0.908731
O O14 0.696586 0.082897 0.946435
O O15 0.576238 0.750000 0.247548
O O16 0.530622 0.504847 0.348230
O O17 0.500000 0.500000 0.500000
O O18 0.426895 0.750000 0.429664
#
# Coordination Sequence:
#
# PCOD9160680 Si02
#       8
#     4   4   2   2   4   2   4   4
#     4  10  21  37  55  86 118 151 194 245 289 336
#     4  10  19  36  63  81 112 151 192 230 292 343
#     4  10  22  37  57  86 110 155 188 229 294 336
#     4   8  20  39  55  86 117 140 195 227 290 343
#     4   9  20  36  58  87 108 148 191 236 279 350
#     4  10  20  36  62  82 111 151 193 230 296 339
#     4  10  21  39  58  81 116 152 192 232 282 344
#     4   9  20  36  58  84 108 154 197 231 286 351
#
# _framework density 18.955736999999999
#
# number of rings (size 3 to 8) (size 9 to 14) (size 15 to 20)
#    0.923    1.538    0.769    2.308    3.231    1.846 
#    4.154    0.769    0.000    0.000    0.000    0.000 
#    0.000    0.000    0.000    0.000    0.000    0.000 
#
# Total GULP energy -144751.289430 kJ/mol
# GULP energy per Si atom -5567.357286 kJ/mol
# Density = 1.891259 g / cm^3
# Si number density = 18.955737 Si / 1000 Ang^3
#
#
#
# Elastic Constant Matrix: (Units=GPa)
#
#
# Indices 1 2 3 4 5 6 
#
# 1 13.1729 16.2616 6.9325 0.0000 -8.3226 0.0000
# 2 16.2616 104.9017 74.2479 0.0000 -21.3611 0.0000
# 3 6.9325 74.2479 134.4529 0.0000 -7.2839 0.0000
# 4 0.0000 0.0000 0.0000 34.2890 0.0000 -0.7322
# 5 -8.3226 -21.3611 -7.2839 0.0000 32.7651 0.0000
# 6 0.0000 0.0000 0.0000 -0.7322 0.0000 18.2145
#
#
#
# Elastic Compliance Matrix: (Units=1/GPa)
#
#
# Indices 1 2 3 4 5 6 
#
# 1 0.103732 -0.015531 0.004157 0.000000 0.017148 0.000000
# 2 -0.015531 0.020636 -0.010203 0.000000 0.007240 0.000000
# 3 0.004157 -0.010203 0.012707 0.000000 -0.002771 0.000000
# 4 0.000000 0.000000 0.000000 0.029189 0.000000 0.001173
# 5 0.017148 0.007240 -0.002771 0.000000 0.038980 0.000000
# 6 0.000000 0.000000 0.000000 0.001173 0.000000 0.054948
#
#
# Mechanical properties :
#
#
# Convention : Reuss Voigt Hill
#
# Bulk Modulus (GPa) = 10.64705 49.71236 30.17970
# Shear Modulus (GPa) = 14.94083 27.39277 21.16680
#
# Velocity S-wave (km/s) = 2.81053 3.80556 3.34525
# Velocity P-wave (km/s) = 4.02008 6.75220 5.55667
#
# Compressibility (1/GPa) = 0.09392274
#
# Stress axis : x y z
#
# Youngs Moduli (GPa) = 9.64019 48.45939 78.69553
#
# Poissons Ratio (x) = 0.75261 -0.32713
# Poissons Ratio (y) = 0.14972 0.80290
# Poissons Ratio (z) = -0.04007 0.49441
#
# Static dielectric constant tensor:
#      x y z
#    x 1.671440 0.000000 0.014170 
#    y 0.000000 1.674550 0.000000 
#    z 0.014170 0.000000 1.676850 
# 
# From -- ./inp_files/48753.got.cif
#   From: 2010.05.17/outbox.cif.g08.bks.cpg/sg11_25_cif.got.tgz:48753.got - 2010.06.03 12:22:45.
