data_PCOD9160602
_publ_section_title
;
Structure prediction by ZEFSAII (Michael W. Deem and Ramdas Pophale) SiO2 
 PCOD9160602
Probable space group: P 21/M
;
_chemical_formula_sum "Si O2"
_cell_formula_units_Z 32
_cell_length_a 21.845890
_cell_length_b 14.192468
_cell_length_c 17.701150
_cell_angle_alpha 90.000000
_cell_angle_beta 16.628687
_cell_angle_gamma 90.000000
_cell_volume 1570.545200
_symmetry_space_group_name_H-M "P 21/M"
_symmetry_group_IT_number 11
_symmetry_cell_setting 'monoclinic'
loop_
_space_group_symop_operation_xyz
x,y,z
-x,1/2+y,-z
-x,-y,-z
x,1/2-y,z
loop_
_atom_site_type_symbol
_atom_site_label
_atom_site_fract_x
_atom_site_fract_y
_atom_site_fract_z
Si Si1 0.298571 0.480971 0.185703
Si Si2 0.840140 0.358810 0.318575
Si Si3 0.336559 0.948413 0.614710
Si Si4 0.900272 0.140240 0.675175
Si Si5 0.816115 0.942614 0.976660
Si Si6 0.374505 0.360283 0.945720
Si Si7 0.785546 0.353048 0.976189
Si Si8 0.463465 0.146633 0.488815
O O1 0.199300 0.580117 0.275137
O O2 0.354842 0.423341 0.043199
O O3 0.118040 0.415594 0.437695
O O4 0.500000 0.500000 0.000000
O O5 0.859660 0.250000 0.273842
O O6 0.820320 0.418567 0.265640
O O7 0.025592 0.387870 0.156189
O O8 0.613572 0.369589 0.629866
O O9 0.350664 0.880242 0.670480
O O10 0.310942 0.056404 0.670231
O O11 0.577959 0.941924 0.294443
O O12 0.936190 0.250000 0.614380
O O13 0.755714 0.136827 0.921652
O O14 0.785940 0.896481 0.929931
O O15 0.893256 0.050630 0.876566
O O16 0.335091 0.250000 0.008040
O O17 0.891710 0.250000 0.862624
O O18 0.568995 0.350234 0.281163
O O19 0.376110 0.250000 0.610453
#
# Coordination Sequence:
#
# PCOD9160602 Si02
#       8
#     4   4   4   4   4   4   4   4
#     4  11  24  39  63  91 118 153 196 245 301 356
#     4  10  21  34  56  85 114 150 190 236 289 343
#     4   9  19  35  55  84 116 151 189 241 285 335
#     4  10  22  41  62  88 121 157 197 243 296 354
#     4  10  19  36  60  82 113 151 193 235 287 342
#     4  10  21  37  56  83 116 147 188 236 286 347
#     4   9  18  35  59  83 111 153 194 230 280 341
#     4   9  17  33  58  83 115 156 192 232 287 339
#
# _framework density 20.375088999999999
#
# number of rings (size 3 to 8) (size 9 to 14) (size 15 to 20)
#    0.000    2.250    1.250    1.125    1.750    2.500 
#    0.000    7.500    0.000    3.750    0.000    0.000 
#    0.000    0.000    0.000    0.000    0.000    0.000 
#
# Total GULP energy -178550.050666 kJ/mol
# GULP energy per Si atom -5579.689083 kJ/mol
# Density = 2.032871 g / cm^3
# Si number density = 20.375089 Si / 1000 Ang^3
#
#
#
# Elastic Constant Matrix: (Units=GPa)
#
#
# Indices 1 2 3 4 5 6 
#
# 1 122.1668 44.6896 47.0204 0.0000 -15.6786 0.0000
# 2 44.6896 128.1717 30.8256 0.0000 -7.4912 0.0000
# 3 47.0204 30.8256 54.9685 0.0000 -12.4622 0.0000
# 4 0.0000 0.0000 0.0000 12.1298 0.0000 -0.3624
# 5 -15.6786 -7.4912 -12.4622 0.0000 35.5229 0.0000
# 6 0.0000 0.0000 0.0000 -0.3624 0.0000 21.5783
#
#
#
# Elastic Compliance Matrix: (Units=1/GPa)
#
#
# Indices 1 2 3 4 5 6 
#
# 1 0.012792 -0.002105 -0.009324 0.000000 0.001931 0.000000
# 2 -0.002105 0.009365 -0.003492 0.000000 -0.000179 0.000000
# 3 -0.009324 -0.003492 0.029362 0.000000 0.005449 0.000000
# 4 0.000000 0.000000 0.000000 0.082483 0.000000 0.001385
# 5 0.001931 -0.000179 0.005449 0.000000 0.030877 0.000000
# 6 0.000000 0.000000 0.000000 0.001385 0.000000 0.046366
#
#
# Mechanical properties :
#
#
# Convention : Reuss Voigt Hill
#
# Bulk Modulus (GPa) = 46.13188 61.15313 53.64251
# Shear Modulus (GPa) = 20.13585 26.03097 23.08341
#
# Velocity S-wave (km/s) = 3.14707 3.57821 3.36954
# Velocity P-wave (km/s) = 5.99131 6.86661 6.44384
#
# Compressibility (1/GPa) = 0.02167698
#
# Stress axis : x y z
#
# Youngs Moduli (GPa) = 78.17327 106.77706 34.05771
#
# Poissons Ratio (x) = 0.22475 0.31756
# Poissons Ratio (y) = 0.16454 0.11893
# Poissons Ratio (z) = 0.72891 0.37287
#
# Static dielectric constant tensor:
#      x y z
#    x 1.707210 0.000000 0.049680 
#    y 0.000000 1.751720 0.000000 
#    z 0.049680 0.000000 1.752470 
# 
# From -- ./inp_files/61603.got.cif
#   From: 2010.05.17/outbox.cif.g08.bks.cpg/sg11_31_cif.got.tgz:61603.got - 2010.06.03 12:22:45.
