data_PCOD9160044
_publ_section_title
;
Structure prediction by ZEFSAII (Michael W. Deem and Ramdas Pophale) SiO2 
 PCOD9160044
Probable space group: P 21/M
;
_chemical_formula_sum "Si O2"
_cell_formula_units_Z 32
_cell_length_a 13.140639
_cell_length_b 8.091023
_cell_length_c 14.428832
_cell_angle_alpha 90.000000
_cell_angle_beta 85.354866
_cell_angle_gamma 90.000000
_cell_volume 1529.052027
_symmetry_space_group_name_H-M "P 21/M"
_symmetry_group_IT_number 11
_symmetry_cell_setting 'monoclinic'
loop_
_space_group_symop_operation_xyz
x,y,z
-x,1/2+y,-z
-x,-y,-z
x,1/2-y,z
loop_
_atom_site_type_symbol
_atom_site_label
_atom_site_fract_x
_atom_site_fract_y
_atom_site_fract_z
Si Si1 0.958316 0.949379 0.602272
Si Si2 0.391671 0.051588 0.773943
Si Si3 0.189206 0.940100 0.115599
Si Si4 0.800941 0.556140 0.092421
Si Si5 0.978708 0.057509 0.207996
Si Si6 0.728820 0.951491 0.597837
Si Si7 0.386003 0.052114 0.211796
Si Si8 0.602052 0.949586 0.437893
O O1 0.956884 0.750000 0.608118
O O2 0.841373 0.008316 0.616650
O O3 0.022191 0.007672 0.686379
O O4 0.000000 0.000000 0.500000
O O5 0.383025 0.250000 0.769261
O O6 0.294971 0.993117 0.840224
O O7 0.392514 0.987094 0.667701
O O8 0.499672 0.009406 0.812588
O O9 0.170200 0.750000 0.140666
O O10 0.298441 0.992412 0.148687
O O11 0.095706 0.042767 0.165565
O O12 0.189086 0.964376 0.005480
O O13 0.784948 0.750000 0.072813
O O14 0.902812 0.536069 0.145565
O O15 0.948915 0.250000 0.208820
O O16 0.729451 0.750000 0.598117
O O17 0.649444 0.004468 0.682739
O O18 0.693860 0.004912 0.498504
O O19 0.386605 0.250000 0.210437
O O20 0.603884 0.750000 0.433835
O O21 0.500000 0.000000 0.500000
#
# Coordination Sequence:
#
# PCOD9160044 Si02
#       8
#     4   4   4   4   4   4   4   4
#     4  10  22  39  60  89 126 163 203 249 305 365
#     4  10  23  40  60  91 128 164 209 259 308 367
#     4  12  25  43  68  95 122 157 207 263 318 379
#     4  11  25  44  65  91 125 166 209 259 319 375
#     4  11  23  43  67  94 128 165 209 259 311 372
#     4   9  18  35  58  84 119 161 200 245 302 360
#     4  11  21  39  66  92 124 165 208 255 312 371
#     4  10  19  34  57  86 118 157 200 244 293 354
#
# _framework density 20.928000999999998
#
# number of rings (size 3 to 8) (size 9 to 14) (size 15 to 20)
#    0.000    1.500    2.500    2.625    1.750    2.500 
#    0.000    0.625    0.000    0.000    0.000    0.000 
#    0.000    0.000    0.000    0.000    0.000    0.000 
#
# Total GULP energy -178856.716446 kJ/mol
# GULP energy per Si atom -5589.272389 kJ/mol
# Density = 2.088037 g / cm^3
# Si number density = 20.928001 Si / 1000 Ang^3
#
#
#
# Elastic Constant Matrix: (Units=GPa)
#
#
# Indices 1 2 3 4 5 6 
#
# 1 77.0797 -10.0531 30.9488 0.0000 17.5132 0.0000
# 2 -10.0531 21.4042 -5.3032 0.0000 -3.4106 0.0000
# 3 30.9488 -5.3032 112.3514 0.0000 11.3909 0.0000
# 4 0.0000 0.0000 0.0000 18.1027 0.0000 -5.5606
# 5 17.5132 -3.4106 11.3909 0.0000 31.2467 0.0000
# 6 0.0000 0.0000 0.0000 -5.5606 0.0000 23.2326
#
#
#
# Elastic Compliance Matrix: (Units=1/GPa)
#
#
# Indices 1 2 3 4 5 6 
#
# 1 0.016895 0.005842 -0.003616 0.000000 -0.007513 0.000000
# 2 0.005842 0.049914 0.000547 0.000000 0.001975 0.000000
# 3 -0.003616 0.000547 0.010084 0.000000 -0.001589 0.000000
# 4 0.000000 0.000000 0.000000 0.059624 0.000000 0.014271
# 5 -0.007513 0.001975 -0.001589 0.000000 0.037009 0.000000
# 6 0.000000 0.000000 0.000000 0.014271 0.000000 0.046459
#
#
# Mechanical properties :
#
#
# Convention : Reuss Voigt Hill
#
# Bulk Modulus (GPa) = 12.13060 26.89115 19.51088
# Shear Modulus (GPa) = 20.66811 27.53257 24.10034
#
# Velocity S-wave (km/s) = 3.14599 3.63103 3.39718
# Velocity P-wave (km/s) = 4.35950 5.51874 4.97301
#
# Compressibility (1/GPa) = 0.08243616
#
# Stress axis : x y z
#
# Youngs Moduli (GPa) = 59.19053 20.03458 99.16922
#
# Poissons Ratio (x) = -0.11704 0.35863
# Poissons Ratio (y) = -0.34578 -0.05421
# Poissons Ratio (z) = 0.21406 -0.01095
#
# Static dielectric constant tensor:
#      x y z
#    x 1.737130 0.000000 0.002810 
#    y 0.000000 1.734020 0.000000 
#    z 0.002810 0.000000 1.748430 
# 
# From -- ./inp_files/49372.got.cif
#   From: 2010.05.17/outbox.cif.g08.bks.cpg/sg11_25_cif.got.tgz:49372.got - 2010.06.03 12:22:45.
