data_PCOD9160509
_publ_section_title
;
Structure prediction by ZEFSAII (Michael W. Deem and Ramdas Pophale) SiO2 
 PCOD9160509
Probable space group: P 21/M
;
_chemical_formula_sum "Si O2"
_cell_formula_units_Z 32
_cell_length_a 30.979435
_cell_length_b 9.298506
_cell_length_c 13.045585
_cell_angle_alpha 90.000000
_cell_angle_beta 24.541338
_cell_angle_gamma 90.000000
_cell_volume 1560.860477
_symmetry_space_group_name_H-M "P 21/M"
_symmetry_group_IT_number 11
_symmetry_cell_setting 'monoclinic'
loop_
_space_group_symop_operation_xyz
x,y,z
-x,1/2+y,-z
-x,-y,-z
x,1/2-y,z
loop_
_atom_site_type_symbol
_atom_site_label
_atom_site_fract_x
_atom_site_fract_y
_atom_site_fract_z
Si Si1 0.570582 0.917185 0.699990
Si Si2 0.662881 0.422097 0.321812
Si Si3 0.011468 0.421084 0.083381
Si Si4 0.776214 0.422557 0.636158
Si Si5 0.057090 0.412993 0.463941
Si Si6 0.269372 0.576019 0.046964
Si Si7 0.137900 0.912303 0.967150
Si Si8 0.655009 0.418854 0.706368
O O1 0.598249 0.750000 0.631279
O O2 0.580878 0.994158 0.568551
O O3 0.643862 0.997348 0.624200
O O4 0.455502 0.927678 0.995818
O O5 0.647523 0.250000 0.360965
O O6 0.665513 0.462980 0.195715
O O7 0.773253 0.452904 0.141834
O O8 0.021322 0.250000 0.049519
O O9 0.899301 0.448664 0.380519
O O10 0.108621 0.483298 0.937308
O O11 0.000000 0.500000 0.000000
O O12 0.763415 0.250000 0.656614
O O13 0.708945 0.466547 0.881401
O O14 0.736342 0.479435 0.613275
O O15 0.084434 0.250000 0.374436
O O16 0.158894 0.502047 0.268920
O O17 0.000000 0.500000 0.500000
O O18 0.971160 0.404768 0.737579
O O19 0.260276 0.750000 0.064271
O O20 0.162168 0.750000 0.878351
O O21 0.673587 0.250000 0.645318
#
# Coordination Sequence:
#
# PCOD9160509 Si02
#       8
#     4   4   4   4   4   4   4   4
#     4  10  21  37  59  87 113 137 180 236 282 331
#     4  10  21  36  56  80 113 150 184 227 277 335
#     4  11  23  37  54  79 113 149 188 232 274 326
#     4   9  19  36  60  82 106 148 190 222 269 336
#     4  11  20  32  51  75 106 143 186 228 267 313
#     4  10  19  36  56  80 110 146 192 227 270 333
#     4  10  21  36  52  75 108 149 189 224 271 324
#     4   9  19  39  63  84 109 144 182 226 282 338
#
# _framework density 20.501511000000001
#
# number of rings (size 3 to 8) (size 9 to 14) (size 15 to 20)
#    0.000    2.000    2.500    1.125    1.750    2.000 
#    0.000    1.875    0.000    0.000    0.000    0.000 
#    0.000    0.000    0.000    0.000    0.000    0.000 
#
# Total GULP energy -178452.348130 kJ/mol
# GULP energy per Si atom -5576.635879 kJ/mol
# Density = 2.045485 g / cm^3
# Si number density = 20.501511 Si / 1000 Ang^3
#
#
#
# Elastic Constant Matrix: (Units=GPa)
#
#
# Indices 1 2 3 4 5 6 
#
# 1 62.7137 21.1556 13.4509 0.0000 21.1979 0.0000
# 2 21.1556 25.6140 18.1257 0.0000 16.2889 0.0000
# 3 13.4509 18.1257 72.5112 0.0000 35.0943 0.0000
# 4 0.0000 0.0000 0.0000 23.3056 0.0000 6.4672
# 5 21.1979 16.2889 35.0943 0.0000 40.3539 0.0000
# 6 0.0000 0.0000 0.0000 6.4672 0.0000 19.6631
#
#
#
# Elastic Compliance Matrix: (Units=1/GPa)
#
#
# Indices 1 2 3 4 5 6 
#
# 1 0.023903 -0.016736 0.004415 0.000000 -0.009641 0.000000
# 2 -0.016736 0.065293 -0.008144 0.000000 -0.010482 0.000000
# 3 0.004415 -0.008144 0.025107 0.000000 -0.020867 0.000000
# 4 0.000000 0.000000 0.000000 0.047218 0.000000 -0.015530
# 5 -0.009641 -0.010482 -0.020867 0.000000 0.052223 0.000000
# 6 0.000000 0.000000 0.000000 -0.015530 0.000000 0.055965
#
#
# Mechanical properties :
#
#
# Convention : Reuss Voigt Hill
#
# Bulk Modulus (GPa) = 13.62893 29.58925 21.60909
# Shear Modulus (GPa) = 14.92122 23.87163 19.39642
#
# Velocity S-wave (km/s) = 2.70072 3.41601 3.07921
# Velocity P-wave (km/s) = 4.04814 5.47931 4.81717
#
# Compressibility (1/GPa) = 0.07337332
#
# Stress axis : x y z
#
# Youngs Moduli (GPa) = 41.83626 15.31569 39.82993
#
# Poissons Ratio (x) = 0.25632 -0.17587
# Poissons Ratio (y) = 0.70017 0.32437
# Poissons Ratio (z) = -0.18472 0.12473
#
# Static dielectric constant tensor:
#      x y z
#    x 1.745050 0.000000 0.017320 
#    y 0.000000 1.703280 0.000000 
#    z 0.017320 0.000000 1.778400 
# 
# From -- ./inp_files/45189.got.cif
#   From: 2010.05.17/outbox.cif.g08.bks.cpg/sg11_23_cif.got.tgz:45189.got - 2010.06.03 12:22:45.
