data_PCOD9160462
_publ_section_title
;
Structure prediction by ZEFSAII (Michael W. Deem and Ramdas Pophale) SiO2 
 PCOD9160462
Probable space group: P 21/M
;
_chemical_formula_sum "Si O2"
_cell_formula_units_Z 20
_cell_length_a 7.167186
_cell_length_b 19.410715
_cell_length_c 7.113321
_cell_angle_alpha 90.000000
_cell_angle_beta 119.683260
_cell_angle_gamma 90.000000
_cell_volume 859.746760
_symmetry_space_group_name_H-M "P 21/M"
_symmetry_group_IT_number 11
_symmetry_cell_setting 'monoclinic'
loop_
_space_group_symop_operation_xyz
x,y,z
-x,1/2+y,-z
-x,-y,-z
x,1/2-y,z
loop_
_atom_site_type_symbol
_atom_site_label
_atom_site_fract_x
_atom_site_fract_y
_atom_site_fract_z
Si Si1 0.333711 0.026442 0.760474
Si Si2 0.991084 0.829015 0.039600
Si Si3 0.873294 0.436152 0.622990
Si Si4 0.890535 0.172749 0.303145
Si Si5 0.583873 0.673930 0.110204
O O1 0.383883 0.106511 0.748943
O O2 0.096356 0.021442 0.738123
O O3 0.312214 0.983292 0.557725
O O4 0.500000 0.000000 0.000000
O O5 0.076691 0.750000 0.101526
O O6 0.768725 0.831321 0.042917
O O7 0.140711 0.889436 0.198502
O O8 0.962789 0.840943 0.804516
O O9 0.911592 0.379442 0.480691
O O10 0.929537 0.250000 0.392208
O O11 0.648080 0.169556 0.102624
O O12 0.600712 0.750000 0.207284
#
# Coordination Sequence:
#
# PCOD9160462 Si02
#       5
#     4   4   4   4   4
#     4  10  19  36  59  85 120 152 196 244 289 353
#     4   9  19  36  58  88 120 152 199 245 285 347
#     4  10  20  35  61  84 117 163 190 240 303 340
#     4  10  19  35  61  88 117 155 199 242 287 347
#     4   9  18  35  59  80 113 155 186 241 297 332
#
# _framework density 23.262664000000001
#
# number of rings (size 3 to 8) (size 9 to 14) (size 15 to 20)
#    0.000    2.400    2.000    0.600    0.000    0.800 
#    0.000   14.000    0.000   16.800    0.000    0.000 
#    0.000    0.000    0.000    0.000    0.000    0.000 
#
# Total GULP energy -111708.475859 kJ/mol
# GULP energy per Si atom -5585.423793 kJ/mol
# Density = 2.320972 g / cm^3
# Si number density = 23.262664 Si / 1000 Ang^3
#
#
#
# Elastic Constant Matrix: (Units=GPa)
#
#
# Indices 1 2 3 4 5 6 
#
# 1 64.1133 6.7230 11.1266 0.0000 0.1691 0.0000
# 2 6.7230 106.4530 34.8391 0.0000 -12.4362 0.0000
# 3 11.1266 34.8391 89.6362 0.0000 21.6063 0.0000
# 4 0.0000 0.0000 0.0000 37.1627 0.0000 5.5601
# 5 0.1691 -12.4362 21.6063 0.0000 31.1142 0.0000
# 6 0.0000 0.0000 0.0000 5.5601 0.0000 4.2053
#
#
#
# Elastic Compliance Matrix: (Units=1/GPa)
#
#
# Indices 1 2 3 4 5 6 
#
# 1 0.016003 -0.000079 -0.002314 0.000000 0.001489 0.000000
# 2 -0.000079 0.013131 -0.007637 0.000000 0.010553 0.000000
# 3 -0.002314 -0.007637 0.018189 0.000000 -0.015671 0.000000
# 4 0.000000 0.000000 0.000000 0.033544 0.000000 -0.044351
# 5 0.001489 0.010553 -0.015671 0.000000 0.047232 0.000000
# 6 0.000000 0.000000 0.000000 -0.044351 0.000000 0.296436
#
#
# Mechanical properties :
#
#
# Convention : Reuss Voigt Hill
#
# Bulk Modulus (GPa) = 36.68186 40.61997 38.65092
# Shear Modulus (GPa) = 11.02084 28.33069 19.67577
#
# Velocity S-wave (km/s) = 2.17896 3.49357 2.91143
# Velocity P-wave (km/s) = 4.70460 5.81143 5.28706
#
# Compressibility (1/GPa) = 0.02726143
#
# Stress axis : x y z
#
# Youngs Moduli (GPa) = 62.48655 76.15482 54.97691
#
# Poissons Ratio (x) = 0.00604 0.12724
# Poissons Ratio (y) = 0.00496 0.41989
# Poissons Ratio (z) = 0.14462 0.58163
#
# Static dielectric constant tensor:
#      x y z
#    x 1.892700 0.000000 0.047910 
#    y 0.000000 1.953390 0.000000 
#    z 0.047910 0.000000 1.877600 
# 
# From -- ./inp_files/13625.got.cif
#   From: 2010.05.17/outbox.cif.g08.bks.cpg/sg11_7_cif.got.tgz:13625.got - 2010.06.03 12:22:45.
