data_PCOD9160737
_publ_section_title
;
Structure prediction by ZEFSAII (Michael W. Deem and Ramdas Pophale) SiO2 
 PCOD9160737
Probable space group: P 21/M
;
_chemical_formula_sum "Si O2"
_cell_formula_units_Z 32
_cell_length_a 15.095660
_cell_length_b 21.157141
_cell_length_c 16.369958
_cell_angle_alpha 90.000000
_cell_angle_beta 162.418420
_cell_angle_gamma 90.000000
_cell_volume 1579.264259
_symmetry_space_group_name_H-M "P 21/M"
_symmetry_group_IT_number 11
_symmetry_cell_setting 'monoclinic'
loop_
_space_group_symop_operation_xyz
x,y,z
-x,1/2+y,-z
-x,-y,-z
x,1/2-y,z
loop_
_atom_site_type_symbol
_atom_site_label
_atom_site_fract_x
_atom_site_fract_y
_atom_site_fract_z
Si Si1 0.303505 0.854107 0.435077
Si Si2 0.413396 0.647914 0.719256
Si Si3 0.958707 0.678258 0.978889
Si Si4 0.684041 0.557846 0.196353
Si Si5 0.243029 0.511492 0.589333
Si Si6 0.152052 0.498687 0.324571
Si Si7 0.757182 0.819373 0.174017
Si Si8 0.206593 0.950920 0.130958
O O1 0.367091 0.833747 0.584281
O O2 0.062272 0.822471 0.165038
O O3 0.203345 0.927224 0.350772
O O4 0.619593 0.841851 0.672603
O O5 0.455113 0.571364 0.759327
O O6 0.105857 0.670363 0.488046
O O7 0.668796 0.674168 0.000864
O O8 0.000846 0.750000 0.985408
O O9 0.135386 0.620845 0.092446
O O10 0.663322 0.548512 0.275075
O O11 0.597936 0.625126 0.083948
O O12 0.000771 0.543724 0.435047
O O13 0.500000 0.500000 0.000000
O O14 0.120730 0.492829 0.394132
O O15 0.452077 0.465717 0.558249
O O16 0.882747 0.468483 0.039887
O O17 0.676436 0.750000 0.131664
O O18 0.000000 0.000000 0.000000
#
# Coordination Sequence:
#
# PCOD9160737 Si02
#       8
#     4   4   4   4   4   4   4   4
#     4  11  21  37  57  84 116 150 190 234 283 352
#     4  10  21  35  54  81 117 150 184 225 280 345
#     4  12  25  38  56  83 115 155 194 232 292 348
#     4  10  19  37  60  81 120 149 190 234 288 342
#     4   9  21  35  58  92 113 148 188 242 290 338
#     4  11  22  37  64  90 115 147 199 246 288 340
#     4  11  22  35  53  80 113 155 191 224 276 343
#     4  12  22  40  62  84 116 153 195 244 285 334
#
# _framework density 20.262599999999999
#
# number of rings (size 3 to 8) (size 9 to 14) (size 15 to 20)
#    0.000    1.250    3.750    2.625    1.750    5.000 
#    0.000    0.000    0.000    1.500    0.000    0.000 
#    0.000    0.000    0.000    0.000    0.000    0.000 
#
# Total GULP energy -178658.406553 kJ/mol
# GULP energy per Si atom -5583.075205 kJ/mol
# Density = 2.021648 g / cm^3
# Si number density = 20.262600 Si / 1000 Ang^3
#
#
#
# Elastic Constant Matrix: (Units=GPa)
#
#
# Indices 1 2 3 4 5 6 
#
# 1 46.1637 31.7398 0.7389 0.0000 -24.6130 0.0000
# 2 31.7398 144.5985 12.9665 0.0000 -18.4186 0.0000
# 3 0.7389 12.9665 74.2853 0.0000 -6.5244 0.0000
# 4 0.0000 0.0000 0.0000 6.6670 0.0000 4.8583
# 5 -24.6130 -18.4186 -6.5244 0.0000 32.0787 0.0000
# 6 0.0000 0.0000 0.0000 4.8583 0.0000 11.1333
#
#
#
# Elastic Compliance Matrix: (Units=1/GPa)
#
#
# Indices 1 2 3 4 5 6 
#
# 1 0.040732 -0.005564 0.003085 0.000000 0.028685 0.000000
# 2 -0.005564 0.008287 -0.001373 0.000000 0.000210 0.000000
# 3 0.003085 -0.001373 0.014060 0.000000 0.004439 0.000000
# 4 0.000000 0.000000 0.000000 0.219925 0.000000 -0.095969
# 5 0.028685 0.000210 0.004439 0.000000 0.054206 0.000000
# 6 0.000000 0.000000 0.000000 -0.095969 0.000000 0.131699
#
#
# Mechanical properties :
#
#
# Convention : Reuss Voigt Hill
#
# Bulk Modulus (GPa) = 18.05792 39.54867 28.80329
# Shear Modulus (GPa) = 10.09959 24.61597 17.35778
#
# Velocity S-wave (km/s) = 2.23499 3.48925 2.93002
# Velocity P-wave (km/s) = 3.94861 5.98277 5.06878
#
# Compressibility (1/GPa) = 0.05537737
#
# Stress axis : x y z
#
# Youngs Moduli (GPa) = 24.55073 120.67425 71.12186
#
# Poissons Ratio (x) = 0.67138 -0.21944
# Poissons Ratio (y) = 0.13659 0.09763
# Poissons Ratio (z) = -0.07575 0.16565
#
# Static dielectric constant tensor:
#      x y z
#    x 1.814780 0.000000 0.047400 
#    y 0.000000 1.733860 0.000000 
#    z 0.047400 0.000000 1.857180 
# 
# From -- ./inp_files/52729.got.cif
#   From: 2010.05.17/outbox.cif.g08.bks.cpg/sg11_27_cif.got.tgz:52729.got - 2010.06.03 12:22:45.
