data_PCOD9160606
_publ_section_title
;
Structure prediction by ZEFSAII (Michael W. Deem and Ramdas Pophale) SiO2 
 PCOD9160606
Probable space group: P 21/M
;
_chemical_formula_sum "Si O2"
_cell_formula_units_Z 32
_cell_length_a 9.401922
_cell_length_b 14.196889
_cell_length_c 15.131019
_cell_angle_alpha 90.000000
_cell_angle_beta 122.452456
_cell_angle_gamma 90.000000
_cell_volume 1704.262840
_symmetry_space_group_name_H-M "P 21/M"
_symmetry_group_IT_number 11
_symmetry_cell_setting 'monoclinic'
loop_
_space_group_symop_operation_xyz
x,y,z
-x,1/2+y,-z
-x,-y,-z
x,1/2-y,z
loop_
_atom_site_type_symbol
_atom_site_label
_atom_site_fract_x
_atom_site_fract_y
_atom_site_fract_z
Si Si1 0.792889 0.022469 0.334913
Si Si2 0.509933 0.364283 0.342354
Si Si3 0.095186 0.018330 0.811252
Si Si4 0.967031 0.902829 0.038199
Si Si5 0.797558 0.359675 0.731396
Si Si6 0.124235 0.364111 0.499194
Si Si7 0.877920 0.852596 0.820494
Si Si8 0.528662 0.863728 0.471927
O O1 0.633128 0.075847 0.322390
O O2 0.781002 0.001995 0.226750
O O3 0.952043 0.092031 0.404524
O O4 0.831537 0.924232 0.398225
O O5 0.536222 0.250000 0.342068
O O6 0.313986 0.383721 0.257234
O O7 0.535270 0.392754 0.453148
O O8 0.009536 0.924142 0.821283
O O9 0.153769 0.077196 0.917639
O O10 0.935150 0.079838 0.723798
O O11 0.136915 0.870906 0.145839
O O12 0.905203 0.844535 0.934927
O O13 0.000000 0.000000 0.000000
O O14 0.811930 0.250000 0.712855
O O15 0.609082 0.391918 0.647195
O O16 0.115206 0.250000 0.508064
O O17 0.279942 0.388563 0.486017
O O18 0.896815 0.750000 0.784490
O O19 0.529996 0.750000 0.473494
#
# Coordination Sequence:
#
# PCOD9160606 Si02
#       8
#     4   4   4   4   4   4   4   4
#     4  11  23  36  53  78 111 153 182 220 280 320
#     4  10  22  36  57  83 110 144 187 228 267 326
#     4   9  21  35  52  83 108 143 179 222 274 330
#     4   8  17  33  55  81 110 133 182 230 268 322
#     4   9  18  32  57  82 108 139 176 227 274 320
#     4  10  23  38  53  77 112 150 189 224 266 330
#     4  10  19  36  60  83 108 144 186 231 275 317
#     4   9  19  36  56  81 108 141 180 227 272 312
#
# _framework density 18.776444999999999
#
# number of rings (size 3 to 8) (size 9 to 14) (size 15 to 20)
#    0.750    1.750    0.000    1.500    5.250    3.000 
#    0.000    0.625    0.000    0.000    0.000    7.000 
#    0.000    0.000    0.000    0.000    0.000    0.000 
#
# Total GULP energy -178134.878425 kJ/mol
# GULP energy per Si atom -5566.714951 kJ/mol
# Density = 1.873371 g / cm^3
# Si number density = 18.776445 Si / 1000 Ang^3
#
#
#
# Elastic Constant Matrix: (Units=GPa)
#
#
# Indices 1 2 3 4 5 6 
#
# 1 58.9316 13.6173 10.0996 0.0000 -19.7003 0.0000
# 2 13.6173 80.9239 -2.0853 0.0000 -6.1689 0.0000
# 3 10.0996 -2.0853 62.9674 0.0000 -9.2335 0.0000
# 4 0.0000 0.0000 0.0000 28.9967 0.0000 2.5971
# 5 -19.7003 -6.1689 -9.2335 0.0000 29.9270 0.0000
# 6 0.0000 0.0000 0.0000 2.5971 0.0000 27.6788
#
#
#
# Elastic Compliance Matrix: (Units=1/GPa)
#
#
# Indices 1 2 3 4 5 6 
#
# 1 0.022483 -0.002782 -0.001688 0.000000 0.013705 0.000000
# 2 -0.002782 0.012941 0.001045 0.000000 0.001158 0.000000
# 3 -0.001688 0.001045 0.016816 0.000000 0.004292 0.000000
# 4 0.000000 0.000000 0.000000 0.034779 0.000000 -0.003263
# 5 0.013705 0.001158 0.004292 0.000000 0.044000 0.000000
# 6 0.000000 0.000000 0.000000 -0.003263 0.000000 0.036435
#
#
# Mechanical properties :
#
#
# Convention : Reuss Voigt Hill
#
# Bulk Modulus (GPa) = 22.03234 27.34289 24.68761
# Shear Modulus (GPa) = 26.39444 29.39992 27.89718
#
# Velocity S-wave (km/s) = 3.75336 3.96130 3.85873
# Velocity P-wave (km/s) = 5.52658 5.95957 5.74715
#
# Compressibility (1/GPa) = 0.04538782
#
# Stress axis : x y z
#
# Youngs Moduli (GPa) = 44.47875 77.27591 59.46696
#
# Poissons Ratio (x) = 0.21498 0.10041
# Poissons Ratio (y) = 0.12374 -0.06212
# Poissons Ratio (z) = 0.07510 -0.08073
#
# Static dielectric constant tensor:
#      x y z
#    x 1.620800 0.000000 -0.013930 
#    y 0.000000 1.707570 0.000000 
#    z -0.013930 0.000000 1.673060 
# 
# From -- ./inp_files/47646.got.cif
#   From: 2010.05.17/outbox.cif.g08.bks.cpg/sg11_24_cif.got.tgz:47646.got - 2010.06.03 12:22:45.
