data_PCOD9160039
_publ_section_title
;
Structure prediction by ZEFSAII (Michael W. Deem and Ramdas Pophale) SiO2 
 PCOD9160039
Probable space group: P 21/M
;
_chemical_formula_sum "Si O2"
_cell_formula_units_Z 28
_cell_length_a 28.310016
_cell_length_b 8.838479
_cell_length_c 9.767205
_cell_angle_alpha 90.000000
_cell_angle_beta 40.580498
_cell_angle_gamma 90.000000
_cell_volume 1589.811974
_symmetry_space_group_name_H-M "P 21/M"
_symmetry_group_IT_number 11
_symmetry_cell_setting 'monoclinic'
loop_
_space_group_symop_operation_xyz
x,y,z
-x,1/2+y,-z
-x,-y,-z
x,1/2-y,z
loop_
_atom_site_type_symbol
_atom_site_label
_atom_site_fract_x
_atom_site_fract_y
_atom_site_fract_z
Si Si1 0.007984 0.932642 0.330260
Si Si2 0.446294 0.072546 0.809616
Si Si3 0.854212 0.567921 0.136690
Si Si4 0.297107 0.568857 0.625576
Si Si5 0.931603 0.568342 0.231267
Si Si6 0.399929 0.427998 0.603279
Si Si7 0.577969 0.429949 0.865106
O O1 0.011234 0.750000 0.331832
O O2 0.942830 0.975262 0.365916
O O3 0.000000 0.000000 0.500000
O O4 0.080667 0.995375 0.096271
O O5 0.453461 0.250000 0.824947
O O6 0.407354 0.055119 0.749825
O O7 0.526893 0.003037 0.617849
O O8 0.404981 0.988718 0.021180
O O9 0.857810 0.750000 0.116195
O O10 0.778321 0.506179 0.249229
O O11 0.865957 0.527775 0.272676
O O12 0.290086 0.750000 0.643542
O O13 0.329933 0.508048 0.695090
O O14 0.359213 0.526216 0.378507
O O15 0.936553 0.750000 0.218394
O O16 0.000000 0.500000 0.000000
O O17 0.399660 0.250000 0.570478
O O18 0.571248 0.250000 0.877758
O O19 0.500000 0.500000 0.000000
#
# Coordination Sequence:
#
# PCOD9160039 Si02
#       7
#     4   4   4   4   4   4   4
#     4  10  19  34  57  86 116 146 182 223 264 314
#     4  10  20  34  53  78 104 133 177 228 277 329
#     4  10  20  36  57  81 109 144 183 223 273 329
#     4  11  23  37  54  79 110 143 181 228 279 331
#     4   8  16  31  53  79 107 140 178 218 259 310
#     4  10  20  34  54  77 103 140 180 222 274 330
#     4  11  22  35  54  78 105 139 183 231 277 326
#
# _framework density 17.612145999999999
#
# number of rings (size 3 to 8) (size 9 to 14) (size 15 to 20)
#    0.000    2.000    1.429    2.571    0.000    4.571 
#    0.000    1.429    0.000    5.143    0.000    0.000 
#    0.000    0.000    0.000    0.000    0.000    0.000 
#
# Total GULP energy -156131.530493 kJ/mol
# GULP energy per Si atom -5576.126089 kJ/mol
# Density = 1.757206 g / cm^3
# Si number density = 17.612146 Si / 1000 Ang^3
#
#
#
# Elastic Constant Matrix: (Units=GPa)
#
#
# Indices 1 2 3 4 5 6 
#
# 1 148.4384 50.2683 46.8276 0.0000 0.2993 0.0000
# 2 50.2683 49.7108 33.1123 0.0000 -0.2415 0.0000
# 3 46.8276 33.1123 58.7282 0.0000 7.7712 0.0000
# 4 0.0000 0.0000 0.0000 27.8190 0.0000 2.7008
# 5 0.2993 -0.2415 7.7712 0.0000 28.2164 0.0000
# 6 0.0000 0.0000 0.0000 2.7008 0.0000 29.1800
#
#
#
# Elastic Compliance Matrix: (Units=1/GPa)
#
#
# Indices 1 2 3 4 5 6 
#
# 1 0.010806 -0.008166 -0.004138 0.000000 0.000955 0.000000
# 2 -0.008166 0.039223 -0.016252 0.000000 0.004898 0.000000
# 3 -0.004138 -0.016252 0.030619 0.000000 -0.008528 0.000000
# 4 0.000000 0.000000 0.000000 0.036273 0.000000 -0.003357
# 5 0.000955 0.004898 -0.008528 0.000000 0.037821 0.000000
# 6 0.000000 0.000000 0.000000 -0.003357 0.000000 0.034581
#
#
# Mechanical properties :
#
#
# Convention : Reuss Voigt Hill
#
# Bulk Modulus (GPa) = 42.48889 57.47707 49.98298
# Shear Modulus (GPa) = 19.66342 25.48768 22.57555
#
# Velocity S-wave (km/s) = 3.34499 3.80829 3.58413
# Velocity P-wave (km/s) = 6.25266 7.21410 6.75051
#
# Compressibility (1/GPa) = 0.02353556
#
# Stress axis : x y z
#
# Youngs Moduli (GPa) = 92.54378 25.49540 32.65929
#
# Poissons Ratio (x) = 0.20819 0.13516
# Poissons Ratio (y) = 0.75568 0.53078
# Poissons Ratio (z) = 0.38299 0.41435
#
# Static dielectric constant tensor:
#      x y z
#    x 1.647370 0.000000 0.033110 
#    y 0.000000 1.589680 0.000000 
#    z 0.033110 0.000000 1.579400 
# 
# From -- ./inp_files/28339.got.cif
#   From: 2010.05.17/outbox.cif.g08.bks.cpg/sg11_15_cif.got.tgz:28339.got - 2010.06.03 12:22:45.
