data_PCOD9160909
_publ_section_title
;
Structure prediction by ZEFSAII (Michael W. Deem and Ramdas Pophale) SiO2 
 PCOD9160909
Probable space group: P 21/M
;
_chemical_formula_sum "Si O2"
_cell_formula_units_Z 26
_cell_length_a 9.213477
_cell_length_b 21.568672
_cell_length_c 9.705580
_cell_angle_alpha 90.000000
_cell_angle_beta 136.472698
_cell_angle_gamma 90.000000
_cell_volume 1328.307518
_symmetry_space_group_name_H-M "P 21/M"
_symmetry_group_IT_number 11
_symmetry_cell_setting 'monoclinic'
loop_
_space_group_symop_operation_xyz
x,y,z
-x,1/2+y,-z
-x,-y,-z
x,1/2-y,z
loop_
_atom_site_type_symbol
_atom_site_label
_atom_site_fract_x
_atom_site_fract_y
_atom_site_fract_z
Si Si1 0.056638 0.518573 0.880596
Si Si2 0.615275 0.565800 0.551750
Si Si3 0.362524 0.750000 0.969504
Si Si4 0.430872 0.352321 0.213935
Si Si5 0.798142 0.750000 0.099851
Si Si6 0.224756 0.750000 0.566791
Si Si7 0.634303 0.939036 0.065779
Si Si8 0.422496 0.879072 0.154479
O O1 0.149970 0.461002 0.857415
O O2 0.848541 0.545955 0.668251
O O3 0.234669 0.571495 0.004714
O O4 0.000000 0.500000 0.000000
O O5 0.500000 0.500000 0.500000
O O6 0.630197 0.605775 0.700342
O O7 0.497268 0.608807 0.360744
O O8 0.596047 0.750000 0.062204
O O9 0.347828 0.811658 0.052520
O O10 0.216484 0.750000 0.730080
O O11 0.630584 0.308481 0.376097
O O12 0.240859 0.309533 0.025003
O O13 0.487637 0.398076 0.129397
O O14 0.007318 0.750000 0.334452
O O15 0.621568 0.899455 0.195825
O O16 0.500000 0.000000 0.000000
#
# Coordination Sequence:
#
# PCOD9160909 Si02
#       8
#     4   4   2   4   2   2   4   4
#     4  11  22  40  67  95 132 178 221 275 335 390
#     4  12  24  41  65  98 136 177 216 272 338 400
#     4  10  22  44  63  97 139 167 213 300 322 392
#     4  10  21  42  63  94 136 165 219 275 316 392
#     4  10  22  41  69  95 127 174 229 269 325 398
#     4  10  22  41  72  94 124 181 222 265 339 394
#     4  10  19  39  66  92 129 169 215 277 327 384
#     4  11  23  42  66  97 139 172 219 282 335 396
#
# _framework density 19.573781
#
# number of rings (size 3 to 8) (size 9 to 14) (size 15 to 20)
#    0.000    1.538    6.154    0.923    0.000    5.538 
#    0.000    1.538    0.000    0.000    0.000    0.000 
#    0.000    0.000    0.000    0.000    0.000    0.000 
#
# Total GULP energy -144986.908899 kJ/mol
# GULP energy per Si atom -5576.419573 kJ/mol
# Density = 1.952923 g / cm^3
# Si number density = 19.573781 Si / 1000 Ang^3
#
#
#
# Elastic Constant Matrix: (Units=GPa)
#
#
# Indices 1 2 3 4 5 6 
#
# 1 70.3187 39.7456 30.7932 0.0000 -6.4180 0.0000
# 2 39.7456 134.2024 50.5739 0.0000 -12.4760 0.0000
# 3 30.7932 50.5739 130.3607 0.0000 8.2940 0.0000
# 4 0.0000 0.0000 0.0000 25.0568 0.0000 -19.2346
# 5 -6.4180 -12.4760 8.2940 0.0000 30.5059 0.0000
# 6 0.0000 0.0000 0.0000 -19.2346 0.0000 29.8872
#
#
#
# Elastic Compliance Matrix: (Units=1/GPa)
#
#
# Indices 1 2 3 4 5 6 
#
# 1 0.018002 -0.003963 -0.002903 0.000000 0.002956 0.000000
# 2 -0.003963 0.010274 -0.003321 0.000000 0.004271 0.000000
# 3 -0.002903 -0.003321 0.009943 0.000000 -0.004672 0.000000
# 4 0.000000 0.000000 0.000000 0.078878 0.000000 0.050764
# 5 0.002956 0.004271 -0.004672 0.000000 0.036419 0.000000
# 6 0.000000 0.000000 0.000000 0.050764 0.000000 0.066129
#
#
# Mechanical properties :
#
#
# Convention : Reuss Voigt Hill
#
# Bulk Modulus (GPa) = 56.04155 64.12300 60.08228
# Shear Modulus (GPa) = 20.32793 31.34122 25.83458
#
# Velocity S-wave (km/s) = 3.22612 4.00582 3.63692
# Velocity P-wave (km/s) = 6.52458 7.36385 6.95688
#
# Compressibility (1/GPa) = 0.01784390
#
# Stress axis : x y z
#
# Youngs Moduli (GPa) = 55.54999 97.33555 100.57724
#
# Poissons Ratio (x) = 0.38570 0.29198
# Poissons Ratio (y) = 0.22012 0.33406
# Poissons Ratio (z) = 0.16126 0.32329
#
# Static dielectric constant tensor:
#      x y z
#    x 1.742450 0.000000 -0.069170 
#    y 0.000000 1.703360 0.000000 
#    z -0.069170 0.000000 1.809000 
# 
# From -- ./inp_files/14527.got.cif
#   From: 2010.05.17/outbox.cif.g08.bks.cpg/sg11_8_cif.got.tgz:14527.got - 2010.06.03 12:22:45.
