data_PCOD9160530
_publ_section_title
;
Structure prediction by ZEFSAII (Michael W. Deem and Ramdas Pophale) SiO2 
 PCOD9160530
Probable space group: P 21/M
;
_chemical_formula_sum "Si O2"
_cell_formula_units_Z 24
_cell_length_a 7.933787
_cell_length_b 7.366333
_cell_length_c 19.369237
_cell_angle_alpha 90.000000
_cell_angle_beta 58.942563
_cell_angle_gamma 90.000000
_cell_volume 969.723905
_symmetry_space_group_name_H-M "P 21/M"
_symmetry_group_IT_number 11
_symmetry_cell_setting 'monoclinic'
loop_
_space_group_symop_operation_xyz
x,y,z
-x,1/2+y,-z
-x,-y,-z
x,1/2-y,z
loop_
_atom_site_type_symbol
_atom_site_label
_atom_site_fract_x
_atom_site_fract_y
_atom_site_fract_z
Si Si1 0.997835 0.469198 0.147861
Si Si2 0.504903 0.466463 0.417898
Si Si3 0.666333 0.534104 0.021051
Si Si4 0.560947 0.538971 0.193188
Si Si5 0.782334 0.546077 0.632619
Si Si6 0.946005 0.027698 0.307539
O O1 0.007384 0.250000 0.144952
O O2 0.774677 0.524444 0.182270
O O3 0.055925 0.526129 0.213455
O O4 0.134798 0.536625 0.056718
O O5 0.500000 0.500000 0.500000
O O6 0.502591 0.250000 0.406255
O O7 0.320026 0.539395 0.413116
O O8 0.719885 0.531224 0.349025
O O9 0.692728 0.750000 0.025913
O O10 0.500000 0.500000 0.000000
O O11 0.594729 0.461436 0.109497
O O12 0.502402 0.750000 0.201474
O O13 0.397548 0.446002 0.274520
O O14 0.847367 0.750000 0.599905
O O15 0.956161 0.462709 0.641942
O O16 0.950025 0.250000 0.309238
#
# Coordination Sequence:
#
# PCOD9160530 Si02
#       6
#     4   4   4   4   4   4
#     4  10  19  36  58  79 108 153 199 232 274 340
#     4  10  21  38  59  86 115 146 186 232 282 342
#     4  10  22  36  53  80 114 151 195 241 284 334
#     4  11  22  35  53  84 119 147 186 242 290 330
#     4  10  20  38  63  84 110 154 195 229 277 341
#     4   9  18  35  60  86 109 143 196 237 266 331
#
# _framework density 24.749310999999999
#
# number of rings (size 3 to 8) (size 9 to 14) (size 15 to 20)
#    0.000    2.000    1.667    2.000    0.000    4.667 
#    0.000    1.667    0.000    0.000    0.000    0.000 
#    0.000    0.000    0.000    0.000    0.000    0.000 
#
# Total GULP energy -134172.836854 kJ/mol
# GULP energy per Si atom -5590.534869 kJ/mol
# Density = 2.469298 g / cm^3
# Si number density = 24.749311 Si / 1000 Ang^3
#
#
#
# Elastic Constant Matrix: (Units=GPa)
#
#
# Indices 1 2 3 4 5 6 
#
# 1 111.2488 -8.0255 -3.9775 0.0000 45.4653 0.0000
# 2 -8.0255 100.5588 -5.0709 0.0000 3.0612 0.0000
# 3 -3.9775 -5.0709 78.5867 0.0000 36.8501 0.0000
# 4 0.0000 0.0000 0.0000 6.2265 0.0000 -1.0491
# 5 45.4653 3.0612 36.8501 0.0000 50.6447 0.0000
# 6 0.0000 0.0000 0.0000 -1.0491 0.0000 3.1165
#
#
#
# Elastic Compliance Matrix: (Units=1/GPa)
#
#
# Indices 1 2 3 4 5 6 
#
# 1 0.024195 0.003896 0.017868 0.000000 -0.034957 0.000000
# 2 0.003896 0.010693 0.004296 0.000000 -0.007270 0.000000
# 3 0.017868 0.004296 0.032710 0.000000 -0.040100 0.000000
# 4 0.000000 0.000000 0.000000 0.170262 0.000000 0.057316
# 5 -0.034957 -0.007270 -0.040100 0.000000 0.080745 0.000000
# 6 0.000000 0.000000 0.000000 0.057316 0.000000 0.340162
#
#
# Mechanical properties :
#
#
# Convention : Reuss Voigt Hill
#
# Bulk Modulus (GPa) = 8.35294 28.47185 18.41239
# Shear Modulus (GPa) = 7.73331 32.49541 20.11436
#
# Velocity S-wave (km/s) = 1.76959 3.62744 2.85392
# Velocity P-wave (km/s) = 2.74911 5.39199 4.27967
#
# Compressibility (1/GPa) = 0.11971838
#
# Stress axis : x y z
#
# Youngs Moduli (GPa) = 41.33072 93.51617 30.57185
#
# Poissons Ratio (x) = -0.36435 -0.54625
# Poissons Ratio (y) = -0.16103 -0.13134
# Poissons Ratio (z) = -0.73849 -0.40176
#
# Static dielectric constant tensor:
#      x y z
#    x 1.967050 0.000000 0.017770 
#    y 0.000000 1.937950 0.000000 
#    z 0.017770 0.000000 1.962510 
# 
# From -- ./inp_files/63158.got.cif
#   From: 2010.05.17/outbox.cif.g08.bks.cpg/sg11_32_cif.got.tgz:63158.got - 2010.06.03 12:22:45.
