data_PCOD9160377
_publ_section_title
;
Structure prediction by ZEFSAII (Michael W. Deem and Ramdas Pophale) SiO2 
 PCOD9160377
Probable space group: P 21/M
;
_chemical_formula_sum "Si O2"
_cell_formula_units_Z 28
_cell_length_a 9.365198
_cell_length_b 8.759143
_cell_length_c 29.961000
_cell_angle_alpha 90.000000
_cell_angle_beta 39.220982
_cell_angle_gamma 90.000000
_cell_volume 1554.057305
_symmetry_space_group_name_H-M "P 21/M"
_symmetry_group_IT_number 11
_symmetry_cell_setting 'monoclinic'
loop_
_space_group_symop_operation_xyz
x,y,z
-x,1/2+y,-z
-x,-y,-z
x,1/2-y,z
loop_
_atom_site_type_symbol
_atom_site_label
_atom_site_fract_x
_atom_site_fract_y
_atom_site_fract_z
Si Si1 0.246240 0.932376 0.434926
Si Si2 0.026474 0.932657 0.125456
Si Si3 0.949750 0.430711 0.287469
Si Si4 0.584918 0.567942 0.433240
Si Si5 0.334168 0.065843 0.130770
Si Si6 0.834326 0.567425 0.002862
Si Si7 0.353066 0.433089 0.717924
O O1 0.225239 0.750000 0.440741
O O2 0.406907 0.977476 0.437517
O O3 0.387967 0.973313 0.355775
O O4 0.000000 0.000000 0.500000
O O5 0.055461 0.750000 0.113801
O O6 0.771723 0.962558 0.205268
O O7 0.196282 0.993555 0.122661
O O8 0.079506 0.014694 0.066542
O O9 0.941215 0.250000 0.296355
O O10 0.831732 0.511037 0.357916
O O11 0.793751 0.478549 0.283280
O O12 0.198384 0.472628 0.209340
O O13 0.500000 0.500000 0.500000
O O14 0.587868 0.750000 0.434797
O O15 0.334207 0.250000 0.126040
O O16 0.584827 0.000982 0.070040
O O17 0.827540 0.750000 0.007137
O O18 0.000000 0.500000 0.000000
O O19 0.329527 0.250000 0.715071
#
# Coordination Sequence:
#
# PCOD9160377 Si02
#       7
#     4   4   4   4   4   4   4
#     4   9  18  32  50  75 104 135 171 211 254 303
#     4  10  19  35  59  83 106 137 177 220 263 311
#     4   9  17  30  52  79 105 133 170 216 262 305
#     4  10  20  34  52  75 105 139 177 218 262 312
#     4  10  20  36  58  84 109 136 175 220 262 312
#     4  12  25  40  56  77 108 143 176 215 266 321
#     4   8  16  31  51  75 104 135 171 214 257 304
#
# _framework density 18.017353
#
# number of rings (size 3 to 8) (size 9 to 14) (size 15 to 20)
#    0.000    2.286    0.000    4.286    0.000    5.143 
#    0.000    1.429    0.000    3.429    0.000    0.000 
#    0.000    0.000    0.000    0.000    0.000    0.000 
#
# Total GULP energy -156096.706128 kJ/mol
# GULP energy per Si atom -5574.882362 kJ/mol
# Density = 1.797635 g / cm^3
# Si number density = 18.017353 Si / 1000 Ang^3
#
#
#
# Elastic Constant Matrix: (Units=GPa)
#
#
# Indices 1 2 3 4 5 6 
#
# 1 55.5385 26.4373 67.1258 0.0000 -1.9692 0.0000
# 2 26.4373 62.9497 61.4642 0.0000 3.0866 0.0000
# 3 67.1258 61.4642 201.7541 0.0000 -3.3604 0.0000
# 4 0.0000 0.0000 0.0000 32.2088 0.0000 0.4228
# 5 -1.9692 3.0866 -3.3604 0.0000 26.9391 0.0000
# 6 0.0000 0.0000 0.0000 0.4228 0.0000 27.0296
#
#
#
# Elastic Compliance Matrix: (Units=1/GPa)
#
#
# Indices 1 2 3 4 5 6 
#
# 1 0.030941 -0.004342 -0.008944 0.000000 0.001644 0.000000
# 2 -0.004342 0.023547 -0.005791 0.000000 -0.003738 0.000000
# 3 -0.008944 -0.005791 0.009717 0.000000 0.001222 0.000000
# 4 0.000000 0.000000 0.000000 0.031054 0.000000 -0.000486
# 5 0.001644 -0.003738 0.001222 0.000000 0.037822 0.000000
# 6 0.000000 0.000000 0.000000 -0.000486 0.000000 0.037004
#
#
# Mechanical properties :
#
#
# Convention : Reuss Voigt Hill
#
# Bulk Modulus (GPa) = 38.38727 70.03299 54.21013
# Shear Modulus (GPa) = 23.04968 28.24982 25.64975
#
# Velocity S-wave (km/s) = 3.58062 3.96400 3.77717
# Velocity P-wave (km/s) = 6.20052 7.73984 7.01254
#
# Compressibility (1/GPa) = 0.02605030
#
# Stress axis : x y z
#
# Youngs Moduli (GPa) = 32.31957 42.46820 102.91184
#
# Poissons Ratio (x) = 0.18439 0.92048
# Poissons Ratio (y) = 0.14033 0.59599
# Poissons Ratio (z) = 0.28908 0.24594
#
# Static dielectric constant tensor:
#      x y z
#    x 1.592920 0.000000 -0.001370 
#    y 0.000000 1.596510 0.000000 
#    z -0.001370 0.000000 1.663190 
# 
# From -- ./inp_files/72709.got.cif
#   From: 2010.05.17/outbox.cif.g08.bks.cpg/sg11_37_cif.got.tgz:72709.got - 2010.06.03 12:22:45.
