data_PCOD9160408
_publ_section_title
;
Structure prediction by ZEFSAII (Michael W. Deem and Ramdas Pophale) SiO2 
 PCOD9160408
Probable space group: P 21/M
;
_chemical_formula_sum "Si O2"
_cell_formula_units_Z 26
_cell_length_a 11.280840
_cell_length_b 9.093637
_cell_length_c 19.504391
_cell_angle_alpha 90.000000
_cell_angle_beta 147.781000
_cell_angle_gamma 90.000000
_cell_volume 1066.759319
_symmetry_space_group_name_H-M "P 21/M"
_symmetry_group_IT_number 11
_symmetry_cell_setting 'monoclinic'
loop_
_space_group_symop_operation_xyz
x,y,z
-x,1/2+y,-z
-x,-y,-z
x,1/2-y,z
loop_
_atom_site_type_symbol
_atom_site_label
_atom_site_fract_x
_atom_site_fract_y
_atom_site_fract_z
Si Si1 0.000473 0.080738 0.091180
Si Si2 0.608190 0.925129 0.965494
Si Si3 0.052152 0.582702 0.779166
Si Si4 0.245169 0.483243 0.687922
Si Si5 0.435963 0.917414 0.279046
Si Si6 0.346040 0.927579 0.483884
Si Si7 0.073117 0.750000 0.511764
O O1 0.955019 0.250000 0.046663
O O2 0.203818 0.001276 0.153924
O O3 0.070819 0.091212 0.206321
O O4 0.786697 0.975882 0.993972
O O5 0.613033 0.750000 0.977781
O O6 0.375831 0.978591 0.820741
O O7 0.716398 0.011448 0.082548
O O8 0.921102 0.250000 0.232552
O O9 0.897840 0.486379 0.655748
O O10 0.416623 0.411804 0.717024
O O11 0.163406 0.626044 0.609218
O O12 0.039563 0.375756 0.592068
O O13 0.395327 0.750000 0.283132
O O14 0.569675 0.007327 0.402534
O O15 0.359099 0.750000 0.490573
O O16 0.500000 0.000000 0.500000
#
# Coordination Sequence:
#
# PCOD9160408 Si02
#       7
#     4   4   4   4   4   4   2
#     4   9  20  33  52  82 122 156 195 229 273 342
#     4  10  19  35  59  87 120 157 194 237 289 357
#     4   9  19  34  52  80 118 159 201 227 271 334
#     4  11  24  42  66  89 117 148 201 246 318 352
#     4  12  24  37  58  88 124 163 199 243 288 355
#     4  12  22  34  54  81 123 167 200 235 278 340
#     4  10  24  46  64  86 112 150 196 264 304 366
#
# _framework density 24.372883999999999
#
# number of rings (size 3 to 8) (size 9 to 14) (size 15 to 20)
#    0.923    0.615    3.077    2.769    4.308    0.615 
#    0.000    0.000    0.000    0.000    0.000    6.462 
#    0.000    0.000    0.000    0.000    0.000    0.000 
#
# Total GULP energy -144907.767013 kJ/mol
# GULP energy per Si atom -5573.375654 kJ/mol
# Density = 2.431741 g / cm^3
# Si number density = 24.372884 Si / 1000 Ang^3
#
#
#
# Elastic Constant Matrix: (Units=GPa)
#
#
# Indices 1 2 3 4 5 6 
#
# 1 96.8078 18.0953 25.7987 0.0000 -15.5980 0.0000
# 2 18.0953 192.2119 59.4159 0.0000 -2.2333 0.0000
# 3 25.7987 59.4159 165.0992 0.0000 -21.6090 0.0000
# 4 0.0000 0.0000 0.0000 262.6104 0.0000 -28.4358
# 5 -15.5980 -2.2333 -21.6090 0.0000 37.0873 0.0000
# 6 0.0000 0.0000 0.0000 -28.4358 0.0000 2.6987
#
#
#
# Elastic Compliance Matrix: (Units=1/GPa)
#
#
# Indices 1 2 3 4 5 6 
#
# 1 0.011398 -0.000724 -0.000973 0.000000 0.004183 0.000000
# 2 -0.000724 0.005931 -0.002181 0.000000 -0.001218 0.000000
# 3 -0.000973 -0.002181 0.007495 0.000000 0.003826 0.000000
# 4 0.000000 0.000000 0.000000 -0.027018 0.000000 -0.284682
# 5 0.004183 -0.001218 0.003826 0.000000 0.030879 0.000000
# 6 0.000000 0.000000 0.000000 -0.284682 0.000000 -2.629097
#
#
# Mechanical properties :
#
#
# Convention : Reuss Voigt Hill
#
# Bulk Modulus (GPa) = 58.58674 73.41541 66.00107
# Shear Modulus (GPa) = -1.93276 83.86655 40.96689
#
# Velocity S-wave (km/s) = -0.89147 5.87235 4.10425
# Velocity P-wave (km/s) = 4.79898 8.72734 7.04261
#
# Compressibility (1/GPa) = 0.01706871
#
# Stress axis : x y z
#
# Youngs Moduli (GPa) = 87.73174 168.61604 133.42977
#
# Poissons Ratio (x) = 0.12202 0.12985
# Poissons Ratio (y) = 0.06349 0.29096
# Poissons Ratio (z) = 0.08538 0.36769
#
# Static dielectric constant tensor:
#      x y z
#    x 2.042370 0.000000 0.064160 
#    y 0.000000 1.658730 0.000000 
#    z 0.064160 0.000000 1.933710 
# 
# From -- ./inp_files/73474.got.cif
#   From: 2010.05.17/outbox.cif.g08.bks.cpg/sg11_37_cif.got.tgz:73474.got - 2010.06.03 12:22:45.
