data_PCOD9160371
_publ_section_title
;
Structure prediction by ZEFSAII (Michael W. Deem and Ramdas Pophale) SiO2 
 PCOD9160371
Probable space group: P 21/M
;
_chemical_formula_sum "Si O2"
_cell_formula_units_Z 32
_cell_length_a 20.436083
_cell_length_b 15.051792
_cell_length_c 16.085520
_cell_angle_alpha 90.000000
_cell_angle_beta 162.019797
_cell_angle_gamma 90.000000
_cell_volume 1527.359359
_symmetry_space_group_name_H-M "P 21/M"
_symmetry_group_IT_number 11
_symmetry_cell_setting 'monoclinic'
loop_
_space_group_symop_operation_xyz
x,y,z
-x,1/2+y,-z
-x,-y,-z
x,1/2-y,z
loop_
_atom_site_type_symbol
_atom_site_label
_atom_site_fract_x
_atom_site_fract_y
_atom_site_fract_z
Si Si1 0.201223 0.023941 0.898614
Si Si2 0.642064 0.043330 0.330126
Si Si3 0.500671 0.984824 0.598151
Si Si4 0.809977 0.144822 0.688987
Si Si5 0.734766 0.847371 0.465399
Si Si6 0.762065 0.347500 0.133815
Si Si7 0.806709 0.354862 0.383394
Si Si8 0.214256 0.350407 0.291905
O O1 0.411961 0.038816 0.096177
O O2 0.277833 0.023588 0.086288
O O3 0.028568 0.097940 0.672188
O O4 0.127475 0.926049 0.782166
O O5 0.786061 0.094517 0.572343
O O6 0.639520 0.098074 0.242079
O O7 0.736246 0.944941 0.427009
O O8 0.383996 0.071936 0.492403
O O9 0.500000 0.000000 0.500000
O O10 0.364354 0.899678 0.461472
O O11 0.775400 0.250000 0.636282
O O12 0.033004 0.131823 0.005139
O O13 0.777916 0.750000 0.477355
O O14 0.867083 0.851980 0.711073
O O15 0.485255 0.842618 0.189923
O O16 0.857179 0.250000 0.236243
O O17 0.761416 0.367594 0.231351
O O18 0.813004 0.250000 0.407319
O O19 0.295741 0.250000 0.375835
#
# Coordination Sequence:
#
# PCOD9160371 Si02
#       8
#     4   4   4   4   4   4   4   4
#     4  10  22  40  60  88 117 160 193 245 300 353
#     4  10  21  39  61  85 120 158 189 242 299 348
#     4  11  23  36  55  84 118 152 192 244 293 347
#     4  10  21  36  55  80 114 156 195 236 287 349
#     4   9  17  33  59  85 110 148 194 238 292 348
#     4   9  18  38  62  86 118 152 195 250 299 352
#     4  11  24  38  60  90 117 154 203 245 291 357
#     4  10  19  35  59  81 105 149 196 232 285 350
#
# _framework density 20.951191999999999
#
# number of rings (size 3 to 8) (size 9 to 14) (size 15 to 20)
#    0.000    2.000    3.750    1.125    1.750    5.000 
#    0.000    0.625    0.000    5.250    0.000    0.000 
#    0.000    0.000    0.000    0.000    0.000    0.000 
#
# Total GULP energy -178542.980616 kJ/mol
# GULP energy per Si atom -5579.468144 kJ/mol
# Density = 2.090351 g / cm^3
# Si number density = 20.951192 Si / 1000 Ang^3
#
#
#
# Elastic Constant Matrix: (Units=GPa)
#
#
# Indices 1 2 3 4 5 6 
#
# 1 68.7441 20.8601 18.8983 0.0000 -8.8006 0.0000
# 2 20.8601 118.7525 26.9804 0.0000 -13.0761 0.0000
# 3 18.8983 26.9804 23.8380 0.0000 -10.3600 0.0000
# 4 0.0000 0.0000 0.0000 -4.4334 0.0000 8.6224
# 5 -8.8006 -13.0761 -10.3600 0.0000 17.9895 0.0000
# 6 0.0000 0.0000 0.0000 8.6224 0.0000 14.1441
#
#
#
# Elastic Compliance Matrix: (Units=1/GPa)
#
#
# Indices 1 2 3 4 5 6 
#
# 1 0.018611 0.000124 -0.014537 0.000000 0.000823 0.000000
# 2 0.000124 0.011354 -0.012453 0.000000 0.001142 0.000000
# 3 -0.014537 -0.012453 0.080757 0.000000 0.030344 0.000000
# 4 0.000000 0.000000 0.000000 -0.103202 0.000000 0.062913
# 5 0.000823 0.001142 0.030344 0.000000 0.074296 0.000000
# 6 0.000000 0.000000 0.000000 0.062913 0.000000 0.032349
#
#
# Mechanical properties :
#
#
# Convention : Reuss Voigt Hill
#
# Bulk Modulus (GPa) = 17.54698 38.31246 27.92972
# Shear Modulus (GPa) = 26.75340 15.17975 20.96657
#
# Velocity S-wave (km/s) = 3.57731 2.69463 3.16687
# Velocity P-wave (km/s) = 5.04541 5.29222 5.17029
#
# Compressibility (1/GPa) = 0.05698987
#
# Stress axis : x y z
#
# Youngs Moduli (GPa) = 53.73245 88.07391 12.38287
#
# Poissons Ratio (x) = -0.01095 0.18001
# Poissons Ratio (y) = -0.00668 0.15420
# Poissons Ratio (z) = 0.78112 1.09678
#
# Static dielectric constant tensor:
#      x y z
#    x 1.777830 0.000000 0.004990 
#    y 0.000000 1.774790 0.000000 
#    z 0.004990 0.000000 1.751350 
# 
# From -- ./inp_files/55048.got.cif
#   From: 2010.05.17/outbox.cif.g08.bks.cpg/sg11_28_cif.got.tgz:55048.got - 2010.06.03 12:22:45.
