data_PCOD9160903
_publ_section_title
;
Structure prediction by ZEFSAII (Michael W. Deem and Ramdas Pophale) SiO2 
 PCOD9160903
Probable space group: P 21/M
;
_chemical_formula_sum "Si O2"
_cell_formula_units_Z 20
_cell_length_a 10.696187
_cell_length_b 21.331917
_cell_length_c 7.170900
_cell_angle_alpha 90.000000
_cell_angle_beta 39.185698
_cell_angle_gamma 90.000000
_cell_volume 1033.800643
_symmetry_space_group_name_H-M "P 21/M"
_symmetry_group_IT_number 11
_symmetry_cell_setting 'monoclinic'
loop_
_space_group_symop_operation_xyz
x,y,z
-x,1/2+y,-z
-x,-y,-z
x,1/2-y,z
loop_
_atom_site_type_symbol
_atom_site_label
_atom_site_fract_x
_atom_site_fract_y
_atom_site_fract_z
Si Si1 0.673749 0.321660 0.340777
Si Si2 0.017859 0.355138 0.666679
Si Si3 0.217226 0.880223 0.389571
Si Si4 0.570928 0.611272 0.685331
Si Si5 0.889563 0.988063 0.320601
O O1 0.606893 0.250000 0.425284
O O2 0.715742 0.347402 0.497616
O O3 0.518741 0.363101 0.402628
O O4 0.875126 0.325760 0.985656
O O5 0.246849 0.345722 0.451664
O O6 0.996024 0.431217 0.710603
O O7 0.942358 0.340912 0.546927
O O8 0.129516 0.947400 0.549359
O O9 0.402007 0.889138 0.036603
O O10 0.673463 0.543454 0.540801
O O11 0.000000 0.000000 0.000000
#
# Coordination Sequence:
#
# PCOD9160903 Si02
#       5
#     4   4   4   4   4
#     4  11  24  42  60  84 119 163 210 248 290 352
#     4   9  22  41  60  90 121 159 191 249 302 359
#     4  11  20  38  63  93 121 155 200 245 306 356
#     4   9  23  39  60  91 123 156 193 249 302 359
#     4  10  19  39  64  91 128 156 190 243 313 372
#
# _framework density 19.346088999999999
#
# number of rings (size 3 to 8) (size 9 to 14) (size 15 to 20)
#    1.200    0.800    2.000    1.200    0.000    8.000 
#    0.000    0.000    0.000    0.000    0.000    0.000 
#    0.000    0.000    0.000    0.000    0.000    0.000 
#
# Total GULP energy -111453.073484 kJ/mol
# GULP energy per Si atom -5572.653674 kJ/mol
# Density = 1.930206 g / cm^3
# Si number density = 19.346089 Si / 1000 Ang^3
#
#
#
# Elastic Constant Matrix: (Units=GPa)
#
#
# Indices 1 2 3 4 5 6 
#
# 1 116.4773 -4.7741 54.5494 0.0000 25.7730 0.0000
# 2 -4.7741 34.4855 9.4904 0.0000 18.0950 0.0000
# 3 54.5494 9.4904 68.3340 0.0000 23.0315 0.0000
# 4 0.0000 0.0000 0.0000 -37.6155 0.0000 -23.8249
# 5 25.7730 18.0950 23.0315 0.0000 40.4764 0.0000
# 6 0.0000 0.0000 0.0000 -23.8249 0.0000 -13.6214
#
#
#
# Elastic Compliance Matrix: (Units=1/GPa)
#
#
# Indices 1 2 3 4 5 6 
#
# 1 0.016154 0.009621 -0.011525 0.000000 -0.008029 0.000000
# 2 0.009621 0.043631 -0.006311 0.000000 -0.022040 0.000000
# 3 -0.011525 -0.006311 0.026338 0.000000 -0.004826 0.000000
# 4 0.000000 0.000000 0.000000 0.246549 0.000000 -0.431233
# 5 -0.008029 -0.022040 -0.004826 0.000000 0.042417 0.000000
# 6 0.000000 0.000000 0.000000 -0.431233 0.000000 0.680845
#
#
# Mechanical properties :
#
#
# Convention : Reuss Voigt Hill
#
# Bulk Modulus (GPa) = 14.34892 37.53643 25.94268
# Shear Modulus (GPa) = 4.56372 8.51664 6.54018
#
# Velocity S-wave (km/s) = 1.53757 2.10043 1.84064
# Velocity P-wave (km/s) = 3.25349 5.03261 4.23747
#
# Compressibility (1/GPa) = 0.06969166
#
# Stress axis : x y z
#
# Youngs Moduli (GPa) = 61.90457 22.91926 37.96858
#
# Poissons Ratio (x) = -0.22051 0.43760
# Poissons Ratio (y) = -0.59558 0.23963
# Poissons Ratio (z) = 0.71347 0.14465
#
# Static dielectric constant tensor:
#      x y z
#    x 1.721230 0.000000 -0.010110 
#    y 0.000000 1.700400 0.000000 
#    z -0.010110 0.000000 1.631360 
# 
# From -- ./inp_files/5516.got.cif
#   From: 2010.05.17/outbox.cif.g08.bks.cpg/sg11_3_cif.got.tgz:5516.got - 2010.06.03 12:22:45.
