data_PCOD9160825
_publ_section_title
;
Structure prediction by ZEFSAII (Michael W. Deem and Ramdas Pophale) SiO2 
 PCOD9160825
Probable space group: P 21/M
;
_chemical_formula_sum "Si O2"
_cell_formula_units_Z 32
_cell_length_a 24.002516
_cell_length_b 13.824545
_cell_length_c 9.255693
_cell_angle_alpha 90.000000
_cell_angle_beta 29.826022
_cell_angle_gamma 90.000000
_cell_volume 1527.546414
_symmetry_space_group_name_H-M "P 21/M"
_symmetry_group_IT_number 11
_symmetry_cell_setting 'monoclinic'
loop_
_space_group_symop_operation_xyz
x,y,z
-x,1/2+y,-z
-x,-y,-z
x,1/2-y,z
loop_
_atom_site_type_symbol
_atom_site_label
_atom_site_fract_x
_atom_site_fract_y
_atom_site_fract_z
Si Si1 0.178994 0.861532 0.917660
Si Si2 0.588800 0.365544 0.495460
Si Si3 0.558725 0.135423 0.242937
Si Si4 0.705465 0.638741 0.174004
Si Si5 0.882090 0.474684 0.687551
Si Si6 0.028128 0.478198 0.099440
Si Si7 0.414745 0.484537 0.057669
Si Si8 0.760719 0.640710 0.386134
O O1 0.164718 0.750000 0.909804
O O2 0.309798 0.890388 0.623618
O O3 0.101903 0.933600 0.000422
O O4 0.152456 0.879310 0.146916
O O5 0.580408 0.250000 0.511996
O O6 0.609929 0.395877 0.281801
O O7 0.477056 0.411266 0.808765
O O8 0.575855 0.250000 0.184872
O O9 0.424843 0.119506 0.564304
O O10 0.600192 0.078863 0.008494
O O11 0.732171 0.750000 0.069577
O O12 0.713546 0.634418 0.329739
O O13 0.793013 0.560717 0.915028
O O14 0.000000 0.500000 0.500000
O O15 0.916828 0.463865 0.444373
O O16 0.109450 0.386118 0.921229
O O17 0.000000 0.500000 0.000000
O O18 0.303069 0.435622 0.370004
O O19 0.500000 0.500000 0.000000
O O20 0.743690 0.750000 0.477445
#
# Coordination Sequence:
#
# PCOD9160825 Si02
#       8
#     4   4   4   4   4   4   4   4
#     4  10  21  40  64  89 121 161 207 254 314 383
#     4  10  22  40  61  90 128 167 211 260 309 379
#     4  10  22  39  62  94 130 172 220 263 311 377
#     4  10  19  37  65  93 124 162 211 264 311 369
#     4  10  20  38  63  89 114 160 211 256 317 371
#     4  11  25  44  63  91 127 161 206 270 324 382
#     4  12  22  36  62  93 131 172 210 256 320 379
#     4  11  23  40  62  91 125 165 210 263 320 378
#
# _framework density 20.948626000000001
#
# number of rings (size 3 to 8) (size 9 to 14) (size 15 to 20)
#    0.000    1.500    3.750    2.250    0.000    5.500 
#    0.000    1.875    0.000    0.000    0.000    0.000 
#    0.000    0.000    0.000    0.000    0.000    0.000 
#
# Total GULP energy -178752.732119 kJ/mol
# GULP energy per Si atom -5586.022879 kJ/mol
# Density = 2.090095 g / cm^3
# Si number density = 20.948626 Si / 1000 Ang^3
#
#
#
# Elastic Constant Matrix: (Units=GPa)
#
#
# Indices 1 2 3 4 5 6 
#
# 1 97.7842 26.1496 13.8521 0.0000 13.8198 0.0000
# 2 26.1496 105.8255 43.1275 0.0000 5.0170 0.0000
# 3 13.8521 43.1275 92.9214 0.0000 16.7002 0.0000
# 4 0.0000 0.0000 0.0000 22.3890 0.0000 8.7020
# 5 13.8198 5.0170 16.7002 0.0000 33.4771 0.0000
# 6 0.0000 0.0000 0.0000 8.7020 0.0000 19.1331
#
#
#
# Elastic Compliance Matrix: (Units=1/GPa)
#
#
# Indices 1 2 3 4 5 6 
#
# 1 0.011563 -0.002802 0.000395 0.000000 -0.004550 0.000000
# 2 -0.002802 0.012366 -0.005708 0.000000 0.002151 0.000000
# 3 0.000395 -0.005708 0.014531 0.000000 -0.006556 0.000000
# 4 0.000000 0.000000 0.000000 0.054256 0.000000 -0.024676
# 5 -0.004550 0.002151 -0.006556 0.000000 0.034698 0.000000
# 6 0.000000 0.000000 0.000000 -0.024676 0.000000 0.063489
#
#
# Mechanical properties :
#
#
# Convention : Reuss Voigt Hill
#
# Bulk Modulus (GPa) = 44.98831 51.42108 48.20469
# Shear Modulus (GPa) = 23.30518 29.22662 26.26590
#
# Velocity S-wave (km/s) = 3.33902 3.73923 3.54478
# Velocity P-wave (km/s) = 6.03221 6.57587 6.30990
#
# Compressibility (1/GPa) = 0.02222800
#
# Stress axis : x y z
#
# Youngs Moduli (GPa) = 86.48111 80.86414 68.81967
#
# Poissons Ratio (x) = 0.22662 -0.02717
# Poissons Ratio (y) = 0.24236 0.39286
# Poissons Ratio (z) = -0.03414 0.46161
#
# Static dielectric constant tensor:
#      x y z
#    x 1.819170 0.000000 -0.052530 
#    y 0.000000 1.758790 0.000000 
#    z -0.052530 0.000000 1.816830 
# 
# From -- ./inp_files/27777.got.cif
#   From: 2010.05.17/outbox.cif.g08.bks.cpg/sg11_14_cif.got.tgz:27777.got - 2010.06.03 12:22:45.
