data_PCOD9160730
_publ_section_title
;
Structure prediction by ZEFSAII (Michael W. Deem and Ramdas Pophale) SiO2 
 PCOD9160730
Probable space group: P 21/M
;
_chemical_formula_sum "Si O2"
_cell_formula_units_Z 24
_cell_length_a 6.336740
_cell_length_b 15.217223
_cell_length_c 12.380398
_cell_angle_alpha 90.000000
_cell_angle_beta 82.615756
_cell_angle_gamma 90.000000
_cell_volume 1183.911061
_symmetry_space_group_name_H-M "P 21/M"
_symmetry_group_IT_number 11
_symmetry_cell_setting 'monoclinic'
loop_
_space_group_symop_operation_xyz
x,y,z
-x,1/2+y,-z
-x,-y,-z
x,1/2-y,z
loop_
_atom_site_type_symbol
_atom_site_label
_atom_site_fract_x
_atom_site_fract_y
_atom_site_fract_z
Si Si1 0.165488 0.552835 0.563745
Si Si2 0.184723 0.090037 0.267740
Si Si3 0.565707 0.853529 0.141797
Si Si4 0.442469 0.850407 0.902520
Si Si5 0.463254 0.950007 0.359067
Si Si6 0.105334 0.001105 0.877350
O O1 0.299273 0.481470 0.625234
O O2 0.342119 0.590771 0.470079
O O3 0.000000 0.500000 0.500000
O O4 0.020596 0.617754 0.646472
O O5 0.334028 0.146521 0.178404
O O6 0.073984 0.019278 0.197186
O O7 0.345975 0.040962 0.336734
O O8 0.588223 0.750000 0.146252
O O9 0.443707 0.890068 0.254579
O O10 0.785930 0.905008 0.139160
O O11 0.477381 0.873607 0.027117
O O12 0.359663 0.750000 0.901748
O O13 0.284766 0.923907 0.864428
O O14 0.000000 0.000000 0.000000
#
# Coordination Sequence:
#
# PCOD9160730 Si02
#       6
#     4   4   4   4   4   4
#     4   9  19  33  63  89 114 155 208 247 307 366
#     4  11  19  36  63  88 117 160 205 250 306 365
#     4  11  22  38  59  90 127 161 200 253 308 365
#     4  11  24  39  59  91 128 161 206 259 306 367
#     4  10  19  37  59  90 121 159 203 259 302 361
#     4  12  22  37  64  87 124 166 204 249 309 375
#
# _framework density 20.271792000000001
#
# number of rings (size 3 to 8) (size 9 to 14) (size 15 to 20)
#    0.000    1.333    5.000    1.500    0.000    1.333 
#    0.000    1.667    0.000   13.000    0.000    0.000 
#    0.000    0.000    0.000    0.000    0.000    0.000 
#
# Total GULP energy -133688.657177 kJ/mol
# GULP energy per Si atom -5570.360716 kJ/mol
# Density = 2.022565 g / cm^3
# Si number density = 20.271792 Si / 1000 Ang^3
#
#
#
# Elastic Constant Matrix: (Units=GPa)
#
#
# Indices 1 2 3 4 5 6 
#
# 1 93.6176 26.3613 34.5101 0.0000 1.5017 0.0000
# 2 26.3613 51.5226 16.5463 0.0000 -0.2798 0.0000
# 3 34.5101 16.5463 118.7772 0.0000 -19.7985 0.0000
# 4 0.0000 0.0000 0.0000 7.3806 0.0000 -1.1389
# 5 1.5017 -0.2798 -19.7985 0.0000 55.0050 0.0000
# 6 0.0000 0.0000 0.0000 -1.1389 0.0000 0.2062
#
#
#
# Elastic Compliance Matrix: (Units=1/GPa)
#
#
# Indices 1 2 3 4 5 6 
#
# 1 0.013621 -0.005883 -0.003410 0.000000 -0.001629 0.000000
# 2 -0.005883 0.022908 -0.001527 0.000000 -0.000273 0.000000
# 3 -0.003410 -0.001527 0.010252 0.000000 0.003775 0.000000
# 4 0.000000 0.000000 0.000000 0.916489 0.000000 5.061322
# 5 -0.001629 -0.000273 0.003775 0.000000 0.019582 0.000000
# 6 0.000000 0.000000 0.000000 5.061322 0.000000 32.800260
#
#
# Mechanical properties :
#
#
# Convention : Reuss Voigt Hill
#
# Bulk Modulus (GPa) = 39.77559 46.52809 43.15184
# Shear Modulus (GPa) = 0.14787 24.95169 12.54978
#
# Velocity S-wave (km/s) = 0.27038 3.51216 2.49082
# Velocity P-wave (km/s) = 4.44536 6.28085 5.44106
#
# Compressibility (1/GPa) = 0.02514105
#
# Stress axis : x y z
#
# Youngs Moduli (GPa) = 73.41408 43.65276 97.54353
#
# Poissons Ratio (x) = 0.25682 0.33258
# Poissons Ratio (y) = 0.43191 0.14898
# Poissons Ratio (z) = 0.25031 0.06667
#
# Static dielectric constant tensor:
#      x y z
#    x 1.770780 0.000000 -0.054590 
#    y 0.000000 1.684310 0.000000 
#    z -0.054590 0.000000 1.820770 
# 
# From -- ./inp_files/29769.got.cif
#   From: 2010.05.17/outbox.cif.g08.bks.cpg/sg11_15_cif.got.tgz:29769.got - 2010.06.03 12:22:45.
