data_PCOD9160657
_publ_section_title
;
Structure prediction by ZEFSAII (Michael W. Deem and Ramdas Pophale) SiO2 
 PCOD9160657
Probable space group: P 21/M
;
_chemical_formula_sum "Si O2"
_cell_formula_units_Z 32
_cell_length_a 10.348661
_cell_length_b 21.238503
_cell_length_c 17.033990
_cell_angle_alpha 90.000000
_cell_angle_beta 26.253894
_cell_angle_gamma 90.000000
_cell_volume 1656.113633
_symmetry_space_group_name_H-M "P 21/M"
_symmetry_group_IT_number 11
_symmetry_cell_setting 'monoclinic'
loop_
_space_group_symop_operation_xyz
x,y,z
-x,1/2+y,-z
-x,-y,-z
x,1/2-y,z
loop_
_atom_site_type_symbol
_atom_site_label
_atom_site_fract_x
_atom_site_fract_y
_atom_site_fract_z
Si Si1 0.767076 0.407801 0.492555
Si Si2 0.177126 0.984808 0.204784
Si Si3 0.344175 0.823829 0.677677
Si Si4 0.794478 0.097097 0.655746
Si Si5 0.665704 0.676105 0.006749
Si Si6 0.710516 0.824807 0.809348
Si Si7 0.619987 0.824998 0.689135
Si Si8 0.653784 0.931185 0.406094
O O1 0.752941 0.428507 0.590548
O O2 0.455362 0.408774 0.619947
O O3 0.984489 0.453097 0.325820
O O4 0.948037 0.342766 0.388867
O O5 0.186248 0.952407 0.284882
O O6 0.989685 0.943394 0.245219
O O7 0.500000 0.000000 0.000000
O O8 0.429010 0.750000 0.615473
O O9 0.384709 0.834289 0.748878
O O10 0.530102 0.877032 0.531535
O O11 0.009940 0.831355 0.833760
O O12 0.089631 0.138160 0.494399
O O13 0.521976 0.140394 0.827100
O O14 0.597063 0.750000 0.048313
O O15 0.599242 0.652147 0.954505
O O16 0.686089 0.750000 0.827370
O O17 0.552631 0.846213 0.815196
O O18 0.679508 0.750000 0.659868
O O19 0.500000 0.000000 0.500000
#
# Coordination Sequence:
#
# PCOD9160657 Si02
#       8
#     4   4   4   4   4   4   4   4
#     4  10  21  38  58  84 116 152 196 239 294 359
#     4  11  23  39  60  83 112 155 197 250 297 354
#     4  10  19  36  61  88 117 155 198 244 302 359
#     4  11  21  36  57  82 118 151 195 240 291 352
#     4  10  20  34  57  87 117 152 193 238 293 353
#     4   9  17  32  57  85 113 145 185 236 292 354
#     4   9  18  33  56  85 114 149 190 238 295 353
#     4  10  21  38  61  85 122 157 199 242 305 365
#
# _framework density 19.322344000000001
#
# number of rings (size 3 to 8) (size 9 to 14) (size 15 to 20)
#    0.000    2.000    2.500    1.500    1.750    0.500 
#    0.000    4.375    0.000    0.000    0.000    0.000 
#    0.000    0.000    0.000    0.000    0.000    0.000 
#
# Total GULP energy -178352.109194 kJ/mol
# GULP energy per Si atom -5573.503412 kJ/mol
# Density = 1.927837 g / cm^3
# Si number density = 19.322344 Si / 1000 Ang^3
#
#
#
# Elastic Constant Matrix: (Units=GPa)
#
#
# Indices 1 2 3 4 5 6 
#
# 1 135.1039 18.6207 28.2152 0.0000 4.0109 0.0000
# 2 18.6207 45.4710 22.7801 0.0000 -2.7710 0.0000
# 3 28.2152 22.7801 64.6482 0.0000 1.2592 0.0000
# 4 0.0000 0.0000 0.0000 24.8090 0.0000 0.4334
# 5 4.0109 -2.7710 1.2592 0.0000 21.0901 0.0000
# 6 0.0000 0.0000 0.0000 0.4334 0.0000 26.7339
#
#
#
# Elastic Compliance Matrix: (Units=1/GPa)
#
#
# Indices 1 2 3 4 5 6 
#
# 1 0.008338 -0.002077 -0.002874 0.000000 -0.001687 0.000000
# 2 -0.002077 0.027579 -0.008900 0.000000 0.004550 0.000000
# 3 -0.002874 -0.008900 0.019894 0.000000 -0.001811 0.000000
# 4 0.000000 0.000000 0.000000 0.040319 0.000000 -0.000654
# 5 -0.001687 0.004550 -0.001811 0.000000 0.048442 0.000000
# 6 0.000000 0.000000 0.000000 -0.000654 0.000000 0.037416
#
#
# Mechanical properties :
#
#
# Convention : Reuss Voigt Hill
#
# Bulk Modulus (GPa) = 35.57715 42.71725 39.14720
# Shear Modulus (GPa) = 22.82460 26.23374 24.52917
#
# Velocity S-wave (km/s) = 3.44067 3.68868 3.56683
# Velocity P-wave (km/s) = 5.85121 6.34803 6.10468
#
# Compressibility (1/GPa) = 0.02810793
#
# Stress axis : x y z
#
# Youngs Moduli (GPa) = 119.92705 36.25985 50.26611
#
# Poissons Ratio (x) = 0.07533 0.14448
# Poissons Ratio (y) = 0.24914 0.44736
# Poissons Ratio (z) = 0.34471 0.32271
#
# Static dielectric constant tensor:
#      x y z
#    x 1.721830 0.000000 0.006590 
#    y 0.000000 1.768620 0.000000 
#    z 0.006590 0.000000 1.634240 
# 
# From -- ./inp_files/48441.got.cif
#   From: 2010.05.17/outbox.cif.g08.bks.cpg/sg11_25_cif.got.tgz:48441.got - 2010.06.03 12:22:45.
