data_PCOD9160974
_publ_section_title
;
Structure prediction by ZEFSAII (Michael W. Deem and Ramdas Pophale) SiO2 
 PCOD9160974
Probable space group: P 21/M
;
_chemical_formula_sum "Si O2"
_cell_formula_units_Z 28
_cell_length_a 19.604804
_cell_length_b 7.750382
_cell_length_c 15.350355
_cell_angle_alpha 90.000000
_cell_angle_beta 141.654563
_cell_angle_gamma 90.000000
_cell_volume 1447.027068
_symmetry_space_group_name_H-M "P 21/M"
_symmetry_group_IT_number 11
_symmetry_cell_setting 'monoclinic'
loop_
_space_group_symop_operation_xyz
x,y,z
-x,1/2+y,-z
-x,-y,-z
x,1/2-y,z
loop_
_atom_site_type_symbol
_atom_site_label
_atom_site_fract_x
_atom_site_fract_y
_atom_site_fract_z
Si Si1 0.250132 0.039789 0.762610
Si Si2 0.870337 0.457135 0.611449
Si Si3 0.975334 0.045677 0.074200
Si Si4 0.203571 0.956410 0.977533
Si Si5 0.403579 0.457167 0.077046
Si Si6 0.650206 0.046465 0.323762
Si Si7 0.950112 0.948821 0.335761
O O1 0.247606 0.250000 0.759241
O O2 0.126019 0.978335 0.662860
O O3 0.298336 0.975184 0.720568
O O4 0.334199 0.982059 0.923218
O O5 0.867629 0.250000 0.596285
O O6 0.746062 0.523846 0.482408
O O7 0.933270 0.487246 0.764536
O O8 0.942795 0.529614 0.602772
O O9 0.974212 0.250000 0.077386
O O10 0.857495 0.986886 0.995376
O O11 0.000000 0.000000 0.000000
O O12 0.190837 0.750000 0.954584
O O13 0.135803 0.045774 0.831591
O O14 0.330020 0.999731 0.087447
O O15 0.408444 0.250000 0.073756
O O16 0.527367 0.527059 0.204007
O O17 0.638815 0.250000 0.331216
O O18 0.973039 0.750000 0.380341
#
# Coordination Sequence:
#
# PCOD9160974 Si02
#       7
#     4   4   4   4   4   4   4
#     4   9  17  28  43  64  91 127 170 210 242 273
#     4   9  18  33  50  69  97 129 158 192 238 288
#     4  10  20  34  55  81 102 119 145 185 233 287
#     4   9  17  29  48  74  96 117 152 194 232 273
#     4   9  18  32  47  65  94 131 168 202 237 276
#     4  10  20  31  45  67  95 130 168 202 237 278
#     4   8  15  29  46  64  91 126 159 194 240 286
#
# _framework density 19.350017000000001
#
# number of rings (size 3 to 8) (size 9 to 14) (size 15 to 20)
#    0.000    2.857    0.000    2.143    0.000    5.714 
#    0.000    0.000    0.000    0.857    0.000    0.000 
#    0.000    0.000    0.000    0.000    0.000    0.000 
#
# Total GULP energy -156045.168907 kJ/mol
# GULP energy per Si atom -5573.041747 kJ/mol
# Density = 1.930598 g / cm^3
# Si number density = 19.350017 Si / 1000 Ang^3
#
#
#
# Elastic Constant Matrix: (Units=GPa)
#
#
# Indices 1 2 3 4 5 6 
#
# 1 106.5120 -7.9202 59.7979 0.0000 4.3650 0.0000
# 2 -7.9202 29.7529 4.8244 0.0000 5.4154 0.0000
# 3 59.7979 4.8244 96.5343 0.0000 18.2485 0.0000
# 4 0.0000 0.0000 0.0000 8.1869 0.0000 -3.3882
# 5 4.3650 5.4154 18.2485 0.0000 27.1212 0.0000
# 6 0.0000 0.0000 0.0000 -3.3882 0.0000 21.9032
#
#
#
# Elastic Compliance Matrix: (Units=1/GPa)
#
#
# Indices 1 2 3 4 5 6 
#
# 1 0.015570 0.005210 -0.010580 0.000000 0.003573 0.000000
# 2 0.005210 0.036641 -0.004029 0.000000 -0.005444 0.000000
# 3 -0.010580 -0.004029 0.019065 0.000000 -0.010321 0.000000
# 4 0.000000 0.000000 0.000000 0.130502 0.000000 0.020188
# 5 0.003573 -0.005444 -0.010321 0.000000 0.044328 0.000000
# 6 0.000000 0.000000 0.000000 0.020188 0.000000 0.048778
#
#
# Mechanical properties :
#
#
# Convention : Reuss Voigt Hill
#
# Bulk Modulus (GPa) = 19.05614 38.46707 28.76160
# Shear Modulus (GPa) = 15.09772 23.18205 19.13988
#
# Velocity S-wave (km/s) = 2.79631 3.46502 3.14847
# Velocity P-wave (km/s) = 4.50503 5.99427 5.30220
#
# Compressibility (1/GPa) = 0.05247654
#
# Stress axis : x y z
#
# Youngs Moduli (GPa) = 64.22779 27.29164 52.45131
#
# Poissons Ratio (x) = -0.14219 0.55495
# Poissons Ratio (y) = -0.33462 0.21135
# Poissons Ratio (z) = 0.67955 0.10997
#
# Static dielectric constant tensor:
#      x y z
#    x 1.679270 0.000000 0.077840 
#    y 0.000000 1.691400 0.000000 
#    z 0.077840 0.000000 1.672460 
# 
# From -- ./inp_files/42364.got.cif
#   From: 2010.05.17/outbox.cif.g08.bks.cpg/sg11_22_cif.got.tgz:42364.got - 2010.06.03 12:22:45.
