data_PCOD9160819
_publ_section_title
;
Structure prediction by ZEFSAII (Michael W. Deem and Ramdas Pophale) SiO2 
 PCOD9160819
Probable space group: P 21/M
;
_chemical_formula_sum "Si O2"
_cell_formula_units_Z 32
_cell_length_a 11.867425
_cell_length_b 13.542286
_cell_length_c 18.642472
_cell_angle_alpha 90.000000
_cell_angle_beta 150.950673
_cell_angle_gamma 90.000000
_cell_volume 1454.779059
_symmetry_space_group_name_H-M "P 21/M"
_symmetry_group_IT_number 11
_symmetry_cell_setting 'monoclinic'
loop_
_space_group_symop_operation_xyz
x,y,z
-x,1/2+y,-z
-x,-y,-z
x,1/2-y,z
loop_
_atom_site_type_symbol
_atom_site_label
_atom_site_fract_x
_atom_site_fract_y
_atom_site_fract_z
Si Si1 0.737279 0.474223 0.373961
Si Si2 0.069835 0.863089 0.261083
Si Si3 0.282487 0.866560 0.780619
Si Si4 0.576415 0.063136 0.434226
Si Si5 0.942415 0.562153 0.826305
Si Si6 0.610967 0.630979 0.090428
Si Si7 0.430245 0.867340 0.147828
Si Si8 0.188576 0.136743 0.401367
O O1 0.651710 0.410578 0.258935
O O2 0.708464 0.419572 0.433163
O O3 0.577281 0.571802 0.287258
O O4 0.000000 0.500000 0.500000
O O5 0.036751 0.750000 0.219227
O O6 0.309067 0.874929 0.437775
O O7 0.869749 0.890235 0.207761
O O8 0.047009 0.945916 0.187552
O O9 0.319991 0.750000 0.797883
O O10 0.014068 0.880773 0.652931
O O11 0.434653 0.906378 0.931390
O O12 0.304963 0.082046 0.275228
O O13 0.624666 0.949233 0.483889
O O14 0.929401 0.618537 0.742142
O O15 0.164718 0.598089 0.993462
O O16 0.588306 0.750000 0.077188
O O17 0.547311 0.605415 0.136060
O O18 0.443878 0.750000 0.166101
O O19 0.269028 0.250000 0.451160
#
# Coordination Sequence:
#
# PCOD9160819 Si02
#       8
#     4   4   4   4   4   4   4   4
#     4  12  25  41  62  88 129 168 206 259 315 376
#     4  10  21  38  62  94 128 163 206 264 324 371
#     4  10  20  36  62  92 121 157 202 257 320 375
#     4  11  25  40  57  91 129 174 214 250 308 381
#     4  11  23  39  64  92 127 163 213 267 312 371
#     4   9  18  35  61  92 117 144 197 260 316 364
#     4  11  24  41  65  95 124 166 215 260 314 377
#     4  10  19  37  64  92 123 160 208 264 316 367
#
# _framework density 21.996466000000002
#
# number of rings (size 3 to 8) (size 9 to 14) (size 15 to 20)
#    0.000    1.500    2.500    3.375    1.750    5.500 
#    0.000    0.000    0.000    1.500    0.000    0.000 
#    0.000    0.000    0.000    0.000    0.000    0.000 
#
# Total GULP energy -179006.964610 kJ/mol
# GULP energy per Si atom -5593.967644 kJ/mol
# Density = 2.194640 g / cm^3
# Si number density = 21.996466 Si / 1000 Ang^3
#
#
#
# Elastic Constant Matrix: (Units=GPa)
#
#
# Indices 1 2 3 4 5 6 
#
# 1 52.7809 0.5855 2.2006 0.0000 6.7888 0.0000
# 2 0.5855 75.4529 -5.5336 0.0000 -0.5190 0.0000
# 3 2.2006 -5.5336 69.4996 0.0000 14.9280 0.0000
# 4 0.0000 0.0000 0.0000 14.1005 0.0000 0.9292
# 5 6.7888 -0.5190 14.9280 0.0000 37.0541 0.0000
# 6 0.0000 0.0000 0.0000 0.9292 0.0000 17.4035
#
#
#
# Elastic Compliance Matrix: (Units=1/GPa)
#
#
# Indices 1 2 3 4 5 6 
#
# 1 0.019407 -0.000165 0.000150 0.000000 -0.003618 0.000000
# 2 -0.000165 0.013335 0.001117 0.000000 -0.000233 0.000000
# 3 0.000150 0.001117 0.015847 0.000000 -0.006396 0.000000
# 4 0.000000 0.000000 0.000000 0.071170 0.000000 -0.003800
# 5 -0.003618 -0.000233 -0.006396 0.000000 0.030224 0.000000
# 6 0.000000 0.000000 0.000000 -0.003800 0.000000 0.057663
#
#
# Mechanical properties :
#
#
# Convention : Reuss Voigt Hill
#
# Bulk Modulus (GPa) = 19.68783 21.35983 20.52383
# Shear Modulus (GPa) = 22.48482 27.07700 24.78091
#
# Velocity S-wave (km/s) = 3.20066 3.51232 3.36011
# Velocity P-wave (km/s) = 4.75698 5.11666 4.94009
#
# Compressibility (1/GPa) = 0.05079280
#
# Stress axis : x y z
#
# Youngs Moduli (GPa) = 51.52720 74.99125 63.10512
#
# Poissons Ratio (x) = 0.01234 -0.00944
# Poissons Ratio (y) = 0.00848 -0.07049
# Poissons Ratio (z) = -0.00771 -0.08377
#
# Static dielectric constant tensor:
#      x y z
#    x 1.794860 0.000000 0.013670 
#    y 0.000000 1.813090 0.000000 
#    z 0.013670 0.000000 1.806620 
# 
# From -- ./inp_files/59506.got.cif
#   From: 2010.05.17/outbox.cif.g08.bks.cpg/sg11_30_cif.got.tgz:59506.got - 2010.06.03 12:22:45.
