data_PCOD9160432
_publ_section_title
;
Structure prediction by ZEFSAII (Michael W. Deem and Ramdas Pophale) SiO2 
 PCOD9160432
Probable space group: P 21/M
;
_chemical_formula_sum "Si O2"
_cell_formula_units_Z 32
_cell_length_a 11.494528
_cell_length_b 8.810459
_cell_length_c 16.175556
_cell_angle_alpha 90.000000
_cell_angle_beta 90.463450
_cell_angle_gamma 90.000000
_cell_volume 1638.078413
_symmetry_space_group_name_H-M "P 21/M"
_symmetry_group_IT_number 11
_symmetry_cell_setting 'monoclinic'
loop_
_space_group_symop_operation_xyz
x,y,z
-x,1/2+y,-z
-x,-y,-z
x,1/2-y,z
loop_
_atom_site_type_symbol
_atom_site_label
_atom_site_fract_x
_atom_site_fract_y
_atom_site_fract_z
Si Si1 0.483650 0.433207 0.909364
Si Si2 0.319642 0.070576 0.468404
Si Si3 0.314044 0.430157 0.771788
Si Si4 0.562333 0.428145 0.375462
Si Si5 0.275368 0.567453 0.168418
Si Si6 0.064741 0.570403 0.746167
Si Si7 0.060752 0.070156 0.079953
Si Si8 0.152464 0.568201 0.338752
O O1 0.483300 0.250000 0.914277
O O2 0.366529 0.479462 0.860549
O O3 0.594794 0.479298 0.854533
O O4 0.500000 0.500000 0.000000
O O5 0.310061 0.250000 0.485676
O O6 0.432852 0.047875 0.410326
O O7 0.349601 0.980248 0.551778
O O8 0.208627 0.008759 0.418982
O O9 0.294995 0.250000 0.773502
O O10 0.409950 0.471958 0.703917
O O11 0.195854 0.512183 0.745720
O O12 0.576947 0.250000 0.357281
O O13 0.269252 0.750000 0.165962
O O14 0.185681 0.501441 0.101091
O O15 0.230114 0.520683 0.258904
O O16 0.059182 0.750000 0.730825
O O17 0.015778 0.540767 0.838336
O O18 0.977541 0.485763 0.683378
O O19 0.072452 0.250000 0.069604
O O20 0.000000 0.000000 0.000000
O O21 0.157089 0.750000 0.346036
#
# Coordination Sequence:
#
# PCOD9160432 Si02
#       8
#     4   4   4   4   4   4   4   4
#     4  10  23  39  56  81 112 148 189 234 284 340
#     4  10  20  35  59  90 123 153 190 238 284 337
#     4  11  23  40  60  83 116 154 193 237 290 347
#     4  10  21  37  59  89 120 156 195 233 284 341
#     4   9  19  36  55  78 109 143 184 231 281 334
#     4  10  22  39  57  81 112 151 194 237 288 347
#     4  10  21  35  55  80 107 140 184 236 286 336
#     4  10  19  35  60  86 114 149 190 239 289 340
#
# _framework density 19.535084999999999
#
# number of rings (size 3 to 8) (size 9 to 14) (size 15 to 20)
#    0.000    2.000    0.000    3.000    1.750    6.000 
#    0.000    0.625    0.000    0.000    0.000    0.000 
#    0.000    0.000    0.000    0.000    0.000    0.000 
#
# Total GULP energy -178785.922555 kJ/mol
# GULP energy per Si atom -5587.060080 kJ/mol
# Density = 1.949062 g / cm^3
# Si number density = 19.535085 Si / 1000 Ang^3
#
#
#
# Elastic Constant Matrix: (Units=GPa)
#
#
# Indices 1 2 3 4 5 6 
#
# 1 59.3091 3.7962 9.2015 0.0000 17.5099 0.0000
# 2 3.7962 10.6926 -0.7618 0.0000 2.3893 0.0000
# 3 9.2015 -0.7618 47.9485 0.0000 26.0464 0.0000
# 4 0.0000 0.0000 0.0000 30.9279 0.0000 1.8862
# 5 17.5099 2.3893 26.0464 0.0000 30.9175 0.0000
# 6 0.0000 0.0000 0.0000 1.8862 0.0000 30.1652
#
#
#
# Elastic Compliance Matrix: (Units=1/GPa)
#
#
# Indices 1 2 3 4 5 6 
#
# 1 0.020889 -0.003786 0.004054 0.000000 -0.014953 0.000000
# 2 -0.003786 0.098611 0.009713 0.000000 -0.013659 0.000000
# 3 0.004054 0.009713 0.040354 0.000000 -0.037043 0.000000
# 4 0.000000 0.000000 0.000000 0.032457 0.000000 -0.002029
# 5 -0.014953 -0.013659 -0.037043 0.000000 0.073074 0.000000
# 6 0.000000 0.000000 0.000000 -0.002029 0.000000 0.033278
#
#
# Mechanical properties :
#
#
# Convention : Reuss Voigt Hill
#
# Bulk Modulus (GPa) = 5.56125 15.82467 10.69296
# Shear Modulus (GPa) = 14.76492 25.44973 20.10733
#
# Velocity S-wave (km/s) = 2.75219 3.61331 3.21174
# Velocity P-wave (km/s) = 3.59894 5.05235 4.38626
#
# Compressibility (1/GPa) = 0.17981556
#
# Stress axis : x y z
#
# Youngs Moduli (GPa) = 47.87270 10.14084 24.78051
#
# Poissons Ratio (x) = 0.03840 -0.10045
# Poissons Ratio (y) = 0.18126 -0.24070
# Poissons Ratio (z) = -0.19406 -0.09850
#
# Static dielectric constant tensor:
#      x y z
#    x 1.686610 0.000000 -0.012340 
#    y 0.000000 1.648760 0.000000 
#    z -0.012340 0.000000 1.676360 
# 
# From -- ./inp_files/38129.got.cif
#   From: 2010.05.17/outbox.cif.g08.bks.cpg/sg11_20_cif.got.tgz:38129.got - 2010.06.03 12:22:45.
