data_PCOD9160183
_publ_section_title
;
Structure prediction by ZEFSAII (Michael W. Deem and Ramdas Pophale) SiO2 
 PCOD9160183
Probable space group: P 21/M
;
_chemical_formula_sum "Si O2"
_cell_formula_units_Z 28
_cell_length_a 12.405735
_cell_length_b 7.594823
_cell_length_c 14.581855
_cell_angle_alpha 90.000000
_cell_angle_beta 110.376610
_cell_angle_gamma 90.000000
_cell_volume 1287.920623
_symmetry_space_group_name_H-M "P 21/M"
_symmetry_group_IT_number 11
_symmetry_cell_setting 'monoclinic'
loop_
_space_group_symop_operation_xyz
x,y,z
-x,1/2+y,-z
-x,-y,-z
x,1/2-y,z
loop_
_atom_site_type_symbol
_atom_site_label
_atom_site_fract_x
_atom_site_fract_y
_atom_site_fract_z
Si Si1 0.476515 0.037820 0.885559
Si Si2 0.933410 0.964341 0.191006
Si Si3 0.338028 0.551449 0.204765
Si Si4 0.181513 0.540717 0.307992
Si Si5 0.754770 0.535167 0.284134
Si Si6 0.129808 0.040451 0.502851
Si Si7 0.132746 0.041009 0.020459
O O1 0.477814 0.250000 0.881844
O O2 0.572085 0.970624 0.840935
O O3 0.355040 0.976685 0.806996
O O4 0.500000 0.000000 0.000000
O O5 0.939794 0.750000 0.190770
O O6 0.869428 0.017059 0.263691
O O7 0.855548 0.014438 0.081827
O O8 0.063472 0.031708 0.228378
O O9 0.380840 0.750000 0.236605
O O10 0.294277 0.469927 0.288309
O O11 0.220095 0.555447 0.111898
O O12 0.184864 0.750000 0.291496
O O13 0.162671 0.520809 0.410815
O O14 0.750372 0.750000 0.283489
O O15 0.777124 0.475711 0.394458
O O16 0.136578 0.250000 0.502522
O O17 0.000000 0.000000 0.500000
O O18 0.152618 0.250000 0.034953
O O19 0.000000 0.000000 0.000000
#
# Coordination Sequence:
#
# PCOD9160183 Si02
#       7
#     4   4   4   4   4   4   4
#     4  10  21  39  62  84 110 149 193 234 280 341
#     4   9  16  29  50  74 105 143 177 217 274 336
#     4  10  21  37  55  78 112 151 189 233 287 343
#     4  10  19  35  54  76 111 147 181 225 282 338
#     4   9  18  34  56  79 106 144 186 225 276 337
#     4  11  21  35  57  85 114 147 188 233 282 339
#     4  11  20  31  51  79 111 146 185 228 279 341
#
# _framework density 21.740470999999999
#
# number of rings (size 3 to 8) (size 9 to 14) (size 15 to 20)
#    0.000    2.000    2.857    1.714    0.000    2.286 
#    0.000    2.143    0.000    0.000    0.000    0.000 
#    0.000    0.000    0.000    0.000    0.000    0.000 
#
# Total GULP energy -156131.880470 kJ/mol
# GULP energy per Si atom -5576.138588 kJ/mol
# Density = 2.169099 g / cm^3
# Si number density = 21.740471 Si / 1000 Ang^3
#
#
#
# Elastic Constant Matrix: (Units=GPa)
#
#
# Indices 1 2 3 4 5 6 
#
# 1 132.5413 1.0056 53.7951 0.0000 -23.5443 0.0000
# 2 1.0056 59.4897 3.1363 0.0000 -2.5536 0.0000
# 3 53.7951 3.1363 138.8499 0.0000 -23.7107 0.0000
# 4 0.0000 0.0000 0.0000 24.7859 0.0000 -5.5626
# 5 -23.5443 -2.5536 -23.7107 0.0000 40.6058 0.0000
# 6 0.0000 0.0000 0.0000 -5.5626 0.0000 9.0362
#
#
#
# Elastic Compliance Matrix: (Units=1/GPa)
#
#
# Indices 1 2 3 4 5 6 
#
# 1 0.009430 0.000159 -0.003023 0.000000 0.003713 0.000000
# 2 0.000159 0.016864 -0.000273 0.000000 0.000994 0.000000
# 3 -0.003023 -0.000273 0.008972 0.000000 0.003469 0.000000
# 4 0.000000 0.000000 0.000000 0.046813 0.000000 0.028818
# 5 0.003713 0.000994 0.003469 0.000000 0.028868 0.000000
# 6 0.000000 0.000000 0.000000 0.028818 0.000000 0.128406
#
#
# Mechanical properties :
#
#
# Convention : Reuss Voigt Hill
#
# Bulk Modulus (GPa) = 34.49194 49.63942 42.06568
# Shear Modulus (GPa) = 19.58557 33.08183 26.33370
#
# Velocity S-wave (km/s) = 3.00472 3.90509 3.48411
# Velocity P-wave (km/s) = 5.28560 6.57383 5.96460
#
# Compressibility (1/GPa) = 0.02899228
#
# Stress axis : x y z
#
# Youngs Moduli (GPa) = 106.04310 59.29796 111.46013
#
# Poissons Ratio (x) = -0.00945 0.33696
# Poissons Ratio (y) = -0.01690 0.03043
# Poissons Ratio (z) = 0.32059 0.01619
#
# Static dielectric constant tensor:
#      x y z
#    x 1.850920 0.000000 -0.067980 
#    y 0.000000 1.828810 0.000000 
#    z -0.067980 0.000000 1.832880 
# 
# From -- ./inp_files/49034.got.cif
#   From: 2010.05.17/outbox.cif.g08.bks.cpg/sg11_25_cif.got.tgz:49034.got - 2010.06.03 12:22:45.
