data_PCOD9160425
_publ_section_title
;
Structure prediction by ZEFSAII (Michael W. Deem and Ramdas Pophale) SiO2 
 PCOD9160425
Probable space group: P 21/M
;
_chemical_formula_sum "Si O2"
_cell_formula_units_Z 32
_cell_length_a 26.811489
_cell_length_b 7.514804
_cell_length_c 20.772407
_cell_angle_alpha 90.000000
_cell_angle_beta 20.133946
_cell_angle_gamma 90.000000
_cell_volume 1440.643394
_symmetry_space_group_name_H-M "P 21/M"
_symmetry_group_IT_number 11
_symmetry_cell_setting 'monoclinic'
loop_
_space_group_symop_operation_xyz
x,y,z
-x,1/2+y,-z
-x,-y,-z
x,1/2-y,z
loop_
_atom_site_type_symbol
_atom_site_label
_atom_site_fract_x
_atom_site_fract_y
_atom_site_fract_z
Si Si1 0.831539 0.038501 0.699036
Si Si2 0.300537 0.047560 0.884222
Si Si3 0.176433 0.468582 0.903148
Si Si4 0.325059 0.532298 0.380217
Si Si5 0.148061 0.965068 0.716939
Si Si6 0.617121 0.543249 0.458972
Si Si7 0.336501 0.536826 0.220816
Si Si8 0.366651 0.457412 0.941224
O O1 0.808608 0.250000 0.727853
O O2 0.767239 0.968084 0.709798
O O3 0.744026 0.965946 0.865933
O O4 0.000000 0.000000 0.500000
O O5 0.245138 0.250000 0.958373
O O6 0.209749 0.969699 0.935163
O O7 0.468158 0.049739 0.658522
O O8 0.304264 0.963541 0.950694
O O9 0.179037 0.250000 0.899594
O O10 0.302927 0.526603 0.701572
O O11 0.017234 0.523415 0.072448
O O12 0.328846 0.750000 0.373555
O O13 0.202263 0.482562 0.580031
O O14 0.309209 0.469542 0.326097
O O15 0.479288 0.469400 0.221850
O O16 0.150944 0.750000 0.716713
O O17 0.264018 0.030301 0.628376
O O18 0.580307 0.750000 0.493842
O O19 0.318400 0.750000 0.245724
O O20 0.500000 0.500000 0.000000
O O21 0.395726 0.250000 0.890826
#
# Coordination Sequence:
#
# PCOD9160425 Si02
#       8
#     4   4   4   4   4   4   4   4
#     4  11  24  39  58  86 117 152 184 222 276 331
#     4  10  20  37  59  83 108 147 193 228 272 334
#     4   9  20  35  55  82 112 143 186 236 280 328
#     4   9  17  32  57  85 107 135 182 231 271 321
#     4  10  19  36  58  80 106 144 187 230 277 330
#     4  11  21  34  53  82 114 147 184 231 281 329
#     4  10  20  35  57  83 109 140 181 224 272 321
#     4  10  19  35  60  85 110 143 184 231 276 326
#
# _framework density 22.212297
#
# number of rings (size 3 to 8) (size 9 to 14) (size 15 to 20)
#    0.000    2.000    2.500    1.500    0.000    2.000 
#    0.000    6.250    0.000    1.500    0.000    0.000 
#    0.000    0.000    0.000    0.000    0.000    0.000 
#
# Total GULP energy -178823.363364 kJ/mol
# GULP energy per Si atom -5588.230105 kJ/mol
# Density = 2.216174 g / cm^3
# Si number density = 22.212297 Si / 1000 Ang^3
#
#
#
# Elastic Constant Matrix: (Units=GPa)
#
#
# Indices 1 2 3 4 5 6 
#
# 1 116.6433 -4.8406 -4.7998 0.0000 4.0008 0.0000
# 2 -4.8406 59.0094 -5.7092 0.0000 2.9150 0.0000
# 3 -4.7998 -5.7092 25.4967 0.0000 -1.6154 0.0000
# 4 0.0000 0.0000 0.0000 0.1044 0.0000 -7.1659
# 5 4.0008 2.9150 -1.6154 0.0000 42.8205 0.0000
# 6 0.0000 0.0000 0.0000 -7.1659 0.0000 1.3964
#
#
#
# Elastic Compliance Matrix: (Units=1/GPa)
#
#
# Indices 1 2 3 4 5 6 
#
# 1 0.008713 0.000929 0.001797 0.000000 -0.000810 0.000000
# 2 0.000929 0.017467 0.004015 0.000000 -0.001124 0.000000
# 3 0.001797 0.004015 0.040527 0.000000 0.001088 0.000000
# 4 0.000000 0.000000 0.000000 -0.027272 0.000000 -0.139947
# 5 -0.000810 -0.001124 0.001088 0.000000 0.023547 0.000000
# 6 0.000000 0.000000 0.000000 -0.139947 0.000000 -0.002039
#
#
# Mechanical properties :
#
#
# Convention : Reuss Voigt Hill
#
# Bulk Modulus (GPa) = 12.47078 18.93892 15.70485
# Shear Modulus (GPa) = 67.39320 23.29754 45.34537
#
# Velocity S-wave (km/s) = 5.51420 3.24212 4.52315
# Velocity P-wave (km/s) = 6.79473 4.74973 5.86209
#
# Compressibility (1/GPa) = 0.08018743
#
# Stress axis : x y z
#
# Youngs Moduli (GPa) = 114.76590 57.25213 24.67497
#
# Poissons Ratio (x) = -0.05317 -0.04434
# Poissons Ratio (y) = -0.10657 -0.09906
# Poissons Ratio (z) = -0.20623 -0.22985
#
# Static dielectric constant tensor:
#      x y z
#    x 1.824770 0.000000 0.008140 
#    y 0.000000 1.870460 0.000000 
#    z 0.008140 0.000000 1.744350 
# 
# From -- ./inp_files/67024.got.cif
#   From: 2010.05.17/outbox.cif.g08.bks.cpg/sg11_34_cif.got.tgz:67024.got - 2010.06.03 12:22:45.
