data_PCOD9160196
_publ_section_title
;
Structure prediction by ZEFSAII (Michael W. Deem and Ramdas Pophale) SiO2 
 PCOD9160196
Probable space group: P 21/M
;
_chemical_formula_sum "Si O2"
_cell_formula_units_Z 32
_cell_length_a 16.462975
_cell_length_b 21.266560
_cell_length_c 7.687434
_cell_angle_alpha 90.000000
_cell_angle_beta 145.385564
_cell_angle_gamma 90.000000
_cell_volume 1528.883472
_symmetry_space_group_name_H-M "P 21/M"
_symmetry_group_IT_number 11
_symmetry_cell_setting 'monoclinic'
loop_
_space_group_symop_operation_xyz
x,y,z
-x,1/2+y,-z
-x,-y,-z
x,1/2-y,z
loop_
_atom_site_type_symbol
_atom_site_label
_atom_site_fract_x
_atom_site_fract_y
_atom_site_fract_z
Si Si1 0.317404 0.553029 0.481220
Si Si2 0.012525 0.954491 0.857128
Si Si3 0.129826 0.818352 0.692682
Si Si4 0.822362 0.053359 0.384019
Si Si5 0.632108 0.318304 0.367177
Si Si6 0.960660 0.182310 0.065442
Si Si7 0.541296 0.318334 0.799735
Si Si8 0.488263 0.545163 0.314717
O O1 0.243392 0.560960 0.538296
O O2 0.407973 0.616594 0.609833
O O3 0.413370 0.491621 0.649378
O O4 0.181544 0.549512 0.112407
O O5 0.964520 0.884753 0.830470
O O6 0.919259 0.991096 0.551691
O O7 0.000000 0.000000 0.000000
O O8 0.090764 0.750000 0.542364
O O9 0.097876 0.882375 0.532031
O O10 0.067956 0.819449 0.777267
O O11 0.301991 0.817531 0.011660
O O12 0.678625 0.045963 0.022319
O O13 0.583072 0.250000 0.348981
O O14 0.805404 0.317809 0.696620
O O15 0.579719 0.322580 0.074710
O O16 0.029644 0.250000 0.145324
O O17 0.472586 0.250000 0.648211
O O18 0.466158 0.381775 0.603626
O O19 0.500000 0.500000 0.500000
#
# Coordination Sequence:
#
# PCOD9160196 Si02
#       8
#     4   4   4   4   4   4   4   4
#     4  10  19  35  55  77 111 140 179 225 269 324
#     4   9  20  35  55  80 107 139 182 228 273 319
#     4   9  17  30  49  80 111 137 174 225 272 318
#     4  10  20  35  54  79 108 146 179 221 272 320
#     4   9  16  28  51  78 101 134 176 224 270 309
#     4   9  18  31  52  79 110 141 176 223 276 325
#     4   9  18  33  52  74 105 140 180 225 269 316
#     4  11  23  35  53  82 111 145 183 226 280 322
#
# _framework density 20.930306000000002
#
# number of rings (size 3 to 8) (size 9 to 14) (size 15 to 20)
#    0.000    2.500    2.500    0.375    7.000    0.500 
#    0.000    0.000    0.000    5.250    0.000    0.000 
#    0.000    0.000    0.000    0.000    0.000    0.000 
#
# Total GULP energy -178149.943049 kJ/mol
# GULP energy per Si atom -5567.185720 kJ/mol
# Density = 2.088267 g / cm^3
# Si number density = 20.930306 Si / 1000 Ang^3
#
#
#
# Elastic Constant Matrix: (Units=GPa)
#
#
# Indices 1 2 3 4 5 6 
#
# 1 34.4272 22.6260 2.8783 0.0000 -10.5406 0.0000
# 2 22.6260 257.4649 38.7191 0.0000 -2.0808 0.0000
# 3 2.8783 38.7191 44.3401 0.0000 -7.6322 0.0000
# 4 0.0000 0.0000 0.0000 32.3272 0.0000 -1.2761
# 5 -10.5406 -2.0808 -7.6322 0.0000 9.5735 0.0000
# 6 0.0000 0.0000 0.0000 -1.2761 0.0000 25.5346
#
#
#
# Elastic Compliance Matrix: (Units=1/GPa)
#
#
# Indices 1 2 3 4 5 6 
#
# 1 0.052522 -0.006102 0.013496 0.000000 0.067261 0.000000
# 2 -0.006102 0.005231 -0.005949 0.000000 -0.010324 0.000000
# 3 0.013496 -0.005949 0.033852 0.000000 0.040555 0.000000
# 4 0.000000 0.000000 0.000000 0.030995 0.000000 0.001549
# 5 0.067261 -0.010324 0.040555 0.000000 0.208598 0.000000
# 6 0.000000 0.000000 0.000000 0.001549 0.000000 0.039240
#
#
# Mechanical properties :
#
#
# Convention : Reuss Voigt Hill
#
# Bulk Modulus (GPa) = 10.58239 51.63101 31.10670
# Shear Modulus (GPa) = 12.52986 31.62099 22.07543
#
# Velocity S-wave (km/s) = 2.44938 3.89109 3.25115
# Velocity P-wave (km/s) = 3.61473 6.70142 5.38402
#
# Compressibility (1/GPa) = 0.09449659
#
# Stress axis : x y z
#
# Youngs Moduli (GPa) = 19.03968 191.15031 29.53994
#
# Poissons Ratio (x) = 1.16634 -0.39868
# Poissons Ratio (y) = 0.11617 0.17574
# Poissons Ratio (z) = -0.25697 1.13720
#
# Static dielectric constant tensor:
#      x y z
#    x 1.843430 0.000000 -0.047120 
#    y 0.000000 1.910680 0.000000 
#    z -0.047120 0.000000 1.794200 
# 
# From -- ./inp_files/27115.got.cif
#   From: 2010.05.17/outbox.cif.g08.bks.cpg/sg11_14_cif.got.tgz:27115.got - 2010.06.03 12:22:45.
