data_PCOD9160929
_publ_section_title
;
Structure prediction by ZEFSAII (Michael W. Deem and Ramdas Pophale) SiO2 
 PCOD9160929
Probable space group: P 21/M
;
_chemical_formula_sum "Si O2"
_cell_formula_units_Z 24
_cell_length_a 7.619605
_cell_length_b 22.553314
_cell_length_c 7.362320
_cell_angle_alpha 90.000000
_cell_angle_beta 128.927767
_cell_angle_gamma 90.000000
_cell_volume 984.244300
_symmetry_space_group_name_H-M "P 21/M"
_symmetry_group_IT_number 11
_symmetry_cell_setting 'monoclinic'
loop_
_space_group_symop_operation_xyz
x,y,z
-x,1/2+y,-z
-x,-y,-z
x,1/2-y,z
loop_
_atom_site_type_symbol
_atom_site_label
_atom_site_fract_x
_atom_site_fract_y
_atom_site_fract_z
Si Si1 0.937923 0.424884 0.494381
Si Si2 0.201115 0.938833 0.006114
Si Si3 0.775294 0.615181 0.810605
Si Si4 0.659518 0.531745 0.402165
Si Si5 0.663357 0.317861 0.406453
Si Si6 0.210365 0.814261 0.084450
O O1 0.886367 0.445504 0.253761
O O2 0.779859 0.468135 0.508918
O O3 0.868989 0.357159 0.465822
O O4 0.203086 0.437989 0.675492
O O5 0.318011 0.873442 0.074620
O O6 0.985182 0.929435 0.999348
O O7 0.400224 0.981372 0.190648
O O8 0.675208 0.579357 0.574331
O O9 0.563426 0.643489 0.774865
O O10 0.942461 0.671665 0.882838
O O11 0.646537 0.250000 0.332161
O O12 0.716938 0.314955 0.657336
O O13 0.267695 0.750000 0.046563
#
# Coordination Sequence:
#
# PCOD9160929 Si02
#       6
#     4   4   4   4   4   4
#     4  10  23  36  60  86 118 155 188 246 290 337
#     4   9  19  37  59  84 109 152 196 228 282 346
#     4   9  18  36  60  83 109 151 192 230 283 347
#     4  10  19  41  59  82 120 153 196 231 291 349
#     4  11  22  39  57  84 118 147 188 244 292 336
#     4   9  19  35  57  81 112 151 189 226 281 345
#
# _framework density 24.384191000000001
#
# number of rings (size 3 to 8) (size 9 to 14) (size 15 to 20)
#    1.000    1.333    1.667    1.000    0.000    2.667 
#    0.000    2.500    0.000    0.000    0.000    0.000 
#    0.000    0.000    0.000    0.000    0.000    0.000 
#
# Total GULP energy -133615.835881 kJ/mol
# GULP energy per Si atom -5567.326495 kJ/mol
# Density = 2.432869 g / cm^3
# Si number density = 24.384191 Si / 1000 Ang^3
#
#
#
# Elastic Constant Matrix: (Units=GPa)
#
#
# Indices 1 2 3 4 5 6 
#
# 1 93.8434 53.7960 17.1861 0.0000 27.2004 0.0000
# 2 53.7960 98.6006 23.1413 0.0000 14.4787 0.0000
# 3 17.1861 23.1413 71.2134 0.0000 11.1899 0.0000
# 4 0.0000 0.0000 0.0000 30.0874 0.0000 1.5339
# 5 27.2004 14.4787 11.1899 0.0000 32.8580 0.0000
# 6 0.0000 0.0000 0.0000 1.5339 0.0000 28.4781
#
#
#
# Elastic Compliance Matrix: (Units=1/GPa)
#
#
# Indices 1 2 3 4 5 6 
#
# 1 0.019095 -0.008677 0.000100 0.000000 -0.012018 0.000000
# 2 -0.008677 0.015398 -0.003140 0.000000 0.001467 0.000000
# 3 0.000100 -0.003140 0.015673 0.000000 -0.004036 0.000000
# 4 0.000000 0.000000 0.000000 0.033328 0.000000 -0.001795
# 5 -0.012018 0.001467 -0.004036 0.000000 0.041111 0.000000
# 6 0.000000 0.000000 0.000000 -0.001795 0.000000 0.035211
#
#
# Mechanical properties :
#
#
# Convention : Reuss Voigt Hill
#
# Bulk Modulus (GPa) = 37.40969 50.21156 43.81062
# Shear Modulus (GPa) = 26.01989 29.58695 27.80342
#
# Velocity S-wave (km/s) = 3.27016 3.48712 3.38038
# Velocity P-wave (km/s) = 5.44369 6.07041 5.76557
#
# Compressibility (1/GPa) = 0.02673104
#
# Stress axis : x y z
#
# Youngs Moduli (GPa) = 52.36902 64.94556 63.80450
#
# Poissons Ratio (x) = 0.56353 -0.00636
# Poissons Ratio (y) = 0.45440 0.20035
# Poissons Ratio (z) = -0.00522 0.20393
#
# Static dielectric constant tensor:
#      x y z
#    x 1.998850 0.000000 -0.000790 
#    y 0.000000 1.975210 0.000000 
#    z -0.000790 0.000000 2.047310 
# 
# From -- ./inp_files/15031.got.cif
#   From: 2010.05.17/outbox.cif.g08.bks.cpg/sg11_8_cif.got.tgz:15031.got - 2010.06.03 12:22:45.
