data_PCOD9160407
_publ_section_title
;
Structure prediction by ZEFSAII (Michael W. Deem and Ramdas Pophale) SiO2 
 PCOD9160407
Probable space group: P 21/M
;
_chemical_formula_sum "Si O2"
_cell_formula_units_Z 24
_cell_length_a 15.277379
_cell_length_b 13.773021
_cell_length_c 12.347475
_cell_angle_alpha 90.000000
_cell_angle_beta 149.896700
_cell_angle_gamma 90.000000
_cell_volume 1303.105570
_symmetry_space_group_name_H-M "P 21/M"
_symmetry_group_IT_number 11
_symmetry_cell_setting 'monoclinic'
loop_
_space_group_symop_operation_xyz
x,y,z
-x,1/2+y,-z
-x,-y,-z
x,1/2-y,z
loop_
_atom_site_type_symbol
_atom_site_label
_atom_site_fract_x
_atom_site_fract_y
_atom_site_fract_z
Si Si1 0.658660 0.638521 0.956346
Si Si2 0.577518 0.014624 0.701165
Si Si3 0.911780 0.135761 0.117330
Si Si4 0.688742 0.865443 0.435460
Si Si5 0.517428 0.362199 0.999190
Si Si6 0.154449 0.968515 0.741374
O O1 0.708037 0.750000 0.993744
O O2 0.582412 0.588992 0.767762
O O3 0.537903 0.633128 0.934666
O O4 0.810882 0.564373 0.150462
O O5 0.453168 0.080514 0.643620
O O6 0.500000 0.000000 0.500000
O O7 0.766070 0.069027 0.903312
O O8 0.890104 0.250000 0.068158
O O9 0.883150 0.117633 0.214833
O O10 0.114685 0.106433 0.320373
O O11 0.675235 0.750000 0.437695
O O12 0.637734 0.882291 0.254197
O O13 0.570282 0.250000 0.035347
O O14 0.674354 0.434126 0.139571
O O15 0.000000 0.000000 0.500000
#
# Coordination Sequence:
#
# PCOD9160407 Si02
#       6
#     4   4   4   4   4   4
#     4  10  22  37  54  82 120 156 193 239 296 349
#     4  11  24  40  62  84 115 161 205 248 292 345
#     4  10  21  38  61  91 116 148 197 246 295 350
#     4  10  20  37  65  91 117 149 194 247 297 354
#     4  10  19  35  59  87 118 155 191 237 299 361
#     4  11  21  31  56  88 124 155 189 234 291 364
#
# _framework density 18.417541
#
# number of rings (size 3 to 8) (size 9 to 14) (size 15 to 20)
#    0.000    1.667    3.333    2.500    2.333    4.667 
#    0.000    0.000    0.000    0.000    0.000    0.000 
#    0.000    0.000    0.000    0.000    0.000    0.000 
#
# Total GULP energy -133812.234008 kJ/mol
# GULP energy per Si atom -5575.509750 kJ/mol
# Density = 1.837562 g / cm^3
# Si number density = 18.417541 Si / 1000 Ang^3
#
#
#
# Elastic Constant Matrix: (Units=GPa)
#
#
# Indices 1 2 3 4 5 6 
#
# 1 34.4123 21.3977 30.0525 0.0000 -16.8247 0.0000
# 2 21.3977 100.2395 48.2104 0.0000 -0.6316 0.0000
# 3 30.0525 48.2104 123.1652 0.0000 -15.5105 0.0000
# 4 0.0000 0.0000 0.0000 21.1288 0.0000 -0.8640
# 5 -16.8247 -0.6316 -15.5105 0.0000 37.5391 0.0000
# 6 0.0000 0.0000 0.0000 -0.8640 0.0000 14.2609
#
#
#
# Elastic Compliance Matrix: (Units=1/GPa)
#
#
# Indices 1 2 3 4 5 6 
#
# 1 0.048491 -0.007001 -0.006719 0.000000 0.018839 0.000000
# 2 -0.007001 0.013427 -0.004129 0.000000 -0.004618 0.000000
# 3 -0.006719 -0.004129 0.011590 0.000000 0.001708 0.000000
# 4 0.000000 0.000000 0.000000 0.047446 0.000000 0.002875
# 5 0.018839 -0.004618 0.001708 0.000000 0.035711 0.000000
# 6 0.000000 0.000000 0.000000 0.002875 0.000000 0.070296
#
#
# Mechanical properties :
#
#
# Convention : Reuss Voigt Hill
#
# Bulk Modulus (GPa) = 26.44789 50.79314 38.62052
# Shear Modulus (GPa) = 18.16444 25.12952 21.64698
#
# Velocity S-wave (km/s) = 3.14388 3.69783 3.43205
# Velocity P-wave (km/s) = 5.25071 6.77278 6.05972
#
# Compressibility (1/GPa) = 0.03781020
#
# Stress axis : x y z
#
# Youngs Moduli (GPa) = 20.62230 74.47449 86.28122
#
# Poissons Ratio (x) = 0.52139 0.57973
# Poissons Ratio (y) = 0.14438 0.35627
# Poissons Ratio (z) = 0.13856 0.30752
#
# Static dielectric constant tensor:
#      x y z
#    x 1.660460 0.000000 0.011200 
#    y 0.000000 1.664240 0.000000 
#    z 0.011200 0.000000 1.652670 
# 
# From -- ./inp_files/39546.got.cif
#   From: 2010.05.17/outbox.cif.g08.bks.cpg/sg11_20_cif.got.tgz:39546.got - 2010.06.03 12:22:45.
