data_PCOD9160927
_publ_section_title
;
Structure prediction by ZEFSAII (Michael W. Deem and Ramdas Pophale) SiO2 
 PCOD9160927
Probable space group: P 21/M
;
_chemical_formula_sum "Si O2"
_cell_formula_units_Z 30
_cell_length_a 11.599645
_cell_length_b 18.949480
_cell_length_c 6.403145
_cell_angle_alpha 90.000000
_cell_angle_beta 71.936390
_cell_angle_gamma 90.000000
_cell_volume 1338.088072
_symmetry_space_group_name_H-M "P 21/M"
_symmetry_group_IT_number 11
_symmetry_cell_setting 'monoclinic'
loop_
_space_group_symop_operation_xyz
x,y,z
-x,1/2+y,-z
-x,-y,-z
x,1/2-y,z
loop_
_atom_site_type_symbol
_atom_site_label
_atom_site_fract_x
_atom_site_fract_y
_atom_site_fract_z
Si Si1 0.502273 0.422832 0.193380
Si Si2 0.252223 0.516093 0.013773
Si Si3 0.284937 0.435034 0.614333
Si Si4 0.647464 0.169334 0.446414
Si Si5 0.886977 0.898441 0.654737
Si Si6 0.029707 0.250000 0.449302
Si Si7 0.412665 0.330996 0.865661
Si Si8 0.867155 0.118066 0.600736
O O1 0.400095 0.455238 0.403749
O O2 0.589030 0.373278 0.288572
O O3 0.602667 0.475044 0.038046
O O4 0.433750 0.372256 0.069232
O O5 0.191179 0.448126 0.153443
O O6 0.189319 0.581178 0.165641
O O7 0.240809 0.500957 0.775029
O O8 0.179030 0.405287 0.530930
O O9 0.331330 0.375267 0.748944
O O10 0.674563 0.250000 0.367361
O O11 0.544099 0.170639 0.681379
O O12 0.764553 0.136904 0.491423
O O13 0.893528 0.815218 0.704242
O O14 0.024945 0.926277 0.566365
O O15 0.943107 0.188523 0.605294
O O16 0.373364 0.250000 0.915387
#
# Coordination Sequence:
#
# PCOD9160927 Si02
#       8
#     4   4   4   4   4   2   4   4
#     4  11  24  42  67 103 142 181 230 285 341 406
#     4  12  25  44  71 105 139 184 229 286 344 416
#     4  11  26  43  66 103 141 187 230 278 339 417
#     4  10  19  40  67  99 135 177 226 286 345 399
#     4  10  24  47  72  99 141 179 229 283 346 410
#     4   8  22  46  76  98 134 184 220 298 340 406
#     4  10  22  41  68  99 135 180 229 284 343 401
#     4  10  21  45  74  99 138 174 230 286 349 401
#
# _framework density 22.42005
#
# number of rings (size 3 to 8) (size 9 to 14) (size 15 to 20)
#    0.800    0.800    2.000    2.000    2.800    3.200 
#    7.200    0.000    2.933    0.000    0.000    0.000 
#    0.000    0.000    0.000    0.000    0.000    0.000 
#
# Total GULP energy -167035.322347 kJ/mol
# GULP energy per Si atom -5567.844078 kJ/mol
# Density = 2.236902 g / cm^3
# Si number density = 22.420050 Si / 1000 Ang^3
#
#
#
# Elastic Constant Matrix: (Units=GPa)
#
#
# Indices 1 2 3 4 5 6 
#
# 1 114.5485 22.8585 42.8582 0.0000 -11.7210 0.0000
# 2 22.8585 117.1621 42.6633 0.0000 -9.4793 0.0000
# 3 42.8582 42.6633 100.9695 0.0000 -10.4756 0.0000
# 4 0.0000 0.0000 0.0000 26.6777 0.0000 -8.0883
# 5 -11.7210 -9.4793 -10.4756 0.0000 25.0757 0.0000
# 6 0.0000 0.0000 0.0000 -8.0883 0.0000 20.1585
#
#
#
# Elastic Compliance Matrix: (Units=1/GPa)
#
#
# Indices 1 2 3 4 5 6 
#
# 1 0.010633 -0.000349 -0.004039 0.000000 0.003151 0.000000
# 2 -0.000349 0.010208 -0.003953 0.000000 0.002044 0.000000
# 3 -0.004039 -0.003953 0.013524 0.000000 0.002267 0.000000
# 4 0.000000 0.000000 0.000000 0.042676 0.000000 0.017123
# 5 0.003151 0.002044 0.002267 0.000000 0.043072 0.000000
# 6 0.000000 0.000000 0.000000 0.017123 0.000000 0.056477
#
#
# Mechanical properties :
#
#
# Convention : Reuss Voigt Hill
#
# Bulk Modulus (GPa) = 56.55088 61.04892 58.79990
# Shear Modulus (GPa) = 25.10451 29.33573 27.22012
#
# Velocity S-wave (km/s) = 3.34987 3.62119 3.48817
# Velocity P-wave (km/s) = 6.34353 6.69124 6.51970
#
# Compressibility (1/GPa) = 0.01768319
#
# Stress axis : x y z
#
# Youngs Moduli (GPa) = 94.04518 97.96102 73.94236
#
# Poissons Ratio (x) = 0.03417 0.29866
# Poissons Ratio (y) = 0.03280 0.29231
# Poissons Ratio (z) = 0.37986 0.38725
#
# Static dielectric constant tensor:
#      x y z
#    x 1.838530 0.000000 -0.024360 
#    y 0.000000 1.874690 0.000000 
#    z -0.024360 0.000000 1.863680 
# 
# From -- ./inp_files/6809.got.cif
#   From: 2010.05.17/outbox.cif.g08.bks.cpg/sg11_4_cif.got.tgz:6809.got - 2010.06.03 12:22:45.
