data_PCOD9160970
_publ_section_title
;
Structure prediction by ZEFSAII (Michael W. Deem and Ramdas Pophale) SiO2 
 PCOD9160970
Probable space group: P 21/M
;
_chemical_formula_sum "Si O2"
_cell_formula_units_Z 32
_cell_length_a 26.253995
_cell_length_b 8.675328
_cell_length_c 20.954642
_cell_angle_alpha 90.000000
_cell_angle_beta 20.519200
_cell_angle_gamma 90.000000
_cell_volume 1672.922765
_symmetry_space_group_name_H-M "P 21/M"
_symmetry_group_IT_number 11
_symmetry_cell_setting 'monoclinic'
loop_
_space_group_symop_operation_xyz
x,y,z
-x,1/2+y,-z
-x,-y,-z
x,1/2-y,z
loop_
_atom_site_type_symbol
_atom_site_label
_atom_site_fract_x
_atom_site_fract_y
_atom_site_fract_z
Si Si1 0.087709 0.066221 0.337372
Si Si2 0.152037 0.927391 0.875023
Si Si3 0.696413 0.064456 0.089775
Si Si4 0.394860 0.566031 0.947912
Si Si5 0.008297 0.437240 0.686698
Si Si6 0.176884 0.435675 0.715356
Si Si7 0.717648 0.938343 0.548528
Si Si8 0.414412 0.924422 0.656617
O O1 0.080885 0.250000 0.344199
O O2 0.016300 0.000744 0.355753
O O3 0.000000 0.000000 0.500000
O O4 0.257057 0.013985 0.142500
O O5 0.133786 0.750000 0.875822
O O6 0.250202 0.925704 0.822488
O O7 0.227899 0.011478 0.725923
O O8 0.992717 0.986967 0.081325
O O9 0.699384 0.250000 0.096578
O O10 0.634465 0.040555 0.092716
O O11 0.862940 0.012591 0.894972
O O12 0.594405 0.998256 0.264277
O O13 0.385997 0.750000 0.971027
O O14 0.561391 0.513390 0.760517
O O15 0.007391 0.250000 0.683744
O O16 0.151041 0.483565 0.558451
O O17 0.182109 0.250000 0.707326
O O18 0.251085 0.488262 0.561864
O O19 0.714528 0.750000 0.550191
O O20 0.468178 0.750000 0.599535
O O21 0.500000 0.000000 0.500000
#
# Coordination Sequence:
#
# PCOD9160970 Si02
#       8
#     4   4   4   4   4   4   4   4
#     4  11  22  39  62  87 113 145 179 210 251 309
#     4   9  18  31  43  64  97 131 173 222 275 320
#     4   8  15  29  50  70  97 137 179 221 267 317
#     4   9  18  34  56  84 112 140 177 222 269 320
#     4   9  17  34  59  85 109 138 177 222 266 313
#     4   9  17  30  51  72  93 130 176 218 262 321
#     4   9  17  30  55  85 108 135 179 226 268 317
#     4  10  20  31  44  64  94 133 176 224 272 316
#
# _framework density 19.1282
#
# number of rings (size 3 to 8) (size 9 to 14) (size 15 to 20)
#    0.000    2.750    0.000    2.625    1.750    3.500 
#    0.000    5.000    0.000    4.500    0.000    0.000 
#    0.000    0.000    0.000    0.000    0.000    0.000 
#
# Total GULP energy -178225.839018 kJ/mol
# GULP energy per Si atom -5569.557469 kJ/mol
# Density = 1.908466 g / cm^3
# Si number density = 19.128200 Si / 1000 Ang^3
#
#
#
# Elastic Constant Matrix: (Units=GPa)
#
#
# Indices 1 2 3 4 5 6 
#
# 1 43.9548 14.3659 41.7440 0.0000 13.4594 0.0000
# 2 14.3659 23.1675 24.3616 0.0000 3.9606 0.0000
# 3 41.7440 24.3616 120.3467 0.0000 17.1899 0.0000
# 4 0.0000 0.0000 0.0000 20.6464 0.0000 3.4165
# 5 13.4594 3.9606 17.1899 0.0000 37.0863 0.0000
# 6 0.0000 0.0000 0.0000 3.4165 0.0000 19.8387
#
#
#
# Elastic Compliance Matrix: (Units=1/GPa)
#
#
# Indices 1 2 3 4 5 6 
#
# 1 0.038462 -0.012262 -0.009694 0.000000 -0.008156 0.000000
# 2 -0.012262 0.058766 -0.007905 0.000000 0.001838 0.000000
# 3 -0.009694 -0.007905 0.013546 0.000000 -0.001916 0.000000
# 4 0.000000 0.000000 0.000000 0.049855 0.000000 -0.008586
# 5 -0.008156 0.001838 -0.001916 0.000000 0.030616 0.000000
# 6 0.000000 0.000000 0.000000 -0.008586 0.000000 0.051885
#
#
# Mechanical properties :
#
#
# Convention : Reuss Voigt Hill
#
# Bulk Modulus (GPa) = 19.58816 38.71245 29.15031
# Shear Modulus (GPa) = 15.63140 22.64746 19.13943
#
# Velocity S-wave (km/s) = 2.86176 3.44464 3.16664
# Velocity P-wave (km/s) = 4.60242 6.00858 5.35188
#
# Compressibility (1/GPa) = 0.05105124
#
# Stress axis : x y z
#
# Youngs Moduli (GPa) = 25.99968 17.01674 73.82378
#
# Poissons Ratio (x) = 0.20866 0.71565
# Poissons Ratio (y) = 0.31881 0.58360
# Poissons Ratio (z) = 0.25204 0.13452
#
# Static dielectric constant tensor:
#      x y z
#    x 1.686810 0.000000 -0.018190 
#    y 0.000000 1.663400 0.000000 
#    z -0.018190 0.000000 1.726640 
# 
# From -- ./inp_files/67046.got.cif
#   From: 2010.05.17/outbox.cif.g08.bks.cpg/sg11_34_cif.got.tgz:67046.got - 2010.06.03 12:22:45.
