data_PCOD9160460
_publ_section_title
;
Structure prediction by ZEFSAII (Michael W. Deem and Ramdas Pophale) SiO2 
 PCOD9160460
Probable space group: P 21/M
;
_chemical_formula_sum "Si O2"
_cell_formula_units_Z 32
_cell_length_a 11.780982
_cell_length_b 14.401623
_cell_length_c 17.160642
_cell_angle_alpha 90.000000
_cell_angle_beta 144.025507
_cell_angle_gamma 90.000000
_cell_volume 1710.326060
_symmetry_space_group_name_H-M "P 21/M"
_symmetry_group_IT_number 11
_symmetry_cell_setting 'monoclinic'
loop_
_space_group_symop_operation_xyz
x,y,z
-x,1/2+y,-z
-x,-y,-z
x,1/2-y,z
loop_
_atom_site_type_symbol
_atom_site_label
_atom_site_fract_x
_atom_site_fract_y
_atom_site_fract_z
Si Si1 0.989431 0.141440 0.676087
Si Si2 0.320458 0.862850 0.846587
Si Si3 0.227963 0.363131 0.662127
Si Si4 0.973495 0.489119 0.076901
Si Si5 0.113225 0.137995 0.426731
Si Si6 0.270407 0.142125 0.974651
Si Si7 0.352415 0.861892 0.042628
Si Si8 0.729995 0.991295 0.618397
O O1 0.931221 0.250000 0.640227
O O2 0.061641 0.109293 0.631215
O O3 0.178744 0.136932 0.837043
O O4 0.827340 0.079202 0.627498
O O5 0.329149 0.750000 0.852428
O O6 0.334468 0.894405 0.943463
O O7 0.112368 0.889324 0.699583
O O8 0.509877 0.892431 0.905636
O O9 0.222848 0.250000 0.660461
O O10 0.197549 0.392628 0.556478
O O11 0.440153 0.390466 0.808864
O O12 0.861591 0.580029 0.044863
O O13 0.828225 0.404273 0.012661
O O14 0.160629 0.480501 0.237482
O O15 0.000000 0.500000 0.000000
O O16 0.124498 0.250000 0.427961
O O17 0.215814 0.093307 0.409150
O O18 0.265731 0.250000 0.995173
O O19 0.344131 0.750000 0.039143
O O20 0.500000 0.000000 0.500000
#
# Coordination Sequence:
#
# PCOD9160460 Si02
#       8
#     4   4   4   4   4   4   4   4
#     4   9  18  37  61  84 112 145 183 229 278 333
#     4   9  16  32  58  87 113 138 174 223 285 344
#     4   9  18  34  59  90 116 141 179 226 281 344
#     4  11  25  40  56  81 111 149 199 238 269 323
#     4  10  21  37  58  86 118 146 178 227 285 339
#     4   9  18  36  61  85 112 144 181 229 282 336
#     4  10  19  35  61  87 111 142 181 231 285 334
#     4  11  25  41  56  78 112 155 197 230 272 330
#
# _framework density 18.709882
#
# number of rings (size 3 to 8) (size 9 to 14) (size 15 to 20)
#    0.000    2.250    2.500    0.000    1.750    3.000 
#    2.250    0.000    0.000    0.000    0.000    0.000 
#    0.000    0.000    0.000    0.000    0.000    0.000 
#
# Total GULP energy -178608.098084 kJ/mol
# GULP energy per Si atom -5581.503065 kJ/mol
# Density = 1.866730 g / cm^3
# Si number density = 18.709882 Si / 1000 Ang^3
#
#
#
# Elastic Constant Matrix: (Units=GPa)
#
#
# Indices 1 2 3 4 5 6 
#
# 1 111.7191 28.9086 61.7940 0.0000 -7.0699 0.0000
# 2 28.9086 65.6319 30.5586 0.0000 -1.0558 0.0000
# 3 61.7940 30.5586 124.3931 0.0000 4.1233 0.0000
# 4 0.0000 0.0000 0.0000 13.3527 0.0000 2.9982
# 5 -7.0699 -1.0558 4.1233 0.0000 38.9297 0.0000
# 6 0.0000 0.0000 0.0000 2.9982 0.0000 25.0220
#
#
#
# Elastic Compliance Matrix: (Units=1/GPa)
#
#
# Indices 1 2 3 4 5 6 
#
# 1 0.013183 -0.003009 -0.005907 0.000000 0.002938 0.000000
# 2 -0.003009 0.017924 -0.002917 0.000000 0.000249 0.000000
# 3 -0.005907 -0.002917 0.011769 0.000000 -0.002398 0.000000
# 4 0.000000 0.000000 0.000000 0.076962 0.000000 -0.009222
# 5 0.002938 0.000249 -0.002398 0.000000 0.026482 0.000000
# 6 0.000000 0.000000 0.000000 -0.009222 0.000000 0.041070
#
#
# Mechanical properties :
#
#
# Convention : Reuss Voigt Hill
#
# Bulk Modulus (GPa) = 52.05394 60.47405 56.26400
# Shear Modulus (GPa) = 22.99293 27.49308 25.24300
#
# Velocity S-wave (km/s) = 3.50940 3.83749 3.67710
# Velocity P-wave (km/s) = 6.65606 7.21299 6.94012
#
# Compressibility (1/GPa) = 0.01921084
#
# Stress axis : x y z
#
# Youngs Moduli (GPa) = 75.85643 55.79150 84.96617
#
# Poissons Ratio (x) = 0.16788 0.50189
# Poissons Ratio (y) = 0.22825 0.24782
# Poissons Ratio (z) = 0.44808 0.16273
#
# Static dielectric constant tensor:
#      x y z
#    x 1.623120 0.000000 -0.009170 
#    y 0.000000 1.687800 0.000000 
#    z -0.009170 0.000000 1.639410 
# 
# From -- ./inp_files/59540.got.cif
#   From: 2010.05.17/outbox.cif.g08.bks.cpg/sg11_30_cif.got.tgz:59540.got - 2010.06.03 12:22:45.
