data_PCOD9160427
_publ_section_title
;
Structure prediction by ZEFSAII (Michael W. Deem and Ramdas Pophale) SiO2 
 PCOD9160427
Probable space group: P 21/M
;
_chemical_formula_sum "Si O2"
_cell_formula_units_Z 32
_cell_length_a 15.740106
_cell_length_b 7.905638
_cell_length_c 25.300102
_cell_angle_alpha 90.000000
_cell_angle_beta 27.996931
_cell_angle_gamma 90.000000
_cell_volume 1477.856909
_symmetry_space_group_name_H-M "P 21/M"
_symmetry_group_IT_number 11
_symmetry_cell_setting 'monoclinic'
loop_
_space_group_symop_operation_xyz
x,y,z
-x,1/2+y,-z
-x,-y,-z
x,1/2-y,z
loop_
_atom_site_type_symbol
_atom_site_label
_atom_site_fract_x
_atom_site_fract_y
_atom_site_fract_z
Si Si1 0.131048 0.451546 0.475739
Si Si2 0.457948 0.048407 0.769552
Si Si3 0.864649 0.953058 0.121807
Si Si4 0.016308 0.947148 0.828044
Si Si5 0.306017 0.442960 0.585400
Si Si6 0.640511 0.046792 0.877312
Si Si7 0.042802 0.458309 0.642315
Si Si8 0.620052 0.957259 0.070002
O O1 0.136221 0.250000 0.475499
O O2 0.332776 0.514460 0.354116
O O3 0.064376 0.511970 0.569763
O O4 0.000000 0.500000 0.500000
O O5 0.429513 0.250000 0.787232
O O6 0.331222 0.987428 0.791554
O O7 0.395834 0.981997 0.861023
O O8 0.865964 0.750000 0.128707
O O9 0.923497 0.035865 0.144140
O O10 0.000000 0.000000 0.000000
O O11 0.019132 0.750000 0.811259
O O12 0.157388 0.041210 0.713304
O O13 0.809578 0.011156 0.939808
O O14 0.500000 0.500000 0.500000
O O15 0.335424 0.250000 0.554634
O O16 0.207174 0.522606 0.588583
O O17 0.649117 0.250000 0.870561
O O18 0.550018 0.989554 0.871875
O O19 0.845789 0.985543 0.771504
O O20 0.500000 0.000000 0.000000
O O21 0.043485 0.250000 0.643397
O O22 0.623504 0.750000 0.069044
#
# Coordination Sequence:
#
# PCOD9160427 Si02
#       8
#     4   4   4   4   4   4   4   4
#     4  11  23  41  64  92 122 163 206 253 309 370
#     4  10  21  39  60  86 119 158 202 249 303 364
#     4  11  22  38  61  91 126 165 206 256 312 371
#     4  11  22  39  61  88 124 164 203 254 312 372
#     4  11  24  43  63  89 119 161 213 264 316 371
#     4  10  19  35  60  85 112 148 189 237 294 357
#     4   9  21  41  63  85 120 162 202 247 307 368
#     4   9  18  35  59  85 117 156 192 233 299 367
#
# _framework density 21.652975999999999
#
# number of rings (size 3 to 8) (size 9 to 14) (size 15 to 20)
#    0.000    1.750    1.250    3.000    1.750    3.000 
#    0.000    6.250    0.000    0.000    0.000    0.000 
#    0.000    0.000    0.000    0.000    0.000    0.000 
#
# Total GULP energy -178820.934065 kJ/mol
# GULP energy per Si atom -5588.154190 kJ/mol
# Density = 2.160369 g / cm^3
# Si number density = 21.652976 Si / 1000 Ang^3
#
#
#
# Elastic Constant Matrix: (Units=GPa)
#
#
# Indices 1 2 3 4 5 6 
#
# 1 138.4092 -0.3119 44.6427 0.0000 -22.6130 0.0000
# 2 -0.3119 19.9814 -10.4923 0.0000 -7.4555 0.0000
# 3 44.6427 -10.4923 107.1732 0.0000 -23.0900 0.0000
# 4 0.0000 0.0000 0.0000 30.3106 0.0000 0.6779
# 5 -22.6130 -7.4555 -23.0900 0.0000 45.2908 0.0000
# 6 0.0000 0.0000 0.0000 0.6779 0.0000 18.6218
#
#
#
# Elastic Compliance Matrix: (Units=1/GPa)
#
#
# Indices 1 2 3 4 5 6 
#
# 1 0.008653 -0.000483 -0.003076 0.000000 0.002673 0.000000
# 2 -0.000483 0.060222 0.009190 0.000000 0.014358 0.000000
# 3 -0.003076 0.009190 0.012926 0.000000 0.006567 0.000000
# 4 0.000000 0.000000 0.000000 0.033019 0.000000 -0.001202
# 5 0.002673 0.014358 0.006567 0.000000 0.029126 0.000000
# 6 0.000000 0.000000 0.000000 -0.001202 0.000000 0.053744
#
#
# Mechanical properties :
#
#
# Convention : Reuss Voigt Hill
#
# Bulk Modulus (GPa) = 10.74526 37.02677 23.88601
# Shear Modulus (GPa) = 22.99406 34.29297 28.64351
#
# Velocity S-wave (km/s) = 3.26227 3.98396 3.64104
# Velocity P-wave (km/s) = 4.37757 6.18868 5.36017
#
# Compressibility (1/GPa) = 0.09306429
#
# Stress axis : x y z
#
# Youngs Moduli (GPa) = 115.57300 16.60526 77.36060
#
# Poissons Ratio (x) = 0.00802 0.23794
# Poissons Ratio (y) = 0.05580 -0.71096
# Poissons Ratio (z) = 0.35546 -0.15260
#
# Static dielectric constant tensor:
#      x y z
#    x 1.806940 0.000000 -0.012560 
#    y 0.000000 1.828710 0.000000 
#    z -0.012560 0.000000 1.754080 
# 
# From -- ./inp_files/68987.got.cif
#   From: 2010.05.17/outbox.cif.g08.bks.cpg/sg11_35_cif.got.tgz:68987.got - 2010.06.03 12:22:45.
