data_PCOD9160213
_publ_section_title
;
Structure prediction by ZEFSAII (Michael W. Deem and Ramdas Pophale) SiO2 
 PCOD9160213
Probable space group: P 21/M
;
_chemical_formula_sum "Si O2"
_cell_formula_units_Z 30
_cell_length_a 11.600960
_cell_length_b 9.194073
_cell_length_c 12.114206
_cell_angle_alpha 90.000000
_cell_angle_beta 111.326285
_cell_angle_gamma 90.000000
_cell_volume 1203.624740
_symmetry_space_group_name_H-M "P 21/M"
_symmetry_group_IT_number 11
_symmetry_cell_setting 'monoclinic'
loop_
_space_group_symop_operation_xyz
x,y,z
-x,1/2+y,-z
-x,-y,-z
x,1/2-y,z
loop_
_atom_site_type_symbol
_atom_site_label
_atom_site_fract_x
_atom_site_fract_y
_atom_site_fract_z
Si Si1 0.862164 0.922252 0.046777
Si Si2 0.346554 0.082096 0.855503
Si Si3 0.464058 0.086971 0.207148
Si Si4 0.224759 0.922980 0.197511
Si Si5 0.951375 0.921849 0.717823
Si Si6 0.162068 0.916200 0.635201
Si Si7 0.486191 0.250000 0.543332
Si Si8 0.651777 0.041741 0.474246
O O1 0.892261 0.750000 0.046016
O O2 0.725238 0.931277 0.054427
O O3 0.950728 0.002513 0.164544
O O4 0.857182 0.007722 0.930557
O O5 0.383898 0.250000 0.851203
O O6 0.458504 0.973742 0.868799
O O7 0.242879 0.035098 0.729293
O O8 0.414223 0.250000 0.174187
O O9 0.561141 0.094173 0.341859
O O10 0.360085 0.974894 0.208143
O O11 0.212380 0.750000 0.196512
O O12 0.175506 0.999805 0.291571
O O13 0.937471 0.750000 0.734686
O O14 0.020196 0.936086 0.623507
O O15 0.192165 0.750000 0.685012
O O16 0.213481 0.925048 0.529136
O O17 0.594270 0.127449 0.556072
O O18 0.381042 0.375299 0.522953
#
# Coordination Sequence:
#
# PCOD9160213 Si02
#       8
#     4   4   4   4   4   4   2   4
#     4  10  20  36  55  77 107 138 182 236 274 312
#     4   9  18  31  52  78 103 140 179 218 268 313
#     4  11  22  37  54  75 112 147 177 214 263 328
#     4  12  25  37  52  75 102 143 190 229 273 315
#     4  10  20  36  56  77 104 143 187 232 269 305
#     4   9  17  31  52  78 111 142 174 214 262 311
#     4  10  20  32  58  88 120 136 166 202 262 316
#     4  10  19  35  55  90 116 141 164 208 256 321
#
# _framework density 24.924712
#
# number of rings (size 3 to 8) (size 9 to 14) (size 15 to 20)
#    0.000    1.867    1.333    4.000    4.667    2.667 
#    0.000    0.000    0.000    0.000    0.000    5.600 
#    0.000    0.000    0.000    0.000    0.000    0.000 
#
# Total GULP energy -167336.157065 kJ/mol
# GULP energy per Si atom -5577.871902 kJ/mol
# Density = 2.486798 g / cm^3
# Si number density = 24.924712 Si / 1000 Ang^3
#
#
#
# Elastic Constant Matrix: (Units=GPa)
#
#
# Indices 1 2 3 4 5 6 
#
# 1 124.0941 52.1090 1.1382 0.0000 -32.3746 0.0000
# 2 52.1090 232.7846 42.5140 0.0000 -32.4374 0.0000
# 3 1.1382 42.5140 85.3984 0.0000 -22.6181 0.0000
# 4 0.0000 0.0000 0.0000 3.4922 0.0000 -13.3123
# 5 -32.3746 -32.4374 -22.6181 0.0000 46.6183 0.0000
# 6 0.0000 0.0000 0.0000 -13.3123 0.0000 41.8537
#
#
#
# Elastic Compliance Matrix: (Units=1/GPa)
#
#
# Indices 1 2 3 4 5 6 
#
# 1 0.010786 -0.001873 0.002785 0.000000 0.007539 0.000000
# 2 -0.001873 0.005311 -0.002277 0.000000 0.001290 0.000000
# 3 0.002785 -0.002277 0.014801 0.000000 0.007531 0.000000
# 4 0.000000 0.000000 0.000000 -1.347699 0.000000 -0.428660
# 5 0.007539 0.001290 0.007531 0.000000 0.031237 0.000000
# 6 0.000000 0.000000 0.000000 -0.428660 0.000000 -0.112450
#
#
# Mechanical properties :
#
#
# Convention : Reuss Voigt Hill
#
# Bulk Modulus (GPa) = 35.50109 70.42218 52.96164
# Shear Modulus (GPa) = -3.60778 41.49392 18.94307
#
# Velocity S-wave (km/s) = -1.20441 4.08459 2.75982
# Velocity P-wave (km/s) = 3.51285 7.11058 5.60805
#
# Compressibility (1/GPa) = 0.02816815
#
# Stress axis : x y z
#
# Youngs Moduli (GPa) = 92.71313 188.30140 67.56343
#
# Poissons Ratio (x) = 0.35262 -0.18817
# Poissons Ratio (y) = 0.17362 0.15386
# Poissons Ratio (z) = -0.25822 0.42880
#
# Static dielectric constant tensor:
#      x y z
#    x 2.036370 0.000000 0.060370 
#    y 0.000000 2.036360 0.000000 
#    z 0.060370 0.000000 2.098940 
# 
# From -- ./inp_files/58659.got.cif
#   From: 2010.05.17/outbox.cif.g08.bks.cpg/sg11_30_cif.got.tgz:58659.got - 2010.06.03 12:22:45.
