data_PCOD9160033
_publ_section_title
;
Structure prediction by ZEFSAII (Michael W. Deem and Ramdas Pophale) SiO2 
 PCOD9160033
Probable space group: P 21/M
;
_chemical_formula_sum "Si O2"
_cell_formula_units_Z 32
_cell_length_a 11.894111
_cell_length_b 13.962363
_cell_length_c 20.592004
_cell_angle_alpha 90.000000
_cell_angle_beta 148.804881
_cell_angle_gamma 90.000000
_cell_volume 1771.253960
_symmetry_space_group_name_H-M "P 21/M"
_symmetry_group_IT_number 11
_symmetry_cell_setting 'monoclinic'
loop_
_space_group_symop_operation_xyz
x,y,z
-x,1/2+y,-z
-x,-y,-z
x,1/2-y,z
loop_
_atom_site_type_symbol
_atom_site_label
_atom_site_fract_x
_atom_site_fract_y
_atom_site_fract_z
Si Si1 0.558207 0.865399 0.557967
Si Si2 0.622141 0.363475 0.667354
Si Si3 0.874456 0.860900 0.122978
Si Si4 0.224153 0.635658 0.509426
Si Si5 0.901188 0.864617 0.831044
Si Si6 0.353136 0.529928 0.062676
Si Si7 0.563765 0.981622 0.747231
Si Si8 0.778181 0.636260 0.226245
O O1 0.564999 0.750000 0.554979
O O2 0.505358 0.900408 0.459752
O O3 0.365396 0.884023 0.513967
O O4 0.779386 0.894093 0.703669
O O5 0.579839 0.250000 0.655694
O O6 0.563955 0.425235 0.701161
O O7 0.877934 0.373888 0.778252
O O8 0.816054 0.750000 0.082311
O O9 0.719112 0.932863 0.008599
O O10 0.857601 0.878065 0.191652
O O11 0.238690 0.750000 0.528223
O O12 0.343738 0.577038 0.624534
O O13 0.976541 0.610437 0.371968
O O14 0.886123 0.750000 0.829627
O O15 0.760435 0.915131 0.817767
O O16 0.146082 0.900081 0.954222
O O17 0.400123 0.509038 0.161060
O O18 0.563749 0.576994 0.134832
O O19 0.735922 0.750000 0.213185
#
# Coordination Sequence:
#
# PCOD9160033 Si02
#       8
#     4   4   4   4   4   4   4   4
#     4   8  15  31  55  81 106 136 184 237 281 323
#     4  10  19  34  57  85 116 146 187 240 287 335
#     4  10  21  38  60  83 111 149 195 239 280 332
#     4   9  18  36  61  85 107 142 191 239 283 330
#     4  10  21  36  55  83 118 151 185 233 289 340
#     4  12  24  38  54  85 121 155 190 224 279 345
#     4  11  23  36  54  85 120 150 189 225 281 349
#     4  10  21  40  64  84 106 144 196 245 285 331
#
# _framework density 18.066296000000001
#
# number of rings (size 3 to 8) (size 9 to 14) (size 15 to 20)
#    0.000    2.000    2.500    2.250    0.000    5.500 
#    0.000    0.000    0.000    0.750    0.000    0.000 
#    0.000    0.000    0.000    0.000    0.000    0.000 
#
# Total GULP energy -178694.068804 kJ/mol
# GULP energy per Si atom -5584.189650 kJ/mol
# Density = 1.802518 g / cm^3
# Si number density = 18.066296 Si / 1000 Ang^3
#
#
#
# Elastic Constant Matrix: (Units=GPa)
#
#
# Indices 1 2 3 4 5 6 
#
# 1 14.9197 11.1363 14.4806 0.0000 -18.9361 0.0000
# 2 11.1363 63.4697 23.4929 0.0000 -22.8002 0.0000
# 3 14.4806 23.4929 78.4816 0.0000 -37.6077 0.0000
# 4 0.0000 0.0000 0.0000 32.7316 0.0000 7.0010
# 5 -18.9361 -22.8002 -37.6077 0.0000 -17.8453 0.0000
# 6 0.0000 0.0000 0.0000 7.0010 0.0000 7.5077
#
#
#
# Elastic Compliance Matrix: (Units=1/GPa)
#
#
# Indices 1 2 3 4 5 6 
#
# 1 0.069585 -0.012335 -0.018398 0.000000 -0.019306 0.000000
# 2 -0.012335 0.018811 -0.004279 0.000000 -0.001928 0.000000
# 3 -0.018398 -0.004279 0.014624 0.000000 -0.005829 0.000000
# 4 0.000000 0.000000 0.000000 0.038163 0.000000 -0.035587
# 5 -0.019306 -0.001928 -0.005829 0.000000 -0.020803 0.000000
# 6 0.000000 0.000000 0.000000 -0.035587 0.000000 0.166381
#
#
# Mechanical properties :
#
#
# Convention : Reuss Voigt Hill
#
# Bulk Modulus (GPa) = 30.30604 28.34338 29.32471
# Shear Modulus (GPa) = 13.59490 11.66289 12.62889
#
# Velocity S-wave (km/s) = 2.74615 2.54355 2.64679
# Velocity P-wave (km/s) = 5.18329 4.93445 5.06040
#
# Compressibility (1/GPa) = 0.03299672
#
# Stress axis : x y z
#
# Youngs Moduli (GPa) = 14.37082 53.16026 68.38063
#
# Poissons Ratio (x) = 0.65572 1.25808
# Poissons Ratio (y) = 0.17726 0.29259
# Poissons Ratio (z) = 0.26440 0.22747
#
# Static dielectric constant tensor:
#      x y z
#    x 1.576630 0.000000 -0.003590 
#    y 0.000000 1.641300 0.000000 
#    z -0.003590 0.000000 1.621790 
# 
# From -- ./inp_files/59492.got.cif
#   From: 2010.05.17/outbox.cif.g08.bks.cpg/sg11_30_cif.got.tgz:59492.got - 2010.06.03 12:22:45.
