data_PCOD9160369
_publ_section_title
;
Structure prediction by ZEFSAII (Michael W. Deem and Ramdas Pophale) SiO2 
 PCOD9160369
Probable space group: P 21/M
;
_chemical_formula_sum "Si O2"
_cell_formula_units_Z 24
_cell_length_a 11.589745
_cell_length_b 13.794160
_cell_length_c 14.017776
_cell_angle_alpha 90.000000
_cell_angle_beta 149.581255
_cell_angle_gamma 90.000000
_cell_volume 1134.670692
_symmetry_space_group_name_H-M "P 21/M"
_symmetry_group_IT_number 11
_symmetry_cell_setting 'monoclinic'
loop_
_space_group_symop_operation_xyz
x,y,z
-x,1/2+y,-z
-x,-y,-z
x,1/2-y,z
loop_
_atom_site_type_symbol
_atom_site_label
_atom_site_fract_x
_atom_site_fract_y
_atom_site_fract_z
Si Si1 0.295411 0.471404 0.111301
Si Si2 0.138157 0.976874 0.694077
Si Si3 0.403754 0.364272 0.996356
Si Si4 0.006809 0.860142 0.964952
Si Si5 0.720294 0.532348 0.527102
Si Si6 0.630235 0.357553 0.601623
O O1 0.117497 0.560261 0.974144
O O2 0.538050 0.516493 0.311678
O O3 0.311042 0.403653 0.031340
O O4 0.214205 0.407907 0.144259
O O5 0.958726 0.947349 0.647852
O O6 0.269671 0.073968 0.821539
O O7 0.331960 0.895945 0.819496
O O8 0.000000 0.000000 0.500000
O O9 0.373509 0.250000 0.965519
O O10 0.979032 0.750000 0.911292
O O11 0.186864 0.857809 0.181730
O O12 0.715601 0.433449 0.584665
O O13 0.606415 0.609767 0.517623
O O14 0.613797 0.250000 0.549946
#
# Coordination Sequence:
#
# PCOD9160369 Si02
#       6
#     4   4   4   4   4   4
#     4  10  19  35  58  89 130 167 214 273 322 385
#     4  11  24  46  68  94 133 171 216 274 326 388
#     4  11  25  44  68  96 127 170 221 269 329 396
#     4   9  18  33  55  85 125 173 214 260 325 386
#     4  10  20  36  60  90 125 169 208 266 324 380
#     4   9  19  35  57  88 122 164 213 259 317 382
#
# _framework density 21.151509999999998
#
# number of rings (size 3 to 8) (size 9 to 14) (size 15 to 20)
#    0.000    2.000    1.667    1.500    0.000    6.000 
#    0.000    3.333    0.000    0.000    0.000    0.000 
#    0.000    0.000    0.000    0.000    0.000    0.000 
#
# Total GULP energy -134230.019529 kJ/mol
# GULP energy per Si atom -5592.917480 kJ/mol
# Density = 2.110337 g / cm^3
# Si number density = 21.151510 Si / 1000 Ang^3
#
#
#
# Elastic Constant Matrix: (Units=GPa)
#
#
# Indices 1 2 3 4 5 6 
#
# 1 92.4366 18.8875 29.4359 0.0000 15.4247 0.0000
# 2 18.8875 118.1746 7.5002 0.0000 5.4393 0.0000
# 3 29.4359 7.5002 80.7946 0.0000 4.1015 0.0000
# 4 0.0000 0.0000 0.0000 17.2457 0.0000 -3.9378
# 5 15.4247 5.4393 4.1015 0.0000 43.7829 0.0000
# 6 0.0000 0.0000 0.0000 -3.9378 0.0000 22.9368
#
#
#
# Elastic Compliance Matrix: (Units=1/GPa)
#
#
# Indices 1 2 3 4 5 6 
#
# 1 0.013254 -0.001648 -0.004470 0.000000 -0.004046 0.000000
# 2 -0.001648 0.008760 -0.000188 0.000000 -0.000490 0.000000
# 3 -0.004470 -0.000188 0.014009 0.000000 0.000286 0.000000
# 4 0.000000 0.000000 0.000000 0.060351 0.000000 0.010361
# 5 -0.004046 -0.000490 0.000286 0.000000 0.024299 0.000000
# 6 0.000000 0.000000 0.000000 0.010361 0.000000 0.045377
#
#
# Mechanical properties :
#
#
# Convention : Reuss Voigt Hill
#
# Bulk Modulus (GPa) = 42.71786 44.78366 43.75076
# Shear Modulus (GPa) = 26.81457 32.49857 29.65657
#
# Velocity S-wave (km/s) = 3.56439 3.92403 3.74853
# Velocity P-wave (km/s) = 6.09753 6.46138 6.28209
#
# Compressibility (1/GPa) = 0.02340941
#
# Stress axis : x y z
#
# Youngs Moduli (GPa) = 75.45075 114.15558 71.38445
#
# Poissons Ratio (x) = 0.18817 0.31911
# Poissons Ratio (y) = 0.12437 0.01340
# Poissons Ratio (z) = 0.33729 0.02143
#
# Static dielectric constant tensor:
#      x y z
#    x 1.747410 0.000000 -0.005960 
#    y 0.000000 1.722310 0.000000 
#    z -0.005960 0.000000 1.845000 
# 
# From -- ./inp_files/50422.got.cif
#   From: 2010.05.17/outbox.cif.g08.bks.cpg/sg11_26_cif.got.tgz:50422.got - 2010.06.03 12:22:45.
