data_PCOD9160411
_publ_section_title
;
Structure prediction by ZEFSAII (Michael W. Deem and Ramdas Pophale) SiO2 
 PCOD9160411
Probable space group: P 21/M
;
_chemical_formula_sum "Si O2"
_cell_formula_units_Z 24
_cell_length_a 12.422578
_cell_length_b 9.152214
_cell_length_c 25.039474
_cell_angle_alpha 90.000000
_cell_angle_beta 25.622445
_cell_angle_gamma 90.000000
_cell_volume 1231.084755
_symmetry_space_group_name_H-M "P 21/M"
_symmetry_group_IT_number 11
_symmetry_cell_setting 'monoclinic'
loop_
_space_group_symop_operation_xyz
x,y,z
-x,1/2+y,-z
-x,-y,-z
x,1/2-y,z
loop_
_atom_site_type_symbol
_atom_site_label
_atom_site_fract_x
_atom_site_fract_y
_atom_site_fract_z
Si Si1 0.260487 0.079158 0.128550
Si Si2 0.171180 0.072981 0.877633
Si Si3 0.408114 0.916789 0.488720
Si Si4 0.087250 0.416839 0.795868
Si Si5 0.124387 0.076006 0.310743
Si Si6 0.248118 0.925380 0.362612
O O1 0.270048 0.250000 0.114239
O O2 0.244447 0.057373 0.199061
O O3 0.036400 0.012147 0.194774
O O4 0.500000 0.000000 0.000000
O O5 0.157779 0.250000 0.888727
O O6 0.061869 0.032932 0.868121
O O7 0.468734 0.035596 0.745048
O O8 0.000000 0.000000 0.000000
O O9 0.351343 0.750000 0.530953
O O10 0.622939 0.913798 0.348817
O O11 0.159439 0.973428 0.572428
O O12 0.500000 0.000000 0.500000
O O13 0.990716 0.250000 0.835143
O O14 0.129097 0.250000 0.322653
O O15 0.241854 0.980256 0.304368
O O16 0.222556 0.750000 0.379482
O O17 0.000000 0.000000 0.500000
#
# Coordination Sequence:
#
# PCOD9160411 Si02
#       6
#     4   4   4   4   4   4
#     4  11  24  40  60  88 124 162 204 251 304 366
#     4  10  24  44  65  92 125 164 211 263 315 370
#     4  10  19  35  59  88 122 155 194 245 300 363
#     4  10  21  39  63  88 121 159 198 250 310 366
#     4  10  22  40  62  90 126 163 201 252 307 364
#     4  11  24  43  67  95 128 167 213 262 312 375
#
# _framework density 19.495003000000001
#
# number of rings (size 3 to 8) (size 9 to 14) (size 15 to 20)
#    0.000    1.667    1.667    2.000    2.333    6.667 
#    0.000    1.667    0.000    0.000    0.000    0.000 
#    0.000    0.000    0.000    0.000    0.000    0.000 
#
# Total GULP energy -133923.188763 kJ/mol
# GULP energy per Si atom -5580.132865 kJ/mol
# Density = 1.945063 g / cm^3
# Si number density = 19.495003 Si / 1000 Ang^3
#
#
#
# Elastic Constant Matrix: (Units=GPa)
#
#
# Indices 1 2 3 4 5 6 
#
# 1 77.2228 35.0890 6.3901 0.0000 12.2400 0.0000
# 2 35.0890 53.4179 31.0276 0.0000 9.7099 0.0000
# 3 6.3901 31.0276 79.2107 0.0000 2.9800 0.0000
# 4 0.0000 0.0000 0.0000 33.3576 0.0000 3.8401
# 5 12.2400 9.7099 2.9800 0.0000 30.3269 0.0000
# 6 0.0000 0.0000 0.0000 3.8401 0.0000 31.1065
#
#
#
# Elastic Compliance Matrix: (Units=1/GPa)
#
#
# Indices 1 2 3 4 5 6 
#
# 1 0.019998 -0.015028 0.004412 0.000000 -0.003693 0.000000
# 2 -0.015028 0.037034 -0.013125 0.000000 -0.004502 0.000000
# 3 0.004412 -0.013125 0.017383 0.000000 0.000713 0.000000
# 4 0.000000 0.000000 0.000000 0.030410 0.000000 -0.003754
# 5 -0.003693 -0.004502 0.000713 0.000000 0.035836 0.000000
# 6 0.000000 0.000000 0.000000 -0.003754 0.000000 0.032611
#
#
# Mechanical properties :
#
#
# Convention : Reuss Voigt Hill
#
# Bulk Modulus (GPa) = 37.12782 39.42942 38.27862
# Shear Modulus (GPa) = 21.76456 28.11451 24.93954
#
# Velocity S-wave (km/s) = 3.34491 3.80167 3.58058
# Velocity P-wave (km/s) = 5.83130 6.28805 6.06398
#
# Compressibility (1/GPa) = 0.02693398
#
# Stress axis : x y z
#
# Youngs Moduli (GPa) = 50.00413 27.00247 57.52793
#
# Poissons Ratio (x) = 0.40579 -0.25383
# Poissons Ratio (y) = 0.75146 0.75504
# Poissons Ratio (z) = -0.22063 0.35440
#
# Static dielectric constant tensor:
#      x y z
#    x 1.727900 0.000000 -0.041100 
#    y 0.000000 1.650150 0.000000 
#    z -0.041100 0.000000 1.737480 
# 
# From -- ./inp_files/68367.got.cif
#   From: 2010.05.17/outbox.cif.g08.bks.cpg/sg11_35_cif.got.tgz:68367.got - 2010.06.03 12:22:45.
