data_PCOD9160167
_publ_section_title
;
Structure prediction by ZEFSAII (Michael W. Deem and Ramdas Pophale) SiO2 
 PCOD9160167
Probable space group: P 21/M
;
_chemical_formula_sum "Si O2"
_cell_formula_units_Z 32
_cell_length_a 11.332211
_cell_length_b 18.917385
_cell_length_c 10.007831
_cell_angle_alpha 90.000000
_cell_angle_beta 55.496903
_cell_angle_gamma 90.000000
_cell_volume 1768.044934
_symmetry_space_group_name_H-M "P 21/M"
_symmetry_group_IT_number 11
_symmetry_cell_setting 'monoclinic'
loop_
_space_group_symop_operation_xyz
x,y,z
-x,1/2+y,-z
-x,-y,-z
x,1/2-y,z
loop_
_atom_site_type_symbol
_atom_site_label
_atom_site_fract_x
_atom_site_fract_y
_atom_site_fract_z
Si Si1 0.182566 0.834592 0.665145
Si Si2 0.138216 0.087226 0.498443
Si Si3 0.850617 0.666273 0.946433
Si Si4 0.885650 0.579859 0.181263
Si Si5 0.211204 0.563535 0.878058
Si Si6 0.650677 0.665478 0.831932
Si Si7 0.396223 0.935970 0.021883
Si Si8 0.177630 0.922062 0.407443
O O1 0.204136 0.750000 0.647923
O O2 0.247902 0.871443 0.755746
O O3 0.227043 0.872791 0.498950
O O4 0.011394 0.849447 0.791548
O O5 0.139585 0.104534 0.653423
O O6 0.258648 0.130866 0.344843
O O7 0.981290 0.101402 0.537039
O O8 0.165396 0.003292 0.463776
O O9 0.840925 0.750000 0.966976
O O10 0.828174 0.630046 0.102144
O O11 0.736236 0.642839 0.910712
O O12 0.814307 0.503927 0.200313
O O13 0.056332 0.575057 0.046681
O O14 0.319785 0.549423 0.929107
O O15 0.651014 0.750000 0.823012
O O16 0.494237 0.632756 0.939173
O O17 0.281375 0.922659 0.212833
O O18 0.500000 0.000000 0.000000
#
# Coordination Sequence:
#
# PCOD9160167 Si02
#       8
#     4   4   4   4   4   4   4   4
#     4  10  20  38  62  89 122 156 200 261 313 357
#     4  11  21  37  63  96 123 152 208 266 307 357
#     4   9  19  36  59  88 121 160 200 244 308 367
#     4  10  19  34  62  94 119 152 200 266 303 354
#     4  10  21  36  59  92 124 158 202 248 316 365
#     4  11  24  42  62  87 128 172 201 244 315 381
#     4  12  24  41  62  92 127 166 205 254 309 375
#     4  11  22  37  63  96 121 156 210 260 307 361
#
# _framework density 18.099086
#
# number of rings (size 3 to 8) (size 9 to 14) (size 15 to 20)
#    0.000    1.500    5.000    0.750    0.000    1.500 
#    0.000    3.750    0.000    0.000    0.000    0.000 
#    0.000    0.000    0.000    0.000    0.000    0.000 
#
# Total GULP energy -178655.199017 kJ/mol
# GULP energy per Si atom -5582.974969 kJ/mol
# Density = 1.805789 g / cm^3
# Si number density = 18.099086 Si / 1000 Ang^3
#
#
#
# Elastic Constant Matrix: (Units=GPa)
#
#
# Indices 1 2 3 4 5 6 
#
# 1 76.5692 27.0569 34.1720 0.0000 27.5357 0.0000
# 2 27.0569 49.2734 30.0601 0.0000 14.5938 0.0000
# 3 34.1720 30.0601 98.6507 0.0000 23.8116 0.0000
# 4 0.0000 0.0000 0.0000 24.8875 0.0000 3.8957
# 5 27.5357 14.5938 23.8116 0.0000 32.7679 0.0000
# 6 0.0000 0.0000 0.0000 3.8957 0.0000 25.7976
#
#
#
# Elastic Compliance Matrix: (Units=1/GPa)
#
#
# Indices 1 2 3 4 5 6 
#
# 1 0.021030 -0.006292 -0.002156 0.000000 -0.013302 0.000000
# 2 -0.006292 0.028115 -0.005629 0.000000 -0.003144 0.000000
# 3 -0.002156 -0.005629 0.014015 0.000000 -0.005865 0.000000
# 4 0.000000 0.000000 0.000000 0.041154 0.000000 -0.006215
# 5 -0.013302 -0.003144 -0.005865 0.000000 0.047358 0.000000
# 6 0.000000 0.000000 0.000000 -0.006215 0.000000 0.039702
#
#
# Mechanical properties :
#
#
# Convention : Reuss Voigt Hill
#
# Bulk Modulus (GPa) = 28.56754 45.23015 36.89884
# Shear Modulus (GPa) = 21.62670 25.57090 23.59880
#
# Velocity S-wave (km/s) = 3.46049 3.76284 3.61483
# Velocity P-wave (km/s) = 5.63781 6.62745 6.15256
#
# Compressibility (1/GPa) = 0.03500476
#
# Stress axis : x y z
#
# Youngs Moduli (GPa) = 47.55173 35.56807 71.35461
#
# Poissons Ratio (x) = 0.22381 0.15387
# Poissons Ratio (y) = 0.29921 0.40162
# Poissons Ratio (z) = 0.10254 0.20020
#
# Static dielectric constant tensor:
#      x y z
#    x 1.619190 0.000000 -0.003060 
#    y 0.000000 1.712390 0.000000 
#    z -0.003060 0.000000 1.596680 
# 
# From -- ./inp_files/19384.got.cif
#   From: 2010.05.17/outbox.cif.g08.bks.cpg/sg11_10_cif.got.tgz:19384.got - 2010.06.03 12:22:45.
