data_PCOD9160804
_publ_section_title
;
Structure prediction by ZEFSAII (Michael W. Deem and Ramdas Pophale) SiO2 
 PCOD9160804
Probable space group: P 21/M
;
_chemical_formula_sum "Si O2"
_cell_formula_units_Z 32
_cell_length_a 12.437080
_cell_length_b 8.367876
_cell_length_c 15.977226
_cell_angle_alpha 90.000000
_cell_angle_beta 89.957427
_cell_angle_gamma 90.000000
_cell_volume 1662.780498
_symmetry_space_group_name_H-M "P 21/M"
_symmetry_group_IT_number 11
_symmetry_cell_setting 'monoclinic'
loop_
_space_group_symop_operation_xyz
x,y,z
-x,1/2+y,-z
-x,-y,-z
x,1/2-y,z
loop_
_atom_site_type_symbol
_atom_site_label
_atom_site_fract_x
_atom_site_fract_y
_atom_site_fract_z
Si Si1 0.623309 0.059166 0.500548
Si Si2 0.269410 0.054624 0.155116
Si Si3 0.732174 0.056694 0.156755
Si Si4 0.779026 0.056124 0.347735
Si Si5 0.501586 0.057378 0.094259
Si Si6 0.765938 0.560710 0.655677
Si Si7 0.122941 0.441624 0.997715
Si Si8 0.008503 0.939270 0.405989
O O1 0.620329 0.250000 0.496518
O O2 0.693313 0.003827 0.419233
O O3 0.500000 0.000000 0.500000
O O4 0.687241 0.010728 0.584925
O O5 0.265072 0.250000 0.154794
O O6 0.390767 0.003478 0.135285
O O7 0.246340 0.000122 0.249318
O O8 0.189424 0.002234 0.080420
O O9 0.735577 0.250000 0.152945
O O10 0.751704 0.010614 0.252723
O O11 0.612340 0.000564 0.134206
O O12 0.815447 0.995867 0.086657
O O13 0.784557 0.250000 0.352351
O O14 0.895880 0.985279 0.365208
O O15 0.502093 0.250000 0.097401
O O16 0.500000 0.000000 0.000000
O O17 0.745463 0.750000 0.655736
O O18 0.888628 0.525589 0.632320
O O19 0.122920 0.250000 0.999162
O O20 0.000000 0.500000 0.000000
O O21 0.026073 0.750000 0.403283
O O22 0.000000 0.000000 0.500000
#
# Coordination Sequence:
#
# PCOD9160804 Si02
#       8
#     4   4   4   4   4   4   4   4
#     4  11  24  42  64  91 126 166 206 254 307 370
#     4   9  21  39  62  88 120 161 202 245 308 370
#     4  10  22  39  63  91 120 160 205 250 306 367
#     4  10  23  42  64  89 122 163 207 253 308 370
#     4  10  19  37  63  89 118 154 200 250 299 359
#     4  11  23  41  66  92 122 163 208 257 308 367
#     4  11  23  41  61  87 123 163 204 252 306 368
#     4  12  24  41  65  92 123 160 205 256 311 368
#
# _framework density 19.244872999999998
#
# number of rings (size 3 to 8) (size 9 to 14) (size 15 to 20)
#    0.000    1.500    2.500    2.250    3.500    1.000 
#    0.000    3.125    0.000    0.000    0.000    0.000 
#    0.000    0.000    0.000    0.000    0.000    0.000 
#
# Total GULP energy -178688.767009 kJ/mol
# GULP energy per Si atom -5584.023969 kJ/mol
# Density = 1.920107 g / cm^3
# Si number density = 19.244873 Si / 1000 Ang^3
#
#
#
# Elastic Constant Matrix: (Units=GPa)
#
#
# Indices 1 2 3 4 5 6 
#
# 1 171.5735 13.9653 96.2086 0.0000 1.4669 0.0000
# 2 13.9653 20.3524 19.5701 0.0000 6.2886 0.0000
# 3 96.2086 19.5701 185.7953 0.0000 -0.7827 0.0000
# 4 0.0000 0.0000 0.0000 28.9014 0.0000 1.0117
# 5 1.4669 6.2886 -0.7827 0.0000 42.3489 0.0000
# 6 0.0000 0.0000 0.0000 1.0117 0.0000 31.4025
#
#
#
# Elastic Compliance Matrix: (Units=1/GPa)
#
#
# Indices 1 2 3 4 5 6 
#
# 1 0.008268 -0.001693 -0.004104 0.000000 -0.000111 0.000000
# 2 -0.001693 0.058042 -0.005273 0.000000 -0.008658 0.000000
# 3 -0.004104 -0.005273 0.008067 0.000000 0.001074 0.000000
# 4 0.000000 0.000000 0.000000 0.034639 0.000000 -0.001116
# 5 -0.000111 -0.008658 0.001074 0.000000 0.024923 0.000000
# 6 0.000000 0.000000 0.000000 -0.001116 0.000000 0.031881
#
#
# Mechanical properties :
#
#
# Convention : Reuss Voigt Hill
#
# Bulk Modulus (GPa) = 19.14361 70.80103 44.97232
# Shear Modulus (GPa) = 24.34601 37.06236 30.70419
#
# Velocity S-wave (km/s) = 3.56063 4.39319 3.99864
# Velocity P-wave (km/s) = 5.18393 7.91220 6.68865
#
# Compressibility (1/GPa) = 0.05223675
#
# Stress axis : x y z
#
# Youngs Moduli (GPa) = 120.94488 17.22898 123.95974
#
# Poissons Ratio (x) = 0.02918 0.50868
# Poissons Ratio (y) = 0.20481 0.65367
# Poissons Ratio (z) = 0.49630 0.09085
#
# Static dielectric constant tensor:
#      x y z
#    x 1.625820 0.000000 -0.000040 
#    y 0.000000 1.669430 0.000000 
#    z -0.000040 0.000000 1.684200 
# 
# From -- ./inp_files/38271.got.cif
#   From: 2010.05.17/outbox.cif.g08.bks.cpg/sg11_20_cif.got.tgz:38271.got - 2010.06.03 12:22:45.
