data_PCOD9160194
_publ_section_title
;
Structure prediction by ZEFSAII (Michael W. Deem and Ramdas Pophale) SiO2 
 PCOD9160194
Probable space group: P 21/M
;
_chemical_formula_sum "Si O2"
_cell_formula_units_Z 28
_cell_length_a 19.746906
_cell_length_b 8.743692
_cell_length_c 14.786316
_cell_angle_alpha 90.000000
_cell_angle_beta 41.445047
_cell_angle_gamma 90.000000
_cell_volume 1689.846283
_symmetry_space_group_name_H-M "P 21/M"
_symmetry_group_IT_number 11
_symmetry_cell_setting 'monoclinic'
loop_
_space_group_symop_operation_xyz
x,y,z
-x,1/2+y,-z
-x,-y,-z
x,1/2-y,z
loop_
_atom_site_type_symbol
_atom_site_label
_atom_site_fract_x
_atom_site_fract_y
_atom_site_fract_z
Si Si1 0.993430 0.432809 0.107283
Si Si2 0.880937 0.566282 0.523338
Si Si3 0.610653 0.433770 0.288150
Si Si4 0.119556 0.566342 0.286027
Si Si5 0.185883 0.564862 0.023502
Si Si6 0.389846 0.567672 0.500258
Si Si7 0.801857 0.933602 0.408547
O O1 0.991315 0.250000 0.105689
O O2 0.091336 0.490493 0.065538
O O3 0.891730 0.493835 0.258305
O O4 0.000000 0.500000 0.000000
O O5 0.879063 0.750000 0.529931
O O6 0.843162 0.500998 0.656458
O O7 0.820630 0.519096 0.493933
O O8 0.000314 0.519179 0.393439
O O9 0.597264 0.250000 0.296338
O O10 0.505164 0.513244 0.365774
O O11 0.630876 0.471838 0.373336
O O12 0.707605 0.476937 0.130439
O O13 0.121488 0.750000 0.290338
O O14 0.179220 0.521358 0.135702
O O15 0.174601 0.750000 0.029093
O O16 0.381649 0.750000 0.499125
O O17 0.306421 0.487163 0.521484
O O18 0.810599 0.750000 0.394963
#
# Coordination Sequence:
#
# PCOD9160194 Si02
#       7
#     4   4   4   4   4   4   4
#     4  12  24  35  50  75 108 143 175 210 260 314
#     4   9  18  32  50  74 104 137 172 212 259 311
#     4   9  19  35  55  75 101 139 176 214 260 309
#     4   9  17  31  51  75 104 136 171 214 260 308
#     4  10  19  35  55  77 106 138 176 217 261 314
#     4  10  20  34  53  79 106 135 177 220 259 310
#     4  11  21  36  55  76 106 140 176 217 263 313
#
# _framework density 16.569554
#
# number of rings (size 3 to 8) (size 9 to 14) (size 15 to 20)
#    0.000    2.000    1.429    3.000    0.000    4.000 
#    0.000    0.000    0.000    0.857    0.000    0.000 
#    0.000    0.000    0.000    0.000    0.000    0.000 
#
# Total GULP energy -156295.946777 kJ/mol
# GULP energy per Si atom -5581.998099 kJ/mol
# Density = 1.653184 g / cm^3
# Si number density = 16.569554 Si / 1000 Ang^3
#
#
#
# Elastic Constant Matrix: (Units=GPa)
#
#
# Indices 1 2 3 4 5 6 
#
# 1 146.3386 47.7022 68.3097 0.0000 10.2749 0.0000
# 2 47.7022 43.3794 30.0259 0.0000 0.6997 0.0000
# 3 68.3097 30.0259 69.5906 0.0000 4.3977 0.0000
# 4 0.0000 0.0000 0.0000 23.2936 0.0000 4.0172
# 5 10.2749 0.6997 4.3977 0.0000 22.5120 0.0000
# 6 0.0000 0.0000 0.0000 4.0172 0.0000 22.4141
#
#
#
# Elastic Compliance Matrix: (Units=1/GPa)
#
#
# Indices 1 2 3 4 5 6 
#
# 1 0.015070 -0.009208 -0.010533 0.000000 -0.004535 0.000000
# 2 -0.009208 0.038564 -0.007888 0.000000 0.004545 0.000000
# 3 -0.010533 -0.007888 0.028141 0.000000 -0.000444 0.000000
# 4 0.000000 0.000000 0.000000 0.044299 0.000000 -0.007940
# 5 -0.004535 0.004545 -0.000444 0.000000 0.046436 0.000000
# 6 0.000000 0.000000 0.000000 -0.007940 0.000000 0.046038
#
#
# Mechanical properties :
#
#
# Convention : Reuss Voigt Hill
#
# Bulk Modulus (GPa) = 37.71188 61.26493 49.48840
# Shear Modulus (GPa) = 17.68994 21.19534 19.44264
#
# Velocity S-wave (km/s) = 3.27099 3.58043 3.42920
# Velocity P-wave (km/s) = 6.08892 7.35849 6.75360
#
# Compressibility (1/GPa) = 0.02651684
#
# Stress axis : x y z
#
# Youngs Moduli (GPa) = 66.35544 25.93059 35.53559
#
# Poissons Ratio (x) = 0.23877 0.37431
# Poissons Ratio (y) = 0.61100 0.28030
# Poissons Ratio (z) = 0.69895 0.20454
#
# Static dielectric constant tensor:
#      x y z
#    x 1.540860 0.000000 0.014000 
#    y 0.000000 1.566130 0.000000 
#    z 0.014000 0.000000 1.541280 
# 
# From -- ./inp_files/53197.got.cif
#   From: 2010.05.17/outbox.cif.g08.bks.cpg/sg11_27_cif.got.tgz:53197.got - 2010.06.03 12:22:45.
