data_PCOD9160136
_publ_section_title
;
Structure prediction by ZEFSAII (Michael W. Deem and Ramdas Pophale) SiO2 
 PCOD9160136
Probable space group: P 21/M
;
_chemical_formula_sum "Si O2"
_cell_formula_units_Z 32
_cell_length_a 11.600083
_cell_length_b 19.475631
_cell_length_c 9.441137
_cell_angle_alpha 90.000000
_cell_angle_beta 125.768202
_cell_angle_gamma 90.000000
_cell_volume 1730.635838
_symmetry_space_group_name_H-M "P 21/M"
_symmetry_group_IT_number 11
_symmetry_cell_setting 'monoclinic'
loop_
_space_group_symop_operation_xyz
x,y,z
-x,1/2+y,-z
-x,-y,-z
x,1/2-y,z
loop_
_atom_site_type_symbol
_atom_site_label
_atom_site_fract_x
_atom_site_fract_y
_atom_site_fract_z
Si Si1 0.133852 0.171997 0.575703
Si Si2 0.764003 0.674046 0.679409
Si Si3 0.074062 0.561223 0.639832
Si Si4 0.454726 0.670898 0.333107
Si Si5 0.363198 0.951586 0.433775
Si Si6 0.420322 0.103630 0.850142
Si Si7 0.607307 0.444663 0.226645
Si Si8 0.084154 0.459439 0.180340
O O1 0.127263 0.250000 0.621822
O O2 0.178681 0.173421 0.441757
O O3 0.258216 0.128872 0.740184
O O4 0.987629 0.130982 0.472091
O O5 0.787924 0.750000 0.756383
O O6 0.596045 0.663373 0.533361
O O7 0.845959 0.613082 0.815866
O O8 0.241942 0.558931 0.743988
O O9 0.000000 0.500000 0.500000
O O10 0.019611 0.554108 0.761423
O O11 0.406915 0.750000 0.307404
O O12 0.353718 0.610704 0.315825
O O13 0.502272 0.653017 0.207057
O O14 0.380418 0.921857 0.603452
O O15 0.500000 0.000000 0.500000
O O16 0.220606 0.996737 0.328740
O O17 0.429731 0.025977 0.796526
O O18 0.494380 0.097756 0.054812
O O19 0.000000 0.500000 0.000000
#
# Coordination Sequence:
#
# PCOD9160136 Si02
#       8
#     4   4   4   4   4   4   4   4
#     4   9  17  34  59  83 111 154 196 234 289 357
#     4   8  15  33  58  82 108 145 196 240 286 350
#     4  11  20  39  58  83 122 157 194 238 297 362
#     4  10  20  37  61  86 117 158 196 242 302 361
#     4  12  21  39  60  87 120 155 200 249 300 357
#     4  10  19  34  59  92 116 148 197 259 295 349
#     4  11  22  35  60  92 120 154 197 253 308 347
#     4  11  23  35  59  91 116 156 199 249 297 350
#
# _framework density 18.490314999999999
#
# number of rings (size 3 to 8) (size 9 to 14) (size 15 to 20)
#    0.000    1.750    5.000    1.875    1.750    0.000 
#    0.000    3.750    0.000    2.250    0.000    0.000 
#    0.000    0.000    0.000    0.000    0.000    0.000 
#
# Total GULP energy -178500.504682 kJ/mol
# GULP energy per Si atom -5578.140771 kJ/mol
# Density = 1.844823 g / cm^3
# Si number density = 18.490315 Si / 1000 Ang^3
#
#
#
# Elastic Constant Matrix: (Units=GPa)
#
#
# Indices 1 2 3 4 5 6 
#
# 1 53.5668 7.2713 9.5462 0.0000 -1.6661 0.0000
# 2 7.2713 100.8834 28.7691 0.0000 -0.8194 0.0000
# 3 9.5462 28.7691 86.6235 0.0000 1.0051 0.0000
# 4 0.0000 0.0000 0.0000 27.3395 0.0000 1.0455
# 5 -1.6661 -0.8194 1.0051 0.0000 14.1397 0.0000
# 6 0.0000 0.0000 0.0000 1.0455 0.0000 20.3817
#
#
#
# Elastic Compliance Matrix: (Units=1/GPa)
#
#
# Indices 1 2 3 4 5 6 
#
# 1 0.019187 -0.000832 -0.001865 0.000000 0.002345 0.000000
# 2 -0.000832 0.010997 -0.003570 0.000000 0.000793 0.000000
# 3 -0.001865 -0.003570 0.012951 0.000000 -0.001347 0.000000
# 4 0.000000 0.000000 0.000000 0.036649 0.000000 -0.001880
# 5 0.002345 0.000793 -0.001347 0.000000 0.071141 0.000000
# 6 0.000000 0.000000 0.000000 -0.001880 0.000000 0.049160
#
#
# Mechanical properties :
#
#
# Convention : Reuss Voigt Hill
#
# Bulk Modulus (GPa) = 32.67934 36.91632 34.79783
# Shear Modulus (GPa) = 22.43979 25.40464 23.92222
#
# Velocity S-wave (km/s) = 3.48745 3.71070 3.60080
# Velocity P-wave (km/s) = 5.82482 6.19416 6.01233
#
# Compressibility (1/GPa) = 0.03060037
#
# Stress axis : x y z
#
# Youngs Moduli (GPa) = 52.11981 90.93526 77.21413
#
# Poissons Ratio (x) = 0.07565 0.14403
# Poissons Ratio (y) = 0.04336 0.27564
# Poissons Ratio (z) = 0.09722 0.32462
#
# Static dielectric constant tensor:
#      x y z
#    x 1.646160 0.000000 0.001290 
#    y 0.000000 1.664130 0.000000 
#    z 0.001290 0.000000 1.628690 
# 
# From -- ./inp_files/19424.got.cif
#   From: 2010.05.17/outbox.cif.g08.bks.cpg/sg11_10_cif.got.tgz:19424.got - 2010.06.03 12:22:45.
