data_PCOD9160936
_publ_section_title
;
Structure prediction by ZEFSAII (Michael W. Deem and Ramdas Pophale) SiO2 
 PCOD9160936
Probable space group: P 21/M
;
_chemical_formula_sum "Si O2"
_cell_formula_units_Z 32
_cell_length_a 14.957241
_cell_length_b 13.737132
_cell_length_c 12.205761
_cell_angle_alpha 90.000000
_cell_angle_beta 37.985379
_cell_angle_gamma 90.000000
_cell_volume 1543.520906
_symmetry_space_group_name_H-M "P 21/M"
_symmetry_group_IT_number 11
_symmetry_cell_setting 'monoclinic'
loop_
_space_group_symop_operation_xyz
x,y,z
-x,1/2+y,-z
-x,-y,-z
x,1/2-y,z
loop_
_atom_site_type_symbol
_atom_site_label
_atom_site_fract_x
_atom_site_fract_y
_atom_site_fract_z
Si Si1 0.752024 0.448274 0.121510
Si Si2 0.178763 0.566865 0.296988
Si Si3 0.745040 0.012777 0.556092
Si Si4 0.249589 0.861188 0.650123
Si Si5 0.432437 0.984842 0.912639
Si Si6 0.097438 0.141534 0.037672
Si Si7 0.003494 0.138512 0.725530
Si Si8 0.785254 0.638859 0.828382
O O1 0.702367 0.390761 0.275473
O O2 0.630645 0.459390 0.145842
O O3 0.810492 0.554186 0.101695
O O4 0.888225 0.397316 0.928202
O O5 0.181438 0.582610 0.423525
O O6 0.075738 0.625687 0.315636
O O7 0.149319 0.450028 0.306497
O O8 0.339879 0.577836 0.088859
O O9 0.602639 0.970188 0.752130
O O10 0.858912 0.931991 0.409476
O O11 0.692075 0.071456 0.502238
O O12 0.285124 0.750000 0.592995
O O13 0.073529 0.872066 0.816697
O O14 0.376089 0.095407 0.990982
O O15 0.137617 0.250000 0.960890
O O16 0.131930 0.136319 0.134663
O O17 0.041975 0.250000 0.707118
O O18 0.787721 0.750000 0.784915
#
# Coordination Sequence:
#
# PCOD9160936 Si02
#       8
#     4   4   4   4   4   4   4   4
#     4  10  19  42  60  82 117 161 194 249 299 358
#     4   9  20  39  61  84 117 164 189 243 299 361
#     4  12  22  38  59  90 127 151 196 255 302 348
#     4  11  23  35  58  87 117 156 200 250 305 358
#     4   8  20  37  63  84 117 156 198 234 304 357
#     4   9  16  31  58  89 111 142 195 244 292 351
#     4  11  23  39  60  87 115 158 206 249 301 358
#     4   8  15  32  59  86 112 147 193 235 290 361
#
# _framework density 20.731822999999999
#
# number of rings (size 3 to 8) (size 9 to 14) (size 15 to 20)
#    0.750    1.500    2.500    1.500    0.000    2.000 
#    0.000    4.375    0.000    0.000    0.000    0.000 
#    0.000    0.000    0.000    0.000    0.000    0.000 
#
# Total GULP energy -178544.425230 kJ/mol
# GULP energy per Si atom -5579.513288 kJ/mol
# Density = 2.068464 g / cm^3
# Si number density = 20.731823 Si / 1000 Ang^3
#
#
#
# Elastic Constant Matrix: (Units=GPa)
#
#
# Indices 1 2 3 4 5 6 
#
# 1 45.7746 12.0743 20.0822 0.0000 11.5077 0.0000
# 2 12.0743 71.1740 9.2656 0.0000 8.2841 0.0000
# 3 20.0822 9.2656 47.2285 0.0000 4.7359 0.0000
# 4 0.0000 0.0000 0.0000 2.3005 0.0000 -1.5607
# 5 11.5077 8.2841 4.7359 0.0000 23.3685 0.0000
# 6 0.0000 0.0000 0.0000 -1.5607 0.0000 8.6815
#
#
#
# Elastic Compliance Matrix: (Units=1/GPa)
#
#
# Indices 1 2 3 4 5 6 
#
# 1 0.030384 -0.002306 -0.011278 0.000000 -0.011859 0.000000
# 2 -0.002306 0.015102 -0.001592 0.000000 -0.003896 0.000000
# 3 -0.011278 -0.001592 0.026200 0.000000 0.000808 0.000000
# 4 0.000000 0.000000 0.000000 0.495063 0.000000 0.089000
# 5 -0.011859 -0.003896 0.000808 0.000000 0.049850 0.000000
# 6 0.000000 0.000000 0.000000 0.089000 0.000000 0.131188
#
#
# Mechanical properties :
#
#
# Convention : Reuss Voigt Hill
#
# Bulk Modulus (GPa) = 24.19261 27.44681 25.81971
# Shear Modulus (GPa) = 6.31380 15.05377 10.68378
#
# Velocity S-wave (km/s) = 1.74702 2.69758 2.27256
# Velocity P-wave (km/s) = 3.97040 4.79274 4.40082
#
# Compressibility (1/GPa) = 0.04133493
#
# Stress axis : x y z
#
# Youngs Moduli (GPa) = 32.91241 66.21696 38.16738
#
# Poissons Ratio (x) = 0.15269 0.43045
# Poissons Ratio (y) = 0.07589 0.06075
# Poissons Ratio (z) = 0.37118 0.10539
#
# Static dielectric constant tensor:
#      x y z
#    x 1.748610 0.000000 0.007300 
#    y 0.000000 1.732000 0.000000 
#    z 0.007300 0.000000 1.773830 
# 
# From -- ./inp_files/39627.got.cif
#   From: 2010.05.17/outbox.cif.g08.bks.cpg/sg11_20_cif.got.tgz:39627.got - 2010.06.03 12:22:45.
