data_PCOD9160946
_publ_section_title
;
Structure prediction by ZEFSAII (Michael W. Deem and Ramdas Pophale) SiO2 
 PCOD9160946
Probable space group: P 21/M
;
_chemical_formula_sum "Si O2"
_cell_formula_units_Z 32
_cell_length_a 31.305679
_cell_length_b 9.086918
_cell_length_c 23.448570
_cell_angle_alpha 90.000000
_cell_angle_beta 162.370530
_cell_angle_gamma 90.000000
_cell_volume 2020.217802
_symmetry_space_group_name_H-M "P 21/M"
_symmetry_group_IT_number 11
_symmetry_cell_setting 'monoclinic'
loop_
_space_group_symop_operation_xyz
x,y,z
-x,1/2+y,-z
-x,-y,-z
x,1/2-y,z
loop_
_atom_site_type_symbol
_atom_site_label
_atom_site_fract_x
_atom_site_fract_y
_atom_site_fract_z
Si Si1 0.825103 0.579098 0.443730
Si Si2 0.855931 0.426241 0.795315
Si Si3 0.611584 0.073661 0.098706
Si Si4 0.031631 0.572783 0.799245
Si Si5 0.645154 0.925009 0.613696
Si Si6 0.186120 0.924811 0.391286
Si Si7 0.321102 0.574816 0.223120
Si Si8 0.401708 0.079644 0.740331
O O1 0.836791 0.750000 0.441705
O O2 0.761485 0.486234 0.310868
O O3 0.710945 0.572578 0.350505
O O4 0.967872 0.527775 0.656748
O O5 0.863843 0.250000 0.812062
O O6 0.730355 0.491686 0.673438
O O7 0.832306 0.459674 0.698582
O O8 0.000000 0.500000 0.000000
O O9 0.604964 0.250000 0.095929
O O10 0.550685 0.036475 0.958526
O O11 0.500000 0.000000 0.000000
O O12 0.013193 0.750000 0.778767
O O13 0.936196 0.501375 0.727148
O O14 0.193900 0.538640 0.018599
O O15 0.669216 0.750000 0.640795
O O16 0.477085 0.953485 0.397278
O O17 0.693974 0.985239 0.737454
O O18 0.176466 0.750000 0.386607
O O19 0.334252 0.982191 0.605226
O O20 0.313097 0.750000 0.225910
O O21 0.408379 0.250000 0.730721
#
# Coordination Sequence:
#
# PCOD9160946 Si02
#       8
#     4   4   4   4   4   4   4   4
#     4   8  14  23  35  54  79 108 141 172 205 249
#     4  11  23  36  49  67  91 118 148 183 222 263
#     4   9  15  22  33  51  76 107 141 173 206 247
#     4   9  17  29  44  62  87 118 147 176 215 259
#     4  10  20  33  50  71  90 113 148 184 221 265
#     4  10  20  30  42  63  87 112 147 185 216 254
#     4   9  18  33  51  68  89 117 147 182 221 261
#     4   8  15  26  38  53  77 111 145 174 210 255
#
# _framework density 15.839877
#
# number of rings (size 3 to 8) (size 9 to 14) (size 15 to 20)
#    0.000    2.750    0.000    3.750    0.000   10.000 
#    0.000    0.000    0.000    0.000    0.000    0.000 
#    0.000    1.000    0.000    2.250    0.000    5.125 
#
# Total GULP energy -178215.513001 kJ/mol
# GULP energy per Si atom -5569.234781 kJ/mol
# Density = 1.580382 g / cm^3
# Si number density = 15.839877 Si / 1000 Ang^3
#
#
#
# Elastic Constant Matrix: (Units=GPa)
#
#
# Indices 1 2 3 4 5 6 
#
# 1 44.1308 32.0614 42.8994 0.0000 -15.4853 0.0000
# 2 32.0614 45.2868 45.4584 0.0000 -16.1959 0.0000
# 3 42.8994 45.4584 132.8802 0.0000 -38.0642 0.0000
# 4 0.0000 0.0000 0.0000 25.1305 0.0000 -5.5480
# 5 -15.4853 -16.1959 -38.0642 0.0000 24.4727 0.0000
# 6 0.0000 0.0000 0.0000 -5.5480 0.0000 21.6742
#
#
#
# Elastic Compliance Matrix: (Units=1/GPa)
#
#
# Indices 1 2 3 4 5 6 
#
# 1 0.050049 -0.028721 -0.004880 0.000000 0.005072 0.000000
# 2 -0.028721 0.050973 -0.006688 0.000000 0.005158 0.000000
# 3 -0.004880 -0.006688 0.016659 0.000000 0.018397 0.000000
# 4 0.000000 0.000000 0.000000 0.042176 0.000000 0.010796
# 5 0.005072 0.005158 0.018397 0.000000 0.076099 0.000000
# 6 0.000000 0.000000 0.000000 0.010796 0.000000 0.048901
#
#
# Mechanical properties :
#
#
# Convention : Reuss Voigt Hill
#
# Bulk Modulus (GPa) = 26.95161 51.45958 39.20560
# Shear Modulus (GPa) = 13.23449 21.04739 17.14094
#
# Velocity S-wave (km/s) = 2.89367 3.64917 3.29316
# Velocity P-wave (km/s) = 5.31191 7.09318 6.26616
#
# Compressibility (1/GPa) = 0.03710354
#
# Stress axis : x y z
#
# Youngs Moduli (GPa) = 19.98040 19.61840 60.02824
#
# Poissons Ratio (x) = 0.56346 0.29292
# Poissons Ratio (y) = 0.57385 0.40147
# Poissons Ratio (z) = 0.09750 0.13121
#
# Static dielectric constant tensor:
#      x y z
#    x 1.499310 0.000000 -0.024460 
#    y 0.000000 1.527410 0.000000 
#    z -0.024460 0.000000 1.581130 
# 
# From -- ./inp_files/67142.got.cif
#   From: 2010.05.17/outbox.cif.g08.bks.cpg/sg11_34_cif.got.tgz:67142.got - 2010.06.03 12:22:45.
