data_PCOD9160184
_publ_section_title
;
Structure prediction by ZEFSAII (Michael W. Deem and Ramdas Pophale) SiO2 
 PCOD9160184
Probable space group: P 21/M
;
_chemical_formula_sum "Si O2"
_cell_formula_units_Z 32
_cell_length_a 8.366278
_cell_length_b 26.204802
_cell_length_c 12.438574
_cell_angle_alpha 90.000000
_cell_angle_beta 144.525051
_cell_angle_gamma 90.000000
_cell_volume 1582.601143
_symmetry_space_group_name_H-M "P 21/M"
_symmetry_group_IT_number 11
_symmetry_cell_setting 'monoclinic'
loop_
_space_group_symop_operation_xyz
x,y,z
-x,1/2+y,-z
-x,-y,-z
x,1/2-y,z
loop_
_atom_site_type_symbol
_atom_site_label
_atom_site_fract_x
_atom_site_fract_y
_atom_site_fract_z
Si Si1 0.441775 0.961712 0.062767
Si Si2 0.568816 0.012706 0.359518
Si Si3 0.939137 0.585376 0.880394
Si Si4 0.234628 0.694097 0.531953
Si Si5 0.310497 0.584967 0.297430
Si Si6 0.009776 0.410234 0.651840
Si Si7 0.150998 0.306049 0.101142
Si Si8 0.654457 0.305445 0.663468
O O1 0.664949 0.917065 0.173752
O O2 0.497527 0.992191 0.202848
O O3 0.134645 0.939937 0.899562
O O4 0.500000 0.000000 0.000000
O O5 0.863559 0.039698 0.522675
O O6 0.350270 0.056933 0.270448
O O7 0.511327 0.963635 0.403567
O O8 0.908138 0.646123 0.854799
O O9 0.103458 0.578077 0.083362
O O10 0.111055 0.750000 0.490338
O O11 0.068611 0.641898 0.451843
O O12 0.527668 0.689661 0.752453
O O13 0.305039 0.695497 0.442516
O O14 0.121728 0.589184 0.300210
O O15 0.469263 0.639207 0.375062
O O16 0.113753 0.250000 0.131297
O O17 0.947592 0.307891 0.887556
O O18 0.529325 0.250000 0.625149
#
# Coordination Sequence:
#
# PCOD9160184 Si02
#       8
#     4   4   4   4   4   4   4   4
#     4  11  23  37  51  74 111 148 176 223 278 330
#     4  11  20  34  54  77 104 139 182 223 260 323
#     4  10  19  35  54  77 104 139 181 220 266 323
#     4   9  17  31  52  80 109 136 177 227 267 321
#     4   9  18  30  51  76 103 133 174 223 261 316
#     4  11  20  34  53  80 108 137 180 217 278 327
#     4   9  16  30  53  80 104 135 177 227 272 316
#     4   8  15  27  46  75 106 133 169 218 272 318
#
# _framework density 20.219878000000001
#
# number of rings (size 3 to 8) (size 9 to 14) (size 15 to 20)
#    0.000    2.250    1.250    3.750    0.000    0.000 
#    0.000    0.625    0.000    0.750    0.000    1.750 
#    0.000    0.000    0.000    0.000    0.000    0.000 
#
# Total GULP energy -178369.583180 kJ/mol
# GULP energy per Si atom -5574.049474 kJ/mol
# Density = 2.017386 g / cm^3
# Si number density = 20.219878 Si / 1000 Ang^3
#
#
#
# Elastic Constant Matrix: (Units=GPa)
#
#
# Indices 1 2 3 4 5 6 
#
# 1 47.3906 13.6330 4.8769 0.0000 1.8108 0.0000
# 2 13.6330 129.6955 13.0289 0.0000 -0.4201 0.0000
# 3 4.8769 13.0289 35.5601 0.0000 3.3927 0.0000
# 4 0.0000 0.0000 0.0000 29.1984 0.0000 4.0441
# 5 1.8108 -0.4201 3.3927 0.0000 20.2162 0.0000
# 6 0.0000 0.0000 0.0000 4.0441 0.0000 9.0180
#
#
#
# Elastic Compliance Matrix: (Units=1/GPa)
#
#
# Indices 1 2 3 4 5 6 
#
# 1 0.021985 -0.002107 -0.002085 0.000000 -0.001663 0.000000
# 2 -0.002107 0.008216 -0.002800 0.000000 0.000829 0.000000
# 3 -0.002085 -0.002800 0.029900 0.000000 -0.004889 0.000000
# 4 0.000000 0.000000 0.000000 0.036517 0.000000 -0.016376
# 5 -0.001663 0.000829 -0.004889 0.000000 0.050452 0.000000
# 6 0.000000 0.000000 0.000000 -0.016376 0.000000 0.118233
#
#
# Mechanical properties :
#
#
# Convention : Reuss Voigt Hill
#
# Bulk Modulus (GPa) = 21.68385 30.63597 26.15991
# Shear Modulus (GPa) = 16.96881 23.76037 20.36459
#
# Velocity S-wave (km/s) = 2.90006 3.43169 3.17702
# Velocity P-wave (km/s) = 4.68627 5.55755 5.14040
#
# Compressibility (1/GPa) = 0.04611728
#
# Stress axis : x y z
#
# Youngs Moduli (GPa) = 45.48473 121.71588 33.44506
#
# Poissons Ratio (x) = 0.25645 0.06972
# Poissons Ratio (y) = 0.09584 0.09366
# Poissons Ratio (z) = 0.09481 0.34085
#
# Static dielectric constant tensor:
#      x y z
#    x 1.701990 0.000000 -0.026940 
#    y 0.000000 1.825430 0.000000 
#    z -0.026940 0.000000 1.732320 
# 
# From -- ./inp_files/48524.got.cif
#   From: 2010.05.17/outbox.cif.g08.bks.cpg/sg11_25_cif.got.tgz:48524.got - 2010.06.03 12:22:45.
