data_PCOD9160163
_publ_section_title
;
Structure prediction by ZEFSAII (Michael W. Deem and Ramdas Pophale) SiO2 
 PCOD9160163
Probable space group: P 21/M
;
_chemical_formula_sum "Si O2"
_cell_formula_units_Z 24
_cell_length_a 11.330775
_cell_length_b 10.814034
_cell_length_c 11.450308
_cell_angle_alpha 90.000000
_cell_angle_beta 122.372201
_cell_angle_gamma 90.000000
_cell_volume 1184.975359
_symmetry_space_group_name_H-M "P 21/M"
_symmetry_group_IT_number 11
_symmetry_cell_setting 'monoclinic'
loop_
_space_group_symop_operation_xyz
x,y,z
-x,1/2+y,-z
-x,-y,-z
x,1/2-y,z
loop_
_atom_site_type_symbol
_atom_site_label
_atom_site_fract_x
_atom_site_fract_y
_atom_site_fract_z
Si Si1 0.938145 0.466658 0.095597
Si Si2 0.841730 0.930677 0.266473
Si Si3 0.210543 0.024006 0.368889
Si Si4 0.393848 0.250000 0.777686
Si Si5 0.717254 0.250000 0.948177
Si Si6 0.598154 0.750000 0.503095
Si Si7 0.134132 0.885059 0.543230
Si Si8 0.715709 0.250000 0.670835
O O1 0.880879 0.575792 0.150565
O O2 0.071317 0.419227 0.239648
O O3 0.812240 0.369548 0.024210
O O4 0.000000 0.500000 0.000000
O O5 0.698172 0.864374 0.222338
O O6 0.973855 0.880829 0.412609
O O7 0.843455 0.072544 0.312648
O O8 0.330422 0.123841 0.414371
O O9 0.199805 0.993406 0.499968
O O10 0.218989 0.883349 0.324786
O O11 0.555807 0.250000 0.905209
O O12 0.391509 0.250000 0.633996
O O13 0.702441 0.250000 0.801585
O O14 0.439926 0.750000 0.461252
O O15 0.195445 0.750000 0.554324
#
# Coordination Sequence:
#
# PCOD9160163 Si02
#       8
#     4   4   4   2   2   2   4   2
#     4  11  24  41  64  91 123 168 221 265 309 372
#     4  10  22  36  64  92 124 163 203 266 317 380
#     4  11  21  39  66  93 129 165 211 272 319 381
#     4  11  22  42  64  91 131 171 210 252 332 395
#     4  11  25  43  63  88 128 175 217 259 318 393
#     4  11  23  38  60  97 135 167 210 260 329 392
#     4  10  19  34  61  98 122 151 207 263 327 366
#     4  11  22  39  65  92 128 175 209 261 327 396
#
# _framework density 20.253585999999999
#
# number of rings (size 3 to 8) (size 9 to 14) (size 15 to 20)
#    0.000    1.333    5.000    1.000    1.167    1.333 
#    0.000    0.000    0.000    0.000    0.000    0.000 
#    0.000    0.000    0.000    0.000    0.000    0.000 
#
# Total GULP energy -133624.684859 kJ/mol
# GULP energy per Si atom -5567.695202 kJ/mol
# Density = 2.020749 g / cm^3
# Si number density = 20.253586 Si / 1000 Ang^3
#
#
#
# Elastic Constant Matrix: (Units=GPa)
#
#
# Indices 1 2 3 4 5 6 
#
# 1 109.6037 36.0007 47.1786 0.0000 10.2460 0.0000
# 2 36.0007 95.7651 34.4916 0.0000 16.5007 0.0000
# 3 47.1786 34.4916 74.7097 0.0000 8.0140 0.0000
# 4 0.0000 0.0000 0.0000 12.2063 0.0000 9.9157
# 5 10.2460 16.5007 8.0140 0.0000 48.2492 0.0000
# 6 0.0000 0.0000 0.0000 9.9157 0.0000 22.8075
#
#
#
# Elastic Compliance Matrix: (Units=1/GPa)
#
#
# Indices 1 2 3 4 5 6 
#
# 1 0.012971 -0.002177 -0.007097 0.000000 -0.000831 0.000000
# 2 -0.002177 0.013457 -0.004474 0.000000 -0.003397 0.000000
# 3 -0.007097 -0.004474 0.019962 0.000000 -0.000279 0.000000
# 4 0.000000 0.000000 0.000000 0.126656 0.000000 -0.055065
# 5 -0.000831 -0.003397 -0.000279 0.000000 0.022110 0.000000
# 6 0.000000 0.000000 0.000000 -0.055065 0.000000 0.067785
#
#
# Mechanical properties :
#
#
# Convention : Reuss Voigt Hill
#
# Bulk Modulus (GPa) = 52.92353 57.26892 55.09622
# Shear Modulus (GPa) = 16.84996 27.47977 22.16487
#
# Velocity S-wave (km/s) = 2.88748 3.68745 3.31171
# Velocity P-wave (km/s) = 6.10769 6.81668 6.47190
#
# Compressibility (1/GPa) = 0.01889519
#
# Stress axis : x y z
#
# Youngs Moduli (GPa) = 77.09209 74.30971 50.09449
#
# Poissons Ratio (x) = 0.16177 0.35553
# Poissons Ratio (y) = 0.16782 0.22411
# Poissons Ratio (z) = 0.54714 0.33244
#
# Static dielectric constant tensor:
#      x y z
#    x 1.788420 0.000000 -0.038320 
#    y 0.000000 1.779820 0.000000 
#    z -0.038320 0.000000 1.718310 
# 
# From -- ./inp_files/34946.got.cif
#   From: 2010.05.17/outbox.cif.g08.bks.cpg/sg11_18_cif.got.tgz:34946.got - 2010.06.03 12:22:45.
