data_PCOD9160739
_publ_section_title
;
Structure prediction by ZEFSAII (Michael W. Deem and Ramdas Pophale) SiO2 
 PCOD9160739
Probable space group: P 21/M
;
_chemical_formula_sum "Si O2"
_cell_formula_units_Z 28
_cell_length_a 27.846747
_cell_length_b 8.578515
_cell_length_c 9.587573
_cell_angle_alpha 90.000000
_cell_angle_beta 41.414248
_cell_angle_gamma 90.000000
_cell_volume 1515.039834
_symmetry_space_group_name_H-M "P 21/M"
_symmetry_group_IT_number 11
_symmetry_cell_setting 'monoclinic'
loop_
_space_group_symop_operation_xyz
x,y,z
-x,1/2+y,-z
-x,-y,-z
x,1/2-y,z
loop_
_atom_site_type_symbol
_atom_site_label
_atom_site_fract_x
_atom_site_fract_y
_atom_site_fract_z
Si Si1 0.570441 0.562795 0.429547
Si Si2 0.176506 0.926149 0.884789
Si Si3 0.265907 0.936932 0.956276
Si Si4 0.702018 0.424921 0.618233
Si Si5 0.564398 0.563714 0.766557
Si Si6 0.800143 0.932686 0.621696
Si Si7 0.080236 0.938813 0.853359
O O1 0.500000 0.500000 0.500000
O O2 0.571144 0.750000 0.415759
O O3 0.559416 0.517961 0.615701
O O4 0.651669 0.502940 0.212996
O O5 0.155152 0.750000 0.974947
O O6 0.235007 0.914881 0.633647
O O7 0.220214 0.996705 0.920308
O O8 0.109400 0.996052 0.942667
O O9 0.272806 0.750000 0.928617
O O10 0.218283 0.982295 0.194108
O O11 0.688527 0.250000 0.702806
O O12 0.634871 0.491459 0.682476
O O13 0.729513 0.536312 0.679824
O O14 0.566836 0.750000 0.766759
O O15 0.500000 0.500000 0.000000
O O16 0.811804 0.750000 0.618850
O O17 0.866301 0.002463 0.386344
O O18 0.082389 0.750000 0.850506
O O19 0.000000 0.000000 0.000000
#
# Coordination Sequence:
#
# PCOD9160739 Si02
#       7
#     4   4   4   4   4   4   4
#     4  11  25  42  59  84 117 158 203 251 304 360
#     4   8  17  34  60  87 113 148 191 235 287 345
#     4  11  21  39  63  87 117 157 199 249 301 356
#     4  10  19  37  60  83 110 148 195 245 294 350
#     4  11  24  39  57  82 113 150 197 248 300 356
#     4  11  23  38  58  89 122 157 196 242 292 352
#     4  10  20  39  64  94 124 157 195 240 292 352
#
# _framework density 18.481359999999999
#
# number of rings (size 3 to 8) (size 9 to 14) (size 15 to 20)
#    0.000    1.714    1.429    4.286    2.000    1.714 
#    0.000    2.857    0.000    0.000    0.000    0.000 
#    0.000    0.000    0.000    0.000    0.000    0.000 
#
# Total GULP energy -156108.418150 kJ/mol
# GULP energy per Si atom -5575.300648 kJ/mol
# Density = 1.843930 g / cm^3
# Si number density = 18.481360 Si / 1000 Ang^3
#
#
#
# Elastic Constant Matrix: (Units=GPa)
#
#
# Indices 1 2 3 4 5 6 
#
# 1 148.9623 24.8611 60.6771 0.0000 -23.3534 0.0000
# 2 24.8611 52.6696 24.9443 0.0000 -7.8380 0.0000
# 3 60.6771 24.9443 82.7404 0.0000 -4.4278 0.0000
# 4 0.0000 0.0000 0.0000 29.3299 0.0000 -3.9233
# 5 -23.3534 -7.8380 -4.4278 0.0000 27.5452 0.0000
# 6 0.0000 0.0000 0.0000 -3.9233 0.0000 27.1456
#
#
#
# Elastic Compliance Matrix: (Units=1/GPa)
#
#
# Indices 1 2 3 4 5 6 
#
# 1 0.011162 -0.000456 -0.007614 0.000000 0.008110 0.000000
# 2 -0.000456 0.022954 -0.006311 0.000000 0.005131 0.000000
# 3 -0.007614 -0.006311 0.019297 0.000000 -0.005149 0.000000
# 4 0.000000 0.000000 0.000000 0.034767 0.000000 0.005025
# 5 0.008110 0.005131 -0.005149 0.000000 0.043812 0.000000
# 6 0.000000 0.000000 0.000000 0.005025 0.000000 0.037565
#
#
# Mechanical properties :
#
#
# Convention : Reuss Voigt Hill
#
# Bulk Modulus (GPa) = 40.56721 56.14856 48.35788
# Shear Modulus (GPa) = 24.20889 28.39681 26.30285
#
# Velocity S-wave (km/s) = 3.62319 3.92409 3.77664
# Velocity P-wave (km/s) = 6.28501 7.13992 6.72606
#
# Compressibility (1/GPa) = 0.02465045
#
# Stress axis : x y z
#
# Youngs Moduli (GPa) = 89.58893 43.56547 51.82162
#
# Poissons Ratio (x) = 0.01986 0.39458
# Poissons Ratio (y) = 0.04083 0.32706
# Poissons Ratio (z) = 0.68215 0.27495
#
# Static dielectric constant tensor:
#      x y z
#    x 1.655200 0.000000 0.015970 
#    y 0.000000 1.683520 0.000000 
#    z 0.015970 0.000000 1.585510 
# 
# From -- ./inp_files/28468.got.cif
#   From: 2010.05.17/outbox.cif.g08.bks.cpg/sg11_15_cif.got.tgz:28468.got - 2010.06.03 12:22:45.
