data_PCOD9160120
_publ_section_title
;
Structure prediction by ZEFSAII (Michael W. Deem and Ramdas Pophale) SiO2 
 PCOD9160120
Probable space group: P 21/M
;
_chemical_formula_sum "Si O2"
_cell_formula_units_Z 32
_cell_length_a 11.563493
_cell_length_b 9.055448
_cell_length_c 28.197331
_cell_angle_alpha 90.000000
_cell_angle_beta 34.239472
_cell_angle_gamma 90.000000
_cell_volume 1661.298413
_symmetry_space_group_name_H-M "P 21/M"
_symmetry_group_IT_number 11
_symmetry_cell_setting 'monoclinic'
loop_
_space_group_symop_operation_xyz
x,y,z
-x,1/2+y,-z
-x,-y,-z
x,1/2-y,z
loop_
_atom_site_type_symbol
_atom_site_label
_atom_site_fract_x
_atom_site_fract_y
_atom_site_fract_z
Si Si1 0.795694 0.573473 0.589912
Si Si2 0.894843 0.925925 0.663548
Si Si3 0.203706 0.922970 0.871580
Si Si4 0.729432 0.576999 0.050569
Si Si5 0.048006 0.077398 0.752774
Si Si6 0.719167 0.578225 0.426699
Si Si7 0.622666 0.926725 0.279651
Si Si8 0.330851 0.074106 0.161751
O O1 0.799227 0.750000 0.582457
O O2 0.794392 0.541261 0.646977
O O3 0.593386 0.503281 0.635451
O O4 0.000000 0.500000 0.500000
O O5 0.927970 0.750000 0.654993
O O6 0.754000 0.966321 0.756523
O O7 0.114304 0.004632 0.594984
O O8 0.261718 0.750000 0.849111
O O9 0.261954 0.987503 0.903031
O O10 0.309101 0.015167 0.794687
O O11 0.956361 0.935460 0.951373
O O12 0.690829 0.750000 0.072750
O O13 0.546700 0.507348 0.082112
O O14 0.991699 0.250000 0.777914
O O15 0.179043 0.065932 0.659901
O O16 0.197630 0.032373 0.744513
O O17 0.844561 0.981313 0.814510
O O18 0.500000 0.500000 0.500000
O O19 0.694104 0.750000 0.446865
O O20 0.599152 0.750000 0.288390
O O21 0.355142 0.250000 0.151390
#
# Coordination Sequence:
#
# PCOD9160120 Si02
#       8
#     4   4   4   4   4   4   4   4
#     4  11  24  40  58  82 114 150 190 238 287 344
#     4   9  20  37  54  76 108 142 180 228 279 331
#     4  10  21  37  58  88 120 153 192 236 286 339
#     4  10  20  35  59  88 120 153 189 235 286 343
#     4   9  21  39  56  78 111 151 191 234 286 345
#     4  10  20  34  55  80 106 138 181 232 282 333
#     4  11  23  40  61  83 114 155 194 235 290 350
#     4  10  19  34  59  87 113 145 189 240 289 337
#
# _framework density 19.262041
#
# number of rings (size 3 to 8) (size 9 to 14) (size 15 to 20)
#    0.000    2.000    0.000    3.000    1.750    5.500 
#    0.000    0.625    0.000    0.000    0.000    0.000 
#    0.000    0.000    0.000    0.000    0.000    0.000 
#
# Total GULP energy -178799.104048 kJ/mol
# GULP energy per Si atom -5587.472001 kJ/mol
# Density = 1.921820 g / cm^3
# Si number density = 19.262041 Si / 1000 Ang^3
#
#
#
# Elastic Constant Matrix: (Units=GPa)
#
#
# Indices 1 2 3 4 5 6 
#
# 1 72.9959 35.2200 29.7071 0.0000 -25.3874 0.0000
# 2 35.2200 59.4767 31.6367 0.0000 -22.1881 0.0000
# 3 29.7071 31.6367 50.9493 0.0000 -27.2805 0.0000
# 4 0.0000 0.0000 0.0000 31.6123 0.0000 -8.1210
# 5 -25.3874 -22.1881 -27.2805 0.0000 34.1338 0.0000
# 6 0.0000 0.0000 0.0000 -8.1210 0.0000 32.6435
#
#
#
# Elastic Compliance Matrix: (Units=1/GPa)
#
#
# Indices 1 2 3 4 5 6 
#
# 1 0.021832 -0.008083 -0.003198 0.000000 0.008428 0.000000
# 2 -0.008083 0.029020 -0.011232 0.000000 0.003875 0.000000
# 3 -0.003198 -0.011232 0.040701 0.000000 0.022850 0.000000
# 4 0.000000 0.000000 0.000000 0.033793 0.000000 0.008407
# 5 0.008428 0.003875 0.022850 0.000000 0.056346 0.000000
# 6 0.000000 0.000000 0.000000 0.008407 0.000000 0.032725
#
#
# Mechanical properties :
#
#
# Convention : Reuss Voigt Hill
#
# Bulk Modulus (GPa) = 21.49265 41.83884 31.66574
# Shear Modulus (GPa) = 18.18499 25.46845 21.82672
#
# Velocity S-wave (km/s) = 3.07593 3.64016 3.36988
# Velocity P-wave (km/s) = 4.87826 6.27979 5.62286
#
# Compressibility (1/GPa) = 0.04652753
#
# Stress axis : x y z
#
# Youngs Moduli (GPa) = 45.80440 34.45905 24.56933
#
# Poissons Ratio (x) = 0.27854 0.07857
# Poissons Ratio (y) = 0.37024 0.27596
# Poissons Ratio (z) = 0.14648 0.38704
#
# Static dielectric constant tensor:
#      x y z
#    x 1.671500 0.000000 -0.004020 
#    y 0.000000 1.639760 0.000000 
#    z -0.004020 0.000000 1.669260 
# 
# From -- ./inp_files/64431.got.cif
#   From: 2010.05.17/outbox.cif.g08.bks.cpg/sg11_33_cif.got.tgz:64431.got - 2010.06.03 12:22:45.
