data_PCOD9160669
_publ_section_title
;
Structure prediction by ZEFSAII (Michael W. Deem and Ramdas Pophale) SiO2 
 PCOD9160669
Probable space group: P 21/M
;
_chemical_formula_sum "Si O2"
_cell_formula_units_Z 32
_cell_length_a 16.960588
_cell_length_b 14.260645
_cell_length_c 11.877168
_cell_angle_alpha 90.000000
_cell_angle_beta 36.624970
_cell_angle_gamma 90.000000
_cell_volume 1713.790770
_symmetry_space_group_name_H-M "P 21/M"
_symmetry_group_IT_number 11
_symmetry_cell_setting 'monoclinic'
loop_
_space_group_symop_operation_xyz
x,y,z
-x,1/2+y,-z
-x,-y,-z
x,1/2-y,z
loop_
_atom_site_type_symbol
_atom_site_label
_atom_site_fract_x
_atom_site_fract_y
_atom_site_fract_z
Si Si1 0.318776 0.362832 0.478841
Si Si2 0.814489 0.136047 0.464706
Si Si3 0.055222 0.103173 0.914072
Si Si4 0.108623 0.359623 0.110763
Si Si5 0.605536 0.862303 0.159011
Si Si6 0.232057 0.856160 0.738371
Si Si7 0.488737 0.860786 0.543082
Si Si8 0.580661 0.478883 0.795691
O O1 0.329351 0.250000 0.449465
O O2 0.170051 0.383426 0.692612
O O3 0.417132 0.396494 0.466598
O O4 0.362437 0.425365 0.323589
O O5 0.811400 0.250000 0.472297
O O6 0.777456 0.106084 0.378224
O O7 0.965065 0.102966 0.310801
O O8 0.707062 0.089034 0.666883
O O9 0.110652 0.135968 0.971923
O O10 0.915443 0.150271 0.045233
O O11 0.000000 0.000000 0.000000
O O12 0.107724 0.250000 0.140495
O O13 0.242468 0.396968 0.011660
O O14 0.598941 0.750000 0.138780
O O15 0.554424 0.870512 0.345689
O O16 0.515035 0.923026 0.180802
O O17 0.280175 0.750000 0.664984
O O18 0.340782 0.901319 0.695230
O O19 0.479137 0.750000 0.581289
O O20 0.500000 0.500000 0.000000
#
# Coordination Sequence:
#
# PCOD9160669 Si02
#       8
#     4   4   4   4   4   4   4   4
#     4  11  23  39  56  80 121 159 187 233 297 354
#     4   9  17  34  59  84 113 144 185 241 288 337
#     4  11  20  29  49  83 120 151 179 214 276 357
#     4   9  17  32  56  86 114 140 176 228 292 353
#     4  10  19  36  62  87 112 143 184 241 297 345
#     4   9  16  29  51  80 111 139 169 212 271 341
#     4   9  17  31  55  85 115 144 176 222 288 355
#     4  12  26  40  55  80 110 153 209 248 281 334
#
# _framework density 18.672058
#
# number of rings (size 3 to 8) (size 9 to 14) (size 15 to 20)
#    0.000    2.000    2.500    3.750    0.000    2.500 
#    0.000    0.625    0.000    0.000    0.000    3.500 
#    0.000    0.000    0.000    0.000    0.000    0.000 
#
# Total GULP energy -178349.811216 kJ/mol
# GULP energy per Si atom -5573.431600 kJ/mol
# Density = 1.862956 g / cm^3
# Si number density = 18.672058 Si / 1000 Ang^3
#
#
#
# Elastic Constant Matrix: (Units=GPa)
#
#
# Indices 1 2 3 4 5 6 
#
# 1 38.1827 18.2007 42.9734 0.0000 -23.2604 0.0000
# 2 18.2007 74.9294 38.8088 0.0000 -2.6918 0.0000
# 3 42.9734 38.8088 149.5222 0.0000 -16.7479 0.0000
# 4 0.0000 0.0000 0.0000 24.7537 0.0000 0.2971
# 5 -23.2604 -2.6918 -16.7479 0.0000 34.4361 0.0000
# 6 0.0000 0.0000 0.0000 0.2971 0.0000 11.3834
#
#
#
# Elastic Compliance Matrix: (Units=1/GPa)
#
#
# Indices 1 2 3 4 5 6 
#
# 1 0.069461 -0.008563 -0.013284 0.000000 0.039788 0.000000
# 2 -0.008563 0.016494 -0.002457 0.000000 -0.005690 0.000000
# 3 -0.013284 -0.002457 0.010700 0.000000 -0.003961 0.000000
# 4 0.000000 0.000000 0.000000 0.040411 0.000000 -0.001055
# 5 0.039788 -0.005690 -0.003961 0.000000 0.053544 0.000000
# 6 0.000000 0.000000 0.000000 -0.001055 0.000000 0.087875
#
#
# Mechanical properties :
#
#
# Convention : Reuss Voigt Hill
#
# Bulk Modulus (GPa) = 20.81313 51.40002 36.10658
# Shear Modulus (GPa) = 14.57264 24.95808 19.76536
#
# Velocity S-wave (km/s) = 2.79669 3.65999 3.25707
# Velocity P-wave (km/s) = 4.64752 6.74153 5.78998
#
# Compressibility (1/GPa) = 0.04804659
#
# Stress axis : x y z
#
# Youngs Moduli (GPa) = 14.39656 60.62736 93.45713
#
# Poissons Ratio (x) = 0.51913 1.24151
# Poissons Ratio (y) = 0.12327 0.22967
# Poissons Ratio (z) = 0.19125 0.14899
#
# Static dielectric constant tensor:
#      x y z
#    x 1.663100 0.000000 -0.060090 
#    y 0.000000 1.658320 0.000000 
#    z -0.060090 0.000000 1.672010 
# 
# From -- ./inp_files/41625.got.cif
#   From: 2010.05.17/outbox.cif.g08.bks.cpg/sg11_21_cif.got.tgz:41625.got - 2010.06.03 12:22:45.
