data_PCOD9160293
_publ_section_title
;
Structure prediction by ZEFSAII (Michael W. Deem and Ramdas Pophale) SiO2 
 PCOD9160293
Probable space group: P 21/M
;
_chemical_formula_sum "Si O2"
_cell_formula_units_Z 32
_cell_length_a 28.986329
_cell_length_b 8.616909
_cell_length_c 22.515464
_cell_angle_alpha 90.000000
_cell_angle_beta 18.694005
_cell_angle_gamma 90.000000
_cell_volume 1802.488350
_symmetry_space_group_name_H-M "P 21/M"
_symmetry_group_IT_number 11
_symmetry_cell_setting 'monoclinic'
loop_
_space_group_symop_operation_xyz
x,y,z
-x,1/2+y,-z
-x,-y,-z
x,1/2-y,z
loop_
_atom_site_type_symbol
_atom_site_label
_atom_site_fract_x
_atom_site_fract_y
_atom_site_fract_z
Si Si1 0.655783 0.563800 0.664894
Si Si2 0.837896 0.564894 0.202150
Si Si3 0.424177 0.436213 0.033321
Si Si4 0.949952 0.562054 0.373954
Si Si5 0.195765 0.565057 0.629518
Si Si6 0.910867 0.562520 0.553502
Si Si7 0.660689 0.436105 0.306886
Si Si8 0.090839 0.937951 0.083046
O O1 0.652997 0.750000 0.663998
O O2 0.512128 0.501687 0.870335
O O3 0.791424 0.521193 0.542133
O O4 0.692030 0.491934 0.556953
O O5 0.842418 0.750000 0.193758
O O6 0.777626 0.509782 0.339014
O O7 0.743531 0.499424 0.263459
O O8 0.000000 0.500000 0.000000
O O9 0.431852 0.250000 0.024673
O O10 0.500000 0.500000 0.000000
O O11 0.256915 0.481966 0.236865
O O12 0.954451 0.750000 0.370373
O O13 0.967440 0.506877 0.419953
O O14 0.062367 0.512894 0.185891
O O15 0.195504 0.750000 0.634290
O O16 0.039669 0.507458 0.796471
O O17 0.917433 0.750000 0.545940
O O18 0.000000 0.500000 0.500000
O O19 0.500000 0.500000 0.500000
O O20 0.656975 0.250000 0.314036
O O21 0.758417 0.480952 0.130663
O O22 0.077031 0.750000 0.097335
#
# Coordination Sequence:
#
# PCOD9160293 Si02
#       8
#     4   4   4   4   4   4   4   4
#     4  10  19  35  57  83 115 150 190 239 293 346
#     4  12  23  38  60  87 118 154 196 242 293 350
#     4  11  21  35  56  84 115 147 190 239 289 343
#     4   8  15  32  55  79 107 142 183 233 285 338
#     4  11  21  34  56  88 120 150 190 242 296 348
#     4  10  21  37  55  80 114 151 190 237 286 341
#     4  11  23  39  59  86 119 157 199 247 297 352
#     4   9  18  34  58  82 110 149 194 240 291 348
#
# _framework density 17.753236000000001
#
# number of rings (size 3 to 8) (size 9 to 14) (size 15 to 20)
#    0.000    1.750    2.500    4.125    0.000    1.500 
#    0.000    1.875    0.000    4.500    0.000    0.000 
#    0.000    0.000    0.000    0.000    0.000    0.000 
#
# Total GULP energy -178666.324100 kJ/mol
# GULP energy per Si atom -5583.322628 kJ/mol
# Density = 1.771283 g / cm^3
# Si number density = 17.753236 Si / 1000 Ang^3
#
#
#
# Elastic Constant Matrix: (Units=GPa)
#
#
# Indices 1 2 3 4 5 6 
#
# 1 149.2557 35.4332 92.5463 0.0000 16.9743 0.0000
# 2 35.4332 59.1273 47.4699 0.0000 4.3913 0.0000
# 3 92.5463 47.4699 151.4651 0.0000 17.8907 0.0000
# 4 0.0000 0.0000 0.0000 27.9224 0.0000 0.9353
# 5 16.9743 4.3913 17.8907 0.0000 32.3437 0.0000
# 6 0.0000 0.0000 0.0000 0.9353 0.0000 30.7205
#
#
#
# Elastic Compliance Matrix: (Units=1/GPa)
#
#
# Indices 1 2 3 4 5 6 
#
# 1 0.011050 -0.001668 -0.005960 0.000000 -0.002276 0.000000
# 2 -0.001668 0.022876 -0.006298 0.000000 0.001253 0.000000
# 3 -0.005960 -0.006298 0.012569 0.000000 -0.002969 0.000000
# 4 0.000000 0.000000 0.000000 0.035850 0.000000 -0.001091
# 5 -0.002276 0.001253 -0.002969 0.000000 0.033585 0.000000
# 6 0.000000 0.000000 0.000000 -0.001091 0.000000 0.032585
#
#
# Mechanical properties :
#
#
# Convention : Reuss Voigt Hill
#
# Bulk Modulus (GPa) = 53.64342 78.97186 66.30764
# Shear Modulus (GPa) = 27.38512 30.49058 28.93785
#
# Velocity S-wave (km/s) = 3.93178 4.14873 4.04171
# Velocity P-wave (km/s) = 7.13398 8.21760 7.69489
#
# Compressibility (1/GPa) = 0.01864162
#
# Stress axis : x y z
#
# Youngs Moduli (GPa) = 90.49418 43.71461 79.56349
#
# Poissons Ratio (x) = 0.07291 0.47422
# Poissons Ratio (y) = 0.15094 0.50111
# Poissons Ratio (z) = 0.53937 0.27533
#
# Static dielectric constant tensor:
#      x y z
#    x 1.601540 0.000000 0.036900 
#    y 0.000000 1.598670 0.000000 
#    z 0.036900 0.000000 1.604550 
# 
# From -- ./inp_files/67051.got.cif
#   From: 2010.05.17/outbox.cif.g08.bks.cpg/sg11_34_cif.got.tgz:67051.got - 2010.06.03 12:22:45.
