data_PCOD9160959
_publ_section_title
;
Structure prediction by ZEFSAII (Michael W. Deem and Ramdas Pophale) SiO2 
 PCOD9160959
Probable space group: P 21/M
;
_chemical_formula_sum "Si O2"
_cell_formula_units_Z 30
_cell_length_a 15.054998
_cell_length_b 9.642540
_cell_length_c 10.116129
_cell_angle_alpha 90.000000
_cell_angle_beta 69.435705
_cell_angle_gamma 90.000000
_cell_volume 1374.964902
_symmetry_space_group_name_H-M "P 21/M"
_symmetry_group_IT_number 11
_symmetry_cell_setting 'monoclinic'
loop_
_space_group_symop_operation_xyz
x,y,z
-x,1/2+y,-z
-x,-y,-z
x,1/2-y,z
loop_
_atom_site_type_symbol
_atom_site_label
_atom_site_fract_x
_atom_site_fract_y
_atom_site_fract_z
Si Si1 0.513548 0.484667 0.786395
Si Si2 0.916993 0.096719 0.991272
Si Si3 0.914408 0.583162 0.476658
Si Si4 0.228559 0.405087 0.041671
Si Si5 0.811628 0.406356 0.321717
Si Si6 0.707911 0.910600 0.705967
Si Si7 0.508191 0.250000 0.017386
Si Si8 0.344615 0.408573 0.704582
O O1 0.625075 0.495641 0.693541
O O2 0.485530 0.628311 0.871381
O O3 0.448724 0.454559 0.693510
O O4 0.501271 0.367904 0.903320
O O5 0.949029 0.250000 0.933474
O O6 0.848757 0.109909 0.153339
O O7 0.854316 0.017817 0.915916
O O8 0.000000 0.000000 0.000000
O O9 0.931374 0.750000 0.456467
O O10 0.887527 0.505036 0.355130
O O11 0.815807 0.563258 0.608524
O O12 0.000000 0.500000 0.500000
O O13 0.186272 0.250000 0.074665
O O14 0.295280 0.423604 0.133040
O O15 0.287471 0.409780 0.875519
O O16 0.805426 0.250000 0.382349
O O17 0.713247 0.489601 0.360748
O O18 0.687770 0.750000 0.684677
O O19 0.342200 0.250000 0.656429
#
# Coordination Sequence:
#
# PCOD9160959 Si02
#       8
#     4   4   4   4   4   4   2   4
#     4  11  20  36  56  94 132 176 210 252 305 382
#     4  10  21  36  56  86 119 152 194 250 313 377
#     4  11  25  47  71  92 119 164 215 268 322 370
#     4   9  18  34  55  84 121 160 196 240 303 369
#     4  10  23  43  65  89 120 162 210 261 312 374
#     4  10  22  40  62  90 126 167 209 260 311 370
#     4  10  20  30  58  90 138 178 208 244 308 374
#     4  10  20  36  61  92 129 169 202 243 309 375
#
# _framework density 21.818736999999999
#
# number of rings (size 3 to 8) (size 9 to 14) (size 15 to 20)
#    0.000    1.867    1.333    2.800    4.667    1.600 
#    8.400    0.667    0.000    0.000    0.000    0.000 
#    0.000    0.000    0.000    0.000    0.000    0.000 
#
# Total GULP energy -167023.130115 kJ/mol
# GULP energy per Si atom -5567.437670 kJ/mol
# Density = 2.176908 g / cm^3
# Si number density = 21.818737 Si / 1000 Ang^3
#
#
#
# Elastic Constant Matrix: (Units=GPa)
#
#
# Indices 1 2 3 4 5 6 
#
# 1 130.6283 78.3315 -0.5278 0.0000 -6.2301 0.0000
# 2 78.3315 191.6543 11.1952 0.0000 -2.9309 0.0000
# 3 -0.5278 11.1952 22.4533 0.0000 1.7783 0.0000
# 4 0.0000 0.0000 0.0000 15.7322 0.0000 1.3999
# 5 -6.2301 -2.9309 1.7783 0.0000 17.8036 0.0000
# 6 0.0000 0.0000 0.0000 1.3999 0.0000 12.3242
#
#
#
# Elastic Compliance Matrix: (Units=1/GPa)
#
#
# Indices 1 2 3 4 5 6 
#
# 1 0.010392 -0.004334 0.002191 0.000000 0.002704 0.000000
# 2 -0.004334 0.007206 -0.003698 0.000000 0.000039 0.000000
# 3 0.002191 -0.003698 0.046790 0.000000 -0.004516 0.000000
# 4 0.000000 0.000000 0.000000 0.064213 0.000000 -0.007294
# 5 0.002704 0.000039 -0.004516 0.000000 0.057572 0.000000
# 6 0.000000 0.000000 0.000000 -0.007294 0.000000 0.081970
#
#
# Mechanical properties :
#
#
# Convention : Reuss Voigt Hill
#
# Bulk Modulus (GPa) = 18.97317 58.08153 38.52735
# Shear Modulus (GPa) = 16.81281 26.22113 21.51697
#
# Velocity S-wave (km/s) = 2.77892 3.47042 3.14374
# Velocity P-wave (km/s) = 4.36019 6.53729 5.55641
#
# Compressibility (1/GPa) = 0.05270600
#
# Stress axis : x y z
#
# Youngs Moduli (GPa) = 96.22773 138.77955 21.37226
#
# Poissons Ratio (x) = 0.60147 -0.04683
# Poissons Ratio (y) = 0.41705 0.07903
# Poissons Ratio (z) = -0.21084 0.51317
#
# Static dielectric constant tensor:
#      x y z
#    x 1.812430 0.000000 -0.039670 
#    y 0.000000 1.782290 0.000000 
#    z -0.039670 0.000000 1.871510 
# 
# From -- ./inp_files/38015.got.cif
#   From: 2010.05.17/outbox.cif.g08.bks.cpg/sg11_20_cif.got.tgz:38015.got - 2010.06.03 12:22:45.
