data_PCOD9160684
_publ_section_title
;
Structure prediction by ZEFSAII (Michael W. Deem and Ramdas Pophale) SiO2 
 PCOD9160684
Probable space group: P 21/M
;
_chemical_formula_sum "Si O2"
_cell_formula_units_Z 28
_cell_length_a 13.193619
_cell_length_b 17.961202
_cell_length_c 6.249583
_cell_angle_alpha 90.000000
_cell_angle_beta 120.075153
_cell_angle_gamma 90.000000
_cell_volume 1281.597412
_symmetry_space_group_name_H-M "P 21/M"
_symmetry_group_IT_number 11
_symmetry_cell_setting 'monoclinic'
loop_
_space_group_symop_operation_xyz
x,y,z
-x,1/2+y,-z
-x,-y,-z
x,1/2-y,z
loop_
_atom_site_type_symbol
_atom_site_label
_atom_site_fract_x
_atom_site_fract_y
_atom_site_fract_z
Si Si1 0.610134 0.331441 0.570167
Si Si2 0.378326 0.551953 0.041850
Si Si3 0.044270 0.079039 0.636142
Si Si4 0.781905 0.664048 0.474024
Si Si5 0.795141 0.085527 0.516413
Si Si6 0.246118 0.451466 0.192393
Si Si7 0.545023 0.663316 0.979584
O O1 0.619117 0.250000 0.668567
O O2 0.625143 0.387355 0.776579
O O3 0.712747 0.348564 0.510837
O O4 0.492579 0.338335 0.307092
O O5 0.356000 0.478152 0.162113
O O6 0.486537 0.587800 0.021371
O O7 0.269654 0.553927 0.763112
O O8 0.104724 0.125611 0.511002
O O9 0.925142 0.112559 0.605501
O O10 0.139007 0.066720 0.921964
O O11 0.000000 0.000000 0.500000
O O12 0.803111 0.750000 0.551742
O O13 0.736763 0.617199 0.629169
O O14 0.679685 0.660893 0.187848
O O15 0.790008 0.020390 0.689568
O O16 0.507216 0.750000 0.007007
#
# Coordination Sequence:
#
# PCOD9160684 Si02
#       7
#     4   4   4   4   4   4   4
#     4   9  19  35  61  91 124 165 210 259 311 365
#     4  10  19  36  63  92 121 162 212 252 308 363
#     4  12  23  42  69  87 121 169 206 256 308 365
#     4  11  26  43  62  94 129 162 204 252 312 378
#     4  10  21  38  62  93 121 159 208 259 311 358
#     4  11  22  40  66  94 120 164 209 255 311 367
#     4   9  20  40  60  87 131 169 204 258 310 362
#
# _framework density 21.847733999999999
#
# number of rings (size 3 to 8) (size 9 to 14) (size 15 to 20)
#    0.000    1.714    2.857    0.857    0.000    3.429 
#    0.000   14.286    0.000    0.000    0.000    0.000 
#    0.000    0.000    0.000    0.000    0.000    0.000 
#
# Total GULP energy -156262.492251 kJ/mol
# GULP energy per Si atom -5580.803295 kJ/mol
# Density = 2.179801 g / cm^3
# Si number density = 21.847734 Si / 1000 Ang^3
#
#
#
# Elastic Constant Matrix: (Units=GPa)
#
#
# Indices 1 2 3 4 5 6 
#
# 1 109.2521 42.3819 22.9083 0.0000 -8.6618 0.0000
# 2 42.3819 113.5707 35.1325 0.0000 -2.3418 0.0000
# 3 22.9083 35.1325 73.8277 0.0000 -13.7550 0.0000
# 4 0.0000 0.0000 0.0000 25.7524 0.0000 -2.1043
# 5 -8.6618 -2.3418 -13.7550 0.0000 28.0919 0.0000
# 6 0.0000 0.0000 0.0000 -2.1043 0.0000 25.0098
#
#
#
# Elastic Compliance Matrix: (Units=1/GPa)
#
#
# Indices 1 2 3 4 5 6 
#
# 1 0.011037 -0.003696 -0.001198 0.000000 0.002508 0.000000
# 2 -0.003696 0.011637 -0.004866 0.000000 -0.002552 0.000000
# 3 -0.001198 -0.004866 0.017703 0.000000 0.007893 0.000000
# 4 0.000000 0.000000 0.000000 0.039100 0.000000 0.003290
# 5 0.002508 -0.002552 0.007893 0.000000 0.040023 0.000000
# 6 0.000000 0.000000 0.000000 0.003290 0.000000 0.040261
#
#
# Mechanical properties :
#
#
# Convention : Reuss Voigt Hill
#
# Bulk Modulus (GPa) = 47.94958 55.27732 51.61345
# Shear Modulus (GPa) = 26.84764 28.85268 27.85016
#
# Velocity S-wave (km/s) = 3.50930 3.63798 3.57422
# Velocity P-wave (km/s) = 6.19799 6.55764 6.38035
#
# Compressibility (1/GPa) = 0.02085524
#
# Stress axis : x y z
#
# Youngs Moduli (GPa) = 90.60246 85.93093 56.48669
#
# Poissons Ratio (x) = 0.31763 0.06770
# Poissons Ratio (y) = 0.33490 0.27489
# Poissons Ratio (z) = 0.10858 0.41818
#
# Static dielectric constant tensor:
#      x y z
#    x 1.865740 0.000000 -0.040740 
#    y 0.000000 1.842030 0.000000 
#    z -0.040740 0.000000 1.756480 
# 
# From -- ./inp_files/6886.got.cif
#   From: 2010.05.17/outbox.cif.g08.bks.cpg/sg11_4_cif.got.tgz:6886.got - 2010.06.03 12:22:45.
