data_PCOD9160096
_publ_section_title
;
Structure prediction by ZEFSAII (Michael W. Deem and Ramdas Pophale) SiO2 
 PCOD9160096
Probable space group: P 21/M
;
_chemical_formula_sum "Si O2"
_cell_formula_units_Z 32
_cell_length_a 13.734430
_cell_length_b 8.403026
_cell_length_c 21.233287
_cell_angle_alpha 90.000000
_cell_angle_beta 145.177393
_cell_angle_gamma 90.000000
_cell_volume 1399.356028
_symmetry_space_group_name_H-M "P 21/M"
_symmetry_group_IT_number 11
_symmetry_cell_setting 'monoclinic'
loop_
_space_group_symop_operation_xyz
x,y,z
-x,1/2+y,-z
-x,-y,-z
x,1/2-y,z
loop_
_atom_site_type_symbol
_atom_site_label
_atom_site_fract_x
_atom_site_fract_y
_atom_site_fract_z
Si Si1 0.626521 0.060009 0.469953
Si Si2 0.255040 0.567949 0.281483
Si Si3 0.609703 0.066314 0.318391
Si Si4 0.676542 0.940035 0.063719
Si Si5 0.895075 0.943278 0.067821
Si Si6 0.985030 0.941153 0.685960
Si Si7 0.739710 0.429615 0.867324
Si Si8 0.892629 0.441502 0.384098
O O1 0.631278 0.250000 0.470743
O O2 0.641521 0.994159 0.405171
O O3 0.436628 0.011968 0.391888
O O4 0.791587 0.000740 0.595822
O O5 0.266613 0.750000 0.310137
O O6 0.235951 0.568669 0.194779
O O7 0.066174 0.502193 0.196354
O O8 0.661602 0.250000 0.351745
O O9 0.706468 0.003268 0.308227
O O10 0.410972 0.052969 0.201391
O O11 0.672140 0.750000 0.064406
O O12 0.725386 0.983683 0.017557
O O13 0.845426 0.000595 0.188880
O O14 0.500000 0.000000 0.000000
O O15 0.906344 0.750000 0.068322
O O16 0.883047 0.023002 0.993226
O O17 0.980153 0.750000 0.686337
O O18 0.027749 0.002211 0.637716
O O19 0.683704 0.250000 0.852482
O O20 0.895497 0.250000 0.379480
O O21 0.000000 0.500000 0.500000
#
# Coordination Sequence:
#
# PCOD9160096 Si02
#       8
#     4   4   4   4   4   4   4   4
#     4  10  19  34  58  88 121 156 190 233 290 351
#     4   9  19  37  60  90 125 157 192 239 295 356
#     4   9  18  32  49  77 118 158 192 230 284 350
#     4  11  26  47  67  87 114 154 204 253 298 346
#     4  10  22  41  63  84 115 159 202 246 298 353
#     4  11  23  39  61  87 118 156 198 246 297 350
#     4  10  20  32  55  90 123 154 192 238 292 351
#     4  10  20  33  53  82 116 153 193 237 290 351
#
# _framework density 22.867661999999999
#
# number of rings (size 3 to 8) (size 9 to 14) (size 15 to 20)
#    0.000    2.000    1.250    1.875    1.750    3.500 
#    0.000    0.625    0.000    0.000    0.000    0.000 
#    0.000    0.000    0.000    0.000    0.000    0.000 
#
# Total GULP energy -178437.118792 kJ/mol
# GULP energy per Si atom -5576.159962 kJ/mol
# Density = 2.281561 g / cm^3
# Si number density = 22.867662 Si / 1000 Ang^3
#
#
#
# Elastic Constant Matrix: (Units=GPa)
#
#
# Indices 1 2 3 4 5 6 
#
# 1 91.9338 19.2401 36.5147 0.0000 25.9654 0.0000
# 2 19.2401 36.0333 16.2006 0.0000 10.0479 0.0000
# 3 36.5147 16.2006 123.4991 0.0000 13.4495 0.0000
# 4 0.0000 0.0000 0.0000 37.4496 0.0000 5.1097
# 5 25.9654 10.0479 13.4495 0.0000 44.8124 0.0000
# 6 0.0000 0.0000 0.0000 5.1097 0.0000 15.6200
#
#
#
# Elastic Compliance Matrix: (Units=1/GPa)
#
#
# Indices 1 2 3 4 5 6 
#
# 1 0.014985 -0.004751 -0.003078 0.000000 -0.006693 0.000000
# 2 -0.004751 0.032442 -0.002438 0.000000 -0.003790 0.000000
# 3 -0.003078 -0.002438 0.009380 0.000000 -0.000485 0.000000
# 4 0.000000 0.000000 0.000000 0.027950 0.000000 -0.009143
# 5 -0.006693 -0.003790 -0.000485 0.000000 0.027189 0.000000
# 6 0.000000 0.000000 0.000000 -0.009143 0.000000 0.067011
#
#
# Mechanical properties :
#
#
# Convention : Reuss Voigt Hill
#
# Bulk Modulus (GPa) = 27.56964 43.93077 35.75021
# Shear Modulus (GPa) = 23.63146 31.54379 27.58762
#
# Velocity S-wave (km/s) = 3.21814 3.71806 3.47710
# Velocity P-wave (km/s) = 5.08831 6.13878 5.63806
#
# Compressibility (1/GPa) = 0.03627178
#
# Stress axis : x y z
#
# Youngs Moduli (GPa) = 66.73436 30.82441 106.60904
#
# Poissons Ratio (x) = 0.14644 0.32818
# Poissons Ratio (y) = 0.31703 0.25995
# Poissons Ratio (z) = 0.20543 0.07516
#
# Static dielectric constant tensor:
#      x y z
#    x 1.981210 0.000000 0.023370 
#    y 0.000000 1.818890 0.000000 
#    z 0.023370 0.000000 1.899800 
# 
# From -- ./inp_files/69090.got.cif
#   From: 2010.05.17/outbox.cif.g08.bks.cpg/sg11_35_cif.got.tgz:69090.got - 2010.06.03 12:22:45.
