data_PCOD9160154
_publ_section_title
;
Structure prediction by ZEFSAII (Michael W. Deem and Ramdas Pophale) SiO2 
 PCOD9160154
Probable space group: P 21/M
;
_chemical_formula_sum "Si O2"
_cell_formula_units_Z 28
_cell_length_a 11.323092
_cell_length_b 14.726224
_cell_length_c 9.981334
_cell_angle_alpha 90.000000
_cell_angle_beta 57.805746
_cell_angle_gamma 90.000000
_cell_volume 1408.451720
_symmetry_space_group_name_H-M "P 21/M"
_symmetry_group_IT_number 11
_symmetry_cell_setting 'monoclinic'
loop_
_space_group_symop_operation_xyz
x,y,z
-x,1/2+y,-z
-x,-y,-z
x,1/2-y,z
loop_
_atom_site_type_symbol
_atom_site_label
_atom_site_fract_x
_atom_site_fract_y
_atom_site_fract_z
Si Si1 0.435378 0.521692 0.892558
Si Si2 0.260191 0.145391 0.948277
Si Si3 0.183525 0.855981 0.136207
Si Si4 0.300072 0.044282 0.428391
Si Si5 0.208602 0.648202 0.441744
Si Si6 0.119114 0.354798 0.321578
Si Si7 0.872030 0.857366 0.251938
O O1 0.384083 0.426118 0.864748
O O2 0.551056 0.566154 0.727106
O O3 0.500000 0.500000 0.000000
O O4 0.300956 0.584934 0.993747
O O5 0.308576 0.250000 0.914453
O O6 0.154668 0.131480 0.889292
O O7 0.184829 0.130764 0.136118
O O8 0.190956 0.750000 0.090533
O O9 0.210733 0.859066 0.278942
O O10 0.026236 0.889364 0.201865
O O11 0.187008 0.076618 0.385534
O O12 0.249568 0.093032 0.592775
O O13 0.292084 0.936039 0.449407
O O14 0.254624 0.750000 0.451183
O O15 0.047040 0.637070 0.581126
O O16 0.150197 0.250000 0.344410
O O17 0.866145 0.750000 0.287467
#
# Coordination Sequence:
#
# PCOD9160154 Si02
#       7
#     4   4   4   4   4   4   4
#     4  12  24  38  58  95 126 159 206 245 302 361
#     4  10  23  42  63  88 124 162 201 249 304 361
#     4  10  21  39  62  90 124 157 198 255 307 357
#     4  12  22  36  62  90 124 158 203 251 296 360
#     4  10  20  34  57  90 122 156 203 254 305 351
#     4  10  19  34  60  92 118 151 206 258 297 345
#     4  10  23  43  66  89 117 160 206 250 307 362
#
# _framework density 19.879985999999999
#
# number of rings (size 3 to 8) (size 9 to 14) (size 15 to 20)
#    0.000    1.429    4.286    0.857    2.000    3.429 
#    0.000    0.000    0.000    0.000    0.000    0.000 
#    0.000    0.000    0.000    0.000    0.000    0.000 
#
# Total GULP energy -156474.438264 kJ/mol
# GULP energy per Si atom -5588.372795 kJ/mol
# Density = 1.983474 g / cm^3
# Si number density = 19.879986 Si / 1000 Ang^3
#
#
#
# Elastic Constant Matrix: (Units=GPa)
#
#
# Indices 1 2 3 4 5 6 
#
# 1 26.5318 19.2914 10.5750 0.0000 -13.4470 0.0000
# 2 19.2914 67.9752 20.7378 0.0000 -8.7752 0.0000
# 3 10.5750 20.7378 52.2448 0.0000 -13.7734 0.0000
# 4 0.0000 0.0000 0.0000 9.6734 0.0000 7.6211
# 5 -13.4470 -8.7752 -13.7734 0.0000 32.5493 0.0000
# 6 0.0000 0.0000 0.0000 7.6211 0.0000 14.4167
#
#
#
# Elastic Compliance Matrix: (Units=1/GPa)
#
#
# Indices 1 2 3 4 5 6 
#
# 1 0.058073 -0.013573 -0.001133 0.000000 0.019853 0.000000
# 2 -0.013573 0.020017 -0.005913 0.000000 -0.002713 0.000000
# 3 -0.001133 -0.005913 0.023832 0.000000 0.008022 0.000000
# 4 0.000000 0.000000 0.000000 0.177159 0.000000 -0.093652
# 5 0.019853 -0.002713 0.008022 0.000000 0.041588 0.000000
# 6 0.000000 0.000000 0.000000 -0.093652 0.000000 0.118872
#
#
# Mechanical properties :
#
#
# Convention : Reuss Voigt Hill
#
# Bulk Modulus (GPa) = 16.47896 27.55115 22.01506
# Shear Modulus (GPa) = 9.97990 17.73771 13.85880
#
# Velocity S-wave (km/s) = 2.24298 2.99028 2.64317
# Velocity P-wave (km/s) = 3.87494 5.08047 4.51809
#
# Compressibility (1/GPa) = 0.06068346
#
# Stress axis : x y z
#
# Youngs Moduli (GPa) = 17.21969 49.95760 41.95991
#
# Poissons Ratio (x) = 0.67805 0.04756
# Poissons Ratio (y) = 0.23371 0.24813
# Poissons Ratio (z) = 0.01952 0.29542
#
# Static dielectric constant tensor:
#      x y z
#    x 1.681840 0.000000 -0.004540 
#    y 0.000000 1.732890 0.000000 
#    z -0.004540 0.000000 1.682470 
# 
# From -- ./inp_files/17928.got.cif
#   From: 2010.05.17/outbox.cif.g08.bks.cpg/sg11_9_cif.got.tgz:17928.got - 2010.06.03 12:22:45.
