data_PCOD9160114
_publ_section_title
;
Structure prediction by ZEFSAII (Michael W. Deem and Ramdas Pophale) SiO2 
 PCOD9160114
Probable space group: P 21/M
;
_chemical_formula_sum "Si O2"
_cell_formula_units_Z 32
_cell_length_a 18.188445
_cell_length_b 14.053395
_cell_length_c 12.313456
_cell_angle_alpha 90.000000
_cell_angle_beta 30.710953
_cell_angle_gamma 90.000000
_cell_volume 1607.418041
_symmetry_space_group_name_H-M "P 21/M"
_symmetry_group_IT_number 11
_symmetry_cell_setting 'monoclinic'
loop_
_space_group_symop_operation_xyz
x,y,z
-x,1/2+y,-z
-x,-y,-z
x,1/2-y,z
loop_
_atom_site_type_symbol
_atom_site_label
_atom_site_fract_x
_atom_site_fract_y
_atom_site_fract_z
Si Si1 0.883092 0.441399 0.218009
Si Si2 0.946541 0.413154 0.496506
Si Si3 0.363421 0.000104 0.796824
Si Si4 0.488219 0.357452 0.005500
Si Si5 0.612397 0.363420 0.436217
Si Si6 0.290243 0.999091 0.363801
Si Si7 0.884895 0.855548 0.919279
Si Si8 0.699035 0.350310 0.945230
O O1 0.769478 0.384630 0.288070
O O2 0.782808 0.506003 0.425394
O O3 0.978970 0.374622 0.175084
O O4 0.000000 0.500000 0.000000
O O5 0.831086 0.453699 0.557806
O O6 0.000000 0.500000 0.500000
O O7 0.064004 0.364371 0.270911
O O8 0.856717 0.349645 0.693013
O O9 0.398038 0.916122 0.667293
O O10 0.320023 0.943767 0.959530
O O11 0.491752 0.075031 0.653123
O O12 0.232347 0.062355 0.915803
O O13 0.469869 0.250000 0.987715
O O14 0.573526 0.426437 0.814446
O O15 0.344936 0.406499 0.233635
O O16 0.589263 0.353776 0.984098
O O17 0.586593 0.250000 0.466457
O O18 0.827215 0.750000 0.013021
O O19 0.674294 0.250000 0.036712
#
# Coordination Sequence:
#
# PCOD9160114 Si02
#       8
#     4   4   4   4   4   4   4   4
#     4  11  22  41  63  86 121 166 203 253 303 354
#     4  10  19  35  58  83 121 155 188 241 293 354
#     4  11  22  39  62  87 122 152 198 258 301 351
#     4   9  18  36  59  85 115 150 192 239 295 359
#     4  11  24  41  61  87 118 158 204 250 306 360
#     4   9  20  35  59  85 116 150 196 241 297 350
#     4  11  22  39  63  89 120 159 204 246 298 361
#     4  10  19  34  59  86 114 156 194 233 298 363
#
# _framework density 19.907702
#
# number of rings (size 3 to 8) (size 9 to 14) (size 15 to 20)
#    0.000    1.750    2.500    2.250    0.000    3.500 
#    0.000    2.500    0.000    0.000    0.000    0.000 
#    0.000    0.000    0.000    0.000    0.000    0.000 
#
# Total GULP energy -178415.782306 kJ/mol
# GULP energy per Si atom -5575.493197 kJ/mol
# Density = 1.986239 g / cm^3
# Si number density = 19.907702 Si / 1000 Ang^3
#
#
#
# Elastic Constant Matrix: (Units=GPa)
#
#
# Indices 1 2 3 4 5 6 
#
# 1 45.5474 30.4693 12.7316 0.0000 1.4437 0.0000
# 2 30.4693 139.7677 47.6429 0.0000 0.5990 0.0000
# 3 12.7316 47.6429 86.9389 0.0000 11.0865 0.0000
# 4 0.0000 0.0000 0.0000 15.4934 0.0000 -1.1022
# 5 1.4437 0.5990 11.0865 0.0000 28.7353 0.0000
# 6 0.0000 0.0000 0.0000 -1.1022 0.0000 16.6333
#
#
#
# Elastic Compliance Matrix: (Units=1/GPa)
#
#
# Indices 1 2 3 4 5 6 
#
# 1 0.025777 -0.005372 -0.000716 0.000000 -0.000907 0.000000
# 2 -0.005372 0.010003 -0.004946 0.000000 0.001970 0.000000
# 3 -0.000716 -0.004946 0.015040 0.000000 -0.005664 0.000000
# 4 0.000000 0.000000 0.000000 0.064849 0.000000 0.004297
# 5 -0.000907 0.001970 -0.005664 0.000000 0.036990 0.000000
# 6 0.000000 0.000000 0.000000 0.004297 0.000000 0.060405
#
#
# Mechanical properties :
#
#
# Convention : Reuss Voigt Hill
#
# Bulk Modulus (GPa) = 34.77848 50.43796 42.60822
# Shear Modulus (GPa) = 20.43176 24.26642 22.34909
#
# Velocity S-wave (km/s) = 3.20711 3.49513 3.35421
# Velocity P-wave (km/s) = 5.58765 6.45591 6.03741
#
# Compressibility (1/GPa) = 0.02875342
#
# Stress axis : x y z
#
# Youngs Moduli (GPa) = 38.79384 99.96582 66.48919
#
# Poissons Ratio (x) = 0.53698 0.04758
# Poissons Ratio (y) = 0.20839 0.32889
# Poissons Ratio (z) = 0.02776 0.49448
#
# Static dielectric constant tensor:
#      x y z
#    x 1.708570 0.000000 0.016640 
#    y 0.000000 1.694040 0.000000 
#    z 0.016640 0.000000 1.748880 
# 
# From -- ./inp_files/41650.got.cif
#   From: 2010.05.17/outbox.cif.g08.bks.cpg/sg11_21_cif.got.tgz:41650.got - 2010.06.03 12:22:45.
