data_PCOD9160491
_publ_section_title
;
Structure prediction by ZEFSAII (Michael W. Deem and Ramdas Pophale) SiO2 
 PCOD9160491
Probable space group: P 21/M
;
_chemical_formula_sum "Si O2"
_cell_formula_units_Z 28
_cell_length_a 9.172838
_cell_length_b 15.285152
_cell_length_c 11.345102
_cell_angle_alpha 90.000000
_cell_angle_beta 124.186322
_cell_angle_gamma 90.000000
_cell_volume 1315.831115
_symmetry_space_group_name_H-M "P 21/M"
_symmetry_group_IT_number 11
_symmetry_cell_setting 'monoclinic'
loop_
_space_group_symop_operation_xyz
x,y,z
-x,1/2+y,-z
-x,-y,-z
x,1/2-y,z
loop_
_atom_site_type_symbol
_atom_site_label
_atom_site_fract_x
_atom_site_fract_y
_atom_site_fract_z
Si Si1 0.306038 0.512718 0.968733
Si Si2 0.392051 0.968497 0.262984
Si Si3 0.124493 0.652569 0.723461
Si Si4 0.450370 0.657069 0.686753
Si Si5 0.801954 0.407240 0.602453
Si Si6 0.216405 0.077393 0.553080
Si Si7 0.180496 0.150926 0.798222
O O1 0.176411 0.573958 0.833688
O O2 0.235048 0.413451 0.928337
O O3 0.500000 0.500000 0.000000
O O4 0.325092 0.558436 0.104030
O O5 0.255468 0.956324 0.305533
O O6 0.575629 0.922302 0.385214
O O7 0.436063 0.070112 0.258586
O O8 0.122212 0.750000 0.776408
O O9 0.287530 0.652755 0.704857
O O10 0.934781 0.636608 0.575227
O O11 0.542353 0.750000 0.745375
O O12 0.356476 0.650604 0.517789
O O13 0.837677 0.480183 0.516578
O O14 0.970510 0.349227 0.700268
O O15 0.225557 0.101534 0.695472
O O16 0.250925 0.250000 0.834246
#
# Coordination Sequence:
#
# PCOD9160491 Si02
#       7
#     4   4   4   4   4   4   4
#     4  12  23  44  67  96 132 175 222 272 323 382
#     4  11  25  41  68  94 132 183 211 265 338 391
#     4  11  22  39  68 100 130 167 220 280 328 379
#     4  10  19  35  63  96 126 163 218 272 324 383
#     4  11  22  41  66  95 136 174 213 271 339 387
#     4  11  20  42  69  98 124 166 222 274 320 383
#     4  12  24  40  70 100 129 173 225 270 324 393
#
# _framework density 21.279328
#
# number of rings (size 3 to 8) (size 9 to 14) (size 15 to 20)
#    0.000    0.857    5.714    3.857    0.000    1.714 
#    0.000    8.571    0.000    0.000    0.000    0.000 
#    0.000    0.000    0.000    0.000    0.000    0.000 
#
# Total GULP energy -156175.583280 kJ/mol
# GULP energy per Si atom -5577.699403 kJ/mol
# Density = 2.123089 g / cm^3
# Si number density = 21.279328 Si / 1000 Ang^3
#
#
#
# Elastic Constant Matrix: (Units=GPa)
#
#
# Indices 1 2 3 4 5 6 
#
# 1 50.2705 29.0026 6.8725 0.0000 -10.0909 0.0000
# 2 29.0026 108.8273 14.0842 0.0000 -4.8650 0.0000
# 3 6.8725 14.0842 74.2617 0.0000 -1.9023 0.0000
# 4 0.0000 0.0000 0.0000 11.3573 0.0000 2.8380
# 5 -10.0909 -4.8650 -1.9023 0.0000 20.2095 0.0000
# 6 0.0000 0.0000 0.0000 2.8380 0.0000 -40.5033
#
#
#
# Elastic Compliance Matrix: (Units=1/GPa)
#
#
# Indices 1 2 3 4 5 6 
#
# 1 0.025919 -0.006282 -0.000917 0.000000 0.011343 0.000000
# 2 -0.006282 0.011033 -0.001527 0.000000 -0.000624 0.000000
# 3 -0.000917 -0.001527 0.013853 0.000000 0.000479 0.000000
# 4 0.000000 0.000000 0.000000 0.086534 0.000000 0.006063
# 5 0.011343 -0.000624 0.000479 0.000000 0.055040 0.000000
# 6 0.000000 0.000000 0.000000 0.006063 0.000000 -0.024264
#
#
# Mechanical properties :
#
#
# Convention : Reuss Voigt Hill
#
# Bulk Modulus (GPa) = 29.98221 37.03087 33.50654
# Shear Modulus (GPa) = 25.42172 10.43938 17.93055
#
# Velocity S-wave (km/s) = 3.46015 2.21733 2.90595
# Velocity P-wave (km/s) = 5.48488 4.89851 5.19997
#
# Compressibility (1/GPa) = 0.03335311
#
# Stress axis : x y z
#
# Youngs Moduli (GPa) = 38.58222 90.64008 72.18859
#
# Poissons Ratio (x) = 0.56937 0.06618
# Poissons Ratio (y) = 0.24236 0.11024
# Poissons Ratio (z) = 0.03537 0.13841
#
# Static dielectric constant tensor:
#      x y z
#    x 1.779470 0.000000 -0.002100 
#    y 0.000000 1.791060 0.000000 
#    z -0.002100 0.000000 1.823300 
# 
# From -- ./inp_files/31944.got.cif
#   From: 2010.05.17/outbox.cif.g08.bks.cpg/sg11_16_cif.got.tgz:31944.got - 2010.06.03 12:22:45.
