data_PCOD9160162
_publ_section_title
;
Structure prediction by ZEFSAII (Michael W. Deem and Ramdas Pophale) SiO2 
 PCOD9160162
Probable space group: P 21/M
;
_chemical_formula_sum "Si O2"
_cell_formula_units_Z 28
_cell_length_a 26.565187
_cell_length_b 10.958480
_cell_length_c 28.894044
_cell_angle_alpha 90.000000
_cell_angle_beta 9.586887
_cell_angle_gamma 90.000000
_cell_volume 1400.870935
_symmetry_space_group_name_H-M "P 21/M"
_symmetry_group_IT_number 11
_symmetry_cell_setting 'monoclinic'
loop_
_space_group_symop_operation_xyz
x,y,z
-x,1/2+y,-z
-x,-y,-z
x,1/2-y,z
loop_
_atom_site_type_symbol
_atom_site_label
_atom_site_fract_x
_atom_site_fract_y
_atom_site_fract_z
Si Si1 0.803370 0.605793 0.813577
Si Si2 0.255790 0.750000 0.876768
Si Si3 0.313333 0.891333 0.419793
Si Si4 0.828815 0.530563 0.261309
Si Si5 0.987161 0.511919 0.800481
Si Si6 0.109365 0.897626 0.437388
Si Si7 0.955893 0.750000 0.247626
Si Si8 0.181971 0.614921 0.815837
O O1 0.799995 0.750000 0.826751
O O2 0.059179 0.554357 0.615850
O O3 0.908165 0.589854 0.665810
O O4 0.456967 0.568430 0.133981
O O5 0.607322 0.750000 0.547206
O O6 0.095105 0.625464 0.006636
O O7 0.183922 0.750000 0.997223
O O8 0.362319 0.750000 0.363279
O O9 0.178002 0.902718 0.593915
O O10 0.639309 0.952276 0.120659
O O11 0.520165 0.599787 0.528397
O O12 0.825152 0.410643 0.232804
O O13 0.869822 0.497921 0.277887
O O14 0.002000 0.376703 0.765038
O O15 0.100313 0.750000 0.432079
O O16 0.000000 0.000000 0.500000
O O17 0.064682 0.750000 0.932730
O O18 0.000000 0.500000 0.000000
#
# Coordination Sequence:
#
# PCOD9160162 Si02
#       8
#     4   2   4   4   4   4   2   4
#     4   9  19  36  59  87 121 166 212 252 300 370
#     4  10  20  38  70  88 114 152 202 250 296 369
#     4  11  23  40  64  93 125 166 209 258 317 370
#     4  10  24  41  62  88 120 153 208 250 318 373
#     4  11  23  40  65  91 121 160 207 260 307 375
#     4  10  19  34  61  91 125 166 215 260 304 359
#     4  10  22  38  64  92 114 158 210 246 296 367
#     4  11  26  42  63  90 121 159 197 252 318 385
#
# _framework density 19.987566000000001
#
# number of rings (size 3 to 8) (size 9 to 14) (size 15 to 20)
#    0.000    1.714    0.714    3.429    7.000    4.000 
#    0.000    0.000    9.429    0.000    0.000    0.000 
#    0.000    0.000    0.000    0.000    0.000    0.000 
#
# Total GULP energy -156283.500655 kJ/mol
# GULP energy per Si atom -5581.553595 kJ/mol
# Density = 1.994207 g / cm^3
# Si number density = 19.987566 Si / 1000 Ang^3
#
#
#
# Elastic Constant Matrix: (Units=GPa)
#
#
# Indices 1 2 3 4 5 6 
#
# 1 41.1860 17.7326 0.0390 0.0000 -12.0160 0.0000
# 2 17.7326 86.3801 15.5767 0.0000 -9.9783 0.0000
# 3 0.0390 15.5767 79.5887 0.0000 -0.4311 0.0000
# 4 0.0000 0.0000 0.0000 34.1693 0.0000 2.8907
# 5 -12.0160 -9.9783 -0.4311 0.0000 22.8725 0.0000
# 6 0.0000 0.0000 0.0000 2.8907 0.0000 28.6094
#
#
#
# Elastic Compliance Matrix: (Units=1/GPa)
#
#
# Indices 1 2 3 4 5 6 
#
# 1 0.030406 -0.004818 0.001003 0.000000 0.013891 0.000000
# 2 -0.004818 0.013414 -0.002605 0.000000 0.003271 0.000000
# 3 0.001003 -0.002605 0.013072 0.000000 -0.000363 0.000000
# 4 0.000000 0.000000 0.000000 0.029518 0.000000 -0.002983
# 5 0.013891 0.003271 -0.000363 0.000000 0.052438 0.000000
# 6 0.000000 0.000000 0.000000 -0.002983 0.000000 0.035255
#
#
# Mechanical properties :
#
#
# Convention : Reuss Voigt Hill
#
# Bulk Modulus (GPa) = 22.70065 30.42795 26.56430
# Shear Modulus (GPa) = 24.79821 28.71736 26.75778
#
# Velocity S-wave (km/s) = 3.52615 3.79458 3.66282
# Velocity P-wave (km/s) = 5.28776 5.86983 5.58638
#
# Compressibility (1/GPa) = 0.04405159
#
# Stress axis : x y z
#
# Youngs Moduli (GPa) = 32.88797 74.55146 76.49933
#
# Poissons Ratio (x) = 0.35921 -0.07676
# Poissons Ratio (y) = 0.15846 0.19929
# Poissons Ratio (z) = -0.03300 0.19422
#
# Static dielectric constant tensor:
#      x y z
#    x 1.746280 0.000000 0.006070 
#    y 0.000000 1.734120 0.000000 
#    z 0.006070 0.000000 1.703110 
# 
# From -- ./inp_files/73802.got.cif
#   From: 2010.05.17/outbox.cif.g08.bks.cpg/sg11_37_cif.got.tgz:73802.got - 2010.06.03 12:22:45.
