data_PCOD9160961
_publ_section_title
;
Structure prediction by ZEFSAII (Michael W. Deem and Ramdas Pophale) SiO2 
 PCOD9160961
Probable space group: P 21/M
;
_chemical_formula_sum "Si O2"
_cell_formula_units_Z 22
_cell_length_a 9.613604
_cell_length_b 7.781593
_cell_length_c 18.090554
_cell_angle_alpha 90.000000
_cell_angle_beta 37.855526
_cell_angle_gamma 90.000000
_cell_volume 830.506967
_symmetry_space_group_name_H-M "P 21/M"
_symmetry_group_IT_number 11
_symmetry_cell_setting 'monoclinic'
loop_
_space_group_symop_operation_xyz
x,y,z
-x,1/2+y,-z
-x,-y,-z
x,1/2-y,z
loop_
_atom_site_type_symbol
_atom_site_label
_atom_site_fract_x
_atom_site_fract_y
_atom_site_fract_z
Si Si1 0.746348 0.949994 0.328650
Si Si2 0.319460 0.250000 0.049748
Si Si3 0.688890 0.957770 0.669172
Si Si4 0.763902 0.551893 0.480799
Si Si5 0.702861 0.439076 0.826975
Si Si6 0.840323 0.047264 0.134374
O O1 0.688119 0.750000 0.362558
O O2 0.839636 0.013920 0.368502
O O3 0.511001 0.046866 0.412421
O O4 0.889905 0.967992 0.193916
O O5 0.263223 0.400687 0.134362
O O6 0.431942 0.398488 0.946766
O O7 0.709470 0.750000 0.662334
O O8 0.796593 0.030684 0.547778
O O9 0.419543 0.995337 0.776153
O O10 0.767440 0.030100 0.714657
O O11 0.829326 0.750000 0.459836
O O12 0.792547 0.250000 0.816712
O O13 0.863538 0.250000 0.137872
O O14 0.000000 0.000000 0.000000
#
# Coordination Sequence:
#
# PCOD9160961 Si02
#       6
#     4   2   4   4   4   4
#     4   9  15  25  40  54  74 103 136 169 203 242
#     4   8  16  26  38  58  82 106 134 162 198 252
#     4   9  16  26  40  58  83 109 137 173 204 239
#     4   8  15  25  37  56  78 103 132 165 203 238
#     4   9  15  25  40  58  80 110 136 160 202 249
#     4  10  20  31  41  55  78 110 145 180 208 233
#
# _framework density 26.489844999999999
#
# number of rings (size 3 to 8) (size 9 to 14) (size 15 to 20)
#    0.545    2.545    0.909    2.182    0.000    4.364 
#    0.000    0.000    0.000    0.000    0.000    0.000 
#    0.000    0.000    0.000    9.818    0.000    4.364 
#
# Total GULP energy -122471.515862 kJ/mol
# GULP energy per Si atom -5566.887085 kJ/mol
# Density = 2.642955 g / cm^3
# Si number density = 26.489845 Si / 1000 Ang^3
#
#
#
# Elastic Constant Matrix: (Units=GPa)
#
#
# Indices 1 2 3 4 5 6 
#
# 1 103.9501 46.7461 51.6574 0.0000 38.6286 0.0000
# 2 46.7461 76.3608 40.5245 0.0000 10.2571 0.0000
# 3 51.6574 40.5245 241.8561 0.0000 45.0554 0.0000
# 4 0.0000 0.0000 0.0000 55.8284 0.0000 1.0542
# 5 38.6286 10.2571 45.0554 0.0000 44.7400 0.0000
# 6 0.0000 0.0000 0.0000 1.0542 0.0000 21.4168
#
#
#
# Elastic Compliance Matrix: (Units=1/GPa)
#
#
# Indices 1 2 3 4 5 6 
#
# 1 0.019547 -0.010124 0.000287 0.000000 -0.014844 0.000000
# 2 -0.010124 0.019659 -0.002364 0.000000 0.006615 0.000000
# 3 0.000287 -0.002364 0.005434 0.000000 -0.005178 0.000000
# 4 0.000000 0.000000 0.000000 0.017929 0.000000 -0.000883
# 5 -0.014844 0.006615 -0.005178 0.000000 0.038866 0.000000
# 6 0.000000 0.000000 0.000000 -0.000883 0.000000 0.046736
#
#
# Mechanical properties :
#
#
# Convention : Reuss Voigt Hill
#
# Bulk Modulus (GPa) = 49.41284 77.78031 63.59657
# Shear Modulus (GPa) = 27.88323 43.27963 35.58143
#
# Velocity S-wave (km/s) = 3.24790 4.04644 3.66896
# Velocity P-wave (km/s) = 5.72356 7.15944 6.48139
#
# Compressibility (1/GPa) = 0.02023766
#
# Stress axis : x y z
#
# Youngs Moduli (GPa) = 51.16004 50.86602 184.02099
#
# Poissons Ratio (x) = 0.51497 -0.05278
# Poissons Ratio (y) = 0.51795 0.43501
# Poissons Ratio (z) = -0.01467 0.12024
#
# Static dielectric constant tensor:
#      x y z
#    x 2.403180 0.000000 -0.137290 
#    y 0.000000 1.977200 0.000000 
#    z -0.137290 0.000000 2.135540 
# 
# From -- ./inp_files/36851.got.cif
#   From: 2010.05.17/outbox.cif.g08.bks.cpg/sg11_19_cif.got.tgz:36851.got - 2010.06.03 12:22:45.
