data_PCOD9160237
_publ_section_title
;
Structure prediction by ZEFSAII (Michael W. Deem and Ramdas Pophale) SiO2 
 PCOD9160237
Probable space group: P 21/M
;
_chemical_formula_sum "Si O2"
_cell_formula_units_Z 24
_cell_length_a 18.910394
_cell_length_b 13.731338
_cell_length_c 11.747092
_cell_angle_alpha 90.000000
_cell_angle_beta 154.702280
_cell_angle_gamma 90.000000
_cell_volume 1303.463703
_symmetry_space_group_name_H-M "P 21/M"
_symmetry_group_IT_number 11
_symmetry_cell_setting 'monoclinic'
loop_
_space_group_symop_operation_xyz
x,y,z
-x,1/2+y,-z
-x,-y,-z
x,1/2-y,z
loop_
_atom_site_type_symbol
_atom_site_label
_atom_site_fract_x
_atom_site_fract_y
_atom_site_fract_z
Si Si1 0.043302 0.361875 0.526813
Si Si2 0.487423 0.361044 0.722889
Si Si3 0.698417 0.862984 0.787717
Si Si4 0.399359 0.434082 0.118320
Si Si5 0.021161 0.537010 0.334589
Si Si6 0.640385 0.495253 0.300711
O O1 0.012841 0.250000 0.458503
O O2 0.989627 0.432462 0.347055
O O3 0.966822 0.393072 0.537128
O O4 0.240188 0.383081 0.831958
O O5 0.541717 0.250000 0.820156
O O6 0.396013 0.368379 0.468652
O O7 0.622265 0.447949 0.918479
O O8 0.363075 0.400274 0.639962
O O9 0.741685 0.750000 0.871705
O O10 0.590032 0.899586 0.736789
O O11 0.864967 0.926199 0.035488
O O12 0.565999 0.421866 0.287662
O O13 0.187006 0.532731 0.502702
O O14 0.500000 0.500000 0.000000
#
# Coordination Sequence:
#
# PCOD9160237 Si02
#       6
#     4   4   4   4   4   4
#     4  10  20  36  57  81 113 152 188 226 276 330
#     4   9  20  36  60  84 112 149 188 226 276 332
#     4  10  20  38  59  82 112 152 191 226 272 331
#     4   9  18  35  58  83 110 148 185 228 282 318
#     4  10  19  35  56  81 113 148 187 227 277 331
#     4  10  20  36  53  85 112 140 182 231 283 323
#
# _framework density 18.412479999999999
#
# number of rings (size 3 to 8) (size 9 to 14) (size 15 to 20)
#    1.000    1.333    1.667    2.500    0.000    1.333 
#    0.000   20.000    0.000    2.000    0.000    0.000 
#    0.000    0.000    0.000    0.000    0.000    0.000 
#
# Total GULP energy -133670.364910 kJ/mol
# GULP energy per Si atom -5569.598538 kJ/mol
# Density = 1.837057 g / cm^3
# Si number density = 18.412480 Si / 1000 Ang^3
#
#
#
# Elastic Constant Matrix: (Units=GPa)
#
#
# Indices 1 2 3 4 5 6 
#
# 1 113.3646 24.7859 27.7665 0.0000 24.2757 0.0000
# 2 24.7859 105.9336 12.5390 0.0000 2.7900 0.0000
# 3 27.7665 12.5390 28.7579 0.0000 7.7069 0.0000
# 4 0.0000 0.0000 0.0000 27.8665 0.0000 -2.5793
# 5 24.2757 2.7900 7.7069 0.0000 24.6784 0.0000
# 6 0.0000 0.0000 0.0000 -2.5793 0.0000 6.1566
#
#
#
# Elastic Compliance Matrix: (Units=1/GPa)
#
#
# Indices 1 2 3 4 5 6 
#
# 1 0.013829 -0.001804 -0.009794 0.000000 -0.010340 0.000000
# 2 -0.001804 0.010190 -0.003130 0.000000 0.001600 0.000000
# 3 -0.009794 -0.003130 0.046838 0.000000 -0.004639 0.000000
# 4 0.000000 0.000000 0.000000 0.037333 0.000000 0.015640
# 5 -0.010340 0.001600 -0.004639 0.000000 0.051961 0.000000
# 6 0.000000 0.000000 0.000000 0.015640 0.000000 0.168978
#
#
# Mechanical properties :
#
#
# Convention : Reuss Voigt Hill
#
# Bulk Modulus (GPa) = 24.15467 42.02654 33.09060
# Shear Modulus (GPa) = 13.42694 23.93795 18.68244
#
# Velocity S-wave (km/s) = 2.70336 3.60959 3.18883
# Velocity P-wave (km/s) = 4.78449 6.34404 5.61863
#
# Compressibility (1/GPa) = 0.04139986
#
# Stress axis : x y z
#
# Youngs Moduli (GPa) = 72.31351 98.13227 21.35034
#
# Poissons Ratio (x) = 0.17702 0.20911
# Poissons Ratio (y) = 0.13045 0.06683
# Poissons Ratio (z) = 0.70826 0.30718
#
# Static dielectric constant tensor:
#      x y z
#    x 1.658740 0.000000 0.007840 
#    y 0.000000 1.649220 0.000000 
#    z 0.007840 0.000000 1.639170 
# 
# From -- ./inp_files/41376.got.cif
#   From: 2010.05.17/outbox.cif.g08.bks.cpg/sg11_21_cif.got.tgz:41376.got - 2010.06.03 12:22:45.
