data_PCOD9160561
_publ_section_title
;
Structure prediction by ZEFSAII (Michael W. Deem and Ramdas Pophale) SiO2 
 PCOD9160561
Probable space group: P 21/M
;
_chemical_formula_sum "Si O2"
_cell_formula_units_Z 32
_cell_length_a 19.499758
_cell_length_b 7.736765
_cell_length_c 9.956650
_cell_angle_alpha 90.000000
_cell_angle_beta 76.099249
_cell_angle_gamma 90.000000
_cell_volume 1458.118643
_symmetry_space_group_name_H-M "P 21/M"
_symmetry_group_IT_number 11
_symmetry_cell_setting 'monoclinic'
loop_
_space_group_symop_operation_xyz
x,y,z
-x,1/2+y,-z
-x,-y,-z
x,1/2-y,z
loop_
_atom_site_type_symbol
_atom_site_label
_atom_site_fract_x
_atom_site_fract_y
_atom_site_fract_z
Si Si1 0.098257 0.452340 0.668551
Si Si2 0.401238 0.953874 0.663590
Si Si3 0.056524 0.538131 0.269240
Si Si4 0.442233 0.453558 0.358193
Si Si5 0.185384 0.952096 0.391392
Si Si6 0.286800 0.961311 0.924137
Si Si7 0.874584 0.459039 0.039456
Si Si8 0.669369 0.041139 0.800828
O O1 0.100798 0.250000 0.637394
O O2 0.162869 0.533141 0.556382
O O3 0.102960 0.477297 0.825384
O O4 0.021977 0.523447 0.658017
O O5 0.402500 0.750000 0.693034
O O6 0.477945 0.025784 0.672051
O O7 0.335479 0.023540 0.778684
O O8 0.398210 0.973820 0.504896
O O9 0.054811 0.750000 0.274004
O O10 0.119532 0.476798 0.335978
O O11 0.076337 0.487181 0.107744
O O12 0.447311 0.250000 0.380039
O O13 0.401279 0.483662 0.240164
O O14 0.188758 0.750000 0.353805
O O15 0.261476 0.022840 0.313684
O O16 0.284405 0.750000 0.924512
O O17 0.205678 0.016962 0.951673
O O18 0.320627 0.013471 0.050115
O O19 0.875397 0.250000 0.042171
O O20 0.668375 0.250000 0.798881
#
# Coordination Sequence:
#
# PCOD9160561 Si02
#       8
#     4   4   4   4   4   4   4   4
#     4  11  23  35  51  81 115 143 174 223 281 330
#     4   9  19  37  59  83 111 145 185 221 258 313
#     4   9  18  36  59  79 105 140 183 230 272 318
#     4  10  21  36  55  83 118 148 174 215 270 323
#     4  10  20  37  58  79 103 141 188 227 264 319
#     4   9  18  35  60  83 102 136 188 234 262 303
#     4  10  19  36  59  81 105 140 186 229 267 317
#     4  10  20  36  59  82 105 139 185 230 269 315
#
# _framework density 21.946089000000001
#
# number of rings (size 3 to 8) (size 9 to 14) (size 15 to 20)
#    0.000    2.250    1.250    1.500    1.750    1.500 
#    0.000    3.125    0.000    0.000    0.000    0.000 
#    0.000    0.000    0.000    0.000    0.000    0.000 
#
# Total GULP energy -178745.472042 kJ/mol
# GULP energy per Si atom -5585.796001 kJ/mol
# Density = 2.189614 g / cm^3
# Si number density = 21.946089 Si / 1000 Ang^3
#
#
#
# Elastic Constant Matrix: (Units=GPa)
#
#
# Indices 1 2 3 4 5 6 
#
# 1 37.4415 2.5925 -4.4212 0.0000 6.7446 0.0000
# 2 2.5925 27.1051 -6.2802 0.0000 -6.2284 0.0000
# 3 -4.4212 -6.2802 43.6676 0.0000 -8.6678 0.0000
# 4 0.0000 0.0000 0.0000 7.1664 0.0000 6.3467
# 5 6.7446 -6.2284 -8.6678 0.0000 40.0625 0.0000
# 6 0.0000 0.0000 0.0000 6.3467 0.0000 11.8863
#
#
#
# Elastic Compliance Matrix: (Units=1/GPa)
#
#
# Indices 1 2 3 4 5 6 
#
# 1 0.028005 -0.003509 0.001344 0.000000 -0.004969 0.000000
# 2 -0.003509 0.040853 0.007208 0.000000 0.008501 0.000000
# 3 0.001344 0.007208 0.025339 0.000000 0.006376 0.000000
# 4 0.000000 0.000000 0.000000 0.264721 0.000000 -0.141348
# 5 -0.004969 0.008501 0.006376 0.000000 0.028499 0.000000
# 6 0.000000 0.000000 0.000000 -0.141348 0.000000 0.159603
#
#
# Mechanical properties :
#
#
# Convention : Reuss Voigt Hill
#
# Bulk Modulus (GPa) = 9.58935 10.22182 9.90558
# Shear Modulus (GPa) = 8.74593 19.57791 14.16192
#
# Velocity S-wave (km/s) = 1.99846 2.99003 2.54304
# Velocity P-wave (km/s) = 3.11514 4.07286 3.62576
#
# Compressibility (1/GPa) = 0.10428233
#
# Stress axis : x y z
#
# Youngs Moduli (GPa) = 35.70761 24.47827 39.46541
#
# Poissons Ratio (x) = 0.08589 -0.05306
# Poissons Ratio (y) = 0.12530 -0.28445
# Poissons Ratio (z) = -0.04800 -0.17643
#
# Static dielectric constant tensor:
#      x y z
#    x 1.798310 0.000000 -0.012970 
#    y 0.000000 1.821550 0.000000 
#    z -0.012970 0.000000 1.773300 
# 
# From -- ./inp_files/25835.got.cif
#   From: 2010.05.17/outbox.cif.g08.bks.cpg/sg11_13_cif.got.tgz:25835.got - 2010.06.03 12:22:45.
