data_PCOD9160822
_publ_section_title
;
Structure prediction by ZEFSAII (Michael W. Deem and Ramdas Pophale) SiO2 
 PCOD9160822
Probable space group: P 21/M
;
_chemical_formula_sum "Si O2"
_cell_formula_units_Z 28
_cell_length_a 9.169520
_cell_length_b 14.868054
_cell_length_c 17.682532
_cell_angle_alpha 90.000000
_cell_angle_beta 143.671671
_cell_angle_gamma 90.000000
_cell_volume 1428.133240
_symmetry_space_group_name_H-M "P 21/M"
_symmetry_group_IT_number 11
_symmetry_cell_setting 'monoclinic'
loop_
_space_group_symop_operation_xyz
x,y,z
-x,1/2+y,-z
-x,-y,-z
x,1/2-y,z
loop_
_atom_site_type_symbol
_atom_site_label
_atom_site_fract_x
_atom_site_fract_y
_atom_site_fract_z
Si Si1 0.058919 0.143079 0.514848
Si Si2 0.361441 0.849635 0.280076
Si Si3 0.937945 0.851736 0.840231
Si Si4 0.745807 0.507065 0.650556
Si Si5 0.066533 0.399687 0.000672
Si Si6 0.613913 0.491009 0.964637
Si Si7 0.122169 0.008309 0.672019
O O1 0.000877 0.250000 0.491539
O O2 0.351977 0.134023 0.618848
O O3 0.025212 0.090826 0.580146
O O4 0.914388 0.082737 0.392636
O O5 0.343442 0.750000 0.306129
O O6 0.182820 0.854441 0.132949
O O7 0.260415 0.925184 0.293518
O O8 0.984909 0.750000 0.837066
O O9 0.766873 0.903249 0.709352
O O10 0.831723 0.854173 0.881279
O O11 0.187782 0.910659 0.948305
O O12 0.500000 0.500000 0.500000
O O13 0.967568 0.501873 0.684091
O O14 0.250858 0.418159 0.008398
O O15 0.000000 0.500000 0.000000
O O16 0.401225 0.474466 0.814216
O O17 0.500000 0.500000 0.000000
#
# Coordination Sequence:
#
# PCOD9160822 Si02
#       7
#     4   4   4   4   4   4   4
#     4  10  23  41  65  93 124 166 216 260 314 380
#     4  11  21  39  66  94 123 167 214 260 311 369
#     4  11  24  42  68  96 128 171 213 258 319 380
#     4  12  24  42  65  92 130 167 211 263 314 377
#     4  10  19  37  65  89 125 162 210 260 310 371
#     4  11  21  40  65  94 131 169 205 260 323 376
#     4  11  23  40  66  91 129 169 206 260 328 368
#
# _framework density 19.606013999999998
#
# number of rings (size 3 to 8) (size 9 to 14) (size 15 to 20)
#    0.000    1.143    5.714    2.143    0.000    3.429 
#    0.000    5.714    0.000    0.000    0.000    0.000 
#    0.000    0.000    0.000    0.000    0.000    0.000 
#
# Total GULP energy -156274.779114 kJ/mol
# GULP energy per Si atom -5581.242111 kJ/mol
# Density = 1.956139 g / cm^3
# Si number density = 19.606014 Si / 1000 Ang^3
#
#
#
# Elastic Constant Matrix: (Units=GPa)
#
#
# Indices 1 2 3 4 5 6 
#
# 1 77.8058 30.1948 17.0343 0.0000 -21.3547 0.0000
# 2 30.1948 134.9031 39.4182 0.0000 -17.0306 0.0000
# 3 17.0343 39.4182 124.7955 0.0000 -10.9708 0.0000
# 4 0.0000 0.0000 0.0000 4.4808 0.0000 12.0005
# 5 -21.3547 -17.0306 -10.9708 0.0000 27.4104 0.0000
# 6 0.0000 0.0000 0.0000 12.0005 0.0000 10.2267
#
#
#
# Elastic Compliance Matrix: (Units=1/GPa)
#
#
# Indices 1 2 3 4 5 6 
#
# 1 0.017031 -0.002157 -0.000616 0.000000 0.011681 0.000000
# 2 -0.002157 0.008932 -0.002266 0.000000 0.002962 0.000000
# 3 -0.000616 -0.002266 0.008962 0.000000 0.001699 0.000000
# 4 0.000000 0.000000 0.000000 -0.104155 0.000000 0.122220
# 5 0.011681 0.002962 0.001699 0.000000 0.048103 0.000000
# 6 0.000000 0.000000 0.000000 0.122220 0.000000 -0.045635
#
#
# Mechanical properties :
#
#
# Convention : Reuss Voigt Hill
#
# Bulk Modulus (GPa) = 40.24964 56.75546 48.50255
# Shear Modulus (GPa) = -103.30437 25.14739 -39.07849
#
# Velocity S-wave (km/s) = -7.26667 3.58528 -4.46936
# Velocity P-wave (km/s) = 7.05920 6.79336 1.35692
#
# Compressibility (1/GPa) = 0.02484494
#
# Stress axis : x y z
#
# Youngs Moduli (GPa) = 58.71781 111.96104 111.57665
#
# Poissons Ratio (x) = 0.24151 0.06878
# Poissons Ratio (y) = 0.12666 0.25287
# Poissons Ratio (z) = 0.03619 0.25374
#
# Static dielectric constant tensor:
#      x y z
#    x 1.734140 0.000000 0.000410 
#    y 0.000000 1.706810 0.000000 
#    z 0.000410 0.000000 1.725820 
# 
# From -- ./inp_files/17938.got.cif
#   From: 2010.05.17/outbox.cif.g08.bks.cpg/sg11_9_cif.got.tgz:17938.got - 2010.06.03 12:22:45.
