data_PCOD9160528
_publ_section_title
;
Structure prediction by ZEFSAII (Michael W. Deem and Ramdas Pophale) SiO2 
 PCOD9160528
Probable space group: P 21/M
;
_chemical_formula_sum "Si O2"
_cell_formula_units_Z 28
_cell_length_a 15.116725
_cell_length_b 17.346755
_cell_length_c 8.952106
_cell_angle_alpha 90.000000
_cell_angle_beta 40.515433
_cell_angle_gamma 90.000000
_cell_volume 1525.044506
_symmetry_space_group_name_H-M "P 21/M"
_symmetry_group_IT_number 11
_symmetry_cell_setting 'monoclinic'
loop_
_space_group_symop_operation_xyz
x,y,z
-x,1/2+y,-z
-x,-y,-z
x,1/2-y,z
loop_
_atom_site_type_symbol
_atom_site_label
_atom_site_fract_x
_atom_site_fract_y
_atom_site_fract_z
Si Si1 0.520740 0.485758 0.145091
Si Si2 0.814230 0.336659 0.055137
Si Si3 0.909946 0.607165 0.150573
Si Si4 0.448133 0.918902 0.496975
Si Si5 0.036974 0.970462 0.703249
Si Si6 0.607963 0.663128 0.532364
Si Si7 0.174725 0.566676 0.228409
O O1 0.464292 0.560501 0.304312
O O2 0.451545 0.405843 0.288865
O O3 0.500000 0.500000 0.000000
O O4 0.680677 0.474962 0.968837
O O5 0.768817 0.250000 0.143265
O O6 0.705383 0.396423 0.263770
O O7 0.817601 0.353917 0.873714
O O8 0.962086 0.350305 0.937435
O O9 0.770369 0.653452 0.322744
O O10 0.887167 0.531675 0.285499
O O11 0.956609 0.582067 0.924838
O O12 0.543975 0.855624 0.451582
O O13 0.500000 0.000000 0.500000
O O14 0.129847 0.929509 0.458954
O O15 0.931288 0.017781 0.735684
O O16 0.570791 0.750000 0.625631
#
# Coordination Sequence:
#
# PCOD9160528 Si02
#       7
#     4   4   4   4   4   4   4
#     4  11  23  36  62  89 119 153 201 249 296 352
#     4  11  22  38  58  84 120 160 195 243 301 353
#     4  10  21  35  62  86 121 147 206 242 297 347
#     4  10  21  37  60  85 112 154 202 237 288 358
#     4   9  20  34  61  90 113 155 194 255 285 347
#     4  11  22  39  61  87 122 159 197 246 304 355
#     4  10  19  36  57  85 119 148 197 237 299 348
#
# _framework density 18.360120999999999
#
# number of rings (size 3 to 8) (size 9 to 14) (size 15 to 20)
#    0.000    1.714    2.857    2.571   12.000    0.000 
#    0.000    2.857    0.000    0.000    0.000    0.000 
#    0.000    0.000    0.000    0.000    0.000    0.000 
#
# Total GULP energy -156100.869030 kJ/mol
# GULP energy per Si atom -5575.031037 kJ/mol
# Density = 1.831833 g / cm^3
# Si number density = 18.360121 Si / 1000 Ang^3
#
#
#
# Elastic Constant Matrix: (Units=GPa)
#
#
# Indices 1 2 3 4 5 6 
#
# 1 77.4974 22.0961 48.9291 0.0000 10.4238 0.0000
# 2 22.0961 69.0276 29.8048 0.0000 10.9580 0.0000
# 3 48.9291 29.8048 104.9030 0.0000 21.2169 0.0000
# 4 0.0000 0.0000 0.0000 15.6423 0.0000 -0.3223
# 5 10.4238 10.9580 21.2169 0.0000 45.7095 0.0000
# 6 0.0000 0.0000 0.0000 -0.3223 0.0000 9.9253
#
#
#
# Elastic Compliance Matrix: (Units=1/GPa)
#
#
# Indices 1 2 3 4 5 6 
#
# 1 0.018668 -0.002531 -0.008001 0.000000 0.000063 0.000000
# 2 -0.002531 0.017017 -0.003251 0.000000 -0.001993 0.000000
# 3 -0.008001 -0.003251 0.015077 0.000000 -0.004394 0.000000
# 4 0.000000 0.000000 0.000000 0.063972 0.000000 0.002077
# 5 0.000063 -0.001993 -0.004394 0.000000 0.024380 0.000000
# 6 0.000000 0.000000 0.000000 0.002077 0.000000 0.100820
#
#
# Mechanical properties :
#
#
# Convention : Reuss Voigt Hill
#
# Bulk Modulus (GPa) = 43.11107 50.34312 46.72709
# Shear Modulus (GPa) = 18.16637 24.29529 21.23083
#
# Velocity S-wave (km/s) = 3.14896 3.64162 3.40421
# Velocity P-wave (km/s) = 6.06243 6.72021 6.39977
#
# Compressibility (1/GPa) = 0.02319590
#
# Stress axis : x y z
#
# Youngs Moduli (GPa) = 53.56643 58.76324 66.32643
#
# Poissons Ratio (x) = 0.14874 0.53068
# Poissons Ratio (y) = 0.13559 0.21564
# Poissons Ratio (z) = 0.42859 0.19105
#
# Static dielectric constant tensor:
#      x y z
#    x 1.657260 0.000000 0.006190 
#    y 0.000000 1.648350 0.000000 
#    z 0.006190 0.000000 1.666850 
# 
# From -- ./inp_files/22709.got.cif
#   From: 2010.05.17/outbox.cif.g08.bks.cpg/sg11_12_cif.got.tgz:22709.got - 2010.06.03 12:22:45.
