data_PCOD9160018
_publ_section_title
;
Structure prediction by ZEFSAII (Michael W. Deem and Ramdas Pophale) SiO2 
 PCOD9160018
Probable space group: P 21/M
;
_chemical_formula_sum "Si O2"
_cell_formula_units_Z 32
_cell_length_a 22.775506
_cell_length_b 7.965518
_cell_length_c 13.119290
_cell_angle_alpha 90.000000
_cell_angle_beta 38.762537
_cell_angle_gamma 90.000000
_cell_volume 1490.156923
_symmetry_space_group_name_H-M "P 21/M"
_symmetry_group_IT_number 11
_symmetry_cell_setting 'monoclinic'
loop_
_space_group_symop_operation_xyz
x,y,z
-x,1/2+y,-z
-x,-y,-z
x,1/2-y,z
loop_
_atom_site_type_symbol
_atom_site_label
_atom_site_fract_x
_atom_site_fract_y
_atom_site_fract_z
Si Si1 0.643597 0.945776 0.601316
Si Si2 0.296257 0.045997 0.034640
Si Si3 0.727079 0.058110 0.286677
Si Si4 0.811757 0.947975 0.509260
Si Si5 0.106352 0.046825 0.385666
Si Si6 0.410792 0.062004 0.687001
Si Si7 0.461540 0.050331 0.942941
Si Si8 0.099073 0.950723 0.821812
O O1 0.667418 0.750000 0.550278
O O2 0.709707 0.007098 0.605504
O O3 0.666444 0.052544 0.471607
O O4 0.534808 0.961865 0.769825
O O5 0.291914 0.250000 0.028854
O O6 0.362664 0.981246 0.852753
O O7 0.355271 0.008413 0.057314
O O8 0.188949 0.989389 0.195601
O O9 0.734136 0.250000 0.239673
O O10 0.825791 0.993930 0.194880
O O11 0.675601 0.946157 0.274438
O O12 0.799171 0.750000 0.545124
O O13 0.859844 0.014708 0.547362
O O14 0.876711 0.974514 0.321541
O O15 0.108424 0.250000 0.384047
O O16 0.000000 0.000000 0.500000
O O17 0.437297 0.250000 0.681393
O O18 0.500000 0.000000 0.500000
O O19 0.470399 0.250000 0.919815
O O20 0.500000 0.000000 0.000000
O O21 0.108568 0.750000 0.799467
O O22 0.000000 0.000000 0.000000
#
# Coordination Sequence:
#
# PCOD9160018 Si02
#       8
#     4   4   4   4   4   4   4   4
#     4  10  19  34  57  84 111 144 183 225 278 343
#     4   9  21  40  59  80 113 154 194 234 286 347
#     4  10  21  37  55  80 113 148 185 231 284 343
#     4   9  19  36  58  81 112 150 188 233 291 352
#     4  10  21  40  61  82 110 149 196 245 292 344
#     4  11  22  38  61  87 117 158 200 242 292 351
#     4  11  21  35  56  82 112 146 182 227 280 337
#     4  10  21  36  57  84 116 149 188 239 295 353
#
# _framework density 21.474247999999999
#
# number of rings (size 3 to 8) (size 9 to 14) (size 15 to 20)
#    0.000    2.000    0.000    3.375    0.000    6.500 
#    0.000    8.125    0.000    0.000    0.000    0.000 
#    0.000    0.000    0.000    0.000    0.000    0.000 
#
# Total GULP energy -178442.397878 kJ/mol
# GULP energy per Si atom -5576.324934 kJ/mol
# Density = 2.142537 g / cm^3
# Si number density = 21.474248 Si / 1000 Ang^3
#
#
#
# Elastic Constant Matrix: (Units=GPa)
#
#
# Indices 1 2 3 4 5 6 
#
# 1 114.7439 5.7453 46.6540 0.0000 -3.5032 0.0000
# 2 5.7453 28.6852 0.4951 0.0000 -1.2844 0.0000
# 3 46.6540 0.4951 138.4173 0.0000 -17.3885 0.0000
# 4 0.0000 0.0000 0.0000 22.6448 0.0000 -2.1933
# 5 -3.5032 -1.2844 -17.3885 0.0000 20.4799 0.0000
# 6 0.0000 0.0000 0.0000 -2.1933 0.0000 21.7911
#
#
#
# Elastic Compliance Matrix: (Units=1/GPa)
#
#
# Indices 1 2 3 4 5 6 
#
# 1 0.010250 -0.002056 -0.003630 0.000000 -0.001458 0.000000
# 2 -0.002056 0.035375 0.000896 0.000000 0.002628 0.000000
# 3 -0.003630 0.000896 0.009374 0.000000 0.007394 0.000000
# 4 0.000000 0.000000 0.000000 0.044595 0.000000 0.004489
# 5 -0.001458 0.002628 0.007394 0.000000 0.055022 0.000000
# 6 0.000000 0.000000 0.000000 0.004489 0.000000 0.046342
#
#
# Mechanical properties :
#
#
# Convention : Reuss Voigt Hill
#
# Bulk Modulus (GPa) = 22.01701 43.07059 32.54380
# Shear Modulus (GPa) = 22.15561 28.24661 25.20111
#
# Velocity S-wave (km/s) = 3.21554 3.63074 3.42943
# Velocity P-wave (km/s) = 4.90523 6.13814 5.55599
#
# Compressibility (1/GPa) = 0.04541943
#
# Stress axis : x y z
#
# Youngs Moduli (GPa) = 97.56482 28.26847 106.67958
#
# Poissons Ratio (x) = 0.05811 0.38730
# Poissons Ratio (y) = 0.20054 -0.09563
# Poissons Ratio (z) = 0.35421 -0.02534
#
# Static dielectric constant tensor:
#      x y z
#    x 1.804170 0.000000 0.025380 
#    y 0.000000 2.271980 0.000000 
#    z 0.025380 0.000000 2.039210 
# 
# From -- ./inp_files/55653.got.cif
#   From: 2010.05.17/outbox.cif.g08.bks.cpg/sg11_28_cif.got.tgz:55653.got - 2010.06.03 12:22:45.
