data_PCOD9160621
_publ_section_title
;
Structure prediction by ZEFSAII (Michael W. Deem and Ramdas Pophale) SiO2 
 PCOD9160621
Probable space group: P 21/M
;
_chemical_formula_sum "Si O2"
_cell_formula_units_Z 28
_cell_length_a 6.614453
_cell_length_b 14.072705
_cell_length_c 17.929742
_cell_angle_alpha 90.000000
_cell_angle_beta 124.814037
_cell_angle_gamma 90.000000
_cell_volume 1370.230624
_symmetry_space_group_name_H-M "P 21/M"
_symmetry_group_IT_number 11
_symmetry_cell_setting 'monoclinic'
loop_
_space_group_symop_operation_xyz
x,y,z
-x,1/2+y,-z
-x,-y,-z
x,1/2-y,z
loop_
_atom_site_type_symbol
_atom_site_label
_atom_site_fract_x
_atom_site_fract_y
_atom_site_fract_z
Si Si1 0.992945 0.862482 0.229430
Si Si2 0.456210 0.096851 0.594196
Si Si3 0.315299 0.409035 0.411120
Si Si4 0.071573 0.146347 0.060984
Si Si5 0.231532 0.036509 0.961635
Si Si6 0.434342 0.147680 0.275975
Si Si7 0.814299 0.523961 0.330962
O O1 0.945208 0.750000 0.211027
O O2 0.922739 0.921065 0.140407
O O3 0.831329 0.910142 0.261408
O O4 0.282566 0.874877 0.313639
O O5 0.400676 0.145648 0.503264
O O6 0.241040 0.092689 0.610127
O O7 0.486597 0.988771 0.571558
O O8 0.300623 0.357411 0.328444
O O9 0.066580 0.464291 0.381104
O O10 0.955470 0.250000 0.025235
O O11 0.232210 0.148757 0.169122
O O12 0.890439 0.058860 0.032025
O O13 0.236448 0.118477 0.024875
O O14 0.500000 0.000000 0.000000
O O15 0.571242 0.250000 0.302459
O O16 0.603522 0.056710 0.292583
#
# Coordination Sequence:
#
# PCOD9160621 Si02
#       7
#     4   4   4   4   4   4   4
#     4  11  24  40  59  87 123 160 199 246 302 362
#     4   9  19  36  57  82 116 157 195 239 291 345
#     4   9  18  34  57  84 116 154 197 241 286 339
#     4  10  22  40  62  89 119 152 193 243 300 358
#     4  11  23  41  64  89 117 153 197 247 302 361
#     4  10  21  37  58  86 120 155 193 242 295 347
#     4  10  19  36  60  86 118 158 202 244 288 345
#
# _framework density 20.434517
#
# number of rings (size 3 to 8) (size 9 to 14) (size 15 to 20)
#    0.000    2.000    0.000    4.286    0.000    5.143 
#    0.000    3.571    0.000    0.000    0.000    0.000 
#    0.000    0.000    0.000    0.000    0.000    0.000 
#
# Total GULP energy -155934.284258 kJ/mol
# GULP energy per Si atom -5569.081581 kJ/mol
# Density = 2.038801 g / cm^3
# Si number density = 20.434517 Si / 1000 Ang^3
#
#
#
# Elastic Constant Matrix: (Units=GPa)
#
#
# Indices 1 2 3 4 5 6 
#
# 1 96.5824 28.4600 26.5477 0.0000 -16.0164 0.0000
# 2 28.4600 123.2616 19.2179 0.0000 -8.5614 0.0000
# 3 26.5477 19.2179 80.3758 0.0000 -20.6778 0.0000
# 4 0.0000 0.0000 0.0000 -265.3657 0.0000 144.9884
# 5 -16.0164 -8.5614 -20.6778 0.0000 31.7256 0.0000
# 6 0.0000 0.0000 0.0000 144.9884 0.0000 -58.5116
#
#
#
# Elastic Compliance Matrix: (Units=1/GPa)
#
#
# Indices 1 2 3 4 5 6 
#
# 1 0.012355 -0.002180 -0.002531 0.000000 0.004000 0.000000
# 2 -0.002180 0.008847 -0.001279 0.000000 0.000453 0.000000
# 3 -0.002531 -0.001279 0.015818 0.000000 0.008687 0.000000
# 4 0.000000 0.000000 0.000000 0.010649 0.000000 0.026387
# 5 0.004000 0.000453 0.008687 0.000000 0.039324 0.000000
# 6 0.000000 0.000000 0.000000 0.026387 0.000000 0.048295
#
#
# Mechanical properties :
#
#
# Convention : Reuss Voigt Hill
#
# Bulk Modulus (GPa) = 39.93396 49.85232 44.89314
# Shear Modulus (GPa) = 32.13072 -43.36408 -5.61668
#
# Velocity S-wave (km/s) = 3.96962 -4.61162 -1.65970
# Velocity P-wave (km/s) = 6.37145 1.97661 4.28301
#
# Compressibility (1/GPa) = 0.02504135
#
# Stress axis : x y z
#
# Youngs Moduli (GPa) = 80.93767 113.03160 63.21918
#
# Poissons Ratio (x) = 0.24645 0.15998
# Poissons Ratio (y) = 0.17647 0.08083
# Poissons Ratio (z) = 0.20482 0.14452
#
# Static dielectric constant tensor:
#      x y z
#    x 1.793770 0.000000 -0.029080 
#    y 0.000000 1.817210 0.000000 
#    z -0.029080 0.000000 1.782090 
# 
# From -- ./inp_files/57124.got.cif
#   From: 2010.05.17/outbox.cif.g08.bks.cpg/sg11_29_cif.got.tgz:57124.got - 2010.06.03 12:22:45.
