data_PCOD9160705
_publ_section_title
;
Structure prediction by ZEFSAII (Michael W. Deem and Ramdas Pophale) SiO2 
 PCOD9160705
Probable space group: P 21/M
;
_chemical_formula_sum "Si O2"
_cell_formula_units_Z 32
_cell_length_a 15.571798
_cell_length_b 19.653465
_cell_length_c 9.813717
_cell_angle_alpha 90.000000
_cell_angle_beta 145.089405
_cell_angle_gamma 90.000000
_cell_volume 1718.831437
_symmetry_space_group_name_H-M "P 21/M"
_symmetry_group_IT_number 11
_symmetry_cell_setting 'monoclinic'
loop_
_space_group_symop_operation_xyz
x,y,z
-x,1/2+y,-z
-x,-y,-z
x,1/2-y,z
loop_
_atom_site_type_symbol
_atom_site_label
_atom_site_fract_x
_atom_site_fract_y
_atom_site_fract_z
Si Si1 0.394264 0.060379 0.308968
Si Si2 0.425472 0.944618 0.710249
Si Si3 0.930596 0.949122 0.217360
Si Si4 0.095112 0.934791 0.174648
Si Si5 0.454622 0.409811 0.866129
Si Si6 0.988024 0.672268 0.834564
Si Si7 0.650467 0.671968 0.515540
Si Si8 0.885606 0.584409 0.464343
O O1 0.471144 0.087423 0.271083
O O2 0.376724 0.118537 0.399241
O O3 0.500000 0.000000 0.500000
O O4 0.231498 0.032253 0.054710
O O5 0.261430 0.954782 0.434926
O O6 0.486683 0.019496 0.829614
O O7 0.431664 0.903586 0.859976
O O8 0.905501 0.911961 0.328248
O O9 0.013688 0.908442 0.205759
O O10 0.032896 0.015104 0.380482
O O11 0.093046 0.878543 0.055040
O O12 0.000000 0.000000 0.000000
O O13 0.444479 0.351504 0.740284
O O14 0.288894 0.417360 0.718619
O O15 0.037453 0.750000 0.901793
O O16 0.824364 0.667059 0.694244
O O17 0.962294 0.644689 0.648995
O O18 0.619406 0.750000 0.512536
#
# Coordination Sequence:
#
# PCOD9160705 Si02
#       8
#     4   4   4   4   4   4   4   4
#     4  12  22  36  57  93 120 150 196 247 295 343
#     4  11  22  34  59  88 119 149 190 247 295 334
#     4  11  21  35  60  89 117 147 198 248 288 337
#     4  12  20  38  60  88 116 154 197 243 292 346
#     4  10  19  37  55  89 120 147 194 238 294 353
#     4  10  21  38  61  85 116 155 198 240 292 354
#     4  10  21  39  61  83 115 159 197 237 290 356
#     4  10  20  35  57  87 118 150 192 243 292 345
#
# _framework density 18.6173
#
# number of rings (size 3 to 8) (size 9 to 14) (size 15 to 20)
#    0.000    1.250    6.250    1.500    0.000    0.000 
#    0.000    3.125    0.000    0.000    0.000    0.000 
#    0.000    0.000    0.000    0.000    0.000    0.000 
#
# Total GULP energy -178652.823248 kJ/mol
# GULP energy per Si atom -5582.900726 kJ/mol
# Density = 1.857493 g / cm^3
# Si number density = 18.617300 Si / 1000 Ang^3
#
#
#
# Elastic Constant Matrix: (Units=GPa)
#
#
# Indices 1 2 3 4 5 6 
#
# 1 80.2219 19.8421 22.2902 0.0000 -21.0239 0.0000
# 2 19.8421 83.3437 31.9945 0.0000 -20.0389 0.0000
# 3 22.2902 31.9945 115.2018 0.0000 -15.2550 0.0000
# 4 0.0000 0.0000 0.0000 18.8751 0.0000 -3.5543
# 5 -21.0239 -20.0389 -15.2550 0.0000 31.6148 0.0000
# 6 0.0000 0.0000 0.0000 -3.5543 0.0000 21.0364
#
#
#
# Elastic Compliance Matrix: (Units=1/GPa)
#
#
# Indices 1 2 3 4 5 6 
#
# 1 0.015473 -0.000938 -0.001548 0.000000 0.008948 0.000000
# 2 -0.000938 0.015204 -0.003042 0.000000 0.007545 0.000000
# 3 -0.001548 -0.003042 0.010077 0.000000 0.001905 0.000000
# 4 0.000000 0.000000 0.000000 0.054721 0.000000 0.009245
# 5 0.008948 0.007545 0.001905 0.000000 0.043283 0.000000
# 6 0.000000 0.000000 0.000000 0.009245 0.000000 0.049099
#
#
# Mechanical properties :
#
#
# Convention : Reuss Voigt Hill
#
# Bulk Modulus (GPa) = 33.67342 47.44679 40.56011
# Shear Modulus (GPa) = 23.94511 27.94795 25.94653
#
# Velocity S-wave (km/s) = 3.59022 3.87871 3.73725
# Velocity P-wave (km/s) = 5.94245 6.75277 6.36052
#
# Compressibility (1/GPa) = 0.02969701
#
# Stress axis : x y z
#
# Youngs Moduli (GPa) = 64.63049 65.77351 99.23551
#
# Poissons Ratio (x) = 0.06169 0.15366
# Poissons Ratio (y) = 0.06061 0.30186
# Poissons Ratio (z) = 0.10008 0.20007
#
# Static dielectric constant tensor:
#      x y z
#    x 1.685720 0.000000 -0.006990 
#    y 0.000000 1.617980 0.000000 
#    z -0.006990 0.000000 1.668820 
# 
# From -- ./inp_files/23133.got.cif
#   From: 2010.05.17/outbox.cif.g08.bks.cpg/sg11_12_cif.got.tgz:23133.got - 2010.06.03 12:22:45.
