data_PCOD9160637
_publ_section_title
;
Structure prediction by ZEFSAII (Michael W. Deem and Ramdas Pophale) SiO2 
 PCOD9160637
Probable space group: P 21/M
;
_chemical_formula_sum "Si O2"
_cell_formula_units_Z 32
_cell_length_a 24.519652
_cell_length_b 7.854764
_cell_length_c 24.446227
_cell_angle_alpha 90.000000
_cell_angle_beta 161.014645
_cell_angle_gamma 90.000000
_cell_volume 1531.717516
_symmetry_space_group_name_H-M "P 21/M"
_symmetry_group_IT_number 11
_symmetry_cell_setting 'monoclinic'
loop_
_space_group_symop_operation_xyz
x,y,z
-x,1/2+y,-z
-x,-y,-z
x,1/2-y,z
loop_
_atom_site_type_symbol
_atom_site_label
_atom_site_fract_x
_atom_site_fract_y
_atom_site_fract_z
Si Si1 0.480149 0.055705 0.418625
Si Si2 0.189712 0.953252 0.621378
Si Si3 0.358798 0.446945 0.536774
Si Si4 0.449264 0.545026 0.080648
Si Si5 0.998868 0.541522 0.825325
Si Si6 0.102716 0.546245 0.043519
Si Si7 0.649539 0.459100 0.891860
Si Si8 0.181003 0.953279 0.737844
O O1 0.534432 0.250000 0.465238
O O2 0.500000 0.000000 0.500000
O O3 0.584134 0.953054 0.472280
O O4 0.285262 0.036130 0.219120
O O5 0.180457 0.750000 0.614906
O O6 0.201171 0.020875 0.694956
O O7 0.358694 0.001990 0.750536
O O8 0.012095 0.014514 0.428773
O O9 0.344680 0.250000 0.540215
O O10 0.506240 0.520402 0.714001
O O11 0.173401 0.522766 0.364226
O O12 0.436182 0.750000 0.068567
O O13 0.393888 0.485957 0.088104
O O14 0.320865 0.479664 0.912304
O O15 0.994746 0.750000 0.820197
O O16 0.011413 0.493652 0.901051
O O17 0.167561 0.486557 0.955007
O O18 0.126514 0.750000 0.064338
O O19 0.000000 0.500000 0.000000
O O20 0.651449 0.250000 0.892225
O O21 0.203900 0.750000 0.756849
#
# Coordination Sequence:
#
# PCOD9160637 Si02
#       8
#     4   4   4   4   4   4   4   4
#     4  12  24  38  57  83 114 148 187 232 285 344
#     4  10  20  34  54  81 117 156 192 239 298 349
#     4  10  19  36  61  84 110 143 181 230 288 343
#     4  10  20  34  57  85 113 149 197 244 288 344
#     4   9  18  33  56  82 107 139 178 223 277 334
#     4  11  21  36  57  84 117 147 184 230 280 343
#     4   9  18  34  56  84 112 144 187 236 285 338
#     4   9  19  35  55  82 115 152 197 244 289 344
#
# _framework density 20.891580999999999
#
# number of rings (size 3 to 8) (size 9 to 14) (size 15 to 20)
#    0.000    2.000    1.250    3.000    0.000    3.000 
#    0.000    5.000    0.000    0.000    0.000    0.000 
#    0.000    0.000    0.000    0.000    0.000    0.000 
#
# Total GULP energy -178737.656149 kJ/mol
# GULP energy per Si atom -5585.551755 kJ/mol
# Density = 2.084403 g / cm^3
# Si number density = 20.891581 Si / 1000 Ang^3
#
#
#
# Elastic Constant Matrix: (Units=GPa)
#
#
# Indices 1 2 3 4 5 6 
#
# 1 90.8417 -11.2722 36.6797 0.0000 27.2971 0.0000
# 2 -11.2722 26.8446 -12.7004 0.0000 -4.6845 0.0000
# 3 36.6797 -12.7004 115.7536 0.0000 32.1358 0.0000
# 4 0.0000 0.0000 0.0000 15.6362 0.0000 2.7390
# 5 27.2971 -4.6845 32.1358 0.0000 26.4106 0.0000
# 6 0.0000 0.0000 0.0000 2.7390 0.0000 11.3447
#
#
#
# Elastic Compliance Matrix: (Units=1/GPa)
#
#
# Indices 1 2 3 4 5 6 
#
# 1 0.016394 0.003950 -0.000380 0.000000 -0.015781 0.000000
# 2 0.003950 0.040362 0.003508 0.000000 -0.001192 0.000000
# 3 -0.000380 0.003508 0.013384 0.000000 -0.015270 0.000000
# 4 0.000000 0.000000 0.000000 0.066778 0.000000 -0.016123
# 5 -0.015781 -0.001192 -0.015270 0.000000 0.072542 0.000000
# 6 0.000000 0.000000 0.000000 -0.016123 0.000000 0.092040
#
#
# Mechanical properties :
#
#
# Convention : Reuss Voigt Hill
#
# Bulk Modulus (GPa) = 11.86327 28.76158 20.31242
# Shear Modulus (GPa) = 15.85074 25.39381 20.62228
#
# Velocity S-wave (km/s) = 2.75746 3.49019 3.14524
# Velocity P-wave (km/s) = 3.97856 5.48077 4.78894
#
# Compressibility (1/GPa) = 0.08429377
#
# Stress axis : x y z
#
# Youngs Moduli (GPa) = 60.99847 24.77598 74.71824
#
# Poissons Ratio (x) = -0.09787 0.02842
# Poissons Ratio (y) = -0.24095 -0.26208
# Poissons Ratio (z) = 0.02320 -0.08690
#
# Static dielectric constant tensor:
#      x y z
#    x 1.726150 0.000000 -0.011870 
#    y 0.000000 1.746910 0.000000 
#    z -0.011870 0.000000 1.743770 
# 
# From -- ./inp_files/70033.got.cif
#   From: 2010.05.17/outbox.cif.g08.bks.cpg/sg11_36_cif.got.tgz:70033.got - 2010.06.03 12:22:45.
