data_PCOD9160801
_publ_section_title
;
Structure prediction by ZEFSAII (Michael W. Deem and Ramdas Pophale) SiO2 
 PCOD9160801
Probable space group: P 21/M
;
_chemical_formula_sum "Si O2"
_cell_formula_units_Z 28
_cell_length_a 15.308697
_cell_length_b 11.737075
_cell_length_c 8.510671
_cell_angle_alpha 90.000000
_cell_angle_beta 115.467563
_cell_angle_gamma 90.000000
_cell_volume 1380.598335
_symmetry_space_group_name_H-M "P 21/M"
_symmetry_group_IT_number 11
_symmetry_cell_setting 'monoclinic'
loop_
_space_group_symop_operation_xyz
x,y,z
-x,1/2+y,-z
-x,-y,-z
x,1/2-y,z
loop_
_atom_site_type_symbol
_atom_site_label
_atom_site_fract_x
_atom_site_fract_y
_atom_site_fract_z
Si Si1 0.738580 0.381843 0.918752
Si Si2 0.243520 0.378453 0.679478
Si Si3 0.408853 0.041359 0.028676
Si Si4 0.061813 0.628630 0.376282
Si Si5 0.092133 0.955998 0.735265
Si Si6 0.515358 0.120787 0.415105
Si Si7 0.269603 0.553267 0.434189
O O1 0.720851 0.250000 0.865665
O O2 0.654255 0.433219 0.961781
O O3 0.738567 0.454629 0.759399
O O4 0.839957 0.394186 0.087802
O O5 0.212426 0.250000 0.633830
O O6 0.160675 0.450092 0.703632
O O7 0.267625 0.437796 0.532704
O O8 0.337621 0.387569 0.862582
O O9 0.447666 0.107469 0.210839
O O10 0.500000 0.000000 0.000000
O O11 0.023018 0.750000 0.291747
O O12 0.057714 0.620057 0.562640
O O13 0.173745 0.618520 0.416266
O O14 0.999067 0.523273 0.265639
O O15 0.499587 0.250000 0.472844
O O16 0.628338 0.113914 0.454106
O O17 0.500000 0.000000 0.500000
#
# Coordination Sequence:
#
# PCOD9160801 Si02
#       7
#     4   4   4   4   4   4   4
#     4  11  23  41  63  90 127 164 204 257 312 374
#     4  10  21  40  61  86 125 163 206 262 310 363
#     4  11  23  42  60  94 120 162 212 261 311 370
#     4  10  19  37  63  88 119 159 201 255 306 364
#     4   9  21  37  60  92 121 155 209 249 309 372
#     4  12  25  43  65  93 129 170 211 259 315 377
#     4  11  23  40  61  92 123 162 210 250 308 373
#
# _framework density 20.281063
#
# number of rings (size 3 to 8) (size 9 to 14) (size 15 to 20)
#    0.000    1.429    2.857    2.571    0.000    2.286 
#    0.000    2.143    0.000    0.000    0.000    0.000 
#    0.000    0.000    0.000    0.000    0.000    0.000 
#
# Total GULP energy -156255.212004 kJ/mol
# GULP energy per Si atom -5580.543286 kJ/mol
# Density = 2.023490 g / cm^3
# Si number density = 20.281063 Si / 1000 Ang^3
#
#
#
# Elastic Constant Matrix: (Units=GPa)
#
#
# Indices 1 2 3 4 5 6 
#
# 1 82.9105 28.8328 11.0279 0.0000 12.8051 0.0000
# 2 28.8328 116.9155 15.2312 0.0000 -10.3337 0.0000
# 3 11.0279 15.2312 86.2830 0.0000 1.8323 0.0000
# 4 0.0000 0.0000 0.0000 13.0168 0.0000 -2.3393
# 5 12.8051 -10.3337 1.8323 0.0000 32.2478 0.0000
# 6 0.0000 0.0000 0.0000 -2.3393 0.0000 7.3018
#
#
#
# Elastic Compliance Matrix: (Units=1/GPa)
#
#
# Indices 1 2 3 4 5 6 
#
# 1 0.014730 -0.004131 -0.001002 0.000000 -0.007116 0.000000
# 2 -0.004131 0.010192 -0.001377 0.000000 0.004985 0.000000
# 3 -0.001002 -0.001377 0.011976 0.000000 -0.000724 0.000000
# 4 0.000000 0.000000 0.000000 0.081517 0.000000 0.026116
# 5 -0.007116 0.004985 -0.000724 0.000000 0.035474 0.000000
# 6 0.000000 0.000000 0.000000 0.026116 0.000000 0.145319
#
#
# Mechanical properties :
#
#
# Convention : Reuss Voigt Hill
#
# Bulk Modulus (GPa) = 41.88009 44.03252 42.95631
# Shear Modulus (GPa) = 15.61582 25.91443 20.76513
#
# Velocity S-wave (km/s) = 2.77784 3.57846 3.20326
# Velocity P-wave (km/s) = 5.56626 6.23154 5.90827
#
# Compressibility (1/GPa) = 0.02387769
#
# Stress axis : x y z
#
# Youngs Moduli (GPa) = 67.88816 98.11724 83.49810
#
# Poissons Ratio (x) = 0.40532 0.08369
# Poissons Ratio (y) = 0.28045 0.11498
# Poissons Ratio (z) = 0.06805 0.13511
#
# Static dielectric constant tensor:
#      x y z
#    x 1.724700 0.000000 0.009540 
#    y 0.000000 1.747770 0.000000 
#    z 0.009540 0.000000 1.719260 
# 
# From -- ./inp_files/21627.got.cif
#   From: 2010.05.17/outbox.cif.g08.bks.cpg/sg11_11_cif.got.tgz:21627.got - 2010.06.03 12:22:45.
