data_PCOD9160188
_publ_section_title
;
Structure prediction by ZEFSAII (Michael W. Deem and Ramdas Pophale) SiO2 
 PCOD9160188
Probable space group: P 21/M
;
_chemical_formula_sum "Si O2"
_cell_formula_units_Z 32
_cell_length_a 30.712667
_cell_length_b 7.674526
_cell_length_c 13.088870
_cell_angle_alpha 90.000000
_cell_angle_beta 24.316083
_cell_angle_gamma 90.000000
_cell_volume 1270.358019
_symmetry_space_group_name_H-M "P 21/M"
_symmetry_group_IT_number 11
_symmetry_cell_setting 'monoclinic'
loop_
_space_group_symop_operation_xyz
x,y,z
-x,1/2+y,-z
-x,-y,-z
x,1/2-y,z
loop_
_atom_site_type_symbol
_atom_site_label
_atom_site_fract_x
_atom_site_fract_y
_atom_site_fract_z
Si Si1 0.782162 0.957013 0.030295
Si Si2 0.850389 0.963008 0.669040
Si Si3 0.826762 0.551084 0.335498
Si Si4 0.485615 0.039187 0.912776
Si Si5 0.460700 0.041926 0.471840
Si Si6 0.288489 0.550809 0.614470
Si Si7 0.335030 0.051597 0.081796
Si Si8 0.038845 0.461720 0.766020
O O1 0.783606 0.750000 0.015671
O O2 0.660699 0.016517 0.275565
O O3 0.797396 0.988958 0.118440
O O4 0.848820 0.025385 0.790175
O O5 0.851571 0.750000 0.669440
O O6 0.940905 0.013211 0.394493
O O7 0.744184 0.020756 0.834556
O O8 0.790606 0.750000 0.419406
O O9 0.750688 0.460009 0.417758
O O10 0.859766 0.491289 0.378955
O O11 0.938499 0.543503 0.035210
O O12 0.482352 0.250000 0.910532
O O13 0.595022 0.965916 0.629210
O O14 0.373636 0.971892 0.106949
O O15 0.500000 0.000000 0.000000
O O16 0.465474 0.250000 0.444308
O O17 0.500000 0.000000 0.500000
O O18 0.547929 0.947912 0.217267
O O19 0.303515 0.750000 0.608365
O O20 0.297616 0.250000 0.177132
O O21 0.027766 0.250000 0.795022
#
# Coordination Sequence:
#
# PCOD9160188 Si02
#       8
#     4   4   4   4   4   4   4   4
#     4  10  20  35  55  80 112 151 193 236 278 335
#     4   9  18  34  58  85 113 147 188 233 286 338
#     4  10  21  38  63  90 114 145 185 231 285 345
#     4  10  23  37  54  79 115 155 193 238 280 332
#     4  11  20  31  50  75 107 147 189 232 272 320
#     4  11  23  39  58  83 116 154 194 235 280 334
#     4  10  19  35  54  77 110 150 192 231 276 332
#     4   9  19  38  64  89 113 143 182 232 288 342
#
# _framework density 25.18975
#
# number of rings (size 3 to 8) (size 9 to 14) (size 15 to 20)
#    0.000    2.000    2.500    1.125    1.750    2.500 
#    0.000    1.875    0.000    0.000    0.000    0.000 
#    0.000    0.000    0.000    0.000    0.000    0.000 
#
# Total GULP energy -178578.232578 kJ/mol
# GULP energy per Si atom -5580.569768 kJ/mol
# Density = 2.513242 g / cm^3
# Si number density = 25.189750 Si / 1000 Ang^3
#
#
#
# Elastic Constant Matrix: (Units=GPa)
#
#
# Indices 1 2 3 4 5 6 
#
# 1 66.3803 3.4807 17.2013 0.0000 26.8268 0.0000
# 2 3.4807 61.8384 7.6949 0.0000 4.5831 0.0000
# 3 17.2013 7.6949 91.4963 0.0000 34.1726 0.0000
# 4 0.0000 0.0000 0.0000 18.5242 0.0000 3.8939
# 5 26.8268 4.5831 34.1726 0.0000 58.8608 0.0000
# 6 0.0000 0.0000 0.0000 3.8939 0.0000 26.6457
#
#
#
# Elastic Compliance Matrix: (Units=1/GPa)
#
#
# Indices 1 2 3 4 5 6 
#
# 1 0.018488 -0.000386 -0.000393 0.000000 -0.008168 0.000000
# 2 -0.000386 0.016367 -0.001141 0.000000 -0.000436 0.000000
# 3 -0.000393 -0.001141 0.014044 0.000000 -0.007886 0.000000
# 4 0.000000 0.000000 0.000000 0.055694 0.000000 -0.008139
# 5 -0.008168 -0.000436 -0.007886 0.000000 0.025324 0.000000
# 6 0.000000 0.000000 0.000000 -0.008139 0.000000 0.038719
#
#
# Mechanical properties :
#
#
# Convention : Reuss Voigt Hill
#
# Bulk Modulus (GPa) = 22.19288 30.71874 26.45581
# Shear Modulus (GPa) = 26.66714 33.56200 30.11457
#
# Velocity S-wave (km/s) = 3.25722 3.65412 3.46136
# Velocity P-wave (km/s) = 4.79326 5.47950 5.14783
#
# Compressibility (1/GPa) = 0.04505950
#
# Stress axis : x y z
#
# Youngs Moduli (GPa) = 54.08985 61.09768 71.20240
#
# Poissons Ratio (x) = 0.02361 0.02795
# Poissons Ratio (y) = 0.02090 0.08125
# Poissons Ratio (z) = 0.02123 0.06972
#
# Static dielectric constant tensor:
#      x y z
#    x 2.217370 0.000000 0.118210 
#    y 0.000000 1.370600 0.000000 
#    z 0.118210 0.000000 2.133950 
# 
# From -- ./inp_files/38185.got.cif
#   From: 2010.05.17/outbox.cif.g08.bks.cpg/sg11_20_cif.got.tgz:38185.got - 2010.06.03 12:22:45.
