data_PCOD9160953
_publ_section_title
;
Structure prediction by ZEFSAII (Michael W. Deem and Ramdas Pophale) SiO2 
 PCOD9160953
Probable space group: P 21/M
;
_chemical_formula_sum "Si O2"
_cell_formula_units_Z 30
_cell_length_a 16.013335
_cell_length_b 8.687658
_cell_length_c 12.369692
_cell_angle_alpha 90.000000
_cell_angle_beta 101.798684
_cell_angle_gamma 90.000000
_cell_volume 1684.493483
_symmetry_space_group_name_H-M "P 21/M"
_symmetry_group_IT_number 11
_symmetry_cell_setting 'monoclinic'
loop_
_space_group_symop_operation_xyz
x,y,z
-x,1/2+y,-z
-x,-y,-z
x,1/2-y,z
loop_
_atom_site_type_symbol
_atom_site_label
_atom_site_fract_x
_atom_site_fract_y
_atom_site_fract_z
Si Si1 0.228541 0.930822 0.241768
Si Si2 0.770139 0.933044 0.104613
Si Si3 0.632832 0.069051 0.912430
Si Si4 0.281816 0.932745 0.689088
Si Si5 0.305477 0.068981 0.470003
Si Si6 0.500000 0.000000 0.500000
Si Si7 0.482000 0.933606 0.745437
Si Si8 0.094755 0.934849 0.028166
O O1 0.224232 0.750000 0.269819
O O2 0.305661 0.948538 0.176190
O O3 0.143931 0.974126 0.152787
O O4 0.247906 0.029276 0.352277
O O5 0.773813 0.750000 0.109452
O O6 0.770389 0.003299 0.224089
O O7 0.683023 0.985983 0.021833
O O8 0.847096 0.997752 0.052285
O O9 0.625867 0.250000 0.935417
O O10 0.542504 0.999693 0.854294
O O11 0.270511 0.750000 0.674046
O O12 0.382336 0.961907 0.739721
O O13 0.263978 0.016892 0.571291
O O14 0.327848 0.250000 0.477917
O O15 0.395703 0.981358 0.482151
O O16 0.505964 0.004250 0.635225
O O17 0.495452 0.750000 0.738569
O O18 0.094778 0.750000 0.019667
O O19 0.000000 0.000000 0.000000
#
# Coordination Sequence:
#
# PCOD9160953 Si02
#       8
#     4   4   4   4   4   2   4   4
#     4   9  19  34  53  81 115 147 181 228 283 331
#     4  11  22  38  59  81 109 144 184 227 275 337
#     4  10  20  33  52  76 106 144 185 235 287 330
#     4  10  22  38  53  74 108 149 191 233 279 331
#     4  11  21  33  53  79 109 149 196 238 279 329
#     4  10  20  30  46  74 110 146 190 244 284 320
#     4  10  20  33  49  72 102 144 193 238 282 329
#     4  10  21  39  64  94 119 144 177 222 280 339
#
# _framework density 17.809508000000001
#
# number of rings (size 3 to 8) (size 9 to 14) (size 15 to 20)
#    0.000    1.867    1.333    4.000    0.000    8.000 
#    0.000    0.000    0.000    0.800    0.000    0.000 
#    0.000    0.000    0.000    0.000    0.000    0.000 
#
# Total GULP energy -167014.226164 kJ/mol
# GULP energy per Si atom -5567.140872 kJ/mol
# Density = 1.776897 g / cm^3
# Si number density = 17.809508 Si / 1000 Ang^3
#
#
#
# Elastic Constant Matrix: (Units=GPa)
#
#
# Indices 1 2 3 4 5 6 
#
# 1 44.8871 9.6964 28.0583 0.0000 4.8433 0.0000
# 2 9.6964 29.7604 16.0624 0.0000 0.3048 0.0000
# 3 28.0583 16.0624 80.0804 0.0000 -7.8624 0.0000
# 4 0.0000 0.0000 0.0000 19.8054 0.0000 1.4631
# 5 4.8433 0.3048 -7.8624 0.0000 24.0188 0.0000
# 6 0.0000 0.0000 0.0000 1.4631 0.0000 20.4883
#
#
#
# Elastic Compliance Matrix: (Units=1/GPa)
#
#
# Indices 1 2 3 4 5 6 
#
# 1 0.031133 -0.004075 -0.011058 0.000000 -0.009846 0.000000
# 2 -0.004075 0.038432 -0.006456 0.000000 -0.001779 0.000000
# 3 -0.011058 -0.006456 0.018477 0.000000 0.008360 0.000000
# 4 0.000000 0.000000 0.000000 0.050759 0.000000 -0.003625
# 5 -0.009846 -0.001779 0.008360 0.000000 0.046379 0.000000
# 6 0.000000 0.000000 0.000000 -0.003625 0.000000 0.049067
#
#
# Mechanical properties :
#
#
# Convention : Reuss Voigt Hill
#
# Bulk Modulus (GPa) = 22.28848 29.15132 25.71990
# Shear Modulus (GPa) = 17.10119 19.58989 18.34554
#
# Velocity S-wave (km/s) = 3.10212 3.32017 3.21300
# Velocity P-wave (km/s) = 5.03716 5.57692 5.31389
#
# Compressibility (1/GPa) = 0.04486623
#
# Stress axis : x y z
#
# Youngs Moduli (GPa) = 32.12071 26.02017 54.12016
#
# Poissons Ratio (x) = 0.10602 0.59843
# Poissons Ratio (y) = 0.13088 0.34938
# Poissons Ratio (z) = 0.35517 0.16798
#
# Static dielectric constant tensor:
#      x y z
#    x 1.583150 0.000000 0.000120 
#    y 0.000000 1.649670 0.000000 
#    z 0.000120 0.000000 1.616770 
# 
# From -- ./inp_files/40737.got.cif
#   From: 2010.05.17/outbox.cif.g08.bks.cpg/sg11_21_cif.got.tgz:40737.got - 2010.06.03 12:22:45.
