data_PCOD9160386
_publ_section_title
;
Structure prediction by ZEFSAII (Michael W. Deem and Ramdas Pophale) SiO2 
 PCOD9160386
Probable space group: P 21/M
;
_chemical_formula_sum "Si O2"
_cell_formula_units_Z 16
_cell_length_a 7.116349
_cell_length_b 16.131698
_cell_length_c 8.540234
_cell_angle_alpha 90.000000
_cell_angle_beta 126.648746
_cell_angle_gamma 90.000000
_cell_volume 786.591518
_symmetry_space_group_name_H-M "P 21/M"
_symmetry_group_IT_number 11
_symmetry_cell_setting 'monoclinic'
loop_
_space_group_symop_operation_xyz
x,y,z
-x,1/2+y,-z
-x,-y,-z
x,1/2-y,z
loop_
_atom_site_type_symbol
_atom_site_label
_atom_site_fract_x
_atom_site_fract_y
_atom_site_fract_z
Si Si1 0.544103 0.656842 0.276220
Si Si2 0.302305 0.001026 0.037695
Si Si3 0.991277 0.929702 0.361937
Si Si4 0.490081 0.091174 0.417151
O O1 0.473058 0.750000 0.204187
O O2 0.343662 0.588856 0.136426
O O3 0.776193 0.630138 0.296762
O O4 0.604421 0.647936 0.490973
O O5 0.358000 0.073576 0.189678
O O6 0.065573 0.022529 0.828608
O O7 0.500000 0.000000 0.000000
O O8 0.240793 0.885589 0.482773
O O9 0.000000 0.000000 0.500000
O O10 0.500000 0.000000 0.500000
#
# Coordination Sequence:
#
# PCOD9160386 Si02
#       4
#     4   4   4   4
#     4  10  22  38  55  85 123 146 188 246 289 333
#     4   9  18  35  62  82 110 148 196 230 278 345
#     4  11  19  37  64  84 109 153 201 229 283 343
#     4  10  19  35  59  84 111 148 193 231 282 342
#
# _framework density 20.340926
#
# number of rings (size 3 to 8) (size 9 to 14) (size 15 to 20)
#    0.000    2.000    7.500    0.000    0.000    5.000 
#    0.000    6.250    0.000    0.000    0.000    0.000 
#    0.000    0.000    0.000    0.000    0.000    0.000 
#
# Total GULP energy -89203.359370 kJ/mol
# GULP energy per Si atom -5575.209961 kJ/mol
# Density = 2.029463 g / cm^3
# Si number density = 20.340926 Si / 1000 Ang^3
#
#
#
# Elastic Constant Matrix: (Units=GPa)
#
#
# Indices 1 2 3 4 5 6 
#
# 1 72.8925 12.6886 10.4173 0.0000 0.4496 0.0000
# 2 12.6886 91.8337 32.6893 0.0000 -2.2018 0.0000
# 3 10.4173 32.6893 144.8943 0.0000 -6.9499 0.0000
# 4 0.0000 0.0000 0.0000 14.6010 0.0000 0.0337
# 5 0.4496 -2.2018 -6.9499 0.0000 27.5949 0.0000
# 6 0.0000 0.0000 0.0000 0.0337 0.0000 17.0539
#
#
#
# Elastic Compliance Matrix: (Units=1/GPa)
#
#
# Indices 1 2 3 4 5 6 
#
# 1 0.014116 -0.001732 -0.000650 0.000000 -0.000532 0.000000
# 2 -0.001732 0.012055 -0.002579 0.000000 0.000341 0.000000
# 3 -0.000650 -0.002579 0.007613 0.000000 0.001722 0.000000
# 4 0.000000 0.000000 0.000000 0.068489 0.000000 -0.000135
# 5 -0.000532 0.000341 0.001722 0.000000 0.036708 0.000000
# 6 0.000000 0.000000 0.000000 -0.000135 0.000000 0.058638
#
#
# Mechanical properties :
#
#
# Convention : Reuss Voigt Hill
#
# Bulk Modulus (GPa) = 41.90590 46.80122 44.35356
# Shear Modulus (GPa) = 23.20252 28.77164 25.98708
#
# Velocity S-wave (km/s) = 3.38106 3.76502 3.57820
# Velocity P-wave (km/s) = 5.99071 6.47757 6.23889
#
# Compressibility (1/GPa) = 0.02386299
#
# Stress axis : x y z
#
# Youngs Moduli (GPa) = 70.83932 82.95543 131.35972
#
# Poissons Ratio (x) = 0.14368 0.08534
# Poissons Ratio (y) = 0.12269 0.33875
# Poissons Ratio (z) = 0.04602 0.21392
#
# Static dielectric constant tensor:
#      x y z
#    x 1.824000 0.000000 -0.016530 
#    y 0.000000 1.705300 0.000000 
#    z -0.016530 0.000000 1.787890 
# 
# From -- ./inp_files/12664.got.cif
#   From: 2010.05.17/outbox.cif.g08.bks.cpg/sg11_7_cif.got.tgz:12664.got - 2010.06.03 12:22:45.
