data_PCOD9160177
_publ_section_title
;
Structure prediction by ZEFSAII (Michael W. Deem and Ramdas Pophale) SiO2 
 PCOD9160177
Probable space group: P 21/M
;
_chemical_formula_sum "Si O2"
_cell_formula_units_Z 32
_cell_length_a 21.685390
_cell_length_b 13.909623
_cell_length_c 15.274449
_cell_angle_alpha 90.000000
_cell_angle_beta 21.471937
_cell_angle_gamma 90.000000
_cell_volume 1686.487738
_symmetry_space_group_name_H-M "P 21/M"
_symmetry_group_IT_number 11
_symmetry_cell_setting 'monoclinic'
loop_
_space_group_symop_operation_xyz
x,y,z
-x,1/2+y,-z
-x,-y,-z
x,1/2-y,z
loop_
_atom_site_type_symbol
_atom_site_label
_atom_site_fract_x
_atom_site_fract_y
_atom_site_fract_z
Si Si1 0.560759 0.355272 0.775888
Si Si2 0.884979 0.475364 0.569000
Si Si3 0.454663 0.859900 0.529489
Si Si4 0.950297 0.140026 0.316021
Si Si5 0.469412 0.940343 0.872164
Si Si6 0.301014 0.140044 0.280785
Si Si7 0.767840 0.507834 0.100968
Si Si8 0.346603 0.645663 0.861603
O O1 0.531539 0.250000 0.773629
O O2 0.755954 0.363560 0.543659
O O3 0.505065 0.449452 0.797395
O O4 0.450172 0.359312 0.010829
O O5 0.958656 0.396788 0.405136
O O6 0.839654 0.570277 0.572762
O O7 0.000000 0.500000 0.500000
O O8 0.704863 0.438741 0.843491
O O9 0.430592 0.750000 0.529712
O O10 0.617631 0.916027 0.281169
O O11 0.472254 0.853646 0.612352
O O12 0.295756 0.934399 0.738590
O O13 0.008726 0.250000 0.231443
O O14 0.064279 0.067915 0.109026
O O15 0.617573 0.904314 0.739546
O O16 0.442002 0.876321 0.823854
O O17 0.246889 0.250000 0.365507
O O18 0.778736 0.439159 0.001150
O O19 0.263140 0.750000 0.975519
#
# Coordination Sequence:
#
# PCOD9160177 Si02
#       8
#     4   4   4   4   4   4   4   4
#     4   9  18  33  52  72 100 140 185 226 260 307
#     4  11  22  35  49  77 112 144 180 229 274 308
#     4   8  16  33  54  77 105 139 175 214 269 328
#     4  11  20  32  51  77 104 138 180 219 270 321
#     4  11  18  34  56  74 107 152 188 219 260 321
#     4  10  19  35  54  73 100 146 195 225 262 318
#     4   9  17  32  53  79 108 135 170 222 271 320
#     4   9  18  31  52  79 104 137 179 219 262 314
#
# _framework density 18.974343999999999
#
# number of rings (size 3 to 8) (size 9 to 14) (size 15 to 20)
#    0.750    1.500    2.500    2.250    0.000    1.000 
#    0.000    6.250    0.000    0.750    0.000    0.000 
#    0.000    0.000    0.000    0.000    0.000    0.000 
#
# Total GULP energy -178173.370494 kJ/mol
# GULP energy per Si atom -5567.917828 kJ/mol
# Density = 1.893116 g / cm^3
# Si number density = 18.974344 Si / 1000 Ang^3
#
#
#
# Elastic Constant Matrix: (Units=GPa)
#
#
# Indices 1 2 3 4 5 6 
#
# 1 17.1439 9.2030 1.8371 0.0000 -5.3876 0.0000
# 2 9.2030 140.3445 32.0488 0.0000 -0.4747 0.0000
# 3 1.8371 32.0488 51.7228 0.0000 -1.5598 0.0000
# 4 0.0000 0.0000 0.0000 19.2665 0.0000 -4.3785
# 5 -5.3876 -0.4747 -1.5598 0.0000 12.2847 0.0000
# 6 0.0000 0.0000 0.0000 -4.3785 0.0000 21.4943
#
#
#
# Elastic Compliance Matrix: (Units=1/GPa)
#
#
# Indices 1 2 3 4 5 6 
#
# 1 0.070490 -0.004844 0.001430 0.000000 0.030908 0.000000
# 2 -0.004844 0.008634 -0.005252 0.000000 -0.002458 0.000000
# 3 0.001430 -0.005252 0.022637 0.000000 0.003298 0.000000
# 4 0.000000 0.000000 0.000000 0.054423 0.000000 0.011086
# 5 0.030908 -0.002458 0.003298 0.000000 0.095281 0.000000
# 6 0.000000 0.000000 0.000000 0.011086 0.000000 0.048782
#
#
# Mechanical properties :
#
#
# Convention : Reuss Voigt Hill
#
# Bulk Modulus (GPa) = 11.84436 32.82098 22.33267
# Shear Modulus (GPa) = 14.46249 21.68392 18.07320
#
# Velocity S-wave (km/s) = 2.76382 3.38420 3.08962
# Velocity P-wave (km/s) = 4.05472 5.71013 4.95209
#
# Compressibility (1/GPa) = 0.08442839
#
# Stress axis : x y z
#
# Youngs Moduli (GPa) = 14.18642 115.82136 44.17597
#
# Poissons Ratio (x) = 0.56108 -0.06318
# Poissons Ratio (y) = 0.06872 0.23201
# Poissons Ratio (z) = -0.02029 0.60828
#
# Static dielectric constant tensor:
#      x y z
#    x 1.629150 0.000000 0.018690 
#    y 0.000000 1.722330 0.000000 
#    z 0.018690 0.000000 1.667640 
# 
# From -- ./inp_files/62034.got.cif
#   From: 2010.05.17/outbox.cif.g08.bks.cpg/sg11_32_cif.got.tgz:62034.got - 2010.06.03 12:22:45.
