data_PCOD9160826
_publ_section_title
;
Structure prediction by ZEFSAII (Michael W. Deem and Ramdas Pophale) SiO2 
 PCOD9160826
Probable space group: P 21/M
;
_chemical_formula_sum "Si O2"
_cell_formula_units_Z 28
_cell_length_a 14.027118
_cell_length_b 20.682125
_cell_length_c 9.078311
_cell_angle_alpha 90.000000
_cell_angle_beta 148.954369
_cell_angle_gamma 90.000000
_cell_volume 1358.260649
_symmetry_space_group_name_H-M "P 21/M"
_symmetry_group_IT_number 11
_symmetry_cell_setting 'monoclinic'
loop_
_space_group_symop_operation_xyz
x,y,z
-x,1/2+y,-z
-x,-y,-z
x,1/2-y,z
loop_
_atom_site_type_symbol
_atom_site_label
_atom_site_fract_x
_atom_site_fract_y
_atom_site_fract_z
Si Si1 0.331342 0.051217 0.291643
Si Si2 0.791114 0.056245 0.658635
Si Si3 0.075080 0.632144 0.894587
Si Si4 0.904419 0.996821 0.528951
Si Si5 0.687508 0.677622 0.291343
Si Si6 0.633535 0.569113 0.989945
Si Si7 0.472554 0.827430 0.298568
O O1 0.267936 0.059294 0.038484
O O2 0.407926 0.120191 0.449603
O O3 0.500000 0.000000 0.500000
O O4 0.209084 0.012871 0.251840
O O5 0.579813 0.068651 0.334258
O O6 0.894777 0.049970 0.641740
O O7 0.862717 0.112783 0.858933
O O8 0.002078 0.565030 0.730749
O O9 0.891062 0.674796 0.635878
O O10 0.257177 0.657952 0.050785
O O11 0.695749 0.982857 0.194656
O O12 0.000000 0.000000 0.500000
O O13 0.643988 0.750000 0.190471
O O14 0.537456 0.657958 0.216915
O O15 0.685999 0.634246 0.144319
O O16 0.507229 0.750000 0.370432
#
# Coordination Sequence:
#
# PCOD9160826 Si02
#       7
#     4   4   4   4   4   4   4
#     4  10  19  37  65  95 128 163 217 266 319 381
#     4  11  22  40  63  95 134 170 215 272 334 390
#     4  11  22  42  63  93 127 172 222 272 319 400
#     4  11  24  34  58  96 132 166 205 264 338 390
#     4  10  24  43  64  91 130 174 221 273 334 394
#     4  10  21  38  61  90 125 169 205 270 323 384
#     4  11  23  41  67  92 125 178 223 264 327 398
#
# _framework density 20.614599999999999
#
# number of rings (size 3 to 8) (size 9 to 14) (size 15 to 20)
#    0.000    1.429    2.857    3.857    4.000    1.714 
#    0.000    0.000    0.000    0.000    0.000    0.000 
#    0.000    0.000    0.000    0.000    0.000    0.000 
#
# Total GULP energy -156086.812399 kJ/mol
# GULP energy per Si atom -5574.529014 kJ/mol
# Density = 2.056768 g / cm^3
# Si number density = 20.614600 Si / 1000 Ang^3
#
#
#
# Elastic Constant Matrix: (Units=GPa)
#
#
# Indices 1 2 3 4 5 6 
#
# 1 146.7326 31.6938 45.6716 0.0000 -1.4083 0.0000
# 2 31.6938 57.4501 24.5081 0.0000 -13.0768 0.0000
# 3 45.6716 24.5081 123.3202 0.0000 -17.0741 0.0000
# 4 0.0000 0.0000 0.0000 5.3547 0.0000 0.4580
# 5 -1.4083 -13.0768 -17.0741 0.0000 37.6950 0.0000
# 6 0.0000 0.0000 0.0000 0.4580 0.0000 28.1622
#
#
#
# Elastic Compliance Matrix: (Units=1/GPa)
#
#
# Indices 1 2 3 4 5 6 
#
# 1 0.008501 -0.004081 -0.002656 0.000000 -0.002301 0.000000
# 2 -0.004081 0.021989 -0.001946 0.000000 0.006594 0.000000
# 3 -0.002656 -0.001946 0.009999 0.000000 0.003755 0.000000
# 4 0.000000 0.000000 0.000000 0.187011 0.000000 -0.003042
# 5 -0.002301 0.006594 0.003755 0.000000 0.030431 0.000000
# 6 0.000000 0.000000 0.000000 -0.003042 0.000000 0.035558
#
#
# Mechanical properties :
#
#
# Convention : Reuss Voigt Hill
#
# Bulk Modulus (GPa) = 43.24440 59.02777 51.13609
# Shear Modulus (GPa) = 15.69553 29.28433 22.48993
#
# Velocity S-wave (km/s) = 2.76230 3.77312 3.30657
# Velocity P-wave (km/s) = 5.58542 6.90493 6.27993
#
# Compressibility (1/GPa) = 0.02312438
#
# Stress axis : x y z
#
# Youngs Moduli (GPa) = 117.63140 45.47810 100.00807
#
# Poissons Ratio (x) = 0.18558 0.26562
# Poissons Ratio (y) = 0.48000 0.19458
# Poissons Ratio (z) = 0.31243 0.08849
#
# Static dielectric constant tensor:
#      x y z
#    x 1.963090 0.000000 0.042510 
#    y 0.000000 1.734060 0.000000 
#    z 0.042510 0.000000 1.818240 
# 
# From -- ./inp_files/23230.got.cif
#   From: 2010.05.17/outbox.cif.g08.bks.cpg/sg11_12_cif.got.tgz:23230.got - 2010.06.03 12:22:45.
