data_PCOD9160354
_publ_section_title
;
Structure prediction by ZEFSAII (Michael W. Deem and Ramdas Pophale) SiO2 
 PCOD9160354
Probable space group: P 21/M
;
_chemical_formula_sum "Si O2"
_cell_formula_units_Z 26
_cell_length_a 15.458100
_cell_length_b 14.859462
_cell_length_c 5.281189
_cell_angle_alpha 90.000000
_cell_angle_beta 110.703147
_cell_angle_gamma 90.000000
_cell_volume 1134.748721
_symmetry_space_group_name_H-M "P 21/M"
_symmetry_group_IT_number 11
_symmetry_cell_setting 'monoclinic'
loop_
_space_group_symop_operation_xyz
x,y,z
-x,1/2+y,-z
-x,-y,-z
x,1/2-y,z
loop_
_atom_site_type_symbol
_atom_site_label
_atom_site_fract_x
_atom_site_fract_y
_atom_site_fract_z
Si Si1 0.939237 0.391302 0.171531
Si Si2 0.748795 0.617295 0.969026
Si Si3 0.419338 0.386370 0.853900
Si Si4 0.387652 0.598446 0.727527
Si Si5 0.350011 0.250000 0.455742
Si Si6 0.956822 0.610093 0.221338
Si Si7 0.273367 0.598483 0.105366
O O1 0.949848 0.500621 0.196976
O O2 0.976432 0.361447 0.482297
O O3 0.832483 0.368697 0.005699
O O4 0.002944 0.360072 0.006104
O O5 0.725281 0.671434 0.694550
O O6 0.735375 0.510910 0.912987
O O7 0.670606 0.647980 0.087074
O O8 0.851816 0.638025 0.162558
O O9 0.402503 0.490004 0.767800
O O10 0.424958 0.328434 0.609404
O O11 0.508252 0.368837 0.119236
O O12 0.334299 0.620936 0.414757
O O13 0.325498 0.626165 0.903326
#
# Coordination Sequence:
#
# PCOD9160354 Si02
#       7
#     4   4   4   4   2   4   4
#     4   9  17  30  51  80 110 137 177 217 268 328
#     4  10  22  34  54  79 119 149 188 229 288 348
#     4  10  23  36  55  81 117 151 195 233 288 350
#     4  10  21  36  59  83 115 152 189 241 293 334
#     4  12  22  38  54  80 114 162 188 238 276 368
#     4   9  18  30  50  78 111 144 169 217 272 324
#     4  10  19  35  58  85 113 147 186 239 290 335
#
# _framework density 22.912562999999999
#
# number of rings (size 3 to 8) (size 9 to 14) (size 15 to 20)
#    0.000    2.154    1.538    1.385    4.308    5.538 
#    0.000    0.000    0.000    0.000    0.000    6.462 
#    0.000    0.000    0.000    0.000    0.000    0.000 
#
# Total GULP energy -144782.455882 kJ/mol
# GULP energy per Si atom -5568.555995 kJ/mol
# Density = 2.286041 g / cm^3
# Si number density = 22.912563 Si / 1000 Ang^3
#
#
#
# Elastic Constant Matrix: (Units=GPa)
#
#
# Indices 1 2 3 4 5 6 
#
# 1 87.1241 13.5199 44.6171 0.0000 -9.4437 0.0000
# 2 13.5199 46.1780 -0.2082 0.0000 7.0997 0.0000
# 3 44.6171 -0.2082 168.8022 0.0000 15.0259 0.0000
# 4 0.0000 0.0000 0.0000 23.5951 0.0000 1.5161
# 5 -9.4437 7.0997 15.0259 0.0000 30.9890 0.0000
# 6 0.0000 0.0000 0.0000 1.5161 0.0000 -10.9951
#
#
#
# Elastic Compliance Matrix: (Units=1/GPa)
#
#
# Indices 1 2 3 4 5 6 
#
# 1 0.015894 -0.006003 -0.004977 0.000000 0.008632 0.000000
# 2 -0.006003 0.024755 0.002388 0.000000 -0.008659 0.000000
# 3 -0.004977 0.002388 0.007761 0.000000 -0.005827 0.000000
# 4 0.000000 0.000000 0.000000 0.042010 0.000000 0.005792
# 5 0.008632 -0.008659 -0.005827 0.000000 0.039709 0.000000
# 6 0.000000 0.000000 0.000000 0.005792 0.000000 -0.090151
#
#
# Mechanical properties :
#
#
# Convention : Reuss Voigt Hill
#
# Bulk Modulus (GPa) = 32.02427 46.44021 39.23224
# Shear Modulus (GPa) = 73.99803 24.99617 49.49710
#
# Velocity S-wave (km/s) = 5.68911 3.30652 4.65290
# Velocity P-wave (km/s) = 7.56053 5.90676 6.78423
#
# Compressibility (1/GPa) = 0.03122632
#
# Stress axis : x y z
#
# Youngs Moduli (GPa) = 62.91808 40.39613 128.84694
#
# Poissons Ratio (x) = 0.24249 0.64124
# Poissons Ratio (y) = 0.37769 -0.30768
# Poissons Ratio (z) = 0.31313 -0.09646
#
# Static dielectric constant tensor:
#      x y z
#    x 1.857840 0.000000 -0.049960 
#    y 0.000000 1.963740 0.000000 
#    z -0.049960 0.000000 1.919910 
# 
# From -- ./inp_files/6744.got.cif
#   From: 2010.05.17/outbox.cif.g08.bks.cpg/sg11_4_cif.got.tgz:6744.got - 2010.06.03 12:22:45.
