data_PCOD9160933
_publ_section_title
;
Structure prediction by ZEFSAII (Michael W. Deem and Ramdas Pophale) SiO2 
 PCOD9160933
Probable space group: P 21/M
;
_chemical_formula_sum "Si O2"
_cell_formula_units_Z 26
_cell_length_a 19.099393
_cell_length_b 8.637547
_cell_length_c 8.187449
_cell_angle_alpha 90.000000
_cell_angle_beta 61.486324
_cell_angle_gamma 90.000000
_cell_volume 1186.863575
_symmetry_space_group_name_H-M "P 21/M"
_symmetry_group_IT_number 11
_symmetry_cell_setting 'monoclinic'
loop_
_space_group_symop_operation_xyz
x,y,z
-x,1/2+y,-z
-x,-y,-z
x,1/2-y,z
loop_
_atom_site_type_symbol
_atom_site_label
_atom_site_fract_x
_atom_site_fract_y
_atom_site_fract_z
Si Si1 0.335403 0.489078 0.413804
Si Si2 0.834161 0.575053 0.982811
Si Si3 0.835693 0.570870 0.371294
Si Si4 0.448485 0.750000 0.704419
Si Si5 0.003486 0.933714 0.317141
Si Si6 0.657495 0.932488 0.210808
Si Si7 0.534805 0.250000 0.688075
Si Si8 0.428088 0.250000 0.127891
O O1 0.242444 0.524518 0.487947
O O2 0.335992 0.420589 0.598193
O O3 0.404655 0.611173 0.355995
O O4 0.368622 0.390809 0.226457
O O5 0.843469 0.750000 0.908248
O O6 0.911004 0.480309 0.846947
O O7 0.836073 0.578831 0.176257
O O8 0.744549 0.521311 0.043294
O O9 0.824369 0.750000 0.443296
O O10 0.922134 0.508204 0.323157
O O11 0.400264 0.582436 0.762405
O O12 0.489590 0.750000 0.477369
O O13 0.509368 0.750000 0.788484
O O14 0.997938 0.750000 0.318976
O O15 0.000000 0.000000 0.500000
O O16 0.644843 0.750000 0.173696
O O17 0.475277 0.250000 0.907159
#
# Coordination Sequence:
#
# PCOD9160933 Si02
#       8
#     4   4   4   2   4   4   2   2
#     4  10  19  41  64  87 127 164 206 265 322 383
#     4   9  18  36  64  90 117 156 207 254 306 373
#     4   9  18  38  66  85 113 165 206 246 312 374
#     4  10  24  40  66  99 131 168 223 269 334 390
#     4  11  23  38  57  87 126 163 203 255 309 370
#     4   9  18  38  64  92 130 171 207 266 324 384
#     4  10  24  40  62 100 127 160 219 274 326 398
#     4  12  22  42  70  89 132 170 214 275 328 384
#
# _framework density 21.906478
#
# number of rings (size 3 to 8) (size 9 to 14) (size 15 to 20)
#    0.000    2.154    1.538    2.308    1.077    2.462 
#    8.308    0.000    3.385    0.000    0.000    0.000 
#    0.000    0.000    0.000    0.000    0.000    0.000 
#
# Total GULP energy -144827.161269 kJ/mol
# GULP energy per Si atom -5570.275433 kJ/mol
# Density = 2.185662 g / cm^3
# Si number density = 21.906478 Si / 1000 Ang^3
#
#
#
# Elastic Constant Matrix: (Units=GPa)
#
#
# Indices 1 2 3 4 5 6 
#
# 1 89.9866 34.3981 81.3025 0.0000 -36.0001 0.0000
# 2 34.3981 46.2810 37.1202 0.0000 -13.3960 0.0000
# 3 81.3025 37.1202 144.6108 0.0000 -38.7493 0.0000
# 4 0.0000 0.0000 0.0000 26.4177 0.0000 -1.9744
# 5 -36.0001 -13.3960 -38.7493 0.0000 32.3159 0.0000
# 6 0.0000 0.0000 0.0000 -1.9744 0.0000 26.1249
#
#
#
# Elastic Compliance Matrix: (Units=1/GPa)
#
#
# Indices 1 2 3 4 5 6 
#
# 1 0.031703 -0.009887 -0.010197 0.000000 0.018992 0.000000
# 2 -0.009887 0.030700 -0.002745 0.000000 -0.001580 0.000000
# 3 -0.010197 -0.002745 0.014740 0.000000 0.005177 0.000000
# 4 0.000000 0.000000 0.000000 0.038068 0.000000 0.002877
# 5 0.018992 -0.001580 0.005177 0.000000 0.057654 0.000000
# 6 0.000000 0.000000 0.000000 0.002877 0.000000 0.038495
#
#
# Mechanical properties :
#
#
# Convention : Reuss Voigt Hill
#
# Bulk Modulus (GPa) = 31.76165 65.16888 48.46526
# Shear Modulus (GPa) = 18.69060 25.50887 22.09974
#
# Velocity S-wave (km/s) = 2.92413 3.41610 3.17964
# Velocity P-wave (km/s) = 5.09224 6.73594 5.97092
#
# Compressibility (1/GPa) = 0.03148452
#
# Stress axis : x y z
#
# Youngs Moduli (GPa) = 31.54260 32.57310 67.84350
#
# Poissons Ratio (x) = 0.32206 0.69181
# Poissons Ratio (y) = 0.31187 0.18622
# Poissons Ratio (z) = 0.32164 0.08941
#
# Static dielectric constant tensor:
#      x y z
#    x 1.859200 0.000000 -0.034010 
#    y 0.000000 1.806840 0.000000 
#    z -0.034010 0.000000 1.780620 
# 
# From -- ./inp_files/26138.got.cif
#   From: 2010.05.17/outbox.cif.g08.bks.cpg/sg11_14_cif.got.tgz:26138.got - 2010.06.03 12:22:45.
