data_PCOD9160897
_publ_section_title
;
Structure prediction by ZEFSAII (Michael W. Deem and Ramdas Pophale) SiO2 
 PCOD9160897
Probable space group: P 21/M
;
_chemical_formula_sum "Si O2"
_cell_formula_units_Z 26
_cell_length_a 18.472705
_cell_length_b 7.413066
_cell_length_c 15.096248
_cell_angle_alpha 90.000000
_cell_angle_beta 32.113361
_cell_angle_gamma 90.000000
_cell_volume 1098.953145
_symmetry_space_group_name_H-M "P 21/M"
_symmetry_group_IT_number 11
_symmetry_cell_setting 'monoclinic'
loop_
_space_group_symop_operation_xyz
x,y,z
-x,1/2+y,-z
-x,-y,-z
x,1/2-y,z
loop_
_atom_site_type_symbol
_atom_site_label
_atom_site_fract_x
_atom_site_fract_y
_atom_site_fract_z
Si Si1 0.672545 0.955358 0.390935
Si Si2 0.919009 0.531002 0.260431
Si Si3 0.208011 0.538365 0.228654
Si Si4 0.225606 0.966605 0.907429
Si Si5 0.422464 0.533920 0.868482
Si Si6 0.085763 0.032302 0.536250
Si Si7 0.443944 0.750000 0.376594
O O1 0.639051 0.750000 0.450339
O O2 0.805446 0.022841 0.308169
O O3 0.712986 0.963579 0.247096
O O4 0.561422 0.093235 0.539786
O O5 0.921082 0.750000 0.257647
O O6 0.885463 0.470572 0.394450
O O7 0.070319 0.470499 0.078890
O O8 0.205352 0.750000 0.209636
O O9 0.192728 0.516556 0.349358
O O10 0.065116 0.465111 0.336877
O O11 0.344707 0.475294 0.038813
O O12 0.224821 0.750000 0.902961
O O13 0.311479 0.011186 0.905960
O O14 0.450585 0.750000 0.839907
O O15 0.546239 0.410352 0.710088
O O16 0.080329 0.250000 0.543379
#
# Coordination Sequence:
#
# PCOD9160897 Si02
#       7
#     4   4   4   4   4   4   2
#     4  11  24  42  60  87 120 159 206 251 295 352
#     4   9  18  36  63  88 122 161 190 241 308 364
#     4   9  17  32  53  89 125 151 183 238 298 362
#     4  10  19  39  62  90 122 156 196 246 307 364
#     4  10  22  40  63  87 122 158 199 248 300 356
#     4   9  16  30  56  89 124 153 183 230 302 369
#     4  12  26  44  60  86 114 166 214 252 290 340
#
# _framework density 23.658878999999999
#
# number of rings (size 3 to 8) (size 9 to 14) (size 15 to 20)
#    0.000    2.154    2.308    0.923    2.154    0.615 
#    2.769    0.000    0.000    0.923    0.000    0.000 
#    0.000    0.000    0.000    0.000    0.000    0.000 
#
# Total GULP energy -144873.240866 kJ/mol
# GULP energy per Si atom -5572.047726 kJ/mol
# Density = 2.360503 g / cm^3
# Si number density = 23.658879 Si / 1000 Ang^3
#
#
#
# Elastic Constant Matrix: (Units=GPa)
#
#
# Indices 1 2 3 4 5 6 
#
# 1 106.3824 5.0800 30.8860 0.0000 17.8820 0.0000
# 2 5.0800 103.8822 23.0430 0.0000 7.1696 0.0000
# 3 30.8860 23.0430 140.8737 0.0000 38.6766 0.0000
# 4 0.0000 0.0000 0.0000 5.5345 0.0000 26.5312
# 5 17.8820 7.1696 38.6766 0.0000 40.0517 0.0000
# 6 0.0000 0.0000 0.0000 26.5312 0.0000 -4.9566
#
#
#
# Elastic Compliance Matrix: (Units=1/GPa)
#
#
# Indices 1 2 3 4 5 6 
#
# 1 0.010351 0.000025 -0.001366 0.000000 -0.003307 0.000000
# 2 0.000025 0.009991 -0.001559 0.000000 -0.000294 0.000000
# 3 -0.001366 -0.001559 0.010082 0.000000 -0.008847 0.000000
# 4 0.000000 0.000000 0.000000 0.006777 0.000000 0.036278
# 5 -0.003307 -0.000294 -0.008847 0.000000 0.035040 0.000000
# 6 0.000000 0.000000 0.000000 0.036278 0.000000 -0.007568
#
#
# Mechanical properties :
#
#
# Convention : Reuss Voigt Hill
#
# Bulk Modulus (GPa) = 40.60871 52.12848 46.36860
# Shear Modulus (GPa) = 63.54712 27.60122 45.57417
#
# Velocity S-wave (km/s) = 5.18826 3.41931 4.39373
# Velocity P-wave (km/s) = 7.28644 6.13760 6.73655
#
# Compressibility (1/GPa) = 0.02462526
#
# Stress axis : x y z
#
# Youngs Moduli (GPa) = 96.60667 100.08824 99.18802
#
# Poissons Ratio (x) = -0.00250 0.13544
# Poissons Ratio (y) = -0.00241 0.15463
# Poissons Ratio (z) = 0.13192 0.15604
#
# Static dielectric constant tensor:
#      x y z
#    x 1.910310 0.000000 -0.057690 
#    y 0.000000 1.910780 0.000000 
#    z -0.057690 0.000000 1.949070 
# 
# From -- ./inp_files/54170.got.cif
#   From: 2010.05.17/outbox.cif.g08.bks.cpg/sg11_28_cif.got.tgz:54170.got - 2010.06.03 12:22:45.
