data_PCOD9160554
_publ_section_title
;
Structure prediction by ZEFSAII (Michael W. Deem and Ramdas Pophale) SiO2 
 PCOD9160554
Probable space group: P 21/M
;
_chemical_formula_sum "Si O2"
_cell_formula_units_Z 16
_cell_length_a 11.713354
_cell_length_b 11.319985
_cell_length_c 4.099886
_cell_angle_alpha 90.000000
_cell_angle_beta 69.209533
_cell_angle_gamma 90.000000
_cell_volume 508.226113
_symmetry_space_group_name_H-M "P 21/M"
_symmetry_group_IT_number 11
_symmetry_cell_setting 'monoclinic'
loop_
_space_group_symop_operation_xyz
x,y,z
-x,1/2+y,-z
-x,-y,-z
x,1/2-y,z
loop_
_atom_site_type_symbol
_atom_site_label
_atom_site_fract_x
_atom_site_fract_y
_atom_site_fract_z
Si Si1 0.873999 0.009873 0.337541
Si Si2 0.133303 0.250000 0.611239
Si Si3 0.627074 0.750000 0.186038
Si Si4 0.126107 0.750000 0.231816
Si Si5 0.375352 0.500899 0.836856
Si Si6 0.387265 0.750000 0.877547
O O1 0.875304 0.128045 0.557354
O O2 0.748763 0.008579 0.251009
O O3 0.866243 0.883060 0.538308
O O4 0.000000 0.000000 0.000000
O O5 0.247752 0.250000 0.737176
O O6 0.993413 0.250000 0.873167
O O7 0.627242 0.627396 0.993893
O O8 0.502584 0.750000 0.521827
O O9 0.248361 0.750000 0.890400
O O10 0.500000 0.500000 0.500000
O O11 0.385264 0.620306 0.038657
#
# Coordination Sequence:
#
# PCOD9160554 Si02
#       6
#     4   2   2   2   4   2
#     4  11  22  39  59  82 112 152 191 230 280 342
#     4  10  21  38  56  84 117 145 186 232 277 333
#     4   8  18  36  60  85 118 153 186 220 272 341
#     4  12  24  38  58  85 115 147 187 240 285 325
#     4   9  18  36  61  85 113 150 189 225 272 339
#     4  10  19  36  58  88 116 145 187 236 278 323
#
# _framework density 31.482050000000001
#
# number of rings (size 3 to 8) (size 9 to 14) (size 15 to 20)
#    0.000    2.000    0.000    3.750    0.000    0.000 
#    0.000   15.000    0.000    0.000    0.000    0.000 
#    0.000    0.000    0.000    0.000    0.000    0.000 
#
# Total GULP energy -89423.839834 kJ/mol
# GULP energy per Si atom -5588.989990 kJ/mol
# Density = 3.141040 g / cm^3
# Si number density = 31.482050 Si / 1000 Ang^3
#
#
#
# Elastic Constant Matrix: (Units=GPa)
#
#
# Indices 1 2 3 4 5 6 
#
# 1 333.6231 10.5821 79.4373 0.0000 -64.0217 0.0000
# 2 10.5821 460.2075 43.7221 0.0000 34.4789 0.0000
# 3 79.4373 43.7221 178.3470 0.0000 -78.7549 0.0000
# 4 0.0000 0.0000 0.0000 27.9620 0.0000 -4.0368
# 5 -64.0217 34.4789 -78.7549 0.0000 74.0496 0.0000
# 6 0.0000 0.0000 0.0000 -4.0368 0.0000 35.4200
#
#
#
# Elastic Compliance Matrix: (Units=1/GPa)
#
#
# Indices 1 2 3 4 5 6 
#
# 1 0.003644 -0.000298 -0.000184 0.000000 0.003094 0.000000
# 2 -0.000298 0.002685 -0.002246 0.000000 -0.003897 0.000000
# 3 -0.000184 -0.002246 0.012504 0.000000 0.014185 0.000000
# 4 0.000000 0.000000 0.000000 0.036361 0.000000 0.004144
# 5 0.003094 -0.003897 0.014185 0.000000 0.033081 0.000000
# 6 0.000000 0.000000 0.000000 0.004144 0.000000 0.028705
#
#
# Mechanical properties :
#
#
# Convention : Reuss Voigt Hill
#
# Bulk Modulus (GPa) = 74.75884 137.74007 106.24945
# Shear Modulus (GPa) = 39.40252 83.38205 61.39229
#
# Velocity S-wave (km/s) = 3.54162 5.15200 4.42075
# Velocity P-wave (km/s) = 6.36570 8.90156 7.73821
#
# Compressibility (1/GPa) = 0.01337634
#
# Stress axis : x y z
#
# Youngs Moduli (GPa) = 274.39447 372.41265 79.97742
#
# Poissons Ratio (x) = 0.11104 0.01470
# Poissons Ratio (y) = 0.08181 0.17966
# Poissons Ratio (z) = 0.05043 0.83660
#
# Static dielectric constant tensor:
#      x y z
#    x 2.383920 0.000000 -0.018130 
#    y 0.000000 2.436790 0.000000 
#    z -0.018130 0.000000 2.378190 
# 
# From -- ./inp_files/3858.got.cif
#   From: 2010.05.17/outbox.cif.g08.bks.cpg/sg11_2_cif.got.tgz:3858.got - 2010.06.03 12:22:45.
