data_PCOD9160111
_publ_section_title
;
Structure prediction by ZEFSAII (Michael W. Deem and Ramdas Pophale) SiO2 
 PCOD9160111
Probable space group: P 21/M
;
_chemical_formula_sum "Si O2"
_cell_formula_units_Z 28
_cell_length_a 7.383583
_cell_length_b 20.829943
_cell_length_c 9.455124
_cell_angle_alpha 90.000000
_cell_angle_beta 77.313253
_cell_angle_gamma 90.000000
_cell_volume 1418.690794
_symmetry_space_group_name_H-M "P 21/M"
_symmetry_group_IT_number 11
_symmetry_cell_setting 'monoclinic'
loop_
_space_group_symop_operation_xyz
x,y,z
-x,1/2+y,-z
-x,-y,-z
x,1/2-y,z
loop_
_atom_site_type_symbol
_atom_site_label
_atom_site_fract_x
_atom_site_fract_y
_atom_site_fract_z
Si Si1 0.728110 0.952410 0.591300
Si Si2 0.663538 0.823502 0.491673
Si Si3 0.045256 0.584921 0.712115
Si Si4 0.748432 0.174071 0.540415
Si Si5 0.910372 0.928347 0.027069
Si Si6 0.648748 0.987108 0.279743
Si Si7 0.026633 0.675138 0.229004
O O1 0.692807 0.875925 0.608353
O O2 0.922859 0.962621 0.635025
O O3 0.706885 0.962143 0.426074
O O4 0.566584 0.995552 0.684536
O O5 0.653820 0.750000 0.544535
O O6 0.467206 0.839461 0.451151
O O7 0.834693 0.826510 0.352516
O O8 0.915178 0.599549 0.868340
O O9 0.123025 0.639234 0.596049
O O10 0.228999 0.551992 0.745130
O O11 0.777448 0.250000 0.523176
O O12 0.815410 0.156205 0.685301
O O13 0.717775 0.941719 0.142214
O O14 0.015956 0.877289 0.107982
O O15 0.000000 0.000000 0.000000
O O16 0.052275 0.750000 0.179556
#
# Coordination Sequence:
#
# PCOD9160111 Si02
#       7
#     4   4   4   4   4   4   4
#     4  11  20  34  59  81 104 145 190 233 279 323
#     4  10  19  34  59  86 109 136 184 243 286 332
#     4  11  21  34  55  80 112 148 182 226 280 335
#     4  10  20  35  60  87 109 139 189 241 289 334
#     4  10  22  39  54  82 122 155 189 229 284 348
#     4  10  21  37  52  78 115 145 188 231 275 329
#     4  10  20  39  62  82 109 149 191 239 286 339
#
# _framework density 19.736505999999999
#
# number of rings (size 3 to 8) (size 9 to 14) (size 15 to 20)
#    0.000    1.714    4.286    0.429    0.000    2.286 
#    0.000    2.857    0.000    0.000    0.000    0.000 
#    0.000    0.000    0.000    0.000    0.000    0.000 
#
# Total GULP energy -156089.296339 kJ/mol
# GULP energy per Si atom -5574.617726 kJ/mol
# Density = 1.969159 g / cm^3
# Si number density = 19.736506 Si / 1000 Ang^3
#
#
#
# Elastic Constant Matrix: (Units=GPa)
#
#
# Indices 1 2 3 4 5 6 
#
# 1 66.0482 1.1132 -3.5608 0.0000 6.3559 0.0000
# 2 1.1132 63.0659 23.1582 0.0000 5.7672 0.0000
# 3 -3.5608 23.1582 66.9569 0.0000 -1.0464 0.0000
# 4 0.0000 0.0000 0.0000 30.6132 0.0000 -5.6463
# 5 6.3559 5.7672 -1.0464 0.0000 19.1416 0.0000
# 6 0.0000 0.0000 0.0000 -5.6463 0.0000 28.0058
#
#
#
# Elastic Compliance Matrix: (Units=1/GPa)
#
#
# Indices 1 2 3 4 5 6 
#
# 1 0.015679 -0.000096 0.000787 0.000000 -0.005134 0.000000
# 2 -0.000096 0.018836 -0.006614 0.000000 -0.006005 0.000000
# 3 0.000787 -0.006614 0.017306 0.000000 0.002677 0.000000
# 4 0.000000 0.000000 0.000000 0.033927 0.000000 0.006840
# 5 -0.005134 -0.006005 0.002677 0.000000 0.055902 0.000000
# 6 0.000000 0.000000 0.000000 0.006840 0.000000 0.037086
#
#
# Mechanical properties :
#
#
# Convention : Reuss Voigt Hill
#
# Bulk Modulus (GPa) = 25.01596 26.38802 25.70199
# Shear Modulus (GPa) = 24.52100 27.24283 25.88191
#
# Velocity S-wave (km/s) = 3.52862 3.71931 3.62522
# Velocity P-wave (km/s) = 5.41332 5.64300 5.52935
#
# Compressibility (1/GPa) = 0.03997448
#
# Stress axis : x y z
#
# Youngs Moduli (GPa) = 63.78136 53.09038 57.78305
#
# Poissons Ratio (x) = 0.00511 -0.04547
# Poissons Ratio (y) = 0.00614 0.38216
# Poissons Ratio (z) = -0.05019 0.35112
#
# Static dielectric constant tensor:
#      x y z
#    x 1.726970 0.000000 -0.003690 
#    y 0.000000 1.757420 0.000000 
#    z -0.003690 0.000000 1.708850 
# 
# From -- ./inp_files/14026.got.cif
#   From: 2010.05.17/outbox.cif.g08.bks.cpg/sg11_8_cif.got.tgz:14026.got - 2010.06.03 12:22:45.
