data_PCOD9160537
_publ_section_title
;
Structure prediction by ZEFSAII (Michael W. Deem and Ramdas Pophale) SiO2 
 PCOD9160537
Probable space group: P 21/M
;
_chemical_formula_sum "Si O2"
_cell_formula_units_Z 32
_cell_length_a 10.899490
_cell_length_b 12.921255
_cell_length_c 21.182184
_cell_angle_alpha 90.000000
_cell_angle_beta 33.401397
_cell_angle_gamma 90.000000
_cell_volume 1642.251996
_symmetry_space_group_name_H-M "P 21/M"
_symmetry_group_IT_number 11
_symmetry_cell_setting 'monoclinic'
loop_
_space_group_symop_operation_xyz
x,y,z
-x,1/2+y,-z
-x,-y,-z
x,1/2-y,z
loop_
_atom_site_type_symbol
_atom_site_label
_atom_site_fract_x
_atom_site_fract_y
_atom_site_fract_z
Si Si1 0.833212 0.131879 0.255802
Si Si2 0.059452 0.635408 0.641736
Si Si3 0.395479 0.028502 0.476649
Si Si4 0.649441 0.504965 0.681218
Si Si5 0.232566 0.126395 0.866263
Si Si6 0.548324 0.873027 0.842978
Si Si7 0.061128 0.371043 0.546296
Si Si8 0.154281 0.009300 0.029271
O O1 0.808214 0.250000 0.243506
O O2 0.876004 0.136778 0.312434
O O3 0.604560 0.068242 0.346939
O O4 0.032462 0.073648 0.135745
O O5 0.060987 0.750000 0.614046
O O6 0.243780 0.570425 0.525484
O O7 0.803598 0.601515 0.750068
O O8 0.201931 0.115074 0.551091
O O9 0.500000 0.000000 0.500000
O O10 0.457211 0.425868 0.742718
O O11 0.531456 0.588471 0.777858
O O12 0.783423 0.571753 0.572403
O O13 0.829853 0.433638 0.640996
O O14 0.232042 0.250000 0.861541
O O15 0.216409 0.088450 0.946103
O O16 0.022079 0.073901 0.922379
O O17 0.511935 0.750000 0.865615
O O18 0.370722 0.943450 0.955711
O O19 0.030183 0.250000 0.546320
#
# Coordination Sequence:
#
# PCOD9160537 Si02
#       8
#     4   4   4   4   4   4   4   4
#     4  10  20  36  57  80 109 146 188 233 281 331
#     4   9  19  36  58  81 109 147 184 228 284 336
#     4  10  20  36  57  82 111 148 189 234 283 340
#     4  10  21  35  56  85 113 151 185 229 282 337
#     4  10  20  36  53  77 112 144 182 228 281 334
#     4  10  19  36  58  81 114 151 186 223 277 338
#     4  11  21  35  56  84 116 147 189 236 282 336
#     4  10  21  34  56  83 107 146 189 231 275 329
#
# _framework density 19.485437999999998
#
# number of rings (size 3 to 8) (size 9 to 14) (size 15 to 20)
#    0.000    2.000    1.250    2.625    0.000    1.000 
#    0.000    6.875    0.000    3.000    0.000    0.000 
#    0.000    0.000    0.000    0.000    0.000    0.000 
#
# Total GULP energy -178293.732121 kJ/mol
# GULP energy per Si atom -5571.679129 kJ/mol
# Density = 1.944109 g / cm^3
# Si number density = 19.485438 Si / 1000 Ang^3
#
#
#
# Elastic Constant Matrix: (Units=GPa)
#
#
# Indices 1 2 3 4 5 6 
#
# 1 35.5909 32.8808 8.6248 0.0000 -16.3474 0.0000
# 2 32.8808 138.7954 79.0882 0.0000 -12.7356 0.0000
# 3 8.6248 79.0882 107.6315 0.0000 -20.9052 0.0000
# 4 0.0000 0.0000 0.0000 30.0942 0.0000 -2.7288
# 5 -16.3474 -12.7356 -20.9052 0.0000 31.4176 0.0000
# 6 0.0000 0.0000 0.0000 -2.7288 0.0000 21.6450
#
#
#
# Elastic Compliance Matrix: (Units=1/GPa)
#
#
# Indices 1 2 3 4 5 6 
#
# 1 0.057747 -0.020069 0.016509 0.000000 0.032897 0.000000
# 2 -0.020069 0.019408 -0.015105 0.000000 -0.012626 0.000000
# 3 0.016509 -0.015105 0.022448 0.000000 0.017404 0.000000
# 4 0.000000 0.000000 0.000000 0.033613 0.000000 0.004238
# 5 0.032897 -0.012626 0.017404 0.000000 0.055409 0.000000
# 6 0.000000 0.000000 0.000000 0.004238 0.000000 0.046734
#
#
# Mechanical properties :
#
#
# Convention : Reuss Voigt Hill
#
# Bulk Modulus (GPa) = 16.05845 58.13393 37.09619
# Shear Modulus (GPa) = 17.03887 27.39298 22.21593
#
# Velocity S-wave (km/s) = 2.96030 3.75349 3.38024
# Velocity P-wave (km/s) = 4.46583 6.97741 5.85781
#
# Compressibility (1/GPa) = 0.06227250
#
# Stress axis : x y z
#
# Youngs Moduli (GPa) = 17.31684 51.52556 44.54800
#
# Poissons Ratio (x) = 1.03406 -0.73544
# Poissons Ratio (y) = 0.34753 0.67291
# Poissons Ratio (z) = -0.28588 0.77830
#
# Static dielectric constant tensor:
#      x y z
#    x 1.762550 0.000000 0.005010 
#    y 0.000000 1.683020 0.000000 
#    z 0.005010 0.000000 1.683890 
# 
# From -- ./inp_files/44224.got.cif
#   From: 2010.05.17/outbox.cif.g08.bks.cpg/sg11_23_cif.got.tgz:44224.got - 2010.06.03 12:22:45.
