data_PCOD9160212
_publ_section_title
;
Structure prediction by ZEFSAII (Michael W. Deem and Ramdas Pophale) SiO2 
 PCOD9160212
Probable space group: P 21/M
;
_chemical_formula_sum "Si O2"
_cell_formula_units_Z 32
_cell_length_a 17.540024
_cell_length_b 18.015292
_cell_length_c 5.057218
_cell_angle_alpha 90.000000
_cell_angle_beta 101.037799
_cell_angle_gamma 90.000000
_cell_volume 1568.461816
_symmetry_space_group_name_H-M "P 21/M"
_symmetry_group_IT_number 11
_symmetry_cell_setting 'monoclinic'
loop_
_space_group_symop_operation_xyz
x,y,z
-x,1/2+y,-z
-x,-y,-z
x,1/2-y,z
loop_
_atom_site_type_symbol
_atom_site_label
_atom_site_fract_x
_atom_site_fract_y
_atom_site_fract_z
Si Si1 0.074218 0.056368 0.750678
Si Si2 0.805147 0.834332 0.895051
Si Si3 0.516929 0.432105 0.202998
Si Si4 0.341596 0.661885 0.826525
Si Si5 0.623383 0.542244 0.579263
Si Si6 0.701463 0.665130 0.321567
Si Si7 0.906756 0.040897 0.738550
Si Si8 0.734611 0.085679 0.726967
O O1 0.131166 0.113049 0.932969
O O2 0.984523 0.082681 0.691464
O O3 0.098754 0.026856 0.478238
O O4 0.076717 0.986595 0.952797
O O5 0.834125 0.750000 0.929534
O O6 0.731729 0.840541 0.044061
O O7 0.773119 0.845249 0.577444
O O8 0.570192 0.370014 0.103688
O O9 0.571527 0.471485 0.458363
O O10 0.433669 0.411820 0.267904
O O11 0.500000 0.500000 0.000000
O O12 0.341157 0.750000 0.849105
O O13 0.307062 0.633742 0.526782
O O14 0.288606 0.623818 0.014508
O O15 0.644810 0.598401 0.360065
O O16 0.700904 0.499117 0.723530
O O17 0.672748 0.750000 0.345557
O O18 0.824616 0.081249 0.706692
#
# Coordination Sequence:
#
# PCOD9160212 Si02
#       8
#     4   4   4   4   4   4   4   4
#     4  10  19  35  55  85 116 145 187 231 286 324
#     4  10  20  35  53  77 113 151 183 218 272 341
#     4  10  21  39  57  85 110 145 191 231 281 348
#     4  11  24  41  60  82 115 152 191 238 288 340
#     4  10  21  35  60  83 113 146 186 235 281 339
#     4  10  22  36  55  86 116 146 186 228 279 335
#     4  10  21  34  58  87 113 143 187 242 275 329
#     4  11  21  38  61  86 112 151 194 233 286 336
#
# _framework density 20.402153999999999
#
# number of rings (size 3 to 8) (size 9 to 14) (size 15 to 20)
#    0.000    1.750    1.250    3.375    1.750    1.500 
#    0.000    1.875    0.000    1.500    0.000    0.000 
#    0.000    0.000    0.000    0.000    0.000    0.000 
#
# Total GULP energy -178463.942115 kJ/mol
# GULP energy per Si atom -5576.998191 kJ/mol
# Density = 2.035572 g / cm^3
# Si number density = 20.402154 Si / 1000 Ang^3
#
#
#
# Elastic Constant Matrix: (Units=GPa)
#
#
# Indices 1 2 3 4 5 6 
#
# 1 84.1876 29.6011 -6.6416 0.0000 -9.6842 0.0000
# 2 29.6011 70.7208 -14.9083 0.0000 -6.4365 0.0000
# 3 -6.6416 -14.9083 44.4079 0.0000 0.2797 0.0000
# 4 0.0000 0.0000 0.0000 23.8129 0.0000 0.7263
# 5 -9.6842 -6.4365 0.2797 0.0000 23.8779 0.0000
# 6 0.0000 0.0000 0.0000 0.7263 0.0000 18.1198
#
#
#
# Elastic Compliance Matrix: (Units=1/GPa)
#
#
# Indices 1 2 3 4 5 6 
#
# 1 0.014350 -0.005560 0.000252 0.000000 0.004318 0.000000
# 2 -0.005560 0.017772 0.005119 0.000000 0.002476 0.000000
# 3 0.000252 0.005119 0.024267 0.000000 0.001198 0.000000
# 4 0.000000 0.000000 0.000000 0.042046 0.000000 -0.001685
# 5 0.004318 0.002476 0.001198 0.000000 0.044284 0.000000
# 6 0.000000 0.000000 0.000000 -0.001685 0.000000 0.055256
#
#
# Mechanical properties :
#
#
# Convention : Reuss Voigt Hill
#
# Bulk Modulus (GPa) = 17.85344 23.93539 20.89441
# Shear Modulus (GPa) = 23.03910 25.91313 24.47612
#
# Velocity S-wave (km/s) = 3.36408 3.56774 3.46740
# Velocity P-wave (km/s) = 4.88458 5.35994 5.12777
#
# Compressibility (1/GPa) = 0.05601161
#
# Stress axis : x y z
#
# Youngs Moduli (GPa) = 69.68717 56.26892 41.20774
#
# Poissons Ratio (x) = 0.31286 -0.01040
# Poissons Ratio (y) = 0.38747 -0.21095
# Poissons Ratio (z) = -0.01759 -0.28805
#
# Static dielectric constant tensor:
#      x y z
#    x 1.815730 0.000000 0.029070 
#    y 0.000000 1.717150 0.000000 
#    z 0.029070 0.000000 1.758730 
# 
# From -- ./inp_files/6847.got.cif
#   From: 2010.05.17/outbox.cif.g08.bks.cpg/sg11_4_cif.got.tgz:6847.got - 2010.06.03 12:22:45.
