data_PCOD9160587
_publ_section_title
;
Structure prediction by ZEFSAII (Michael W. Deem and Ramdas Pophale) SiO2 
 PCOD9160587
Probable space group: P 21/M
;
_chemical_formula_sum "Si O2"
_cell_formula_units_Z 32
_cell_length_a 10.319346
_cell_length_b 18.423041
_cell_length_c 11.722833
_cell_angle_alpha 90.000000
_cell_angle_beta 43.796473
_cell_angle_gamma 90.000000
_cell_volume 1542.460784
_symmetry_space_group_name_H-M "P 21/M"
_symmetry_group_IT_number 11
_symmetry_cell_setting 'monoclinic'
loop_
_space_group_symop_operation_xyz
x,y,z
-x,1/2+y,-z
-x,-y,-z
x,1/2-y,z
loop_
_atom_site_type_symbol
_atom_site_label
_atom_site_fract_x
_atom_site_fract_y
_atom_site_fract_z
Si Si1 0.312962 0.099642 0.447528
Si Si2 0.366399 0.074882 0.989209
Si Si3 0.344816 0.333373 0.657675
Si Si4 0.027923 0.913082 0.473761
Si Si5 0.361111 0.570762 0.406291
Si Si6 0.289192 0.908146 0.092119
Si Si7 0.279951 0.837271 0.859348
Si Si8 0.073420 0.166366 0.050450
O O1 0.248048 0.137111 0.605433
O O2 0.517983 0.130566 0.295405
O O3 0.177587 0.115519 0.426228
O O4 0.324424 0.012981 0.460435
O O5 0.503990 0.068210 0.791709
O O6 0.499505 0.109846 0.000629
O O7 0.185889 0.120781 0.071227
O O8 0.300900 0.994695 0.064595
O O9 0.404063 0.250000 0.603559
O O10 0.522747 0.383416 0.576087
O O11 0.202875 0.335590 0.854205
O O12 0.163173 0.893970 0.493382
O O13 0.148747 0.894916 0.284802
O O14 0.000000 0.000000 0.500000
O O15 0.231040 0.867270 0.015379
O O16 0.280624 0.750000 0.859561
O O17 0.127688 0.861722 0.862569
O O18 0.056628 0.250000 0.096851
#
# Coordination Sequence:
#
# PCOD9160587 Si02
#       8
#     4   4   4   4   4   4   4   4
#     4  11  20  37  56  82 115 151 190 234 285 333
#     4   9  18  34  60  84 110 142 189 234 282 329
#     4  10  20  36  57  80 111 147 185 234 286 338
#     4   9  20  36  60  86 114 144 188 237 286 335
#     4   9  18  37  57  85 110 145 190 237 279 341
#     4  10  19  36  59  87 111 147 189 237 282 342
#     4  11  23  38  55  82 119 153 190 235 281 338
#     4   9  20  38  56  79 112 148 187 229 278 337
#
# _framework density 20.74607
#
# number of rings (size 3 to 8) (size 9 to 14) (size 15 to 20)
#    0.000    2.250    1.250    1.500    1.750    1.000 
#    6.750    3.750    0.000    0.000    0.000    0.000 
#    0.000    0.000    0.000    0.000    0.000    0.000 
#
# Total GULP energy -178660.309523 kJ/mol
# GULP energy per Si atom -5583.134673 kJ/mol
# Density = 2.069885 g / cm^3
# Si number density = 20.746070 Si / 1000 Ang^3
#
#
#
# Elastic Constant Matrix: (Units=GPa)
#
#
# Indices 1 2 3 4 5 6 
#
# 1 124.6611 22.4404 11.5565 0.0000 -43.5885 0.0000
# 2 22.4404 34.5460 2.0162 0.0000 -19.0829 0.0000
# 3 11.5565 2.0162 37.6341 0.0000 -16.0818 0.0000
# 4 0.0000 0.0000 0.0000 11.3679 0.0000 -2.5026
# 5 -43.5885 -19.0829 -16.0818 0.0000 29.6576 0.0000
# 6 0.0000 0.0000 0.0000 -2.5026 0.0000 -15.1229
#
#
#
# Elastic Compliance Matrix: (Units=1/GPa)
#
#
# Indices 1 2 3 4 5 6 
#
# 1 0.019457 0.008900 0.010693 0.000000 0.040121 0.000000
# 2 0.008900 0.054407 0.019395 0.000000 0.058605 0.000000
# 3 0.010693 0.019395 0.044642 0.000000 0.052403 0.000000
# 4 0.000000 0.000000 0.000000 0.084875 0.000000 -0.014046
# 5 0.040121 0.058605 0.052403 0.000000 0.158810 0.000000
# 6 0.000000 0.000000 0.000000 -0.014046 0.000000 -0.063801
#
#
# Mechanical properties :
#
#
# Convention : Reuss Voigt Hill
#
# Bulk Modulus (GPa) = 5.08953 29.87415 17.48184
# Shear Modulus (GPa) = 17.48821 15.90240 16.69530
#
# Velocity S-wave (km/s) = 2.90654 2.77162 2.83988
# Velocity P-wave (km/s) = 3.70439 4.96726 4.38156
#
# Compressibility (1/GPa) = 0.19648183
#
# Stress axis : x y z
#
# Youngs Moduli (GPa) = 51.39506 18.38013 22.40057
#
# Poissons Ratio (x) = -0.16358 -0.23953
# Poissons Ratio (y) = -0.45740 -0.43447
# Poissons Ratio (z) = -0.54957 -0.35649
#
# Static dielectric constant tensor:
#      x y z
#    x 1.758550 0.000000 0.001890 
#    y 0.000000 1.689760 0.000000 
#    z 0.001890 0.000000 2.064970 
# 
# From -- ./inp_files/32830.got.cif
#   From: 2010.05.17/outbox.cif.g08.bks.cpg/sg11_17_cif.got.tgz:32830.got - 2010.06.03 12:22:45.
