data_PCOD9160283
_publ_section_title
;
Structure prediction by ZEFSAII (Michael W. Deem and Ramdas Pophale) SiO2 
 PCOD9160283
Probable space group: P 21/M
;
_chemical_formula_sum "Si O2"
_cell_formula_units_Z 32
_cell_length_a 23.052982
_cell_length_b 7.739549
_cell_length_c 15.408465
_cell_angle_alpha 90.000000
_cell_angle_beta 148.202507
_cell_angle_gamma 90.000000
_cell_volume 1448.590648
_symmetry_space_group_name_H-M "P 21/M"
_symmetry_group_IT_number 11
_symmetry_cell_setting 'monoclinic'
loop_
_space_group_symop_operation_xyz
x,y,z
-x,1/2+y,-z
-x,-y,-z
x,1/2-y,z
loop_
_atom_site_type_symbol
_atom_site_label
_atom_site_fract_x
_atom_site_fract_y
_atom_site_fract_z
Si Si1 0.507414 0.050010 0.732906
Si Si2 0.268683 0.448910 0.384627
Si Si3 0.250931 0.962244 0.997853
Si Si4 0.934374 0.449738 0.758122
Si Si5 0.128628 0.957612 0.668708
Si Si6 0.799272 0.461352 0.427377
Si Si7 0.554872 0.043911 0.160956
Si Si8 0.171676 0.948802 0.084681
O O1 0.505773 0.250000 0.702577
O O2 0.390156 0.973922 0.554328
O O3 0.622581 0.977055 0.846107
O O4 0.506355 0.040326 0.835916
O O5 0.270705 0.250000 0.417277
O O6 0.172273 0.538689 0.316390
O O7 0.234511 0.455434 0.241027
O O8 0.250410 0.750000 0.994559
O O9 0.196890 0.014304 0.019957
O O10 0.184711 0.021925 0.828476
O O11 0.965907 0.250000 0.789330
O O12 0.896022 0.517889 0.615202
O O13 0.040421 0.543085 0.930755
O O14 0.139989 0.750000 0.683301
O O15 0.184625 0.020605 0.650683
O O16 0.000000 0.000000 0.500000
O O17 0.800088 0.250000 0.428867
O O18 0.681783 0.514586 0.316624
O O19 0.553059 0.250000 0.171420
O O20 0.500000 0.000000 0.000000
O O21 0.207725 0.750000 0.135237
#
# Coordination Sequence:
#
# PCOD9160283 Si02
#       8
#     4   4   4   4   4   4   4   4
#     4  10  21  40  63  86 116 154 197 245 297 354
#     4  11  23  39  61  89 118 151 194 249 304 356
#     4   9  20  39  61  84 117 159 198 239 295 354
#     4  11  21  38  61  87 120 154 194 246 300 356
#     4  10  19  35  57  82 114 152 192 234 282 340
#     4   9  19  34  56  82 113 151 187 228 287 347
#     4  11  21  36  57  85 117 153 195 237 290 346
#     4  11  23  39  60  86 116 156 201 245 296 359
#
# _framework density 22.090437000000001
#
# number of rings (size 3 to 8) (size 9 to 14) (size 15 to 20)
#    0.000    1.750    1.250    3.375    0.000    3.000 
#    0.000    5.625    0.000    0.000    0.000    0.000 
#    0.000    0.000    0.000    0.000    0.000    0.000 
#
# Total GULP energy -178895.240989 kJ/mol
# GULP energy per Si atom -5590.476281 kJ/mol
# Density = 2.204016 g / cm^3
# Si number density = 22.090437 Si / 1000 Ang^3
#
#
#
# Elastic Constant Matrix: (Units=GPa)
#
#
# Indices 1 2 3 4 5 6 
#
# 1 92.0003 -0.3492 37.8797 0.0000 1.4205 0.0000
# 2 -0.3492 41.7907 -2.3373 0.0000 -0.8571 0.0000
# 3 37.8797 -2.3373 129.0214 0.0000 -1.9524 0.0000
# 4 0.0000 0.0000 0.0000 16.7621 0.0000 -1.1424
# 5 1.4205 -0.8571 -1.9524 0.0000 42.1241 0.0000
# 6 0.0000 0.0000 0.0000 -1.1424 0.0000 5.2660
#
#
#
# Elastic Compliance Matrix: (Units=1/GPa)
#
#
# Indices 1 2 3 4 5 6 
#
# 1 0.012379 -0.000113 -0.003645 0.000000 -0.000589 0.000000
# 2 -0.000113 0.023965 0.000475 0.000000 0.000513 0.000000
# 3 -0.003645 0.000475 0.008838 0.000000 0.000542 0.000000
# 4 0.000000 0.000000 0.000000 0.060554 0.000000 0.013136
# 5 -0.000589 0.000513 0.000542 0.000000 0.023795 0.000000
# 6 0.000000 0.000000 0.000000 0.013136 0.000000 0.192746
#
#
# Mechanical properties :
#
#
# Convention : Reuss Voigt Hill
#
# Bulk Modulus (GPa) = 25.89608 37.02208 31.45908
# Shear Modulus (GPa) = 14.63213 28.00506 21.31859
#
# Velocity S-wave (km/s) = 2.57645 3.56440 3.10991
# Velocity P-wave (km/s) = 4.53862 5.80824 5.21223
#
# Compressibility (1/GPa) = 0.03861588
#
# Stress axis : x y z
#
# Youngs Moduli (GPa) = 80.78126 41.72766 113.15146
#
# Poissons Ratio (x) = 0.00469 0.41248
# Poissons Ratio (y) = 0.00909 -0.05374
# Poissons Ratio (z) = 0.29448 -0.01982
#
# Static dielectric constant tensor:
#      x y z
#    x 1.785460 0.000000 0.002270 
#    y 0.000000 1.809650 0.000000 
#    z 0.002270 0.000000 1.800830 
# 
# From -- ./inp_files/55706.got.cif
#   From: 2010.05.17/outbox.cif.g08.bks.cpg/sg11_28_cif.got.tgz:55706.got - 2010.06.03 12:22:45.
