data_PCOD9160847
_publ_section_title
;
Structure prediction by ZEFSAII (Michael W. Deem and Ramdas Pophale) SiO2 
 PCOD9160847
Probable space group: P 21/M
;
_chemical_formula_sum "Si O2"
_cell_formula_units_Z 32
_cell_length_a 18.637478
_cell_length_b 16.945343
_cell_length_c 13.917925
_cell_angle_alpha 90.000000
_cell_angle_beta 160.768030
_cell_angle_gamma 90.000000
_cell_volume 1447.861693
_symmetry_space_group_name_H-M "P 21/M"
_symmetry_group_IT_number 11
_symmetry_cell_setting 'monoclinic'
loop_
_space_group_symop_operation_xyz
x,y,z
-x,1/2+y,-z
-x,-y,-z
x,1/2-y,z
loop_
_atom_site_type_symbol
_atom_site_label
_atom_site_fract_x
_atom_site_fract_y
_atom_site_fract_z
Si Si1 0.382834 0.339429 0.672909
Si Si2 0.372914 0.899420 0.486805
Si Si3 0.072873 0.558142 0.350308
Si Si4 0.472257 0.657708 0.823337
Si Si5 0.030785 0.583277 0.902867
Si Si6 0.295812 0.058396 0.750079
Si Si7 0.547635 0.075640 0.701749
Si Si8 0.281907 0.339047 0.207323
O O1 0.456773 0.250000 0.773374
O O2 0.345544 0.378164 0.729478
O O3 0.537636 0.387213 0.795127
O O4 0.139965 0.346738 0.322005
O O5 0.400512 0.860962 0.624508
O O6 0.139511 0.916392 0.144449
O O7 0.493084 0.839936 0.566773
O O8 0.497317 0.983103 0.641935
O O9 0.263688 0.620496 0.613345
O O10 0.087447 0.495575 0.457715
O O11 0.101832 0.495770 0.297490
O O12 0.878307 0.611637 0.064322
O O13 0.504330 0.750000 0.879548
O O14 0.679732 0.605932 0.119880
O O15 0.229449 0.587126 0.076661
O O16 0.500000 0.000000 0.000000
O O17 0.352843 0.115560 0.393420
O O18 0.204118 0.250000 0.126550
#
# Coordination Sequence:
#
# PCOD9160847 Si02
#       8
#     4   4   4   4   4   4   4   4
#     4  11  24  38  63  94 124 160 207 259 311 364
#     4  11  21  38  60  87 124 168 203 242 301 378
#     4  10  19  38  61  86 113 157 206 248 308 366
#     4  11  23  37  61  90 122 158 204 263 317 357
#     4  10  21  39  61  91 127 163 209 248 299 375
#     4   9  20  41  63  84 112 158 210 256 304 369
#     4  11  21  39  62  89 129 172 203 245 303 376
#     4  11  21  35  57  90 131 157 196 257 311 360
#
# _framework density 22.101559000000002
#
# number of rings (size 3 to 8) (size 9 to 14) (size 15 to 20)
#    0.000    1.500    2.500    4.500    1.750    4.000 
#    0.000    0.625    8.250    0.000    0.000    0.000 
#    0.000    0.000    0.000    0.000    0.000    0.000 
#
# Total GULP energy -178401.429359 kJ/mol
# GULP energy per Si atom -5575.044667 kJ/mol
# Density = 2.205125 g / cm^3
# Si number density = 22.101559 Si / 1000 Ang^3
#
#
#
# Elastic Constant Matrix: (Units=GPa)
#
#
# Indices 1 2 3 4 5 6 
#
# 1 28.7400 -5.4696 -3.5558 0.0000 7.2070 0.0000
# 2 -5.4696 128.8499 14.4151 0.0000 -6.0781 0.0000
# 3 -3.5558 14.4151 56.6769 0.0000 -12.6287 0.0000
# 4 0.0000 0.0000 0.0000 29.2372 0.0000 -0.4950
# 5 7.2070 -6.0781 -12.6287 0.0000 25.0436 0.0000
# 6 0.0000 0.0000 0.0000 -0.4950 0.0000 21.0759
#
#
#
# Elastic Compliance Matrix: (Units=1/GPa)
#
#
# Indices 1 2 3 4 5 6 
#
# 1 0.037659 0.001128 -0.000313 0.000000 -0.010722 0.000000
# 2 0.001128 0.008046 -0.001817 0.000000 0.000712 0.000000
# 3 -0.000313 -0.001817 0.020288 0.000000 0.009880 0.000000
# 4 0.000000 0.000000 0.000000 0.034217 0.000000 0.000804
# 5 -0.010722 0.000712 0.009880 0.000000 0.048171 0.000000
# 6 0.000000 0.000000 0.000000 0.000804 0.000000 0.047466
#
#
# Mechanical properties :
#
#
# Convention : Reuss Voigt Hill
#
# Bulk Modulus (GPa) = 15.62791 25.00513 20.31652
# Shear Modulus (GPa) = 22.81229 28.99649 25.90439
#
# Velocity S-wave (km/s) = 3.21621 3.62604 3.42725
# Velocity P-wave (km/s) = 4.56928 5.37300 4.98736
#
# Compressibility (1/GPa) = 0.06398808
#
# Stress axis : x y z
#
# Youngs Moduli (GPa) = 26.55393 124.29004 49.29092
#
# Poissons Ratio (x) = -0.14019 0.01544
# Poissons Ratio (y) = -0.02995 0.08956
# Poissons Ratio (z) = 0.00832 0.22583
#
# Static dielectric constant tensor:
#      x y z
#    x 1.910170 0.000000 -0.007680 
#    y 0.000000 1.835430 0.000000 
#    z -0.007680 0.000000 1.870830 
# 
# From -- ./inp_files/55051.got.cif
#   From: 2010.05.17/outbox.cif.g08.bks.cpg/sg11_28_cif.got.tgz:55051.got - 2010.06.03 12:22:45.
