data_PCOD9160346
_publ_section_title
;
Structure prediction by ZEFSAII (Michael W. Deem and Ramdas Pophale) SiO2 
 PCOD9160346
Probable space group: P 21/M
;
_chemical_formula_sum "Si O2"
_cell_formula_units_Z 28
_cell_length_a 23.164366
_cell_length_b 9.073677
_cell_length_c 21.772978
_cell_angle_alpha 90.000000
_cell_angle_beta 161.346153
_cell_angle_gamma 90.000000
_cell_volume 1463.752907
_symmetry_space_group_name_H-M "P 21/M"
_symmetry_group_IT_number 11
_symmetry_cell_setting 'monoclinic'
loop_
_space_group_symop_operation_xyz
x,y,z
-x,1/2+y,-z
-x,-y,-z
x,1/2-y,z
loop_
_atom_site_type_symbol
_atom_site_label
_atom_site_fract_x
_atom_site_fract_y
_atom_site_fract_z
Si Si1 0.719554 0.081052 0.162248
Si Si2 0.200494 0.577210 0.509850
Si Si3 0.283123 0.418755 0.718427
Si Si4 0.197769 0.573267 0.192123
Si Si5 0.517142 0.574220 0.610410
Si Si6 0.513087 0.578256 0.289028
Si Si7 0.151111 0.920377 0.844873
O O1 0.768166 0.250000 0.226227
O O2 0.794913 0.045532 0.171128
O O3 0.776630 0.976282 0.275273
O O4 0.501601 0.075334 0.938021
O O5 0.233298 0.750000 0.539955
O O6 0.217730 0.519262 0.596949
O O7 0.340542 0.490684 0.608864
O O8 0.001683 0.531742 0.288236
O O9 0.227471 0.250000 0.652350
O O10 0.178576 0.750000 0.165183
O O11 0.331942 0.546481 0.385430
O O12 0.314529 0.504134 0.254037
O O13 0.000000 0.500000 0.000000
O O14 0.546375 0.750000 0.640398
O O15 0.496556 0.509926 0.657462
O O16 0.553428 0.750000 0.341592
O O17 0.324712 0.570274 0.062776
O O18 0.086053 0.750000 0.780839
#
# Coordination Sequence:
#
# PCOD9160346 Si02
#       7
#     4   4   4   4   4   4   4
#     4   9  18  35  58  84 111 145 192 248 305 360
#     4  12  25  39  59  87 118 155 199 247 303 362
#     4  10  19  35  58  84 113 149 193 245 304 364
#     4  10  21  39  65  96 130 166 204 247 293 343
#     4  10  22  40  63  94 128 163 202 247 296 349
#     4  11  23  43  66  88 119 161 204 248 298 352
#     4  10  22  41  62  84 114 153 200 249 299 358
#
# _framework density 19.128910999999999
#
# number of rings (size 3 to 8) (size 9 to 14) (size 15 to 20)
#    0.000    1.714    1.429    3.000    0.000    5.714 
#    0.000    0.000    0.000    0.000    0.000    0.000 
#    0.000    0.000    0.000    0.000    0.000    0.000 
#
# Total GULP energy -156481.326003 kJ/mol
# GULP energy per Si atom -5588.618786 kJ/mol
# Density = 1.908537 g / cm^3
# Si number density = 19.128911 Si / 1000 Ang^3
#
#
#
# Elastic Constant Matrix: (Units=GPa)
#
#
# Indices 1 2 3 4 5 6 
#
# 1 -186.9034 -2.0458 61.5835 0.0000 -125.2300 0.0000
# 2 -2.0458 85.4770 56.5221 0.0000 -14.5455 0.0000
# 3 61.5835 56.5221 73.9222 0.0000 20.9888 0.0000
# 4 0.0000 0.0000 0.0000 24.3818 0.0000 7.8666
# 5 -125.2300 -14.5455 20.9888 0.0000 -19.7584 0.0000
# 6 0.0000 0.0000 0.0000 7.8666 0.0000 18.3969
#
#
#
# Elastic Compliance Matrix: (Units=1/GPa)
#
#
# Indices 1 2 3 4 5 6 
#
# 1 0.002712 -0.004160 0.003789 0.000000 -0.010102 0.000000
# 2 -0.004160 0.019094 -0.011239 0.000000 0.000369 0.000000
# 3 0.003789 -0.011239 0.018004 0.000000 0.003382 0.000000
# 4 0.000000 0.000000 0.000000 0.047578 0.000000 -0.020345
# 5 -0.010102 0.000369 0.003382 0.000000 0.016733 0.000000
# 6 0.000000 0.000000 0.000000 -0.020345 0.000000 0.063056
#
#
# Mechanical properties :
#
#
# Convention : Reuss Voigt Hill
#
# Bulk Modulus (GPa) = 60.27203 22.73504 41.50353
# Shear Modulus (GPa) = 25.51949 -4.96687 10.27631
#
# Velocity S-wave (km/s) = 3.65647 -1.61312 2.32030
# Velocity P-wave (km/s) = 7.02873 2.90541 5.37794
#
# Compressibility (1/GPa) = 0.01659144
#
# Stress axis : x y z
#
# Youngs Moduli (GPa) = 368.72119 52.37140 55.54217
#
# Poissons Ratio (x) = 0.21786 -0.21047
# Poissons Ratio (y) = 1.53382 0.62425
# Poissons Ratio (z) = -1.39725 0.58862
#
# Static dielectric constant tensor:
#      x y z
#    x 1.637670 0.000000 0.010850 
#    y 0.000000 1.655690 0.000000 
#    z 0.010850 0.000000 1.676340 
# 
# From -- ./inp_files/66756.got.cif
#   From: 2010.05.17/outbox.cif.g08.bks.cpg/sg11_34_cif.got.tgz:66756.got - 2010.06.03 12:22:45.
