data_PCOD9160269
_publ_section_title
;
Structure prediction by ZEFSAII (Michael W. Deem and Ramdas Pophale) SiO2 
 PCOD9160269
Probable space group: P 21/M
;
_chemical_formula_sum "Si O2"
_cell_formula_units_Z 28
_cell_length_a 9.572684
_cell_length_b 14.128933
_cell_length_c 11.873379
_cell_angle_alpha 90.000000
_cell_angle_beta 71.931197
_cell_angle_gamma 90.000000
_cell_volume 1526.700849
_symmetry_space_group_name_H-M "P 21/M"
_symmetry_group_IT_number 11
_symmetry_cell_setting 'monoclinic'
loop_
_space_group_symop_operation_xyz
x,y,z
-x,1/2+y,-z
-x,-y,-z
x,1/2-y,z
loop_
_atom_site_type_symbol
_atom_site_label
_atom_site_fract_x
_atom_site_fract_y
_atom_site_fract_z
Si Si1 0.421935 0.859874 0.964653
Si Si2 0.761030 0.358435 0.207336
Si Si3 0.668834 0.015033 0.426852
Si Si4 0.863422 0.063502 0.576851
Si Si5 0.026340 0.017656 0.123212
Si Si6 0.090794 0.141638 0.679397
Si Si7 0.321724 0.006408 0.165946
O O1 0.455012 0.750000 0.973692
O O2 0.286102 0.866870 0.911390
O O3 0.553279 0.914793 0.869213
O O4 0.388273 0.912498 0.090284
O O5 0.737609 0.250000 0.246415
O O6 0.672331 0.431227 0.306989
O O7 0.926709 0.393469 0.182547
O O8 0.764596 0.917433 0.396673
O O9 0.500000 0.000000 0.500000
O O10 0.758975 0.078818 0.495378
O O11 0.957695 0.141311 0.621107
O O12 0.757040 0.013893 0.695778
O O13 0.000000 0.000000 0.500000
O O14 0.192442 0.037165 0.114150
O O15 0.972665 0.924774 0.205044
O O16 0.000000 0.000000 0.000000
O O17 0.124241 0.250000 0.701431
#
# Coordination Sequence:
#
# PCOD9160269 Si02
#       7
#     4   4   4   4   4   4   4
#     4  10  21  37  57  82 112 148 187 228 283 347
#     4  10  21  36  55  82 112 147 187 232 284 339
#     4  10  20  36  59  82 118 151 189 233 290 335
#     4   9  19  37  57  82 110 151 191 233 281 338
#     4  10  19  35  57  81 109 145 180 233 286 330
#     4   9  20  36  56  82 112 148 194 234 281 337
#     4  10  20  36  60  80 114 147 188 230 285 335
#
# _framework density 18.340198999999998
#
# number of rings (size 3 to 8) (size 9 to 14) (size 15 to 20)
#    0.000    2.286    1.429    1.714    0.000    4.571 
#    0.000    4.286    0.000    0.000    0.000    0.000 
#    0.000    0.000    0.000    0.000    0.000    0.000 
#
# Total GULP energy -155922.587949 kJ/mol
# GULP energy per Si atom -5568.663855 kJ/mol
# Density = 1.829846 g / cm^3
# Si number density = 18.340199 Si / 1000 Ang^3
#
#
#
# Elastic Constant Matrix: (Units=GPa)
#
#
# Indices 1 2 3 4 5 6 
#
# 1 75.9153 31.6199 6.1673 0.0000 -9.8829 0.0000
# 2 31.6199 104.6352 12.8894 0.0000 -8.5966 0.0000
# 3 6.1673 12.8894 63.2530 0.0000 -5.7540 0.0000
# 4 0.0000 0.0000 0.0000 5.8760 0.0000 6.3607
# 5 -9.8829 -8.5966 -5.7540 0.0000 33.9648 0.0000
# 6 0.0000 0.0000 0.0000 6.3607 0.0000 18.2888
#
#
#
# Elastic Compliance Matrix: (Units=1/GPa)
#
#
# Indices 1 2 3 4 5 6 
#
# 1 0.015447 -0.004355 -0.000315 0.000000 0.003339 0.000000
# 2 -0.004355 0.011192 -0.001740 0.000000 0.001271 0.000000
# 3 -0.000315 -0.001740 0.016399 0.000000 0.002246 0.000000
# 4 0.000000 0.000000 0.000000 0.272940 0.000000 -0.094926
# 5 0.003339 0.001271 0.002246 0.000000 0.031116 0.000000
# 6 0.000000 0.000000 0.000000 -0.094926 0.000000 0.087693
#
#
# Mechanical properties :
#
#
# Convention : Reuss Voigt Hill
#
# Bulk Modulus (GPa) = 33.09348 38.35075 35.72211
# Shear Modulus (GPa) = 10.92469 24.50104 17.71286
#
# Velocity S-wave (km/s) = 2.44328 3.65899 3.11109
# Velocity P-wave (km/s) = 5.10322 6.22953 5.69429
#
# Compressibility (1/GPa) = 0.03021744
#
# Stress axis : x y z
#
# Youngs Moduli (GPa) = 64.73889 89.35147 60.97856
#
# Poissons Ratio (x) = 0.38910 0.01921
# Poissons Ratio (y) = 0.28192 0.10613
# Poissons Ratio (z) = 0.02039 0.15551
#
# Static dielectric constant tensor:
#      x y z
#    x 1.630820 0.000000 0.009250 
#    y 0.000000 1.614350 0.000000 
#    z 0.009250 0.000000 1.664250 
# 
# From -- ./inp_files/17711.got.cif
#   From: 2010.05.17/outbox.cif.g08.bks.cpg/sg11_9_cif.got.tgz:17711.got - 2010.06.03 12:22:45.
