data_PCOD9160533
_publ_section_title
;
Structure prediction by ZEFSAII (Michael W. Deem and Ramdas Pophale) SiO2 
 PCOD9160533
Probable space group: P 21/M
;
_chemical_formula_sum "Si O2"
_cell_formula_units_Z 28
_cell_length_a 25.790343
_cell_length_b 8.333085
_cell_length_c 9.632641
_cell_angle_alpha 90.000000
_cell_angle_beta 40.341336
_cell_angle_gamma 90.000000
_cell_volume 1340.110590
_symmetry_space_group_name_H-M "P 21/M"
_symmetry_group_IT_number 11
_symmetry_cell_setting 'monoclinic'
loop_
_space_group_symop_operation_xyz
x,y,z
-x,1/2+y,-z
-x,-y,-z
x,1/2-y,z
loop_
_atom_site_type_symbol
_atom_site_label
_atom_site_fract_x
_atom_site_fract_y
_atom_site_fract_z
Si Si1 0.335095 0.062420 0.668171
Si Si2 0.757060 0.437469 0.894771
Si Si3 0.578324 0.063439 0.919465
Si Si4 0.502949 0.564530 0.337908
Si Si5 0.174595 0.055996 0.825976
Si Si6 0.085183 0.443444 0.271439
Si Si7 0.250850 0.060222 0.398979
O O1 0.354189 0.250000 0.607903
O O2 0.256753 0.018915 0.740150
O O3 0.411557 0.958245 0.473677
O O4 0.308546 0.034230 0.881778
O O5 0.743075 0.250000 0.948428
O O6 0.843396 0.487805 0.779644
O O7 0.754416 0.474769 0.737787
O O8 0.589972 0.250000 0.866189
O O9 0.558831 0.036324 0.122026
O O10 0.500000 0.000000 0.000000
O O11 0.659916 0.968694 0.722964
O O12 0.500000 0.500000 0.500000
O O13 0.526598 0.750000 0.284958
O O14 0.170164 0.250000 0.826982
O O15 0.187067 0.999053 0.643529
O O16 0.104325 0.003538 0.073313
O O17 0.089965 0.250000 0.266235
O O18 0.000000 0.500000 0.500000
O O19 0.239562 0.250000 0.400469
#
# Coordination Sequence:
#
# PCOD9160533 Si02
#       7
#     4   4   4   4   4   4   4
#     4  10  19  36  58  81 108 144 189 240 290 344
#     4  11  22  37  57  86 119 155 193 235 283 342
#     4  12  25  41  58  82 115 155 199 248 300 353
#     4  12  24  38  55  79 109 147 193 245 297 348
#     4   8  18  35  59  84 110 142 181 225 277 335
#     4  10  20  39  64  92 119 149 186 231 283 342
#     4  11  21  38  60  84 114 152 193 240 291 344
#
# _framework density 20.893798
#
# number of rings (size 3 to 8) (size 9 to 14) (size 15 to 20)
#    0.000    1.429    0.000    7.714    0.000    1.143 
#    0.000    8.571    0.000    0.000    0.000    0.000 
#    0.000    0.000    0.000    0.000    0.000    0.000 
#
# Total GULP energy -156576.930255 kJ/mol
# GULP energy per Si atom -5592.033223 kJ/mol
# Density = 2.084624 g / cm^3
# Si number density = 20.893798 Si / 1000 Ang^3
#
#
#
# Elastic Constant Matrix: (Units=GPa)
#
#
# Indices 1 2 3 4 5 6 
#
# 1 33.2652 -3.3776 16.5864 0.0000 8.2186 0.0000
# 2 -3.3776 61.1252 -13.3758 0.0000 -0.5173 0.0000
# 3 16.5864 -13.3758 125.9172 0.0000 6.9270 0.0000
# 4 0.0000 0.0000 0.0000 25.7603 0.0000 -3.7157
# 5 8.2186 -0.5173 6.9270 0.0000 34.9391 0.0000
# 6 0.0000 0.0000 0.0000 -3.7157 0.0000 28.3331
#
#
#
# Elastic Compliance Matrix: (Units=1/GPa)
#
#
# Indices 1 2 3 4 5 6 
#
# 1 0.033910 0.000944 -0.003972 0.000000 -0.007175 0.000000
# 2 0.000944 0.016776 0.001675 0.000000 -0.000306 0.000000
# 3 -0.003972 0.001675 0.008685 0.000000 -0.000763 0.000000
# 4 0.000000 0.000000 0.000000 0.039568 0.000000 0.005189
# 5 -0.007175 -0.000306 -0.000763 0.000000 0.030456 0.000000
# 6 0.000000 0.000000 0.000000 0.005189 0.000000 0.035975
#
#
# Mechanical properties :
#
#
# Convention : Reuss Voigt Hill
#
# Bulk Modulus (GPa) = 17.64782 24.44152 21.04467
# Shear Modulus (GPa) = 26.74306 32.50481 29.62393
#
# Velocity S-wave (km/s) = 3.58152 3.94854 3.76950
# Velocity P-wave (km/s) = 5.05647 5.70187 5.38884
#
# Compressibility (1/GPa) = 0.05666421
#
# Stress axis : x y z
#
# Youngs Moduli (GPa) = 29.48949 59.60940 115.14433
#
# Poissons Ratio (x) = -0.05627 0.45733
# Poissons Ratio (y) = -0.02784 -0.19281
# Poissons Ratio (z) = 0.11713 -0.09982
#
# Static dielectric constant tensor:
#      x y z
#    x 1.777890 0.000000 0.037250 
#    y 0.000000 1.721220 0.000000 
#    z 0.037250 0.000000 1.771280 
# 
# From -- ./inp_files/28279.got.cif
#   From: 2010.05.17/outbox.cif.g08.bks.cpg/sg11_15_cif.got.tgz:28279.got - 2010.06.03 12:22:45.
