data_PCOD9160390
_publ_section_title
;
Structure prediction by ZEFSAII (Michael W. Deem and Ramdas Pophale) SiO2 
 PCOD9160390
Probable space group: P 21/M
;
_chemical_formula_sum "Si O2"
_cell_formula_units_Z 20
_cell_length_a 10.483873
_cell_length_b 13.832104
_cell_length_c 10.358801
_cell_angle_alpha 90.000000
_cell_angle_beta 140.358781
_cell_angle_gamma 90.000000
_cell_volume 958.352507
_symmetry_space_group_name_H-M "P 21/M"
_symmetry_group_IT_number 11
_symmetry_cell_setting 'monoclinic'
loop_
_space_group_symop_operation_xyz
x,y,z
-x,1/2+y,-z
-x,-y,-z
x,1/2-y,z
loop_
_atom_site_type_symbol
_atom_site_label
_atom_site_fract_x
_atom_site_fract_y
_atom_site_fract_z
Si Si1 0.796851 0.358743 0.499993
Si Si2 0.407693 0.639993 0.936828
Si Si3 0.794087 0.548211 0.145527
Si Si4 0.772936 0.532658 0.842489
Si Si5 0.529342 0.361218 0.550260
O O1 0.884388 0.250000 0.572241
O O2 0.665457 0.365597 0.269181
O O3 0.663238 0.369485 0.523723
O O4 0.979036 0.432823 0.639230
O O5 0.392041 0.750000 0.968992
O O6 0.268258 0.563732 0.900422
O O7 0.635718 0.602575 0.113504
O O8 0.765693 0.582711 0.976130
O O9 0.628502 0.438651 0.723033
O O10 0.688124 0.602374 0.664858
O O11 0.000000 0.500000 0.000000
O O12 0.530437 0.250000 0.593765
#
# Coordination Sequence:
#
# PCOD9160390 Si02
#       5
#     4   4   4   4   4
#     4  10  19  35  59  85 113 147 193 236 279 338
#     4  10  22  38  56  83 116 150 192 238 285 338
#     4  11  21  36  61  84 114 153 191 238 285 339
#     4  11  22  38  60  87 118 150 192 239 289 344
#     4  10  22  38  58  85 118 153 192 238 285 342
#
# _framework density 20.869147999999999
#
# number of rings (size 3 to 8) (size 9 to 14) (size 15 to 20)
#    0.000    1.600    4.000    1.200    0.000    2.400 
#    0.000    0.000    0.000    0.000    0.000    0.000 
#    0.000    0.000    0.000    0.000    0.000    0.000 
#
# Total GULP energy -111712.582766 kJ/mol
# GULP energy per Si atom -5585.629138 kJ/mol
# Density = 2.082165 g / cm^3
# Si number density = 20.869148 Si / 1000 Ang^3
#
#
#
# Elastic Constant Matrix: (Units=GPa)
#
#
# Indices 1 2 3 4 5 6 
#
# 1 25.1832 -7.8266 6.2932 0.0000 12.2868 0.0000
# 2 -7.8266 84.7111 14.8370 0.0000 16.2489 0.0000
# 3 6.2932 14.8370 59.6372 0.0000 25.5870 0.0000
# 4 0.0000 0.0000 0.0000 19.7860 0.0000 -1.8659
# 5 12.2868 16.2489 25.5870 0.0000 35.6130 0.0000
# 6 0.0000 0.0000 0.0000 -1.8659 0.0000 23.6412
#
#
#
# Elastic Compliance Matrix: (Units=1/GPa)
#
#
# Indices 1 2 3 4 5 6 
#
# 1 0.054013 0.009280 0.002607 0.000000 -0.024742 0.000000
# 2 0.009280 0.014572 -0.000547 0.000000 -0.009457 0.000000
# 3 0.002607 -0.000547 0.024442 0.000000 -0.018211 0.000000
# 4 0.000000 0.000000 0.000000 0.050920 0.000000 0.004019
# 5 -0.024742 -0.009457 -0.018211 0.000000 0.054015 0.000000
# 6 0.000000 0.000000 0.000000 0.004019 0.000000 0.042616
#
#
# Mechanical properties :
#
#
# Convention : Reuss Voigt Hill
#
# Bulk Modulus (GPa) = 8.64256 21.79320 15.21788
# Shear Modulus (GPa) = 19.49559 26.22321 22.85940
#
# Velocity S-wave (km/s) = 3.05976 3.54864 3.31323
# Velocity P-wave (km/s) = 4.07837 5.22072 4.68450
#
# Compressibility (1/GPa) = 0.11570648
#
# Stress axis : x y z
#
# Youngs Moduli (GPa) = 18.51409 68.62458 40.91247
#
# Poissons Ratio (x) = -0.63681 -0.10666
# Poissons Ratio (y) = -0.17180 0.02238
# Poissons Ratio (z) = -0.04827 0.03754
#
# Static dielectric constant tensor:
#      x y z
#    x 1.738610 0.000000 -0.000280 
#    y 0.000000 1.760350 0.000000 
#    z -0.000280 0.000000 1.727490 
# 
# From -- ./inp_files/4118.got.cif
#   From: 2010.05.17/outbox.cif.g08.bks.cpg/sg11_3_cif.got.tgz:4118.got - 2010.06.03 12:22:45.
