data_PCOD9160403
_publ_section_title
;
Structure prediction by ZEFSAII (Michael W. Deem and Ramdas Pophale) SiO2 
 PCOD9160403
Probable space group: P 21/M
;
_chemical_formula_sum "Si O2"
_cell_formula_units_Z 24
_cell_length_a 9.951938
_cell_length_b 13.729636
_cell_length_c 10.012276
_cell_angle_alpha 90.000000
_cell_angle_beta 120.879067
_cell_angle_gamma 90.000000
_cell_volume 1174.125608
_symmetry_space_group_name_H-M "P 21/M"
_symmetry_group_IT_number 11
_symmetry_cell_setting 'monoclinic'
loop_
_space_group_symop_operation_xyz
x,y,z
-x,1/2+y,-z
-x,-y,-z
x,1/2-y,z
loop_
_atom_site_type_symbol
_atom_site_label
_atom_site_fract_x
_atom_site_fract_y
_atom_site_fract_z
Si Si1 0.312781 0.632493 0.452409
Si Si2 0.168625 0.365695 0.303093
Si Si3 0.545874 0.632551 0.349328
Si Si4 0.991220 0.974123 0.339100
Si Si5 0.336310 0.131731 0.873113
Si Si6 0.416188 0.131987 0.209772
O O1 0.308791 0.750000 0.452402
O O2 0.396737 0.599354 0.358328
O O3 0.140489 0.592532 0.381500
O O4 0.430826 0.598931 0.630451
O O5 0.137558 0.250000 0.288224
O O6 0.297508 0.387664 0.484791
O O7 0.018781 0.429182 0.264365
O O8 0.258173 0.391751 0.211679
O O9 0.535673 0.750000 0.343665
O O10 0.563504 0.602792 0.205677
O O11 0.831751 0.918604 0.227152
O O12 0.000000 0.000000 0.500000
O O13 0.317815 0.250000 0.861160
O O14 0.409440 0.104257 0.052441
O O15 0.422958 0.250000 0.218262
#
# Coordination Sequence:
#
# PCOD9160403 Si02
#       6
#     4   4   4   4   4   4
#     4   9  19  37  60  84 111 143 188 230 271 329
#     4   9  18  35  55  76 109 150 191 226 277 341
#     4   8  15  31  56  79 105 145 182 222 269 325
#     4  12  23  33  55  90 112 147 188 234 283 320
#     4  10  19  35  59  86 116 144 183 229 279 336
#     4   8  17  35  60  82 107 152 188 222 279 336
#
# _framework density 20.440743000000001
#
# number of rings (size 3 to 8) (size 9 to 14) (size 15 to 20)
#    0.000    2.667    1.667    2.500    0.000    4.000 
#    0.000    0.833    3.667    0.000    0.000    1.167 
#    0.000    0.000    0.000    0.000    0.000    0.000 
#
# Total GULP energy -134063.836191 kJ/mol
# GULP energy per Si atom -5585.993175 kJ/mol
# Density = 2.039422 g / cm^3
# Si number density = 20.440743 Si / 1000 Ang^3
#
#
#
# Elastic Constant Matrix: (Units=GPa)
#
#
# Indices 1 2 3 4 5 6 
#
# 1 122.6159 31.9778 66.6581 0.0000 -21.6263 0.0000
# 2 31.9778 85.2410 29.2076 0.0000 -1.5858 0.0000
# 3 66.6581 29.2076 105.6372 0.0000 -34.8893 0.0000
# 4 0.0000 0.0000 0.0000 15.5972 0.0000 5.3899
# 5 -21.6263 -1.5858 -34.8893 0.0000 34.9431 0.0000
# 6 0.0000 0.0000 0.0000 5.3899 0.0000 36.0428
#
#
#
# Elastic Compliance Matrix: (Units=1/GPa)
#
#
# Indices 1 2 3 4 5 6 
#
# 1 0.012799 -0.002308 -0.007246 0.000000 0.000582 0.000000
# 2 -0.002308 0.013859 -0.003938 0.000000 -0.004732 0.000000
# 3 -0.007246 -0.003938 0.020273 0.000000 0.015578 0.000000
# 4 0.000000 0.000000 0.000000 0.067608 0.000000 -0.010110
# 5 0.000582 -0.004732 0.015578 0.000000 0.044317 0.000000
# 6 0.000000 0.000000 0.000000 -0.010110 0.000000 0.029257
#
#
# Mechanical properties :
#
#
# Convention : Reuss Voigt Hill
#
# Bulk Modulus (GPa) = 50.13532 63.24233 56.68883
# Shear Modulus (GPa) = 22.54834 29.69333 26.12083
#
# Velocity S-wave (km/s) = 3.32491 3.81550 3.57862
# Velocity P-wave (km/s) = 6.27060 7.10051 6.69842
#
# Compressibility (1/GPa) = 0.01994602
#
# Stress axis : x y z
#
# Youngs Moduli (GPa) = 78.12893 72.15728 49.32730
#
# Poissons Ratio (x) = 0.16653 0.35744
# Poissons Ratio (y) = 0.18031 0.19426
# Poissons Ratio (z) = 0.56615 0.28417
#
# Static dielectric constant tensor:
#      x y z
#    x 1.690900 0.000000 -0.029450 
#    y 0.000000 1.793820 0.000000 
#    z -0.029450 0.000000 1.702210 
# 
# From -- ./inp_files/31569.got.cif
#   From: 2010.05.17/outbox.cif.g08.bks.cpg/sg11_16_cif.got.tgz:31569.got - 2010.06.03 12:22:45.
