data_PCOD9160924
_publ_section_title
;
Structure prediction by ZEFSAII (Michael W. Deem and Ramdas Pophale) SiO2 
 PCOD9160924
Probable space group: P 21/M
;
_chemical_formula_sum "Si O2"
_cell_formula_units_Z 30
_cell_length_a 5.247170
_cell_length_b 18.929128
_cell_length_c 14.004858
_cell_angle_alpha 90.000000
_cell_angle_beta 70.662589
_cell_angle_gamma 90.000000
_cell_volume 1312.548786
_symmetry_space_group_name_H-M "P 21/M"
_symmetry_group_IT_number 11
_symmetry_cell_setting 'monoclinic'
loop_
_space_group_symop_operation_xyz
x,y,z
-x,1/2+y,-z
-x,-y,-z
x,1/2-y,z
loop_
_atom_site_type_symbol
_atom_site_label
_atom_site_fract_x
_atom_site_fract_y
_atom_site_fract_z
Si Si1 0.140996 0.664043 0.432404
Si Si2 0.637731 0.953641 0.066661
Si Si3 0.224356 0.671924 0.123590
Si Si4 0.738722 0.664607 0.315531
Si Si5 0.405982 0.939145 0.758225
Si Si6 0.990186 0.612385 0.658440
Si Si7 0.068232 0.856194 0.934316
Si Si8 0.878724 0.750000 0.805124
O O1 0.143482 0.750000 0.440439
O O2 0.429249 0.640667 0.352513
O O3 0.892394 0.644977 0.394317
O O4 0.103955 0.630566 0.540568
O O5 0.460692 0.883641 0.106147
O O6 0.640140 0.995882 0.165191
O O7 0.917757 0.926437 0.987692
O O8 0.500000 0.000000 0.000000
O O9 0.291342 0.750000 0.155176
O O10 0.948913 0.644864 0.206762
O O11 0.165810 0.678046 0.019049
O O12 0.726832 0.750000 0.313614
O O13 0.711169 0.930324 0.688025
O O14 0.325435 0.872448 0.836147
O O15 0.200714 0.931901 0.696223
O O16 0.928040 0.686783 0.719428
O O17 0.874829 0.810545 0.891822
#
# Coordination Sequence:
#
# PCOD9160924 Si02
#       8
#     4   4   4   4   4   4   4   2
#     4  10  19  40  65  97 129 173 217 281 347 405
#     4  12  25  43  66  91 138 192 228 265 328 405
#     4  11  25  41  67 101 134 178 222 287 333 388
#     4   9  21  38  64  94 133 168 222 273 339 401
#     4  11  25  41  62  96 131 181 223 263 323 414
#     4  11  23  40  67  97 135 171 220 279 343 398
#     4  11  24  39  63  94 138 176 222 271 325 401
#     4  10  22  38  58 100 134 166 210 280 334 388
#
# _framework density 22.856293999999998
#
# number of rings (size 3 to 8) (size 9 to 14) (size 15 to 20)
#    0.000    1.333    2.667    2.800    4.667    2.133 
#    0.000    0.000    0.000    4.800    0.000    0.000 
#    0.000    0.000    0.000    0.000    0.000    0.000 
#
# Total GULP energy -167329.213064 kJ/mol
# GULP energy per Si atom -5577.640435 kJ/mol
# Density = 2.280427 g / cm^3
# Si number density = 22.856294 Si / 1000 Ang^3
#
#
#
# Elastic Constant Matrix: (Units=GPa)
#
#
# Indices 1 2 3 4 5 6 
#
# 1 100.9105 17.1256 13.3489 0.0000 -11.2778 0.0000
# 2 17.1256 62.2915 0.2275 0.0000 -6.0246 0.0000
# 3 13.3489 0.2275 95.4752 0.0000 -6.9332 0.0000
# 4 0.0000 0.0000 0.0000 5.3765 0.0000 -18.5332
# 5 -11.2778 -6.0246 -6.9332 0.0000 31.6621 0.0000
# 6 0.0000 0.0000 0.0000 -18.5332 0.0000 -3.7893
#
#
#
# Elastic Compliance Matrix: (Units=1/GPa)
#
#
# Indices 1 2 3 4 5 6 
#
# 1 0.010881 -0.002689 -0.001291 0.000000 0.003081 0.000000
# 2 -0.002689 0.017022 0.000509 0.000000 0.002393 0.000000
# 3 -0.001291 0.000509 0.010799 0.000000 0.002002 0.000000
# 4 0.000000 0.000000 0.000000 0.010414 0.000000 -0.050936
# 5 0.003081 0.002393 0.002002 0.000000 0.033575 0.000000
# 6 0.000000 0.000000 0.000000 -0.050936 0.000000 -0.014776
#
#
# Mechanical properties :
#
#
# Convention : Reuss Voigt Hill
#
# Bulk Modulus (GPa) = 31.48569 35.56457 33.52513
# Shear Modulus (GPa) = 58.51830 21.84819 40.18325
#
# Velocity S-wave (km/s) = 5.06540 3.09511 4.19750
# Velocity P-wave (km/s) = 6.92939 5.32605 6.17994
#
# Compressibility (1/GPa) = 0.03176046
#
# Stress axis : x y z
#
# Youngs Moduli (GPa) = 91.90088 58.74635 92.60468
#
# Poissons Ratio (x) = 0.15796 0.11957
# Poissons Ratio (y) = 0.24710 -0.04715
# Poissons Ratio (z) = 0.11866 -0.02991
#
# Static dielectric constant tensor:
#      x y z
#    x 1.879130 0.000000 -0.009300 
#    y 0.000000 1.861930 0.000000 
#    z -0.009300 0.000000 1.811600 
# 
# From -- ./inp_files/46192.got.cif
#   From: 2010.05.17/outbox.cif.g08.bks.cpg/sg11_24_cif.got.tgz:46192.got - 2010.06.03 12:22:45.
