data_PCOD9160770
_publ_section_title
;
Structure prediction by ZEFSAII (Michael W. Deem and Ramdas Pophale) SiO2 
 PCOD9160770
Probable space group: P 21/M
;
_chemical_formula_sum "Si O2"
_cell_formula_units_Z 32
_cell_length_a 11.894251
_cell_length_b 7.800205
_cell_length_c 31.383998
_cell_angle_alpha 90.000000
_cell_angle_beta 30.349796
_cell_angle_gamma 90.000000
_cell_volume 1471.233524
_symmetry_space_group_name_H-M "P 21/M"
_symmetry_group_IT_number 11
_symmetry_cell_setting 'monoclinic'
loop_
_space_group_symop_operation_xyz
x,y,z
-x,1/2+y,-z
-x,-y,-z
x,1/2-y,z
loop_
_atom_site_type_symbol
_atom_site_label
_atom_site_fract_x
_atom_site_fract_y
_atom_site_fract_z
Si Si1 0.962295 0.957730 0.869566
Si Si2 0.219379 0.042250 0.382757
Si Si3 0.657046 0.041151 0.190947
Si Si4 0.970167 0.452514 0.772272
Si Si5 0.250839 0.954568 0.930855
Si Si6 0.605736 0.453242 0.419567
Si Si7 0.744654 0.952576 0.532792
Si Si8 0.528649 0.948822 0.054347
O O1 0.957220 0.750000 0.872467
O O2 0.125113 0.017717 0.854307
O O3 0.052518 0.008458 0.793563
O O4 0.710106 0.021746 0.961357
O O5 0.208403 0.250000 0.386925
O O6 0.440379 0.988942 0.286990
O O7 0.241998 0.976225 0.423762
O O8 0.994727 0.977283 0.434445
O O9 0.671682 0.250000 0.185741
O O10 0.626530 0.988776 0.152237
O O11 0.950834 0.250000 0.773220
O O12 0.716471 0.526346 0.857038
O O13 0.143093 0.508261 0.678963
O O14 0.270522 0.750000 0.930537
O O15 0.340154 0.042422 0.943805
O O16 0.000000 0.000000 0.000000
O O17 0.500000 0.500000 0.500000
O O18 0.589652 0.250000 0.423603
O O19 0.440871 0.528031 0.437266
O O20 0.699172 0.750000 0.552009
O O21 0.495696 0.750000 0.053385
#
# Coordination Sequence:
#
# PCOD9160770 Si02
#       8
#     4   4   4   4   4   4   4   4
#     4  10  19  37  62  84 118 162 200 241 295 352
#     4   9  17  32  56  84 111 143 186 232 281 342
#     4   9  18  33  55  82 113 152 193 234 284 342
#     4  11  24  40  60  91 123 151 196 251 300 353
#     4  11  21  36  57  81 114 153 196 240 289 348
#     4  11  24  43  65  86 115 156 199 243 298 358
#     4   9  19  36  57  81 111 145 182 231 291 344
#     4  10  22  40  60  84 120 162 201 248 299 348
#
# _framework density 21.750456
#
# number of rings (size 3 to 8) (size 9 to 14) (size 15 to 20)
#    0.000    2.000    1.250    2.250    0.000    5.500 
#    0.000    6.875    0.000    0.000    0.000    0.000 
#    0.000    0.000    0.000    0.000    0.000    0.000 
#
# Total GULP energy -178507.189587 kJ/mol
# GULP energy per Si atom -5578.349675 kJ/mol
# Density = 2.170095 g / cm^3
# Si number density = 21.750456 Si / 1000 Ang^3
#
#
#
# Elastic Constant Matrix: (Units=GPa)
#
#
# Indices 1 2 3 4 5 6 
#
# 1 43.3950 -7.1131 22.0727 0.0000 9.3260 0.0000
# 2 -7.1131 37.3618 0.6646 0.0000 5.8273 0.0000
# 3 22.0727 0.6646 145.4149 0.0000 12.1803 0.0000
# 4 0.0000 0.0000 0.0000 24.1644 0.0000 2.5823
# 5 9.3260 5.8273 12.1803 0.0000 28.0386 0.0000
# 6 0.0000 0.0000 0.0000 2.5823 0.0000 23.6861
#
#
#
# Elastic Compliance Matrix: (Units=1/GPa)
#
#
# Indices 1 2 3 4 5 6 
#
# 1 0.027913 0.006808 -0.003499 0.000000 -0.009179 0.000000
# 2 0.006808 0.029342 -0.000485 0.000000 -0.008152 0.000000
# 3 -0.003499 -0.000485 0.007580 0.000000 -0.002028 0.000000
# 4 0.000000 0.000000 0.000000 0.041871 0.000000 -0.004565
# 5 -0.009179 -0.008152 -0.002028 0.000000 0.041293 0.000000
# 6 0.000000 0.000000 0.000000 -0.004565 0.000000 0.042716
#
#
# Mechanical properties :
#
#
# Convention : Reuss Voigt Hill
#
# Bulk Modulus (GPa) = 14.18791 28.60222 21.39507
# Shear Modulus (GPa) = 23.97382 29.21434 26.59408
#
# Velocity S-wave (km/s) = 3.32357 3.66889 3.50049
# Velocity P-wave (km/s) = 4.61144 5.57910 5.11819
#
# Compressibility (1/GPa) = 0.07048255
#
# Stress axis : x y z
#
# Youngs Moduli (GPa) = 35.82623 34.08138 131.92399
#
# Poissons Ratio (x) = -0.23203 0.46162
# Poissons Ratio (y) = -0.24390 0.06394
# Poissons Ratio (z) = 0.12536 0.01652
#
# Static dielectric constant tensor:
#      x y z
#    x 1.804920 0.000000 -0.001460 
#    y 0.000000 1.775260 0.000000 
#    z -0.001460 0.000000 1.854490 
# 
# From -- ./inp_files/73132.got.cif
#   From: 2010.05.17/outbox.cif.g08.bks.cpg/sg11_37_cif.got.tgz:73132.got - 2010.06.03 12:22:45.
