data_PCOD9160058
_publ_section_title
;
Structure prediction by ZEFSAII (Michael W. Deem and Ramdas Pophale) SiO2 
 PCOD9160058
Probable space group: P 21/M
;
_chemical_formula_sum "Si O2"
_cell_formula_units_Z 32
_cell_length_a 10.392757
_cell_length_b 18.755331
_cell_length_c 9.325107
_cell_angle_alpha 90.000000
_cell_angle_beta 71.231947
_cell_angle_gamma 90.000000
_cell_volume 1720.999683
_symmetry_space_group_name_H-M "P 21/M"
_symmetry_group_IT_number 11
_symmetry_cell_setting 'monoclinic'
loop_
_space_group_symop_operation_xyz
x,y,z
-x,1/2+y,-z
-x,-y,-z
x,1/2-y,z
loop_
_atom_site_type_symbol
_atom_site_label
_atom_site_fract_x
_atom_site_fract_y
_atom_site_fract_z
Si Si1 0.220536 0.831412 0.125576
Si Si2 0.758612 0.908835 0.006751
Si Si3 0.940585 0.668887 0.135939
Si Si4 0.913963 0.948220 0.681077
Si Si5 0.892360 0.167576 0.511608
Si Si6 0.461041 0.935001 0.117893
Si Si7 0.164551 0.028133 0.738932
Si Si8 0.280796 0.960146 0.447595
O O1 0.267856 0.750000 0.086729
O O2 0.099623 0.848679 0.058756
O O3 0.139832 0.833212 0.306736
O O4 0.342126 0.886825 0.092548
O O5 0.856935 0.845246 0.021391
O O6 0.601312 0.892421 0.085704
O O7 0.500000 0.000000 0.000000
O O8 0.794275 0.929393 0.833741
O O9 0.930220 0.750000 0.187229
O O10 0.874337 0.611257 0.266193
O O11 0.977231 0.878486 0.582982
O O12 0.032960 0.983420 0.736335
O O13 0.846872 0.003278 0.592878
O O14 0.898113 0.250000 0.464050
O O15 0.765447 0.120473 0.499461
O O16 0.798416 0.971946 0.105981
O O17 0.403944 0.959686 0.292688
O O18 0.286108 0.003489 0.592938
#
# Coordination Sequence:
#
# PCOD9160058 Si02
#       8
#     4   4   4   4   4   4   4   4
#     4   9  18  35  58  79 104 147 192 226 268 338
#     4  10  23  32  52  84 117 143 177 228 288 323
#     4   9  19  35  55  80 110 142 185 229 280 331
#     4  11  18  33  54  83 114 142 179 237 280 322
#     4   9  18  31  54  84 107 136 186 235 276 318
#     4  11  21  35  54  82 114 150 186 223 277 333
#     4   9  19  33  54  82 107 145 185 226 281 321
#     4  10  19  34  58  77 111 148 191 232 264 332
#
# _framework density 18.593845000000002
#
# number of rings (size 3 to 8) (size 9 to 14) (size 15 to 20)
#    0.750    1.500    1.250    4.125    0.000    1.500 
#    0.000    0.000    0.000    0.750    0.000    0.000 
#    0.000    0.000    0.000    0.000    0.000    0.000 
#
# Total GULP energy -178140.205422 kJ/mol
# GULP energy per Si atom -5566.881419 kJ/mol
# Density = 1.855152 g / cm^3
# Si number density = 18.593845 Si / 1000 Ang^3
#
#
#
# Elastic Constant Matrix: (Units=GPa)
#
#
# Indices 1 2 3 4 5 6 
#
# 1 86.9537 34.2451 24.1946 0.0000 -9.8136 0.0000
# 2 34.2451 112.8527 27.3154 0.0000 -7.2437 0.0000
# 3 24.1946 27.3154 52.5951 0.0000 -21.1408 0.0000
# 4 0.0000 0.0000 0.0000 21.7209 0.0000 -3.9446
# 5 -9.8136 -7.2437 -21.1408 0.0000 28.0894 0.0000
# 6 0.0000 0.0000 0.0000 -3.9446 0.0000 19.6177
#
#
#
# Elastic Compliance Matrix: (Units=1/GPa)
#
#
# Indices 1 2 3 4 5 6 
#
# 1 0.014081 -0.003119 -0.004593 0.000000 0.000658 0.000000
# 2 -0.003119 0.010900 -0.005067 0.000000 -0.002092 0.000000
# 3 -0.004593 -0.005067 0.032384 0.000000 0.021462 0.000000
# 4 0.000000 0.000000 0.000000 0.047783 0.000000 0.009608
# 5 0.000658 -0.002092 0.021462 0.000000 0.051444 0.000000
# 6 0.000000 0.000000 0.000000 0.009608 0.000000 0.052906
#
#
# Mechanical properties :
#
#
# Convention : Reuss Voigt Hill
#
# Bulk Modulus (GPa) = 31.43972 47.10129 39.27051
# Shear Modulus (GPa) = 20.35344 24.99538 22.67441
#
# Velocity S-wave (km/s) = 3.31211 3.67042 3.49586
# Velocity P-wave (km/s) = 5.61891 6.58402 6.12052
#
# Compressibility (1/GPa) = 0.03180690
#
# Stress axis : x y z
#
# Youngs Moduli (GPa) = 71.01777 91.74565 30.87911
#
# Poissons Ratio (x) = 0.28614 0.14183
# Poissons Ratio (y) = 0.22150 0.15647
# Poissons Ratio (z) = 0.32619 0.46489
#
# Static dielectric constant tensor:
#      x y z
#    x 1.685380 0.000000 0.027030 
#    y 0.000000 1.679410 0.000000 
#    z 0.027030 0.000000 1.706540 
# 
# From -- ./inp_files/35813.got.cif
#   From: 2010.05.17/outbox.cif.g08.bks.cpg/sg11_18_cif.got.tgz:35813.got - 2010.06.03 12:22:45.
