data_PCOD9160997
_publ_section_title
;
Structure prediction by ZEFSAII (Michael W. Deem and Ramdas Pophale) SiO2 
 PCOD9160997
Probable space group: P 21/M
;
_chemical_formula_sum "Si O2"
_cell_formula_units_Z 28
_cell_length_a 10.715821
_cell_length_b 18.152370
_cell_length_c 15.118302
_cell_angle_alpha 90.000000
_cell_angle_beta 155.327385
_cell_angle_gamma 90.000000
_cell_volume 1227.575946
_symmetry_space_group_name_H-M "P 21/M"
_symmetry_group_IT_number 11
_symmetry_cell_setting 'monoclinic'
loop_
_space_group_symop_operation_xyz
x,y,z
-x,1/2+y,-z
-x,-y,-z
x,1/2-y,z
loop_
_atom_site_type_symbol
_atom_site_label
_atom_site_fract_x
_atom_site_fract_y
_atom_site_fract_z
Si Si1 0.709763 0.568539 0.153721
Si Si2 0.001496 0.334031 0.407322
Si Si3 0.770242 0.051191 0.904370
Si Si4 0.608907 0.166900 0.920267
Si Si5 0.283600 0.585711 0.445626
Si Si6 0.641215 0.592503 0.509874
Si Si7 0.714979 0.432974 0.364415
O O1 0.523480 0.634686 0.074767
O O2 0.957314 0.542486 0.387166
O O3 0.926050 0.596830 0.214470
O O4 0.500000 0.500000 0.000000
O O5 0.901435 0.250000 0.335394
O O6 0.309193 0.333650 0.664445
O O7 0.095352 0.366935 0.372746
O O8 0.771460 0.383674 0.315511
O O9 0.844002 0.109249 0.028651
O O10 0.628920 0.097573 0.734202
O O11 0.520696 0.999016 0.789841
O O12 0.000000 0.000000 0.000000
O O13 0.718572 0.250000 0.995954
O O14 0.495327 0.617396 0.507376
O O15 0.301016 0.495933 0.449061
O O16 0.385177 0.609584 0.609554
#
# Coordination Sequence:
#
# PCOD9160997 Si02
#       7
#     4   4   4   4   4   4   4
#     4   9  18  31  55  81 104 148 187 227 278 330
#     4   9  17  31  53  78 109 148 184 226 286 331
#     4  10  20  31  55  84 106 145 190 228 278 327
#     4   9  19  34  54  80 111 142 181 233 285 336
#     4   8  17  30  49  75 105 139 174 234 267 312
#     4   9  17  31  48  75 110 134 176 231 271 315
#     4   8  18  33  52  80 110 138 192 237 257 333
#
# _framework density 22.809180000000001
#
# number of rings (size 3 to 8) (size 9 to 14) (size 15 to 20)
#    0.857    2.286    0.000    0.000    4.000    2.286 
#    0.000    2.143    0.000    1.714    0.000    0.000 
#    0.000    0.000    0.000    0.000    0.000    0.000 
#
# Total GULP energy -156147.433219 kJ/mol
# GULP energy per Si atom -5576.694044 kJ/mol
# Density = 2.275727 g / cm^3
# Si number density = 22.809180 Si / 1000 Ang^3
#
#
#
# Elastic Constant Matrix: (Units=GPa)
#
#
# Indices 1 2 3 4 5 6 
#
# 1 245.9079 90.2873 36.8534 0.0000 22.2658 0.0000
# 2 90.2873 110.0071 17.3479 0.0000 11.0888 0.0000
# 3 36.8534 17.3479 64.5781 0.0000 13.8571 0.0000
# 4 0.0000 0.0000 0.0000 15.7075 0.0000 -1.8466
# 5 22.2658 11.0888 13.8571 0.0000 27.6259 0.0000
# 6 0.0000 0.0000 0.0000 -1.8466 0.0000 25.2631
#
#
#
# Elastic Compliance Matrix: (Units=1/GPa)
#
#
# Indices 1 2 3 4 5 6 
#
# 1 0.006235 -0.004600 -0.001838 0.000000 -0.002257 0.000000
# 2 -0.004600 0.013089 -0.000627 0.000000 -0.001232 0.000000
# 3 -0.001838 -0.000627 0.018300 0.000000 -0.007446 0.000000
# 4 0.000000 0.000000 0.000000 0.064216 0.000000 0.004694
# 5 -0.002257 -0.001232 -0.007446 0.000000 0.042247 0.000000
# 6 0.000000 0.000000 0.000000 0.004694 0.000000 0.039927
#
#
# Mechanical properties :
#
#
# Convention : Reuss Voigt Hill
#
# Bulk Modulus (GPa) = 42.56326 78.83004 60.69665
# Shear Modulus (GPa) = 24.27473 32.11958 28.19716
#
# Velocity S-wave (km/s) = 3.26583 3.75665 3.51981
# Velocity P-wave (km/s) = 5.73776 7.31111 6.57169
#
# Compressibility (1/GPa) = 0.02349444
#
# Stress axis : x y z
#
# Youngs Moduli (GPa) = 160.37278 76.40035 54.64369
#
# Poissons Ratio (x) = 0.35146 0.10045
# Poissons Ratio (y) = 0.73776 0.03424
# Poissons Ratio (z) = 0.29482 0.04787
#
# Static dielectric constant tensor:
#      x y z
#    x 1.932670 0.000000 -0.047970 
#    y 0.000000 1.827930 0.000000 
#    z -0.047970 0.000000 1.993450 
# 
# From -- ./inp_files/48032.got.cif
#   From: 2010.05.17/outbox.cif.g08.bks.cpg/sg11_25_cif.got.tgz:48032.got - 2010.06.03 12:22:45.
