data_PCOD9160415
_publ_section_title
;
Structure prediction by ZEFSAII (Michael W. Deem and Ramdas Pophale) SiO2 
 PCOD9160415
Probable space group: P 21/M
;
_chemical_formula_sum "Si O2"
_cell_formula_units_Z 28
_cell_length_a 21.436250
_cell_length_b 15.237428
_cell_length_c 8.593010
_cell_angle_alpha 90.000000
_cell_angle_beta 29.076647
_cell_angle_gamma 90.000000
_cell_volume 1364.028613
_symmetry_space_group_name_H-M "P 21/M"
_symmetry_group_IT_number 11
_symmetry_cell_setting 'monoclinic'
loop_
_space_group_symop_operation_xyz
x,y,z
-x,1/2+y,-z
-x,-y,-z
x,1/2-y,z
loop_
_atom_site_type_symbol
_atom_site_label
_atom_site_fract_x
_atom_site_fract_y
_atom_site_fract_z
Si Si1 0.688989 0.456829 0.593849
Si Si2 0.195095 0.399679 0.167197
Si Si3 0.031455 0.842143 0.545309
Si Si4 0.742489 0.080800 0.129737
Si Si5 0.093983 0.988266 0.651325
Si Si6 0.530331 0.847750 0.315512
Si Si7 0.426575 0.354201 0.148259
O O1 0.744977 0.418653 0.311073
O O2 0.777476 0.450127 0.551516
O O3 0.561752 0.398836 0.903537
O O4 0.666980 0.562410 0.610744
O O5 0.134029 0.425605 0.467170
O O6 0.092405 0.345203 0.294884
O O7 0.209357 0.488739 0.039379
O O8 0.339263 0.365420 0.875905
O O9 0.034481 0.750000 0.625553
O O10 0.032424 0.921786 0.663118
O O11 0.158337 0.851845 0.162503
O O12 0.595204 0.092297 0.394788
O O13 0.000000 0.000000 0.000000
O O14 0.485078 0.750000 0.451051
O O15 0.568088 0.851438 0.051080
O O16 0.408200 0.250000 0.238171
#
# Coordination Sequence:
#
# PCOD9160415 Si02
#       7
#     4   4   4   4   4   4   4
#     4  10  19  37  62  88 122 162 209 253 313 375
#     4  11  21  39  62  87 121 166 205 251 307 378
#     4  11  24  42  62  91 126 160 209 265 310 370
#     4  10  21  38  64  87 123 164 203 249 316 384
#     4  11  22  40  64  89 118 165 208 252 311 381
#     4  10  19  35  59  90 120 156 207 257 306 365
#     4   9  19  35  58  88 123 162 205 259 310 367
#
# _framework density 20.527428
#
# number of rings (size 3 to 8) (size 9 to 14) (size 15 to 20)
#    0.000    1.714    1.429    4.714    0.000    1.143 
#    0.000    6.429    0.000    0.000    0.000    0.000 
#    0.000    0.000    0.000    0.000    0.000    0.000 
#
# Total GULP energy -156083.574202 kJ/mol
# GULP energy per Si atom -5574.413364 kJ/mol
# Density = 2.048071 g / cm^3
# Si number density = 20.527428 Si / 1000 Ang^3
#
#
#
# Elastic Constant Matrix: (Units=GPa)
#
#
# Indices 1 2 3 4 5 6 
#
# 1 102.7556 14.1342 26.9782 0.0000 -25.5280 0.0000
# 2 14.1342 87.6294 25.4815 0.0000 -9.0601 0.0000
# 3 26.9782 25.4815 63.1319 0.0000 -2.7347 0.0000
# 4 0.0000 0.0000 0.0000 364.9130 0.0000 -278.9435
# 5 -25.5280 -9.0601 -2.7347 0.0000 31.0410 0.0000
# 6 0.0000 0.0000 0.0000 -278.9435 0.0000 225.1702
#
#
#
# Elastic Compliance Matrix: (Units=1/GPa)
#
#
# Indices 1 2 3 4 5 6 
#
# 1 0.013905 0.000558 -0.005687 0.000000 0.011097 0.000000
# 2 0.000558 0.013303 -0.005441 0.000000 0.003863 0.000000
# 3 -0.005687 -0.005441 0.020272 0.000000 -0.004479 0.000000
# 4 0.000000 0.000000 0.000000 0.051667 0.000000 0.064006
# 5 0.011097 0.003863 -0.004479 0.000000 0.042075 0.000000
# 6 0.000000 0.000000 0.000000 0.064006 0.000000 0.083733
#
#
# Mechanical properties :
#
#
# Convention : Reuss Voigt Hill
#
# Bulk Modulus (GPa) = 37.96254 42.96721 40.46487
# Shear Modulus (GPa) = 19.61760 136.68639 78.15200
#
# Velocity S-wave (km/s) = 3.09476 8.16895 6.17694
# Velocity P-wave (km/s) = 5.59497 10.48583 8.40406
#
# Compressibility (1/GPa) = 0.02634176
#
# Stress axis : x y z
#
# Youngs Moduli (GPa) = 71.91654 75.17058 49.32945
#
# Poissons Ratio (x) = -0.04196 0.28052
# Poissons Ratio (y) = -0.04014 0.26838
# Poissons Ratio (z) = 0.40896 0.40898
#
# Static dielectric constant tensor:
#      x y z
#    x 1.723390 0.000000 -0.024630 
#    y 0.000000 1.776820 0.000000 
#    z -0.024630 0.000000 1.762120 
# 
# From -- ./inp_files/26914.got.cif
#   From: 2010.05.17/outbox.cif.g08.bks.cpg/sg11_14_cif.got.tgz:26914.got - 2010.06.03 12:22:45.
