data_PCOD9160339
_publ_section_title
;
Structure prediction by ZEFSAII (Michael W. Deem and Ramdas Pophale) SiO2 
 PCOD9160339
Probable space group: P 21/M
;
_chemical_formula_sum "Si O2"
_cell_formula_units_Z 32
_cell_length_a 12.403097
_cell_length_b 7.978294
_cell_length_c 29.838655
_cell_angle_alpha 90.000000
_cell_angle_beta 149.531343
_cell_angle_gamma 90.000000
_cell_volume 1497.216890
_symmetry_space_group_name_H-M "P 21/M"
_symmetry_group_IT_number 11
_symmetry_cell_setting 'monoclinic'
loop_
_space_group_symop_operation_xyz
x,y,z
-x,1/2+y,-z
-x,-y,-z
x,1/2-y,z
loop_
_atom_site_type_symbol
_atom_site_label
_atom_site_fract_x
_atom_site_fract_y
_atom_site_fract_z
Si Si1 0.849089 0.944015 0.986626
Si Si2 0.525744 0.949068 0.305985
Si Si3 0.400936 0.549704 0.416693
Si Si4 0.045835 0.951064 0.784927
Si Si5 0.200067 0.547809 0.675347
Si Si6 0.946135 0.945504 0.848169
Si Si7 0.625596 0.044456 0.168466
Si Si8 0.238360 0.045732 0.523750
O O1 0.813077 0.750000 0.964567
O O2 0.962075 0.966831 0.074948
O O3 0.612466 0.019493 0.907429
O O4 0.000000 0.000000 0.000000
O O5 0.493617 0.750000 0.299370
O O6 0.707561 0.004077 0.406249
O O7 0.603264 0.989458 0.284182
O O8 0.307648 0.037330 0.240421
O O9 0.500000 0.500000 0.500000
O O10 0.391998 0.750000 0.411841
O O11 0.566489 0.491976 0.437802
O O12 0.166349 0.485970 0.320186
O O13 0.060813 0.750000 0.793875
O O14 0.020054 0.015678 0.826477
O O15 0.253822 0.013036 0.833041
O O16 0.196227 0.750000 0.672899
O O17 0.231041 0.496892 0.737568
O O18 0.982981 0.483468 0.575465
O O19 0.005076 0.750000 0.872266
O O20 0.619803 0.250000 0.164403
O O21 0.231196 0.250000 0.519983
#
# Coordination Sequence:
#
# PCOD9160339 Si02
#       8
#     4   4   4   4   4   4   4   4
#     4  11  23  41  66  94 124 159 199 244 299 362
#     4  11  21  36  56  83 119 156 198 247 299 356
#     4  11  21  36  57  84 119 160 205 248 298 353
#     4  10  21  40  63  87 117 157 203 247 297 359
#     4  10  19  35  58  83 114 155 198 244 300 359
#     4  11  23  39  62  90 120 157 202 252 303 358
#     4   9  20  39  62  86 117 155 196 241 300 359
#     4   9  19  34  54  80 115 156 196 241 298 358
#
# _framework density 21.372986999999998
#
# number of rings (size 3 to 8) (size 9 to 14) (size 15 to 20)
#    0.000    1.750    1.250    3.375    0.000    4.000 
#    0.000    5.625    0.000    0.000    0.000    0.000 
#    0.000    0.000    0.000    0.000    0.000    0.000 
#
# Total GULP energy -178777.198137 kJ/mol
# GULP energy per Si atom -5586.787442 kJ/mol
# Density = 2.132434 g / cm^3
# Si number density = 21.372987 Si / 1000 Ang^3
#
#
#
# Elastic Constant Matrix: (Units=GPa)
#
#
# Indices 1 2 3 4 5 6 
#
# 1 165.5113 2.7078 45.6958 0.0000 10.6247 0.0000
# 2 2.7078 19.1996 -9.8458 0.0000 3.9673 0.0000
# 3 45.6958 -9.8458 75.8081 0.0000 6.9349 0.0000
# 4 0.0000 0.0000 0.0000 12.0354 0.0000 1.3058
# 5 10.6247 3.9673 6.9349 0.0000 33.9684 0.0000
# 6 0.0000 0.0000 0.0000 1.3058 0.0000 12.0433
#
#
#
# Elastic Compliance Matrix: (Units=1/GPa)
#
#
# Indices 1 2 3 4 5 6 
#
# 1 0.007503 -0.003358 -0.004871 0.000000 -0.000960 0.000000
# 2 -0.003358 0.059609 0.010503 0.000000 -0.008056 0.000000
# 3 -0.004871 0.010503 0.017797 0.000000 -0.003336 0.000000
# 4 0.000000 0.000000 0.000000 0.084077 0.000000 -0.009116
# 5 -0.000960 -0.008056 -0.003336 0.000000 0.031362 0.000000
# 6 0.000000 0.000000 0.000000 -0.009116 0.000000 0.084022
#
#
# Mechanical properties :
#
#
# Convention : Reuss Voigt Hill
#
# Bulk Modulus (GPa) = 11.17862 37.51496 24.34679
# Shear Modulus (GPa) = 16.14776 26.40684 21.27730
#
# Velocity S-wave (km/s) = 2.75166 3.51882 3.15861
# Velocity P-wave (km/s) = 3.91626 5.83952 4.97178
#
# Compressibility (1/GPa) = 0.08945650
#
# Stress axis : x y z
#
# Youngs Moduli (GPa) = 133.27429 16.77609 56.19013
#
# Poissons Ratio (x) = 0.05633 0.27371
# Poissons Ratio (y) = 0.44751 -0.59016
# Poissons Ratio (z) = 0.64920 -0.17620
#
# Static dielectric constant tensor:
#      x y z
#    x 1.775400 0.000000 0.001280 
#    y 0.000000 1.755480 0.000000 
#    z 0.001280 0.000000 1.772480 
# 
# From -- ./inp_files/38205.got.cif
#   From: 2010.05.17/outbox.cif.g08.bks.cpg/sg11_20_cif.got.tgz:38205.got - 2010.06.03 12:22:45.
