data_PCOD9160376
_publ_section_title
;
Structure prediction by ZEFSAII (Michael W. Deem and Ramdas Pophale) SiO2 
 PCOD9160376
Probable space group: P 21/M
;
_chemical_formula_sum "Si O2"
_cell_formula_units_Z 26
_cell_length_a 7.890687
_cell_length_b 18.551795
_cell_length_c 10.023925
_cell_angle_alpha 90.000000
_cell_angle_beta 135.104610
_cell_angle_gamma 90.000000
_cell_volume 1035.688572
_symmetry_space_group_name_H-M "P 21/M"
_symmetry_group_IT_number 11
_symmetry_cell_setting 'monoclinic'
loop_
_space_group_symop_operation_xyz
x,y,z
-x,1/2+y,-z
-x,-y,-z
x,1/2-y,z
loop_
_atom_site_type_symbol
_atom_site_label
_atom_site_fract_x
_atom_site_fract_y
_atom_site_fract_z
Si Si1 0.591709 0.634038 0.445311
Si Si2 0.360290 0.834847 0.602597
Si Si3 0.635082 0.389096 0.120650
Si Si4 0.937395 0.965287 0.753586
Si Si5 0.985379 0.250000 0.331295
Si Si6 0.161002 0.331121 0.794202
Si Si7 0.922751 0.387109 0.908111
O O1 0.490235 0.655376 0.535195
O O2 0.718498 0.556502 0.536080
O O3 0.803800 0.687879 0.527971
O O4 0.352352 0.636136 0.223431
O O5 0.381722 0.750000 0.652637
O O6 0.436968 0.887137 0.763313
O O7 0.076928 0.848027 0.421771
O O8 0.809590 0.453690 0.178797
O O9 0.788503 0.315082 0.191130
O O10 0.385734 0.382847 0.903907
O O11 0.910364 0.041768 0.808012
O O12 0.954290 0.908050 0.885524
O O13 0.233486 0.250000 0.802170
O O14 0.068928 0.332588 0.897073
#
# Coordination Sequence:
#
# PCOD9160376 Si02
#       7
#     4   4   4   4   2   4   4
#     4  10  20  38  61  86 113 158 194 242 288 349
#     4  10  19  35  59  82 118 152 189 237 289 347
#     4  11  21  37  55  88 120 151 183 245 291 345
#     4  10  23  39  59  87 120 155 197 242 294 339
#     4  10  20  34  56  88 118 142 192 236 296 336
#     4  10  21  38  60  85 116 154 196 235 293 346
#     4  10  22  42  61  84 116 159 202 241 281 353
#
# _framework density 25.104071000000001
#
# number of rings (size 3 to 8) (size 9 to 14) (size 15 to 20)
#    0.000    1.846    2.308    1.385    1.077    3.077 
#    5.538    3.077    0.000    0.000    0.000    0.000 
#    0.000    0.000    0.000    0.000    0.000    0.000 
#
# Total GULP energy -145017.453560 kJ/mol
# GULP energy per Si atom -5577.594368 kJ/mol
# Density = 2.504693 g / cm^3
# Si number density = 25.104071 Si / 1000 Ang^3
#
#
#
# Elastic Constant Matrix: (Units=GPa)
#
#
# Indices 1 2 3 4 5 6 
#
# 1 84.2353 10.2928 24.6800 0.0000 5.2599 0.0000
# 2 10.2928 47.2379 16.7761 0.0000 6.3434 0.0000
# 3 24.6800 16.7761 64.8984 0.0000 37.8096 0.0000
# 4 0.0000 0.0000 0.0000 15.9568 0.0000 1.5259
# 5 5.2599 6.3434 37.8096 0.0000 51.9967 0.0000
# 6 0.0000 0.0000 0.0000 1.5259 0.0000 25.6055
#
#
#
# Elastic Compliance Matrix: (Units=1/GPa)
#
#
# Indices 1 2 3 4 5 6 
#
# 1 0.013912 -0.000939 -0.007451 0.000000 0.004125 0.000000
# 2 -0.000939 0.023588 -0.007147 0.000000 0.002414 0.000000
# 3 -0.007451 -0.007147 0.033213 0.000000 -0.022525 0.000000
# 4 0.000000 0.000000 0.000000 0.063028 0.000000 -0.003756
# 5 0.004125 0.002414 -0.022525 0.000000 0.034899 0.000000
# 6 0.000000 0.000000 0.000000 -0.003756 0.000000 0.039278
#
#
# Mechanical properties :
#
#
# Convention : Reuss Voigt Hill
#
# Bulk Modulus (GPa) = 25.22801 33.31881 29.27341
# Shear Modulus (GPa) = 19.82513 28.35331 24.08922
#
# Velocity S-wave (km/s) = 2.81324 3.36435 3.10106
# Velocity P-wave (km/s) = 4.54132 5.32849 4.95058
#
# Compressibility (1/GPa) = 0.03963849
#
# Stress axis : x y z
#
# Youngs Moduli (GPa) = 71.88171 42.39441 30.10885
#
# Poissons Ratio (x) = 0.03981 0.22435
# Poissons Ratio (y) = 0.06750 0.21518
# Poissons Ratio (z) = 0.53560 0.30299
#
# Static dielectric constant tensor:
#      x y z
#    x 2.062980 0.000000 -0.033130 
#    y 0.000000 1.950950 0.000000 
#    z -0.033130 0.000000 1.978560 
# 
# From -- ./inp_files/19316.got.cif
#   From: 2010.05.17/outbox.cif.g08.bks.cpg/sg11_10_cif.got.tgz:19316.got - 2010.06.03 12:22:45.
