data_PCOD9160314
_publ_section_title
;
Structure prediction by ZEFSAII (Michael W. Deem and Ramdas Pophale) SiO2 
 PCOD9160314
Probable space group: P 21/M
;
_chemical_formula_sum "Si O2"
_cell_formula_units_Z 24
_cell_length_a 9.526676
_cell_length_b 14.995551
_cell_length_c 16.183657
_cell_angle_alpha 90.000000
_cell_angle_beta 36.784308
_cell_angle_gamma 90.000000
_cell_volume 1384.412080
_symmetry_space_group_name_H-M "P 21/M"
_symmetry_group_IT_number 11
_symmetry_cell_setting 'monoclinic'
loop_
_space_group_symop_operation_xyz
x,y,z
-x,1/2+y,-z
-x,-y,-z
x,1/2-y,z
loop_
_atom_site_type_symbol
_atom_site_label
_atom_site_fract_x
_atom_site_fract_y
_atom_site_fract_z
Si Si1 0.246960 0.644453 0.370006
Si Si2 0.522680 0.502280 0.627701
Si Si3 0.887390 0.506799 0.304829
Si Si4 0.299831 0.355246 0.333734
Si Si5 0.717838 0.144230 0.839794
Si Si6 0.255712 0.355449 0.163056
O O1 0.283420 0.750000 0.366065
O O2 0.403313 0.585299 0.356468
O O3 0.295995 0.623243 0.251142
O O4 0.973014 0.625229 0.516851
O O5 0.714656 0.516100 0.464776
O O6 0.274177 0.494017 0.699869
O O7 0.543443 0.584178 0.681339
O O8 0.074599 0.586396 0.219399
O O9 0.035000 0.416066 0.244828
O O10 0.339213 0.250000 0.329203
O O11 0.330239 0.374581 0.222432
O O12 0.766076 0.250000 0.824697
O O13 0.473173 0.125500 0.000449
O O14 0.199353 0.250000 0.185189
#
# Coordination Sequence:
#
# PCOD9160314 Si02
#       6
#     4   4   4   4   4   4
#     4  10  19  35  58  80 105 143 186 223 261 312
#     4  11  22  34  54  84 116 140 175 226 271 321
#     4  11  22  35  54  83 114 145 174 220 279 321
#     4  10  19  35  58  80 105 143 186 223 261 312
#     4  10  21  38  59  81 107 142 184 225 265 317
#     4  10  21  38  59  81 107 142 184 225 265 317
#
# _framework density 17.335878000000001
#
# number of rings (size 3 to 8) (size 9 to 14) (size 15 to 20)
#    0.000    1.667    3.333    2.000    0.000    1.333 
#    0.000    6.667    0.000    6.000    0.000    0.000 
#    0.000    0.000    0.000    0.000    0.000    0.000 
#
# Total GULP energy -134051.960629 kJ/mol
# GULP energy per Si atom -5585.498360 kJ/mol
# Density = 1.729642 g / cm^3
# Si number density = 17.335878 Si / 1000 Ang^3
#
#
#
# Elastic Constant Matrix: (Units=GPa)
#
#
# Indices 1 2 3 4 5 6 
#
# 1 99.2838 29.0923 -12.3969 0.0000 3.8444 0.0000
# 2 29.0923 34.4064 -19.8278 0.0000 -1.6115 0.0000
# 3 -12.3969 -19.8278 32.9818 0.0000 17.7079 0.0000
# 4 0.0000 0.0000 0.0000 12.2971 0.0000 8.4478
# 5 3.8444 -1.6115 17.7079 0.0000 23.8726 0.0000
# 6 0.0000 0.0000 0.0000 8.4478 0.0000 0.3407
#
#
#
# Elastic Compliance Matrix: (Units=1/GPa)
#
#
# Indices 1 2 3 4 5 6 
#
# 1 0.013606 -0.012174 -0.000975 0.000000 -0.002289 0.000000
# 2 -0.012174 0.070398 0.056738 0.000000 -0.035373 0.000000
# 3 -0.000975 0.056738 0.102903 0.000000 -0.072343 0.000000
# 4 0.000000 0.000000 0.000000 -0.005073 0.000000 0.125759
# 5 -0.002289 -0.035373 -0.072343 0.000000 0.093532 0.000000
# 6 0.000000 0.000000 0.000000 0.125759 0.000000 -0.183062
#
#
# Mechanical properties :
#
#
# Convention : Reuss Voigt Hill
#
# Bulk Modulus (GPa) = 3.64851 17.82304 10.73577
# Shear Modulus (GPa) = 51.81904 18.62238 35.22071
#
# Velocity S-wave (km/s) = 5.47322 3.28107 4.51229
# Velocity P-wave (km/s) = 6.48465 4.96560 5.77529
#
# Compressibility (1/GPa) = 0.27408436
#
# Stress axis : x y z
#
# Youngs Moduli (GPa) = 73.49549 14.20490 9.71785
#
# Poissons Ratio (x) = 0.17293 0.00948
# Poissons Ratio (y) = 0.89474 -0.55137
# Poissons Ratio (z) = 0.07168 -0.80595
#
# Static dielectric constant tensor:
#      x y z
#    x 1.547370 0.000000 0.016760 
#    y 0.000000 1.600280 0.000000 
#    z 0.016760 0.000000 1.578440 
# 
# From -- ./inp_files/12439.got.cif
#   From: 2010.05.17/outbox.cif.g08.bks.cpg/sg11_7_cif.got.tgz:12439.got - 2010.06.03 12:22:45.
