data_PCOD9160889
_publ_section_title
;
Structure prediction by ZEFSAII (Michael W. Deem and Ramdas Pophale) SiO2 
 PCOD9160889
Probable space group: P 21/M
;
_chemical_formula_sum "Si O2"
_cell_formula_units_Z 28
_cell_length_a 15.202918
_cell_length_b 12.031511
_cell_length_c 9.771336
_cell_angle_alpha 90.000000
_cell_angle_beta 125.917037
_cell_angle_gamma 90.000000
_cell_volume 1447.487785
_symmetry_space_group_name_H-M "P 21/M"
_symmetry_group_IT_number 11
_symmetry_cell_setting 'monoclinic'
loop_
_space_group_symop_operation_xyz
x,y,z
-x,1/2+y,-z
-x,-y,-z
x,1/2-y,z
loop_
_atom_site_type_symbol
_atom_site_label
_atom_site_fract_x
_atom_site_fract_y
_atom_site_fract_z
Si Si1 0.792240 0.881748 0.759469
Si Si2 0.190165 0.376729 0.636210
Si Si3 0.553726 0.124198 0.520710
Si Si4 0.204012 0.025211 0.934563
Si Si5 0.011782 0.381405 0.249369
Si Si6 0.636208 0.521671 0.387688
Si Si7 0.400309 0.625579 0.136769
O O1 0.796853 0.750000 0.761293
O O2 0.904585 0.922061 0.791969
O O3 0.695674 0.917691 0.570062
O O4 0.777782 0.920305 0.900961
O O5 0.225100 0.250000 0.634158
O O6 0.180899 0.391457 0.789236
O O7 0.078310 0.395303 0.451995
O O8 0.278085 0.461844 0.654776
O O9 0.500414 0.250000 0.466133
O O10 0.625315 0.131952 0.723050
O O11 0.500000 0.000000 0.500000
O O12 0.609896 0.099418 0.426541
O O13 0.100409 0.945407 0.852188
O O14 0.311918 0.956320 0.995957
O O15 0.992620 0.250000 0.212709
O O16 0.523207 0.579815 0.242464
O O17 0.395132 0.750000 0.075804
#
# Coordination Sequence:
#
# PCOD9160889 Si02
#       7
#     4   4   4   4   4   4   4
#     4  10  20  35  58  84 111 147 198 246 292 351
#     4  10  22  39  59  80 112 155 200 245 296 357
#     4   9  18  34  56  87 118 153 197 245 291 344
#     4  12  21  34  55  88 115 143 190 246 307 343
#     4   9  20  39  59  77 105 152 195 238 301 370
#     4  10  19  39  58  81 112 163 196 228 283 353
#     4  10  20  34  56  84 118 152 189 236 297 354
#
# _framework density 19.343858999999998
#
# number of rings (size 3 to 8) (size 9 to 14) (size 15 to 20)
#    0.000    2.000    1.429    3.857    0.000    1.714 
#    0.000    2.143    0.000    3.429    0.000    0.000 
#    0.000    0.000    0.000    0.000    0.000    0.000 
#
# Total GULP energy -155886.193196 kJ/mol
# GULP energy per Si atom -5567.364043 kJ/mol
# Density = 1.929983 g / cm^3
# Si number density = 19.343859 Si / 1000 Ang^3
#
#
#
# Elastic Constant Matrix: (Units=GPa)
#
#
# Indices 1 2 3 4 5 6 
#
# 1 63.3139 16.0677 26.5987 0.0000 11.7918 0.0000
# 2 16.0677 78.1273 18.8190 0.0000 2.0307 0.0000
# 3 26.5987 18.8190 69.7747 0.0000 -7.5753 0.0000
# 4 0.0000 0.0000 0.0000 281.4217 0.0000 -64.3980
# 5 11.7918 2.0307 -7.5753 0.0000 27.8480 0.0000
# 6 0.0000 0.0000 0.0000 -64.3980 0.0000 42.6255
#
#
#
# Elastic Compliance Matrix: (Units=1/GPa)
#
#
# Indices 1 2 3 4 5 6 
#
# 1 0.022429 -0.002069 -0.009281 0.000000 -0.011871 0.000000
# 2 -0.002069 0.013996 -0.003093 0.000000 -0.000986 0.000000
# 3 -0.009281 -0.003093 0.019738 0.000000 0.009525 0.000000
# 4 0.000000 0.000000 0.000000 0.005431 0.000000 0.008205
# 5 -0.011871 -0.000986 0.009525 0.000000 0.043599 0.000000
# 6 0.000000 0.000000 0.000000 0.008205 0.000000 0.035856
#
#
# Mechanical properties :
#
#
# Convention : Reuss Voigt Hill
#
# Bulk Modulus (GPa) = 36.66061 37.13183 36.89622
# Shear Modulus (GPa) = 27.92862 80.36107 54.14485
#
# Velocity S-wave (km/s) = 3.80386 6.45241 5.29637
# Velocity P-wave (km/s) = 6.18754 8.64574 7.51780
#
# Compressibility (1/GPa) = 0.02727723
#
# Stress axis : x y z
#
# Youngs Moduli (GPa) = 44.58454 71.45009 50.66300
#
# Poissons Ratio (x) = 0.14781 0.47021
# Poissons Ratio (y) = 0.09223 0.15671
# Poissons Ratio (z) = 0.41379 0.22102
#
# Static dielectric constant tensor:
#      x y z
#    x 1.754410 0.000000 -0.022090 
#    y 0.000000 1.685800 0.000000 
#    z -0.022090 0.000000 1.666720 
# 
# From -- ./inp_files/21609.got.cif
#   From: 2010.05.17/outbox.cif.g08.bks.cpg/sg11_11_cif.got.tgz:21609.got - 2010.06.03 12:22:45.
