data_PCOD9160265
_publ_section_title
;
Structure prediction by ZEFSAII (Michael W. Deem and Ramdas Pophale) SiO2 
 PCOD9160265
Probable space group: P 21/M
;
_chemical_formula_sum "Si O2"
_cell_formula_units_Z 32
_cell_length_a 8.358178
_cell_length_b 22.115515
_cell_length_c 15.227803
_cell_angle_alpha 90.000000
_cell_angle_beta 142.292769
_cell_angle_gamma 90.000000
_cell_volume 1721.600954
_symmetry_space_group_name_H-M "P 21/M"
_symmetry_group_IT_number 11
_symmetry_cell_setting 'monoclinic'
loop_
_space_group_symop_operation_xyz
x,y,z
-x,1/2+y,-z
-x,-y,-z
x,1/2-y,z
loop_
_atom_site_type_symbol
_atom_site_label
_atom_site_fract_x
_atom_site_fract_y
_atom_site_fract_z
Si Si1 0.730256 0.819180 0.238278
Si Si2 0.722147 0.181028 0.097762
Si Si3 0.266725 0.034504 0.128638
Si Si4 0.073775 0.032569 0.411968
Si Si5 0.691145 0.559986 0.311480
Si Si6 0.663939 0.180142 0.462993
Si Si7 0.628292 0.133938 0.247180
Si Si8 0.792104 0.590515 0.707981
O O1 0.685028 0.750000 0.247992
O O2 0.548019 0.828859 0.073561
O O3 0.646965 0.871036 0.269640
O O4 0.045225 0.826193 0.369829
O O5 0.808743 0.250000 0.116692
O O6 0.668922 0.174032 0.178702
O O7 0.946639 0.132463 0.169539
O O8 0.351982 0.098073 0.121821
O O9 0.273655 0.053116 0.233684
O O10 0.469730 0.984678 0.182114
O O11 0.000000 0.000000 0.000000
O O12 0.847902 0.081547 0.336473
O O13 0.291906 0.047774 0.577942
O O14 0.161955 0.045208 0.352459
O O15 0.957403 0.966658 0.383647
O O16 0.585259 0.250000 0.439399
O O17 0.664318 0.165233 0.357807
O O18 0.451477 0.135552 0.412820
#
# Coordination Sequence:
#
# PCOD9160265 Si02
#       8
#     4   4   4   4   4   4   4   4
#     4  10  21  36  58  83 110 146 187 227 277 329
#     4  10  20  36  58  81 111 149 188 230 272 331
#     4  10  21  35  53  80 114 144 178 229 287 331
#     4   9  19  34  57  82 104 140 188 226 273 322
#     4  10  19  37  57  77 111 146 182 230 272 333
#     4  10  19  35  57  80 112 145 181 232 277 323
#     4   9  18  35  56  81 106 142 193 221 265 338
#     4  10  21  36  54  86 111 140 190 229 280 335
#
# _framework density 18.587351000000002
#
# number of rings (size 3 to 8) (size 9 to 14) (size 15 to 20)
#    0.000    2.250    1.250    1.500    1.750    1.500 
#    2.250    4.375    0.000    0.750    0.000    0.000 
#    0.000    0.000    0.000    0.000    0.000    0.000 
#
# Total GULP energy -178216.695956 kJ/mol
# GULP energy per Si atom -5569.271749 kJ/mol
# Density = 1.854505 g / cm^3
# Si number density = 18.587351 Si / 1000 Ang^3
#
#
#
# Elastic Constant Matrix: (Units=GPa)
#
#
# Indices 1 2 3 4 5 6 
#
# 1 50.7046 18.6947 2.4020 0.0000 -2.7154 0.0000
# 2 18.6947 83.5938 26.2241 0.0000 -3.0274 0.0000
# 3 2.4020 26.2241 63.4241 0.0000 12.9825 0.0000
# 4 0.0000 0.0000 0.0000 22.3283 0.0000 1.5366
# 5 -2.7154 -3.0274 12.9825 0.0000 18.4587 0.0000
# 6 0.0000 0.0000 0.0000 1.5366 0.0000 22.1130
#
#
#
# Elastic Compliance Matrix: (Units=1/GPa)
#
#
# Indices 1 2 3 4 5 6 
#
# 1 0.021638 -0.005069 0.000929 0.000000 0.001699 0.000000
# 2 -0.005069 0.015831 -0.007865 0.000000 0.007382 0.000000
# 3 0.000929 -0.007865 0.022452 0.000000 -0.016944 0.000000
# 4 0.000000 0.000000 0.000000 0.045001 0.000000 -0.003127
# 5 0.001699 0.007382 -0.016944 0.000000 0.067553 0.000000
# 6 0.000000 0.000000 0.000000 -0.003127 0.000000 0.045439
#
#
# Mechanical properties :
#
#
# Convention : Reuss Voigt Hill
#
# Bulk Modulus (GPa) = 27.84676 32.48491 30.16584
# Shear Modulus (GPa) = 19.69320 22.60677 21.14999
#
# Velocity S-wave (km/s) = 3.25852 3.49125 3.37689
# Velocity P-wave (km/s) = 5.40105 5.81091 5.60972
#
# Compressibility (1/GPa) = 0.03591082
#
# Stress axis : x y z
#
# Youngs Moduli (GPa) = 46.21512 63.16804 44.53956
#
# Poissons Ratio (x) = 0.32019 -0.04136
# Poissons Ratio (y) = 0.23426 0.35029
# Poissons Ratio (z) = -0.04292 0.49680
#
# Static dielectric constant tensor:
#      x y z
#    x 1.635550 0.000000 0.036260 
#    y 0.000000 1.647780 0.000000 
#    z 0.036260 0.000000 1.673840 
# 
# From -- ./inp_files/48285.got.cif
#   From: 2010.05.17/outbox.cif.g08.bks.cpg/sg11_25_cif.got.tgz:48285.got - 2010.06.03 12:22:45.
