data_PCOD9160922
_publ_section_title
;
Structure prediction by ZEFSAII (Michael W. Deem and Ramdas Pophale) SiO2 
 PCOD9160922
Probable space group: P 21/M
;
_chemical_formula_sum "Si O2"
_cell_formula_units_Z 26
_cell_length_a 7.737818
_cell_length_b 20.225274
_cell_length_c 9.603037
_cell_angle_alpha 90.000000
_cell_angle_beta 55.018799
_cell_angle_gamma 90.000000
_cell_volume 1231.362112
_symmetry_space_group_name_H-M "P 21/M"
_symmetry_group_IT_number 11
_symmetry_cell_setting 'monoclinic'
loop_
_space_group_symop_operation_xyz
x,y,z
-x,1/2+y,-z
-x,-y,-z
x,1/2-y,z
loop_
_atom_site_type_symbol
_atom_site_label
_atom_site_fract_x
_atom_site_fract_y
_atom_site_fract_z
Si Si1 0.134057 0.378934 0.920711
Si Si2 0.196823 0.250000 0.748380
Si Si3 0.809210 0.049752 0.578411
Si Si4 0.713828 0.104602 0.925962
Si Si5 0.613536 0.485588 0.215470
Si Si6 0.169843 0.625850 0.698577
Si Si7 0.680429 0.250000 0.989963
Si Si8 0.458218 0.750000 0.627368
O O1 0.260717 0.317416 0.797761
O O2 0.256790 0.447659 0.876324
O O3 0.937613 0.391236 0.905449
O O4 0.035055 0.357807 0.114294
O O5 0.308225 0.250000 0.546298
O O6 0.939611 0.250000 0.871170
O O7 0.750678 0.076064 0.757431
O O8 0.606371 0.009165 0.620957
O O9 0.866775 0.106639 0.442986
O O10 0.000000 0.000000 0.500000
O O11 0.624123 0.178787 0.953623
O O12 0.581058 0.057165 0.089353
O O13 0.736516 0.438280 0.264849
O O14 0.335302 0.685020 0.632981
O O15 0.577344 0.250000 0.190738
#
# Coordination Sequence:
#
# PCOD9160922 Si02
#       8
#     4   2   4   4   4   4   2   2
#     4  10  19  40  63  90 120 163 215 255 314 371
#     4  10  20  34  63  94 121 160 203 264 315 364
#     4  12  25  38  57  94 133 161 209 266 321 375
#     4  10  21  40  63  87 127 169 196 265 323 370
#     4  11  21  38  64  87 120 170 214 250 313 377
#     4  11  22  39  65  94 124 161 212 269 302 373
#     4  10  20  43  62  90 130 160 215 257 316 379
#     4  12  20  39  67  96 121 162 218 265 303 375
#
# _framework density 21.114829
#
# number of rings (size 3 to 8) (size 9 to 14) (size 15 to 20)
#    0.000    1.231    4.615    5.538    0.000    3.077 
#    0.000    0.769    0.000    3.692    0.000    0.000 
#    0.000    0.000    0.000    0.000    0.000    0.000 
#
# Total GULP energy -145261.894856 kJ/mol
# GULP energy per Si atom -5586.995956 kJ/mol
# Density = 2.106677 g / cm^3
# Si number density = 21.114829 Si / 1000 Ang^3
#
#
#
# Elastic Constant Matrix: (Units=GPa)
#
#
# Indices 1 2 3 4 5 6 
#
# 1 10.1278 -6.1986 10.4297 0.0000 -3.3974 0.0000
# 2 -6.1986 111.1559 29.6413 0.0000 -0.7061 0.0000
# 3 10.4297 29.6413 135.5073 0.0000 2.3535 0.0000
# 4 0.0000 0.0000 0.0000 57.3660 0.0000 -13.4379
# 5 -3.3974 -0.7061 2.3535 0.0000 30.4204 0.0000
# 6 0.0000 0.0000 0.0000 -13.4379 0.0000 29.6946
#
#
#
# Elastic Compliance Matrix: (Units=1/GPa)
#
#
# Indices 1 2 3 4 5 6 
#
# 1 0.122061 0.010061 -0.011852 0.000000 0.014782 0.000000
# 2 0.010061 0.010387 -0.003074 0.000000 0.001603 0.000000
# 3 -0.011852 -0.003074 0.009001 0.000000 -0.002091 0.000000
# 4 0.000000 0.000000 0.000000 0.019499 0.000000 0.008824
# 5 0.014782 0.001603 -0.002091 0.000000 0.034723 0.000000
# 6 0.000000 0.000000 0.000000 0.008824 0.000000 0.037669
#
#
# Mechanical properties :
#
#
# Convention : Reuss Voigt Hill
#
# Bulk Modulus (GPa) = 7.59198 36.05951 21.82574
# Shear Modulus (GPa) = 17.42301 38.35744 27.89022
#
# Velocity S-wave (km/s) = 2.87567 4.26680 3.63834
# Velocity P-wave (km/s) = 3.82483 6.43342 5.29237
#
# Compressibility (1/GPa) = 0.13171796
#
# Stress axis : x y z
#
# Youngs Moduli (GPa) = 8.19264 96.26999 111.10185
#
# Poissons Ratio (x) = -0.96859 1.31681
# Poissons Ratio (y) = -0.08243 0.34157
# Poissons Ratio (z) = 0.09710 0.29597
#
# Static dielectric constant tensor:
#      x y z
#    x 1.638340 0.000000 0.144760 
#    y 0.000000 1.773320 0.000000 
#    z 0.144760 0.000000 1.584520 
# 
# From -- ./inp_files/14262.got.cif
#   From: 2010.05.17/outbox.cif.g08.bks.cpg/sg11_8_cif.got.tgz:14262.got - 2010.06.03 12:22:45.
