data_PCOD9160571
_publ_section_title
;
Structure prediction by ZEFSAII (Michael W. Deem and Ramdas Pophale) SiO2 
 PCOD9160571
Probable space group: P 21/M
;
_chemical_formula_sum "Si O2"
_cell_formula_units_Z 28
_cell_length_a 9.782125
_cell_length_b 8.209243
_cell_length_c 27.910154
_cell_angle_alpha 90.000000
_cell_angle_beta 40.343420
_cell_angle_gamma 90.000000
_cell_volume 1450.940106
_symmetry_space_group_name_H-M "P 21/M"
_symmetry_group_IT_number 11
_symmetry_cell_setting 'monoclinic'
loop_
_space_group_symop_operation_xyz
x,y,z
-x,1/2+y,-z
-x,-y,-z
x,1/2-y,z
loop_
_atom_site_type_symbol
_atom_site_label
_atom_site_fract_x
_atom_site_fract_y
_atom_site_fract_z
Si Si1 0.071814 0.561747 0.428700
Si Si2 0.269469 0.566376 0.550822
Si Si3 0.109629 0.063549 0.688084
Si Si4 0.526974 0.051186 0.742256
Si Si5 0.363194 0.945893 0.081656
Si Si6 0.348433 0.058990 0.186752
Si Si7 0.125065 0.052521 0.789267
O O1 0.121636 0.750000 0.422066
O O2 0.276223 0.494572 0.344442
O O3 0.000000 0.500000 0.500000
O O4 0.871328 0.537510 0.447616
O O5 0.500000 0.500000 0.500000
O O6 0.276685 0.750000 0.530490
O O7 0.162126 0.554460 0.631123
O O8 0.174609 0.250000 0.659774
O O9 0.198424 0.011339 0.715658
O O10 0.858479 0.054482 0.759970
O O11 0.536135 0.250000 0.742120
O O12 0.304379 0.000500 0.778271
O O13 0.544013 0.983933 0.791597
O O14 0.363244 0.750000 0.085117
O O15 0.117765 0.002494 0.139988
O O16 0.452902 0.019268 0.107535
O O17 0.500000 0.000000 0.000000
O O18 0.292677 0.250000 0.201967
O O19 0.118331 0.250000 0.792518
#
# Coordination Sequence:
#
# PCOD9160571 Si02
#       7
#     4   4   4   4   4   4   4
#     4  11  24  40  60  85 119 159 201 250 307 362
#     4  12  25  40  58  82 114 151 199 252 305 361
#     4  10  19  36  59  83 111 148 194 244 296 349
#     4  10  20  38  61  84 115 157 197 240 294 353
#     4  10  20  38  63  90 121 153 191 240 292 351
#     4  11  21  35  58  87 117 154 195 235 284 346
#     4   8  18  35  59  87 114 148 190 236 288 345
#
# _framework density 19.297833000000001
#
# number of rings (size 3 to 8) (size 9 to 14) (size 15 to 20)
#    0.000    1.714    1.429    4.714    2.000    0.571 
#    0.000    5.000    0.000    0.000    0.000    0.000 
#    0.000    0.000    0.000    0.000    0.000    0.000 
#
# Total GULP energy -156132.963843 kJ/mol
# GULP energy per Si atom -5576.177280 kJ/mol
# Density = 1.925391 g / cm^3
# Si number density = 19.297833 Si / 1000 Ang^3
#
#
#
# Elastic Constant Matrix: (Units=GPa)
#
#
# Indices 1 2 3 4 5 6 
#
# 1 160.6214 9.2610 63.8457 0.0000 21.2350 0.0000
# 2 9.2610 50.1154 13.3103 0.0000 10.1120 0.0000
# 3 63.8457 13.3103 92.6232 0.0000 23.6189 0.0000
# 4 0.0000 0.0000 0.0000 24.9782 0.0000 9.3962
# 5 21.2350 10.1120 23.6189 0.0000 28.7627 0.0000
# 6 0.0000 0.0000 0.0000 9.3962 0.0000 23.6550
#
#
#
# Elastic Compliance Matrix: (Units=1/GPa)
#
#
# Indices 1 2 3 4 5 6 
#
# 1 0.008659 0.000258 -0.005505 0.000000 -0.001963 0.000000
# 2 0.000258 0.021644 -0.001643 0.000000 -0.006450 0.000000
# 3 -0.005505 -0.001643 0.017257 0.000000 -0.009529 0.000000
# 4 0.000000 0.000000 0.000000 0.047068 0.000000 -0.018696
# 5 -0.001963 -0.006450 -0.009529 0.000000 0.046309 0.000000
# 6 0.000000 0.000000 0.000000 -0.018696 0.000000 0.049701
#
#
# Mechanical properties :
#
#
# Convention : Reuss Voigt Hill
#
# Bulk Modulus (GPa) = 29.60397 52.91042 41.25720
# Shear Modulus (GPa) = 23.18271 29.94207 26.56239
#
# Velocity S-wave (km/s) = 3.46975 3.94328 3.71407
# Velocity P-wave (km/s) = 5.60590 6.94334 6.31015
#
# Compressibility (1/GPa) = 0.03377925
#
# Stress axis : x y z
#
# Youngs Moduli (GPa) = 115.49170 46.20166 57.94722
#
# Poissons Ratio (x) = -0.01192 0.31900
# Poissons Ratio (y) = -0.02980 0.09523
# Poissons Ratio (z) = 0.63579 0.07593
#
# Static dielectric constant tensor:
#      x y z
#    x 1.683250 0.000000 -0.018340 
#    y 0.000000 1.660900 0.000000 
#    z -0.018340 0.000000 1.701540 
# 
# From -- ./inp_files/72703.got.cif
#   From: 2010.05.17/outbox.cif.g08.bks.cpg/sg11_37_cif.got.tgz:72703.got - 2010.06.03 12:22:45.
