data_PCOD9160144
_publ_section_title
;
Structure prediction by ZEFSAII (Michael W. Deem and Ramdas Pophale) SiO2 
 PCOD9160144
Probable space group: P 21/M
;
_chemical_formula_sum "Si O2"
_cell_formula_units_Z 28
_cell_length_a 15.960831
_cell_length_b 7.614677
_cell_length_c 18.293438
_cell_angle_alpha 90.000000
_cell_angle_beta 35.299220
_cell_angle_gamma 90.000000
_cell_volume 1284.738727
_symmetry_space_group_name_H-M "P 21/M"
_symmetry_group_IT_number 11
_symmetry_cell_setting 'monoclinic'
loop_
_space_group_symop_operation_xyz
x,y,z
-x,1/2+y,-z
-x,-y,-z
x,1/2-y,z
loop_
_atom_site_type_symbol
_atom_site_label
_atom_site_fract_x
_atom_site_fract_y
_atom_site_fract_z
Si Si1 0.680257 0.955551 0.552239
Si Si2 0.679454 0.448006 0.962396
Si Si3 0.648947 0.465714 0.831916
Si Si4 0.833037 0.540181 0.136521
Si Si5 0.143020 0.957761 0.443224
Si Si6 0.668244 0.539029 0.397463
Si Si7 0.387238 0.955956 0.834377
O O1 0.645233 0.750000 0.567338
O O2 0.699009 0.029146 0.457402
O O3 0.539734 0.031233 0.695602
O O4 0.821355 0.968436 0.502542
O O5 0.739023 0.250000 0.925867
O O6 0.508362 0.449702 0.064501
O O7 0.678730 0.532953 0.043131
O O8 0.733255 0.522092 0.846120
O O9 0.638021 0.250000 0.840859
O O10 0.731839 0.519659 0.700523
O O11 0.816569 0.750000 0.147721
O O12 0.772194 0.473880 0.258123
O O13 0.728876 0.468655 0.147318
O O14 0.000000 0.500000 0.000000
O O15 0.152262 0.750000 0.444331
O O16 0.000000 0.000000 0.500000
O O17 0.500000 0.500000 0.500000
O O18 0.686144 0.750000 0.385645
O O19 0.412787 0.750000 0.833718
#
# Coordination Sequence:
#
# PCOD9160144 Si02
#       7
#     4   4   4   4   4   4   4
#     4  10  20  37  61  88 115 147 193 245 295 351
#     4   9  17  31  53  80 106 137 176 221 272 327
#     4   9  18  32  51  76 106 139 178 224 271 323
#     4  11  24  41  61  86 120 158 195 241 300 359
#     4  11  23  38  56  79 113 155 196 241 293 346
#     4  10  21  38  63  92 120 156 199 247 301 362
#     4  10  19  34  60  87 114 148 188 235 289 350
#
# _framework density 21.794315000000001
#
# number of rings (size 3 to 8) (size 9 to 14) (size 15 to 20)
#    0.000    2.000    2.857    0.857    0.000    2.857 
#    2.571    0.000    0.000    0.000    0.000    0.000 
#    0.000    0.000    0.000    0.000    0.000    0.000 
#
# Total GULP energy -156093.173750 kJ/mol
# GULP energy per Si atom -5574.756205 kJ/mol
# Density = 2.174471 g / cm^3
# Si number density = 21.794315 Si / 1000 Ang^3
#
#
#
# Elastic Constant Matrix: (Units=GPa)
#
#
# Indices 1 2 3 4 5 6 
#
# 1 165.8710 -8.3345 60.9037 0.0000 41.3125 0.0000
# 2 -8.3345 49.8111 -2.0669 0.0000 9.1809 0.0000
# 3 60.9037 -2.0669 78.4151 0.0000 23.7879 0.0000
# 4 0.0000 0.0000 0.0000 12.9250 0.0000 -4.2548
# 5 41.3125 9.1809 23.7879 0.0000 47.9081 0.0000
# 6 0.0000 0.0000 0.0000 -4.2548 0.0000 24.3868
#
#
#
# Elastic Compliance Matrix: (Units=1/GPa)
#
#
# Indices 1 2 3 4 5 6 
#
# 1 0.009747 0.002516 -0.005661 0.000000 -0.006077 0.000000
# 2 0.002516 0.021750 0.000638 0.000000 -0.006654 0.000000
# 3 -0.005661 0.000638 0.018510 0.000000 -0.004432 0.000000
# 4 0.000000 0.000000 0.000000 0.082084 0.000000 0.014321
# 5 -0.006077 -0.006654 -0.004432 0.000000 0.029589 0.000000
# 6 0.000000 0.000000 0.000000 0.014321 0.000000 0.043505
#
#
# Mechanical properties :
#
#
# Convention : Reuss Voigt Hill
#
# Bulk Modulus (GPa) = 22.22533 43.90021 33.06277
# Shear Modulus (GPa) = 22.20280 33.28363 27.74321
#
# Velocity S-wave (km/s) = 3.19524 3.91214 3.57172
# Velocity P-wave (km/s) = 4.88187 6.37128 5.67564
#
# Compressibility (1/GPa) = 0.04499370
#
# Stress axis : x y z
#
# Youngs Moduli (GPa) = 102.59391 45.97744 54.02339
#
# Poissons Ratio (x) = -0.11568 0.30581
# Poissons Ratio (y) = -0.25813 -0.03446
# Poissons Ratio (z) = 0.58076 -0.02932
#
# Static dielectric constant tensor:
#      x y z
#    x 1.817320 0.000000 0.079620 
#    y 0.000000 2.054220 0.000000 
#    z 0.079620 0.000000 1.885180 
# 
# From -- ./inp_files/60066.got.cif
#   From: 2010.05.17/outbox.cif.g08.bks.cpg/sg11_31_cif.got.tgz:60066.got - 2010.06.03 12:22:45.
