data_PCOD9160077
_publ_section_title
;
Structure prediction by ZEFSAII (Michael W. Deem and Ramdas Pophale) SiO2 
 PCOD9160077
Probable space group: P 21/M
;
_chemical_formula_sum "Si O2"
_cell_formula_units_Z 28
_cell_length_a 15.115479
_cell_length_b 7.862965
_cell_length_c 13.044703
_cell_angle_alpha 90.000000
_cell_angle_beta 59.153655
_cell_angle_gamma 90.000000
_cell_volume 1331.084841
_symmetry_space_group_name_H-M "P 21/M"
_symmetry_group_IT_number 11
_symmetry_cell_setting 'monoclinic'
loop_
_space_group_symop_operation_xyz
x,y,z
-x,1/2+y,-z
-x,-y,-z
x,1/2-y,z
loop_
_atom_site_type_symbol
_atom_site_label
_atom_site_fract_x
_atom_site_fract_y
_atom_site_fract_z
Si Si1 0.508403 0.458164 0.310264
Si Si2 0.118446 0.048955 0.414709
Si Si3 0.890333 0.454665 0.018667
Si Si4 0.578123 0.454361 0.043121
Si Si5 0.281088 0.955040 0.718236
Si Si6 0.192629 0.544568 0.144758
Si Si7 0.276829 0.454462 0.491664
O O1 0.506788 0.250000 0.313341
O O2 0.602029 0.514155 0.328040
O O3 0.393912 0.518448 0.405618
O O4 0.538694 0.512899 0.177286
O O5 0.123260 0.250000 0.423144
O O6 0.196737 0.977391 0.454498
O O7 0.154825 0.005655 0.278896
O O8 0.000000 0.000000 0.500000
O O9 0.882325 0.250000 0.021444
O O10 0.797430 0.516123 0.147137
O O11 0.876086 0.514988 0.910374
O O12 0.000000 0.500000 0.000000
O O13 0.584602 0.250000 0.046387
O O14 0.691667 0.517378 0.946973
O O15 0.500000 0.500000 0.000000
O O16 0.282478 0.750000 0.722504
O O17 0.245582 0.005961 0.626418
O O18 0.193715 0.750000 0.142460
O O19 0.281020 0.250000 0.478687
#
# Coordination Sequence:
#
# PCOD9160077 Si02
#       7
#     4   4   4   4   4   4   4
#     4   9  17  35  59  83 115 153 188 229 287 348
#     4  11  25  43  62  86 117 155 198 244 294 350
#     4  10  22  39  60  88 117 152 195 242 294 348
#     4  10  19  34  58  85 117 155 193 237 287 344
#     4  10  20  37  61  87 116 152 192 233 287 348
#     4  10  21  40  63  87 118 154 195 243 296 351
#     4  10  22  38  58  85 117 153 193 238 288 341
#
# _framework density 21.035473
#
# number of rings (size 3 to 8) (size 9 to 14) (size 15 to 20)
#    0.000    2.000    1.429    1.714    2.000    4.000 
#    0.000    1.429    0.000    0.000    0.000    0.000 
#    0.000    0.000    0.000    0.000    0.000    0.000 
#
# Total GULP energy -156435.069231 kJ/mol
# GULP energy per Si atom -5586.966758 kJ/mol
# Density = 2.098759 g / cm^3
# Si number density = 21.035473 Si / 1000 Ang^3
#
#
#
# Elastic Constant Matrix: (Units=GPa)
#
#
# Indices 1 2 3 4 5 6 
#
# 1 170.8534 8.6100 60.7443 0.0000 25.8032 0.0000
# 2 8.6100 21.9599 4.4270 0.0000 -2.4269 0.0000
# 3 60.7443 4.4270 117.8470 0.0000 26.8307 0.0000
# 4 0.0000 0.0000 0.0000 25.1809 0.0000 2.6093
# 5 25.8032 -2.4269 26.8307 0.0000 37.4632 0.0000
# 6 0.0000 0.0000 0.0000 2.6093 0.0000 25.2195
#
#
#
# Elastic Compliance Matrix: (Units=1/GPa)
#
#
# Indices 1 2 3 4 5 6 
#
# 1 0.007562 -0.002697 -0.003072 0.000000 -0.003183 0.000000
# 2 -0.002697 0.047653 -0.001823 0.000000 0.006250 0.000000
# 3 -0.003072 -0.001823 0.011569 0.000000 -0.006288 0.000000
# 4 0.000000 0.000000 0.000000 0.040143 0.000000 -0.004153
# 5 -0.003183 0.006250 -0.006288 0.000000 0.033794 0.000000
# 6 0.000000 0.000000 0.000000 -0.004153 0.000000 0.040082
#
#
# Mechanical properties :
#
#
# Convention : Reuss Voigt Hill
#
# Bulk Modulus (GPa) = 19.37967 50.91363 35.14665
# Shear Modulus (GPa) = 23.45369 33.36464 28.40917
#
# Velocity S-wave (km/s) = 3.34272 3.98692 3.67895
# Velocity P-wave (km/s) = 4.91236 6.74169 5.89837
#
# Compressibility (1/GPa) = 0.05160047
#
# Stress axis : x y z
#
# Youngs Moduli (GPa) = 132.24536 20.98485 86.43824
#
# Poissons Ratio (x) = 0.05660 0.26551
# Poissons Ratio (y) = 0.35671 0.15756
# Poissons Ratio (z) = 0.40621 0.03825
#
# Static dielectric constant tensor:
#      x y z
#    x 1.749250 0.000000 0.007540 
#    y 0.000000 1.800420 0.000000 
#    z 0.007540 0.000000 1.723300 
# 
# From -- ./inp_files/37849.got.cif
#   From: 2010.05.17/outbox.cif.g08.bks.cpg/sg11_19_cif.got.tgz:37849.got - 2010.06.03 12:22:45.
