data_PCOD9160279
_publ_section_title
;
Structure prediction by ZEFSAII (Michael W. Deem and Ramdas Pophale) SiO2 
 PCOD9160279
Probable space group: P 21/M
;
_chemical_formula_sum "Si O2"
_cell_formula_units_Z 32
_cell_length_a 21.659674
_cell_length_b 8.678821
_cell_length_c 27.185684
_cell_angle_alpha 90.000000
_cell_angle_beta 20.874392
_cell_angle_gamma 90.000000
_cell_volume 1820.931594
_symmetry_space_group_name_H-M "P 21/M"
_symmetry_group_IT_number 11
_symmetry_cell_setting 'monoclinic'
loop_
_space_group_symop_operation_xyz
x,y,z
-x,1/2+y,-z
-x,-y,-z
x,1/2-y,z
loop_
_atom_site_type_symbol
_atom_site_label
_atom_site_fract_x
_atom_site_fract_y
_atom_site_fract_z
Si Si1 0.076946 0.936546 0.596737
Si Si2 0.956609 0.564885 0.223144
Si Si3 0.719211 0.434221 0.205618
Si Si4 0.021944 0.435861 0.907017
Si Si5 0.780896 0.565313 0.894976
Si Si6 0.940486 0.935878 0.596047
Si Si7 0.666090 0.064678 0.510925
Si Si8 0.545182 0.565437 0.912819
O O1 0.083070 0.750000 0.590512
O O2 0.240039 0.986782 0.508089
O O3 0.905986 0.975989 0.755704
O O4 0.053974 0.991656 0.558221
O O5 0.953879 0.750000 0.228118
O O6 0.966426 0.519464 0.158646
O O7 0.786870 0.499636 0.377162
O O8 0.122023 0.501736 0.129887
O O9 0.703040 0.250000 0.218462
O O10 0.826444 0.489837 0.173353
O O11 0.529811 0.507589 0.345449
O O12 0.840417 0.477789 0.068674
O O13 0.038088 0.250000 0.898038
O O14 0.774657 0.750000 0.902839
O O15 0.593117 0.498784 0.023092
O O16 0.949645 0.750000 0.588259
O O17 0.741159 0.978879 0.754063
O O18 0.000000 0.000000 0.500000
O O19 0.671557 0.250000 0.504695
O O20 0.534721 0.750000 0.922163
O O21 0.500000 0.500000 0.000000
#
# Coordination Sequence:
#
# PCOD9160279 Si02
#       8
#     4   4   4   4   4   4   4   4
#     4   8  16  34  55  74 105 142 176 220 269 317
#     4  10  20  36  57  83 114 144 178 226 277 321
#     4  10  20  36  58  82 109 144 186 225 266 326
#     4   9  20  38  58  80 111 146 179 224 275 323
#     4  10  19  35  57  82 111 143 182 226 273 328
#     4  10  21  38  55  77 110 144 181 228 277 323
#     4  10  20  35  57  82 110 145 184 225 272 325
#     4  11  21  35  58  83 109 143 185 231 275 325
#
# _framework density 17.573422000000001
#
# number of rings (size 3 to 8) (size 9 to 14) (size 15 to 20)
#    0.000    2.250    1.250    2.625    0.000    3.000 
#    2.250    1.250    0.000    0.000    0.000    0.000 
#    0.000    0.000    0.000    0.000    0.000    0.000 
#
# Total GULP energy -178548.105065 kJ/mol
# GULP energy per Si atom -5579.628283 kJ/mol
# Density = 1.753342 g / cm^3
# Si number density = 17.573422 Si / 1000 Ang^3
#
#
#
# Elastic Constant Matrix: (Units=GPa)
#
#
# Indices 1 2 3 4 5 6 
#
# 1 177.3460 47.0941 103.5240 0.0000 9.5544 0.0000
# 2 47.0941 42.1809 46.4319 0.0000 -1.6930 0.0000
# 3 103.5240 46.4319 130.7352 0.0000 -7.7688 0.0000
# 4 0.0000 0.0000 0.0000 23.1101 0.0000 -2.1324
# 5 9.5544 -1.6930 -7.7688 0.0000 25.6291 0.0000
# 6 0.0000 0.0000 0.0000 -2.1324 0.0000 30.4059
#
#
#
# Elastic Compliance Matrix: (Units=1/GPa)
#
#
# Indices 1 2 3 4 5 6 
#
# 1 0.012206 -0.004598 -0.008473 0.000000 -0.007422 0.000000
# 2 -0.004598 0.040726 -0.010755 0.000000 0.001144 0.000000
# 3 -0.008473 -0.010755 0.018660 0.000000 0.008105 0.000000
# 4 0.000000 0.000000 0.000000 0.043553 0.000000 0.003054
# 5 -0.007422 0.001144 0.008105 0.000000 0.044317 0.000000
# 6 0.000000 0.000000 0.000000 0.003054 0.000000 0.033103
#
#
# Mechanical properties :
#
#
# Convention : Reuss Voigt Hill
#
# Bulk Modulus (GPa) = 41.77315 82.70690 62.24002
# Shear Modulus (GPa) = 20.14520 26.04316 23.09418
#
# Velocity S-wave (km/s) = 3.38944 3.85380 3.62906
# Velocity P-wave (km/s) = 6.25620 8.18341 7.28383
#
# Compressibility (1/GPa) = 0.02393882
#
# Stress axis : x y z
#
# Youngs Moduli (GPa) = 81.92803 24.55421 53.59037
#
# Poissons Ratio (x) = 0.11291 0.45408
# Poissons Ratio (y) = 0.37673 0.57637
# Poissons Ratio (z) = 0.69420 0.26408
#
# Static dielectric constant tensor:
#      x y z
#    x 1.594430 0.000000 -0.003600 
#    y 0.000000 1.594360 0.000000 
#    z -0.003600 0.000000 1.574080 
# 
# From -- ./inp_files/67213.got.cif
#   From: 2010.05.17/outbox.cif.g08.bks.cpg/sg11_34_cif.got.tgz:67213.got - 2010.06.03 12:22:45.
