data_PCOD9160661
_publ_section_title
;
Structure prediction by ZEFSAII (Michael W. Deem and Ramdas Pophale) SiO2 
 PCOD9160661
Probable space group: P 21/M
;
_chemical_formula_sum "Si O2"
_cell_formula_units_Z 32
_cell_length_a 12.046345
_cell_length_b 18.458668
_cell_length_c 10.104198
_cell_angle_alpha 90.000000
_cell_angle_beta 50.865654
_cell_angle_gamma 90.000000
_cell_volume 1742.743595
_symmetry_space_group_name_H-M "P 21/M"
_symmetry_group_IT_number 11
_symmetry_cell_setting 'monoclinic'
loop_
_space_group_symop_operation_xyz
x,y,z
-x,1/2+y,-z
-x,-y,-z
x,1/2-y,z
loop_
_atom_site_type_symbol
_atom_site_label
_atom_site_fract_x
_atom_site_fract_y
_atom_site_fract_z
Si Si1 0.321848 0.335394 0.796511
Si Si2 0.353959 0.163750 0.464957
Si Si3 0.920938 0.586896 0.432440
Si Si4 0.458368 0.576203 0.874943
Si Si5 0.982328 0.896279 0.898766
Si Si6 0.869146 0.439135 0.956673
Si Si7 0.127844 0.585480 0.519346
Si Si8 0.553000 0.411171 0.812184
O O1 0.351646 0.250000 0.779698
O O2 0.342573 0.360107 0.627732
O O3 0.431951 0.376318 0.810261
O O4 0.157378 0.348934 0.963820
O O5 0.367755 0.250000 0.453285
O O6 0.211369 0.138206 0.496763
O O7 0.478623 0.126211 0.287432
O O8 0.870970 0.502652 0.470078
O O9 0.032297 0.594837 0.229912
O O10 0.007654 0.601715 0.500380
O O11 0.536974 0.498414 0.815154
O O12 0.292963 0.562999 0.967155
O O13 0.470719 0.607206 0.014884
O O14 0.070007 0.881598 0.699485
O O15 0.917308 0.977429 0.934661
O O16 0.093677 0.899085 0.935510
O O17 0.286672 0.608629 0.355880
#
# Coordination Sequence:
#
# PCOD9160661 Si02
#       8
#     4   4   4   4   4   4   4   4
#     4  11  25  44  61  86 127 168 206 253 314 377
#     4  11  25  43  62  88 123 168 210 252 310 374
#     4  10  19  38  60  89 125 151 196 258 298 359
#     4  11  23  38  64  94 126 163 206 255 309 368
#     4  10  21  36  60  93 120 153 199 253 307 364
#     4  10  19  36  61  91 120 151 203 256 302 350
#     4  10  21  34  63  94 120 150 196 254 310 352
#     4  11  23  39  61  95 129 163 200 257 312 368
#
# _framework density 18.361851000000001
#
# number of rings (size 3 to 8) (size 9 to 14) (size 15 to 20)
#    0.000    1.500    5.000    0.000    3.500    1.000 
#    0.000    2.500    0.000    0.000    0.000    0.000 
#    0.000    0.000    0.000    0.000    0.000    0.000 
#
# Total GULP energy -178620.952678 kJ/mol
# GULP energy per Si atom -5581.904771 kJ/mol
# Density = 1.832006 g / cm^3
# Si number density = 18.361851 Si / 1000 Ang^3
#
#
#
# Elastic Constant Matrix: (Units=GPa)
#
#
# Indices 1 2 3 4 5 6 
#
# 1 93.6997 4.6260 55.8138 0.0000 11.4783 0.0000
# 2 4.6260 24.0503 15.0522 0.0000 9.6378 0.0000
# 3 55.8138 15.0522 155.6808 0.0000 14.1965 0.0000
# 4 0.0000 0.0000 0.0000 29.7951 0.0000 6.8135
# 5 11.4783 9.6378 14.1965 0.0000 38.6153 0.0000
# 6 0.0000 0.0000 0.0000 6.8135 0.0000 23.5526
#
#
#
# Elastic Compliance Matrix: (Units=1/GPa)
#
#
# Indices 1 2 3 4 5 6 
#
# 1 0.013819 0.001454 -0.004850 0.000000 -0.002688 0.000000
# 2 0.001454 0.048312 -0.004194 0.000000 -0.010948 0.000000
# 3 -0.004850 -0.004194 0.008630 0.000000 -0.000684 0.000000
# 4 0.000000 0.000000 0.000000 0.035940 0.000000 -0.010397
# 5 -0.002688 -0.010948 -0.000684 0.000000 0.029680 0.000000
# 6 0.000000 0.000000 0.000000 -0.010397 0.000000 0.045466
#
#
# Mechanical properties :
#
#
# Convention : Reuss Voigt Hill
#
# Bulk Modulus (GPa) = 17.99155 47.15719 32.57437
# Shear Modulus (GPa) = 23.19622 31.58853 27.39237
#
# Velocity S-wave (km/s) = 3.55813 4.15219 3.86658
# Velocity P-wave (km/s) = 5.16720 6.98037 6.14107
#
# Compressibility (1/GPa) = 0.05558166
#
# Stress axis : x y z
#
# Youngs Moduli (GPa) = 72.36599 20.69877 115.87468
#
# Poissons Ratio (x) = -0.03010 0.56196
# Poissons Ratio (y) = -0.10524 0.48599
# Poissons Ratio (z) = 0.35095 0.08681
#
# Static dielectric constant tensor:
#      x y z
#    x 0.654870 0.000000 -0.111760 
#    y 0.000000 1.619210 0.000000 
#    z -0.111760 0.000000 1.634910 
# 
# From -- ./inp_files/19390.got.cif
#   From: 2010.05.17/outbox.cif.g08.bks.cpg/sg11_10_cif.got.tgz:19390.got - 2010.06.03 12:22:45.
