data_PCOD9160653
_publ_section_title
;
Structure prediction by ZEFSAII (Michael W. Deem and Ramdas Pophale) SiO2 
 PCOD9160653
Probable space group: P 21/M
;
_chemical_formula_sum "Si O2"
_cell_formula_units_Z 28
_cell_length_a 10.380972
_cell_length_b 8.838502
_cell_length_c 30.614966
_cell_angle_alpha 90.000000
_cell_angle_beta 33.861658
_cell_angle_gamma 90.000000
_cell_volume 1565.140842
_symmetry_space_group_name_H-M "P 21/M"
_symmetry_group_IT_number 11
_symmetry_cell_setting 'monoclinic'
loop_
_space_group_symop_operation_xyz
x,y,z
-x,1/2+y,-z
-x,-y,-z
x,1/2-y,z
loop_
_atom_site_type_symbol
_atom_site_label
_atom_site_fract_x
_atom_site_fract_y
_atom_site_fract_z
Si Si1 0.408863 0.567933 0.740328
Si Si2 0.893894 0.930075 0.651239
Si Si3 0.077740 0.567905 0.911135
Si Si4 0.345140 0.932107 0.924548
Si Si5 0.865474 0.568260 0.763008
Si Si6 0.332293 0.070112 0.667449
Si Si7 0.626566 0.570015 0.506630
O O1 0.394401 0.750000 0.738180
O O2 0.651978 0.536746 0.695820
O O3 0.203859 0.521913 0.831147
O O4 0.390674 0.486550 0.699387
O O5 0.939401 0.750000 0.633772
O O6 0.874836 0.961126 0.708345
O O7 0.106771 0.021409 0.571436
O O8 0.063549 0.750000 0.915387
O O9 0.239235 0.523723 0.907024
O O10 0.826538 0.500034 0.991252
O O11 0.337085 0.750000 0.928963
O O12 0.612435 0.977580 0.851447
O O13 0.890830 0.750000 0.761667
O O14 0.075490 0.484896 0.727035
O O15 0.348393 0.250000 0.659809
O O16 0.504672 0.995379 0.583864
O O17 0.500000 0.500000 0.500000
O O18 0.601472 0.750000 0.512703
#
# Coordination Sequence:
#
# PCOD9160653 Si02
#       7
#     4   4   4   4   4   4   4
#     4  10  21  40  62  86 119 159 197 238 294 351
#     4  10  20  37  64  90 115 151 197 244 289 344
#     4   9  17  32  55  85 118 152 189 234 288 344
#     4   9  17  31  55  88 118 149 190 237 289 342
#     4  10  19  36  61  87 116 153 195 241 291 346
#     4  12  26  41  59  86 119 156 196 241 295 351
#     4  12  24  40  62  89 119 152 193 241 292 344
#
# _framework density 17.889764
#
# number of rings (size 3 to 8) (size 9 to 14) (size 15 to 20)
#    0.000    1.714    2.857    2.571    0.000    2.286 
#    0.000    0.714    0.000    0.000    0.000    0.000 
#    0.000    0.000    0.000    0.000    0.000    0.000 
#
# Total GULP energy -156403.457398 kJ/mol
# GULP energy per Si atom -5585.837764 kJ/mol
# Density = 1.784905 g / cm^3
# Si number density = 17.889764 Si / 1000 Ang^3
#
#
#
# Elastic Constant Matrix: (Units=GPa)
#
#
# Indices 1 2 3 4 5 6 
#
# 1 84.6520 49.7134 44.2960 0.0000 7.2710 0.0000
# 2 49.7134 68.0877 60.1752 0.0000 -0.7105 0.0000
# 3 44.2960 60.1752 148.7501 0.0000 -0.0964 0.0000
# 4 0.0000 0.0000 0.0000 34.5203 0.0000 -1.4169
# 5 7.2710 -0.7105 -0.0964 0.0000 28.9591 0.0000
# 6 0.0000 0.0000 0.0000 -1.4169 0.0000 23.7991
#
#
#
# Elastic Compliance Matrix: (Units=1/GPa)
#
#
# Indices 1 2 3 4 5 6 
#
# 1 0.021618 -0.015801 -0.000049 0.000000 -0.005816 0.000000
# 2 -0.015801 0.034418 -0.009215 0.000000 0.004781 0.000000
# 3 -0.000049 -0.009215 0.010465 0.000000 -0.000179 0.000000
# 4 0.000000 0.000000 0.000000 0.029039 0.000000 0.001729
# 5 -0.005816 0.004781 -0.000179 0.000000 0.036108 0.000000
# 6 0.000000 0.000000 0.000000 0.001729 0.000000 0.042121
#
#
# Mechanical properties :
#
#
# Convention : Reuss Voigt Hill
#
# Bulk Modulus (GPa) = 61.08633 67.76212 64.42423
# Shear Modulus (GPa) = 21.80005 27.27604 24.53804
#
# Velocity S-wave (km/s) = 3.49460 3.90894 3.70756
# Velocity P-wave (km/s) = 7.10655 7.63760 7.37686
#
# Compressibility (1/GPa) = 0.01637027
#
# Stress axis : x y z
#
# Youngs Moduli (GPa) = 46.25804 29.05455 95.55702
#
# Poissons Ratio (x) = 0.45910 0.00469
# Poissons Ratio (y) = 0.73094 0.88055
# Poissons Ratio (z) = 0.00227 0.26773
#
# Static dielectric constant tensor:
#      x y z
#    x 1.586700 0.000000 -0.006950 
#    y 0.000000 1.599520 0.000000 
#    z -0.006950 0.000000 1.602180 
# 
# From -- ./inp_files/26087.got.cif
#   From: 2010.05.17/outbox.cif.g08.bks.cpg/sg11_14_cif.got.tgz:26087.got - 2010.06.03 12:22:45.
