data_PCOD9160914
_publ_section_title
;
Structure prediction by ZEFSAII (Michael W. Deem and Ramdas Pophale) SiO2 
 PCOD9160914
Probable space group: P 21/M
;
_chemical_formula_sum "Si O2"
_cell_formula_units_Z 22
_cell_length_a 7.220817
_cell_length_b 19.994309
_cell_length_c 7.485122
_cell_angle_alpha 90.000000
_cell_angle_beta 56.258867
_cell_angle_gamma 90.000000
_cell_volume 898.634121
_symmetry_space_group_name_H-M "P 21/M"
_symmetry_group_IT_number 11
_symmetry_cell_setting 'monoclinic'
loop_
_space_group_symop_operation_xyz
x,y,z
-x,1/2+y,-z
-x,-y,-z
x,1/2-y,z
loop_
_atom_site_type_symbol
_atom_site_label
_atom_site_fract_x
_atom_site_fract_y
_atom_site_fract_z
Si Si1 0.412588 0.606825 0.844244
Si Si2 0.442171 0.606013 0.233393
Si Si3 0.136296 0.250000 0.677510
Si Si4 0.620108 0.750000 0.792342
Si Si5 0.790971 0.512956 0.483823
Si Si6 0.475718 0.750000 0.261466
Si Si7 0.933450 0.608833 0.101118
O O1 0.483719 0.683804 0.816844
O O2 0.617059 0.567379 0.652205
O O3 0.383523 0.583113 0.065698
O O4 0.172149 0.599262 0.883049
O O5 0.351987 0.554838 0.427215
O O6 0.348162 0.680334 0.316112
O O7 0.710366 0.612744 0.103067
O O8 0.164238 0.250000 0.449572
O O9 0.383865 0.250000 0.632888
O O10 0.043081 0.179501 0.802206
O O11 0.637107 0.750000 0.998515
O O12 0.884209 0.546021 0.255177
O O13 0.000000 0.500000 0.500000
#
# Coordination Sequence:
#
# PCOD9160914 Si02
#       7
#     4   4   2   2   4   2   4
#     4  11  23  43  65  95 131 170 217 271 329 393
#     4  10  22  42  64  93 129 167 217 270 330 391
#     4  10  19  41  69  98 129 172 227 267 332 405
#     4  10  19  39  69  95 129 175 216 271 338 388
#     4  12  24  42  64  96 132 172 223 267 326 403
#     4   8  20  38  66  95 130 167 219 278 326 397
#     4  11  23  42  68  92 130 173 211 277 330 386
#
# _framework density 24.481601000000001
#
# number of rings (size 3 to 8) (size 9 to 14) (size 15 to 20)
#    0.000    1.455    3.636    1.636    0.000    0.727 
#    3.273    0.909    0.000    6.545    0.000    0.000 
#    0.000    0.000    0.000    0.000    0.000    0.000 
#
# Total GULP energy -123084.550950 kJ/mol
# GULP energy per Si atom -5594.752316 kJ/mol
# Density = 2.442588 g / cm^3
# Si number density = 24.481601 Si / 1000 Ang^3
#
#
#
# Elastic Constant Matrix: (Units=GPa)
#
#
# Indices 1 2 3 4 5 6 
#
# 1 99.0436 14.6928 23.6175 0.0000 -29.4756 0.0000
# 2 14.6928 118.2699 28.7006 0.0000 -7.7442 0.0000
# 3 23.6175 28.7006 82.0733 0.0000 -12.0027 0.0000
# 4 0.0000 0.0000 0.0000 21.0916 0.0000 41.7711
# 5 -29.4756 -7.7442 -12.0027 0.0000 42.8699 0.0000
# 6 0.0000 0.0000 0.0000 41.7711 0.0000 -166.4352
#
#
#
# Elastic Compliance Matrix: (Units=1/GPa)
#
#
# Indices 1 2 3 4 5 6 
#
# 1 0.013225 -0.000513 -0.002409 0.000000 0.008326 0.000000
# 2 -0.000513 0.009285 -0.003030 0.000000 0.000476 0.000000
# 3 -0.002409 -0.003030 0.014196 0.000000 0.001771 0.000000
# 4 0.000000 0.000000 0.000000 0.031670 0.000000 0.007949
# 5 0.008326 0.000476 0.001771 0.000000 0.029633 0.000000
# 6 0.000000 0.000000 0.000000 0.007949 0.000000 -0.004013
#
#
# Mechanical properties :
#
#
# Convention : Reuss Voigt Hill
#
# Bulk Modulus (GPa) = 40.31771 48.15652 44.23712
# Shear Modulus (GPa) = 43.79567 -5.00302 19.39633
#
# Velocity S-wave (km/s) = 4.23415 -1.43109 2.81780
# Velocity P-wave (km/s) = 6.35676 4.12098 5.35681
#
# Compressibility (1/GPa) = 0.02480300
#
# Stress axis : x y z
#
# Youngs Moduli (GPa) = 75.61551 107.69585 70.44333
#
# Poissons Ratio (x) = 0.05528 0.16966
# Poissons Ratio (y) = 0.03881 0.21342
# Poissons Ratio (z) = 0.18212 0.32629
#
# Static dielectric constant tensor:
#      x y z
#    x 1.945250 0.000000 0.011480 
#    y 0.000000 1.960080 0.000000 
#    z 0.011480 0.000000 1.948950 
# 
# From -- ./inp_files/2452.got.cif
#   From: 2010.05.17/outbox.cif.g08.bks.cpg/sg11_2_cif.got.tgz:2452.got - 2010.06.03 12:22:45.
