data_PCOD9160712
_publ_section_title
;
Structure prediction by ZEFSAII (Michael W. Deem and Ramdas Pophale) SiO2 
 PCOD9160712
Probable space group: P 21/M
;
_chemical_formula_sum "Si O2"
_cell_formula_units_Z 30
_cell_length_a 10.590942
_cell_length_b 14.792301
_cell_length_c 16.269093
_cell_angle_alpha 90.000000
_cell_angle_beta 154.806881
_cell_angle_gamma 90.000000
_cell_volume 1084.944057
_symmetry_space_group_name_H-M "P 21/M"
_symmetry_group_IT_number 11
_symmetry_cell_setting 'monoclinic'
loop_
_space_group_symop_operation_xyz
x,y,z
-x,1/2+y,-z
-x,-y,-z
x,1/2-y,z
loop_
_atom_site_type_symbol
_atom_site_label
_atom_site_fract_x
_atom_site_fract_y
_atom_site_fract_z
Si Si1 0.466692 0.649277 0.308792
Si Si2 0.219903 0.849667 0.336643
Si Si3 0.774704 0.150838 0.418394
Si Si4 0.881453 0.498894 0.584375
Si Si5 0.201679 0.923001 0.919629
Si Si6 0.429467 0.119561 0.058646
Si Si7 0.150105 0.353557 0.147747
Si Si8 0.490417 0.250000 0.937413
O O1 0.578568 0.750000 0.353019
O O2 0.449439 0.644761 0.398084
O O3 0.661842 0.562845 0.404258
O O4 0.140030 0.637789 0.079724
O O5 0.247461 0.750000 0.392088
O O6 0.898769 0.852382 0.104102
O O7 0.226605 0.930720 0.405710
O O8 0.903840 0.250000 0.515188
O O9 0.454186 0.135233 0.274990
O O10 0.984889 0.074390 0.578388
O O11 0.688885 0.147733 0.272768
O O12 0.083151 0.566944 0.755941
O O13 0.923169 0.920205 0.819401
O O14 0.400857 0.011772 0.043934
O O15 0.371056 0.830865 0.038257
O O16 0.424287 0.170946 0.968924
O O17 0.165101 0.250000 0.186732
#
# Coordination Sequence:
#
# PCOD9160712 Si02
#       8
#     4   4   4   4   4   4   4   2
#     4  10  21  35  58  89 135 172 206 246 319 390
#     4  10  19  37  58  95 126 160 210 265 318 379
#     4  11  22  40  68 100 132 173 212 263 332 390
#     4  11  25  36  57  94 140 171 204 252 328 411
#     4  11  26  42  66 101 132 170 219 268 331 387
#     4  11  22  42  75  94 119 169 228 275 320 371
#     4  10  21  39  64  98 136 169 210 264 319 397
#     4  12  24  48  70  90 128 170 228 286 318 368
#
# _framework density 27.651198000000001
#
# number of rings (size 3 to 8) (size 9 to 14) (size 15 to 20)
#    0.000    1.333    3.333    2.000    6.533    1.067 
#    0.000    0.667    0.000    4.800    0.000    0.000 
#    0.000    0.000    0.000    0.000    0.000    0.000 
#
# Total GULP energy -167457.378692 kJ/mol
# GULP energy per Si atom -5581.912623 kJ/mol
# Density = 2.758826 g / cm^3
# Si number density = 27.651198 Si / 1000 Ang^3
#
#
#
# Elastic Constant Matrix: (Units=GPa)
#
#
# Indices 1 2 3 4 5 6 
#
# 1 89.0809 -8.1100 -14.3710 0.0000 -0.7164 0.0000
# 2 -8.1100 180.3850 26.2287 0.0000 14.8485 0.0000
# 3 -14.3710 26.2287 70.2718 0.0000 -8.6233 0.0000
# 4 0.0000 0.0000 0.0000 25.4488 0.0000 -17.5731
# 5 -0.7164 14.8485 -8.6233 0.0000 38.3315 0.0000
# 6 0.0000 0.0000 0.0000 -17.5731 0.0000 22.6209
#
#
#
# Elastic Compliance Matrix: (Units=1/GPa)
#
#
# Indices 1 2 3 4 5 6 
#
# 1 0.011633 0.000111 0.002426 0.000000 0.000720 0.000000
# 2 0.000111 0.006180 -0.002651 0.000000 -0.002988 0.000000
# 3 0.002426 -0.002651 0.016297 0.000000 0.004739 0.000000
# 4 0.000000 0.000000 0.000000 0.084767 0.000000 0.065851
# 5 0.000720 -0.002988 0.004739 0.000000 0.028325 0.000000
# 6 0.000000 0.000000 0.000000 0.065851 0.000000 0.095364
#
#
# Mechanical properties :
#
#
# Convention : Reuss Voigt Hill
#
# Bulk Modulus (GPa) = 29.51327 38.58144 34.04736
# Shear Modulus (GPa) = 19.67823 39.67957 29.67890
#
# Velocity S-wave (km/s) = 2.67059 3.79225 3.27973
# Velocity P-wave (km/s) = 4.49511 5.75831 5.16547
#
# Compressibility (1/GPa) = 0.03388306
#
# Stress axis : x y z
#
# Youngs Moduli (GPa) = 85.96221 161.81006 61.35942
#
# Poissons Ratio (x) = -0.01796 -0.14886
# Poissons Ratio (y) = -0.00954 0.16264
# Poissons Ratio (z) = -0.20854 0.42891
#
# Static dielectric constant tensor:
#      x y z
#    x 2.248700 0.000000 0.056110 
#    y 0.000000 2.112490 0.000000 
#    z 0.056110 0.000000 2.207850 
# 
# From -- ./inp_files/59405.got.cif
#   From: 2010.05.17/outbox.cif.g08.bks.cpg/sg11_30_cif.got.tgz:59405.got - 2010.06.03 12:22:45.
