data_PCOD9160984
_publ_section_title
;
Structure prediction by ZEFSAII (Michael W. Deem and Ramdas Pophale) SiO2 
 PCOD9160984
Probable space group: P 21/M
;
_chemical_formula_sum "Si O2"
_cell_formula_units_Z 32
_cell_length_a 17.375119
_cell_length_b 7.834299
_cell_length_c 24.249306
_cell_angle_alpha 90.000000
_cell_angle_beta 149.452013
_cell_angle_gamma 90.000000
_cell_volume 1677.695068
_symmetry_space_group_name_H-M "P 21/M"
_symmetry_group_IT_number 11
_symmetry_cell_setting 'monoclinic'
loop_
_space_group_symop_operation_xyz
x,y,z
-x,1/2+y,-z
-x,-y,-z
x,1/2-y,z
loop_
_atom_site_type_symbol
_atom_site_label
_atom_site_fract_x
_atom_site_fract_y
_atom_site_fract_z
Si Si1 0.971478 0.547545 0.243792
Si Si2 0.833004 0.043213 0.328938
Si Si3 0.132738 0.548773 0.451998
Si Si4 0.657119 0.455554 0.327533
Si Si5 0.328672 0.547271 0.882006
Si Si6 0.314458 0.953850 0.123461
Si Si7 0.985692 0.954909 0.129222
Si Si8 0.151478 0.544874 0.127338
O O1 0.001634 0.750000 0.259937
O O2 0.796894 0.527372 0.154351
O O3 0.995689 0.476152 0.197485
O O4 0.073255 0.475291 0.357043
O O5 0.845580 0.250000 0.338121
O O6 0.763746 0.982076 0.343598
O O7 0.719295 0.995047 0.209243
O O8 0.994156 0.971220 0.409600
O O9 0.157680 0.750000 0.458173
O O10 0.278382 0.478554 0.574151
O O11 0.670431 0.250000 0.336242
O O12 0.482448 0.496625 0.209718
O O13 0.313057 0.750000 0.875774
O O14 0.500000 0.500000 0.000000
O O15 0.304411 0.750000 0.118118
O O16 0.281291 0.018093 0.165754
O O17 0.179239 0.013703 0.999910
O O18 0.001999 0.750000 0.142059
O O19 0.113750 0.020367 0.165385
O O20 0.166165 0.750000 0.140387
O O21 0.000000 0.500000 0.000000
#
# Coordination Sequence:
#
# PCOD9160984 Si02
#       8
#     4   4   4   4   4   4   4   4
#     4   9  18  32  50  71  92 120 158 195 233 279
#     4   9  19  33  48  66  89 122 161 196 233 278
#     4   9  18  33  51  70  92 120 159 201 235 272
#     4  10  20  33  49  69  95 126 158 194 236 280
#     4  10  20  32  45  64  94 128 158 192 235 277
#     4  10  20  31  46  73 101 122 153 194 236 279
#     4   9  17  31  52  72  95 126 155 187 234 290
#     4   8  15  29  47  68  94 123 152 186 230 281
#
# _framework density 19.073789000000001
#
# number of rings (size 3 to 8) (size 9 to 14) (size 15 to 20)
#    0.000    2.750    0.000    1.125    1.750    2.500 
#    0.000    0.000    0.000    0.750    0.000    0.000 
#    0.000    0.000    0.000    0.000    0.000    0.625 
#
# Total GULP energy -178284.284536 kJ/mol
# GULP energy per Si atom -5571.383892 kJ/mol
# Density = 1.903038 g / cm^3
# Si number density = 19.073789 Si / 1000 Ang^3
#
#
#
# Elastic Constant Matrix: (Units=GPa)
#
#
# Indices 1 2 3 4 5 6 
#
# 1 128.4141 6.0209 16.5188 0.0000 -28.3138 0.0000
# 2 6.0209 21.5159 -1.5451 0.0000 -5.4650 0.0000
# 3 16.5188 -1.5451 32.2828 0.0000 -10.4771 0.0000
# 4 0.0000 0.0000 0.0000 0.7676 0.0000 -1.6514
# 5 -28.3138 -5.4650 -10.4771 0.0000 11.7344 0.0000
# 6 0.0000 0.0000 0.0000 -1.6514 0.0000 13.9605
#
#
#
# Elastic Compliance Matrix: (Units=1/GPa)
#
#
# Indices 1 2 3 4 5 6 
#
# 1 0.019471 0.010910 0.010497 0.000000 0.061435 0.000000
# 2 0.010910 0.064352 0.022201 0.000000 0.076116 0.000000
# 3 0.010497 0.022201 0.053846 0.000000 0.083745 0.000000
# 4 0.000000 0.000000 0.000000 1.747546 0.000000 0.206719
# 5 0.061435 0.076116 0.083745 0.000000 0.343677 0.000000
# 6 0.000000 0.000000 0.000000 0.206719 0.000000 0.096084
#
#
# Mechanical properties :
#
#
# Convention : Reuss Voigt Hill
#
# Bulk Modulus (GPa) = 4.44673 24.91134 14.67903
# Shear Modulus (GPa) = 2.16195 16.04037 9.10116
#
# Velocity S-wave (km/s) = 1.06580 2.90308 2.18676
# Velocity P-wave (km/s) = 1.96239 4.93215 3.75347
#
# Compressibility (1/GPa) = 0.22488440
#
# Stress axis : x y z
#
# Youngs Moduli (GPa) = 51.35782 15.53950 18.57139
#
# Poissons Ratio (x) = -0.16953 -0.19495
# Poissons Ratio (y) = -0.56030 -0.41229
# Poissons Ratio (z) = -0.53912 -0.34498
#
# Static dielectric constant tensor:
#      x y z
#    x 1.703650 0.000000 -0.043430 
#    y 0.000000 1.702800 0.000000 
#    z -0.043430 0.000000 1.624260 
# 
# From -- ./inp_files/61763.got.cif
#   From: 2010.05.17/outbox.cif.g08.bks.cpg/sg11_31_cif.got.tgz:61763.got - 2010.06.03 12:22:45.
