data_PCOD9160765
_publ_section_title
;
Structure prediction by ZEFSAII (Michael W. Deem and Ramdas Pophale) SiO2 
 PCOD9160765
Probable space group: P 21/M
;
_chemical_formula_sum "Si O2"
_cell_formula_units_Z 28
_cell_length_a 11.854026
_cell_length_b 17.656946
_cell_length_c 7.804006
_cell_angle_alpha 90.000000
_cell_angle_beta 52.744268
_cell_angle_gamma 90.000000
_cell_volume 1300.110235
_symmetry_space_group_name_H-M "P 21/M"
_symmetry_group_IT_number 11
_symmetry_cell_setting 'monoclinic'
loop_
_space_group_symop_operation_xyz
x,y,z
-x,1/2+y,-z
-x,-y,-z
x,1/2-y,z
loop_
_atom_site_type_symbol
_atom_site_label
_atom_site_fract_x
_atom_site_fract_y
_atom_site_fract_z
Si Si1 0.996854 0.834752 0.468772
Si Si2 0.151960 0.532350 0.511269
Si Si3 0.698223 0.665908 0.554363
Si Si4 0.736217 0.967274 0.953746
Si Si5 0.134125 0.337102 0.960619
Si Si6 0.937967 0.079548 0.906942
Si Si7 0.444536 0.005623 0.356625
O O1 0.831537 0.838664 0.562926
O O2 0.059290 0.895392 0.543584
O O3 0.078167 0.853713 0.216208
O O4 0.940975 0.974571 0.289818
O O5 0.301800 0.543286 0.464723
O O6 0.196813 0.494388 0.287111
O O7 0.633095 0.750000 0.636531
O O8 0.769265 0.663438 0.300056
O O9 0.599186 0.592195 0.652325
O O10 0.568860 0.976042 0.119740
O O11 0.784315 0.884819 0.971582
O O12 0.802158 0.026285 0.032432
O O13 0.106862 0.250000 0.030645
O O14 0.995632 0.383467 0.026114
O O15 0.973359 0.250000 0.503182
O O16 0.500000 0.000000 0.500000
#
# Coordination Sequence:
#
# PCOD9160765 Si02
#       7
#     4   4   4   4   4   4   4
#     4   9  17  33  59  88 112 151 199 252 300 342
#     4  11  22  39  60  89 121 159 203 251 306 356
#     4   9  18  35  61  85 112 157 205 244 299 362
#     4  11  22  35  58  92 120 153 200 259 296 362
#     4  10  19  37  61  87 117 158 204 252 298 351
#     4  10  19  37  62  86 116 162 203 241 297 366
#     4  12  22  39  59  87 120 165 204 238 302 368
#
# _framework density 21.536636000000001
#
# number of rings (size 3 to 8) (size 9 to 14) (size 15 to 20)
#    0.000    1.714    4.286    3.857    0.000    0.000 
#    0.000    9.286    0.000    0.000    0.000    0.000 
#    0.000    0.000    0.000    0.000    0.000    0.000 
#
# Total GULP energy -156490.830685 kJ/mol
# GULP energy per Si atom -5588.958239 kJ/mol
# Density = 2.148762 g / cm^3
# Si number density = 21.536636 Si / 1000 Ang^3
#
#
#
# Elastic Constant Matrix: (Units=GPa)
#
#
# Indices 1 2 3 4 5 6 
#
# 1 134.4960 65.1999 38.8399 0.0000 1.5165 0.0000
# 2 65.1999 164.6963 32.1237 0.0000 11.6089 0.0000
# 3 38.8399 32.1237 79.3471 0.0000 9.2499 0.0000
# 4 0.0000 0.0000 0.0000 15.6998 0.0000 0.2341
# 5 1.5165 11.6089 9.2499 0.0000 38.1169 0.0000
# 6 0.0000 0.0000 0.0000 0.2341 0.0000 35.2156
#
#
#
# Elastic Compliance Matrix: (Units=1/GPa)
#
#
# Indices 1 2 3 4 5 6 
#
# 1 0.010152 -0.003391 -0.003777 0.000000 0.001545 0.000000
# 2 -0.003391 0.007799 -0.001272 0.000000 -0.001932 0.000000
# 3 -0.003777 -0.001272 0.015338 0.000000 -0.003184 0.000000
# 4 0.000000 0.000000 0.000000 0.063702 0.000000 -0.000424
# 5 0.001545 -0.001932 -0.003184 0.000000 0.027535 0.000000
# 6 0.000000 0.000000 0.000000 -0.000424 0.000000 0.028399
#
#
# Mechanical properties :
#
#
# Convention : Reuss Voigt Hill
#
# Bulk Modulus (GPa) = 60.94407 72.31849 66.63128
# Shear Modulus (GPa) = 28.52673 33.96483 31.24578
#
# Velocity S-wave (km/s) = 3.64341 3.97555 3.81310
# Velocity P-wave (km/s) = 6.78664 7.39767 7.09873
#
# Compressibility (1/GPa) = 0.01640849
#
# Stress axis : x y z
#
# Youngs Moduli (GPa) = 98.49836 128.22752 65.19870
#
# Poissons Ratio (x) = 0.43488 0.24624
# Poissons Ratio (y) = 0.33405 0.08293
# Poissons Ratio (z) = 0.37200 0.16311
#
# Static dielectric constant tensor:
#      x y z
#    x 1.808660 0.000000 0.033510 
#    y 0.000000 1.808110 0.000000 
#    z 0.033510 0.000000 1.821810 
# 
# From -- ./inp_files/17960.got.cif
#   From: 2010.05.17/outbox.cif.g08.bks.cpg/sg11_9_cif.got.tgz:17960.got - 2010.06.03 12:22:45.
