data_PCOD9160713
_publ_section_title
;
Structure prediction by ZEFSAII (Michael W. Deem and Ramdas Pophale) SiO2 
 PCOD9160713
Probable space group: P 21/M
;
_chemical_formula_sum "Si O2"
_cell_formula_units_Z 28
_cell_length_a 6.977387
_cell_length_b 32.002251
_cell_length_c 5.143179
_cell_angle_alpha 90.000000
_cell_angle_beta 76.862120
_cell_angle_gamma 90.000000
_cell_volume 1118.372045
_symmetry_space_group_name_H-M "P 21/M"
_symmetry_group_IT_number 11
_symmetry_cell_setting 'monoclinic'
loop_
_space_group_symop_operation_xyz
x,y,z
-x,1/2+y,-z
-x,-y,-z
x,1/2-y,z
loop_
_atom_site_type_symbol
_atom_site_label
_atom_site_fract_x
_atom_site_fract_y
_atom_site_fract_z
Si Si1 0.871885 0.203525 0.786166
Si Si2 0.473919 0.944611 0.231529
Si Si3 0.158844 0.612790 0.200964
Si Si4 0.079351 0.436874 0.345687
Si Si5 0.217714 0.996089 0.725095
Si Si6 0.145154 0.204355 0.201618
Si Si7 0.737091 0.878377 0.052214
O O1 0.784031 0.250000 0.762044
O O2 0.755022 0.159763 0.813374
O O3 0.044048 0.197740 0.513779
O O4 0.971939 0.205570 0.039104
O O5 0.311807 0.924328 0.086637
O O6 0.638865 0.980075 0.119965
O O7 0.582793 0.901332 0.284861
O O8 0.353591 0.967117 0.497473
O O9 0.073120 0.597908 0.504105
O O10 0.958636 0.617194 0.096084
O O11 0.138607 0.466851 0.562310
O O12 0.970554 0.466555 0.170826
O O13 0.261625 0.411080 0.184784
O O14 0.241766 0.250000 0.174855
O O15 0.283275 0.167410 0.057270
#
# Coordination Sequence:
#
# PCOD9160713 Si02
#       7
#     4   4   4   4   4   4   4
#     4   9  17  33  59  88 117 153 194 240 296 360
#     4  10  21  38  54  81 114 148 196 244 294 348
#     4  10  20  38  55  82 113 149 192 239 292 357
#     4  10  19  37  59  76 110 155 191 241 298 351
#     4   9  20  39  54  77 116 153 191 251 296 355
#     4   9  18  33  59  89 117 152 194 239 297 360
#     4  11  21  36  59  83 110 152 193 244 294 356
#
# _framework density 25.036390999999998
#
# number of rings (size 3 to 8) (size 9 to 14) (size 15 to 20)
#    0.000    2.286    2.857    0.000    0.000    1.143 
#    7.714    0.714    0.000    0.000    0.000   10.000 
#    0.000    0.000    0.000    0.000    0.000    0.000 
#
# Total GULP energy -156109.012825 kJ/mol
# GULP energy per Si atom -5575.321887 kJ/mol
# Density = 2.497941 g / cm^3
# Si number density = 25.036391 Si / 1000 Ang^3
#
#
#
# Elastic Constant Matrix: (Units=GPa)
#
#
# Indices 1 2 3 4 5 6 
#
# 1 84.4015 21.6628 8.0616 0.0000 2.0898 0.0000
# 2 21.6628 167.2266 5.9618 0.0000 1.5772 0.0000
# 3 8.0616 5.9618 44.3254 0.0000 12.9354 0.0000
# 4 0.0000 0.0000 0.0000 30.3124 0.0000 2.4244
# 5 2.0898 1.5772 12.9354 0.0000 32.2430 0.0000
# 6 0.0000 0.0000 0.0000 2.4244 0.0000 23.0251
#
#
#
# Elastic Compliance Matrix: (Units=1/GPa)
#
#
# Indices 1 2 3 4 5 6 
#
# 1 0.012440 -0.001538 -0.002086 0.000000 0.000106 0.000000
# 2 -0.001538 0.006199 -0.000560 0.000000 0.000021 0.000000
# 3 -0.002086 -0.000560 0.026013 0.000000 -0.010274 0.000000
# 4 0.000000 0.000000 0.000000 0.033270 0.000000 -0.003503
# 5 0.000106 0.000021 -0.010274 0.000000 0.035128 0.000000
# 6 0.000000 0.000000 0.000000 -0.003503 0.000000 0.043800
#
#
# Mechanical properties :
#
#
# Convention : Reuss Voigt Hill
#
# Bulk Modulus (GPa) = 27.56164 40.81399 34.18781
# Shear Modulus (GPa) = 28.19867 34.46727 31.33297
#
# Velocity S-wave (km/s) = 3.35969 3.71440 3.54149
# Velocity P-wave (km/s) = 5.10711 5.89346 5.51432
#
# Compressibility (1/GPa) = 0.03628231
#
# Stress axis : x y z
#
# Youngs Moduli (GPa) = 80.38875 161.31831 38.44177
#
# Poissons Ratio (x) = 0.24812 0.08021
# Poissons Ratio (y) = 0.12364 0.02154
# Poissons Ratio (z) = 0.16773 0.09037
#
# Static dielectric constant tensor:
#      x y z
#    x 2.081780 0.000000 -0.028110 
#    y 0.000000 2.026870 0.000000 
#    z -0.028110 0.000000 2.035960 
# 
# From -- ./inp_files/3203.got.cif
#   From: 2010.05.17/outbox.cif.g08.bks.cpg/sg11_2_cif.got.tgz:3203.got - 2010.06.03 12:22:45.
