data_PCOD9160499
_publ_section_title
;
Structure prediction by ZEFSAII (Michael W. Deem and Ramdas Pophale) SiO2 
 PCOD9160499
Probable space group: P 21/M
;
_chemical_formula_sum "Si O2"
_cell_formula_units_Z 28
_cell_length_a 8.180917
_cell_length_b 12.876515
_cell_length_c 17.722806
_cell_angle_alpha 90.000000
_cell_angle_beta 134.548753
_cell_angle_gamma 90.000000
_cell_volume 1330.489359
_symmetry_space_group_name_H-M "P 21/M"
_symmetry_group_IT_number 11
_symmetry_cell_setting 'monoclinic'
loop_
_space_group_symop_operation_xyz
x,y,z
-x,1/2+y,-z
-x,-y,-z
x,1/2-y,z
loop_
_atom_site_type_symbol
_atom_site_label
_atom_site_fract_x
_atom_site_fract_y
_atom_site_fract_z
Si Si1 0.027177 0.870073 0.126312
Si Si2 0.738321 0.873995 0.887771
Si Si3 0.006700 0.448558 0.584534
Si Si4 0.481643 0.551529 0.574665
Si Si5 0.212388 0.870215 0.744112
Si Si6 0.462627 0.364928 0.689586
Si Si7 0.053908 0.424403 0.206861
O O1 0.975073 0.750000 0.128946
O O2 0.295496 0.872820 0.188645
O O3 0.012185 0.951011 0.190223
O O4 0.866744 0.905710 0.005857
O O5 0.730995 0.750000 0.888157
O O6 0.469641 0.904958 0.803273
O O7 0.881625 0.900116 0.858997
O O8 0.040562 0.546257 0.651378
O O9 0.232969 0.379311 0.663191
O O10 0.000000 0.500000 0.500000
O O11 0.762589 0.391348 0.508591
O O12 0.500000 0.500000 0.500000
O O13 0.466068 0.457206 0.630006
O O14 0.713422 0.608303 0.673849
O O15 0.179631 0.750000 0.709061
O O16 0.157348 0.875818 0.815887
O O17 0.459049 0.250000 0.652800
#
# Coordination Sequence:
#
# PCOD9160499 Si02
#       7
#     4   4   4   4   4   4   4
#     4   9  19  37  61  84 116 155 193 240 294 346
#     4  10  21  38  59  88 120 153 194 242 293 351
#     4  10  20  36  56  80 114 149 189 239 286 341
#     4  10  19  36  54  79 115 150 185 237 288 340
#     4  11  23  38  59  87 118 152 193 243 294 348
#     4   9  19  36  59  83 108 149 193 234 286 347
#     4  11  21  38  62  86 118 154 196 240 295 348
#
# _framework density 21.044888
#
# number of rings (size 3 to 8) (size 9 to 14) (size 15 to 20)
#    0.000    2.000    1.429    3.429    0.000    2.857 
#    0.000    2.857    0.000    5.143    0.000    0.000 
#    0.000    0.000    0.000    0.000    0.000    0.000 
#
# Total GULP energy -155942.475374 kJ/mol
# GULP energy per Si atom -5569.374121 kJ/mol
# Density = 2.099699 g / cm^3
# Si number density = 21.044888 Si / 1000 Ang^3
#
#
#
# Elastic Constant Matrix: (Units=GPa)
#
#
# Indices 1 2 3 4 5 6 
#
# 1 73.9502 0.7788 6.6303 0.0000 -2.7523 0.0000
# 2 0.7788 50.6291 10.6164 0.0000 3.8938 0.0000
# 3 6.6303 10.6164 74.9090 0.0000 3.0355 0.0000
# 4 0.0000 0.0000 0.0000 11.6482 0.0000 1.1064
# 5 -2.7523 3.8938 3.0355 0.0000 15.3493 0.0000
# 6 0.0000 0.0000 0.0000 1.1064 0.0000 21.7257
#
#
#
# Elastic Compliance Matrix: (Units=1/GPa)
#
#
# Indices 1 2 3 4 5 6 
#
# 1 0.013744 -0.000150 -0.001307 0.000000 0.002761 0.000000
# 2 -0.000150 0.020690 -0.002727 0.000000 -0.004736 0.000000
# 3 -0.001307 -0.002727 0.013945 0.000000 -0.002300 0.000000
# 4 0.000000 0.000000 0.000000 0.086268 0.000000 -0.004393
# 5 0.002761 -0.004736 -0.002300 0.000000 0.067301 0.000000
# 6 0.000000 0.000000 0.000000 -0.004393 0.000000 0.046252
#
#
# Mechanical properties :
#
#
# Convention : Reuss Voigt Hill
#
# Bulk Modulus (GPa) = 24.99306 26.17104 25.58205
# Shear Modulus (GPa) = 18.52505 21.84215 20.18360
#
# Velocity S-wave (km/s) = 2.97014 3.22512 3.10025
# Velocity P-wave (km/s) = 4.86458 5.13140 4.99977
#
# Compressibility (1/GPa) = 0.04001111
#
# Stress axis : x y z
#
# Youngs Moduli (GPa) = 72.75826 48.33276 71.71061
#
# Poissons Ratio (x) = 0.00723 0.09374
# Poissons Ratio (y) = 0.01089 0.19556
# Poissons Ratio (z) = 0.09511 0.13181
#
# Static dielectric constant tensor:
#      x y z
#    x 1.808750 0.000000 0.081100 
#    y 0.000000 1.797500 0.000000 
#    z 0.081100 0.000000 1.781530 
# 
# From -- ./inp_files/58134.got.cif
#   From: 2010.05.17/outbox.cif.g08.bks.cpg/sg11_30_cif.got.tgz:58134.got - 2010.06.03 12:22:45.
