data_PCOD9160843
_publ_section_title
;
Structure prediction by ZEFSAII (Michael W. Deem and Ramdas Pophale) SiO2 
 PCOD9160843
Probable space group: P 21/M
;
_chemical_formula_sum "Si O2"
_cell_formula_units_Z 32
_cell_length_a 9.694769
_cell_length_b 19.075052
_cell_length_c 14.319759
_cell_angle_alpha 90.000000
_cell_angle_beta 147.382243
_cell_angle_gamma 90.000000
_cell_volume 1427.425111
_symmetry_space_group_name_H-M "P 21/M"
_symmetry_group_IT_number 11
_symmetry_cell_setting 'monoclinic'
loop_
_space_group_symop_operation_xyz
x,y,z
-x,1/2+y,-z
-x,-y,-z
x,1/2-y,z
loop_
_atom_site_type_symbol
_atom_site_label
_atom_site_fract_x
_atom_site_fract_y
_atom_site_fract_z
Si Si1 0.133812 0.575212 0.575904
Si Si2 0.582860 0.665400 0.083964
Si Si3 0.149002 0.328730 0.218762
Si Si4 0.949830 0.093864 0.275080
Si Si5 0.038273 0.572241 0.311190
Si Si6 0.251196 0.936990 0.240528
Si Si7 0.570029 0.170911 0.802760
Si Si8 0.323930 0.425873 0.167737
O O1 0.006895 0.613565 0.591709
O O2 0.439039 0.570192 0.767143
O O3 0.000000 0.500000 0.500000
O O4 0.127575 0.596775 0.464372
O O5 0.578560 0.750000 0.070770
O O6 0.810562 0.626656 0.160591
O O7 0.601734 0.649416 0.206435
O O8 0.318938 0.630203 0.902422
O O9 0.217502 0.250000 0.283994
O O10 0.311450 0.357249 0.224893
O O11 0.141590 0.377318 0.305928
O O12 0.857618 0.328901 0.011754
O O13 0.944137 0.009048 0.263347
O O14 0.246871 0.573051 0.348429
O O15 0.406891 0.879694 0.271396
O O16 0.347961 0.010427 0.255156
O O17 0.949820 0.933861 0.039025
O O18 0.505683 0.250000 0.738832
#
# Coordination Sequence:
#
# PCOD9160843 Si02
#       8
#     4   4   4   4   4   4   4   4
#     4  10  24  39  56  86 125 164 198 242 298 359
#     4  10  21  37  61  88 118 155 198 254 305 354
#     4   9  17  35  60  86 116 147 195 253 300 350
#     4  10  19  38  60  88 115 156 208 245 296 353
#     4  11  22  37  55  90 120 159 196 248 299 357
#     4  10  20  33  61  90 114 151 196 260 298 344
#     4   8  17  32  54  85 116 148 189 241 303 356
#     4  10  20  37  57  91 119 149 204 247 300 356
#
# _framework density 22.417988999999999
#
# number of rings (size 3 to 8) (size 9 to 14) (size 15 to 20)
#    0.000    2.250    1.250    2.250    5.250    1.000 
#    0.000    5.625    0.000    1.500    0.000    0.000 
#    0.000    0.000    0.000    0.000    0.000    0.000 
#
# Total GULP energy -178678.019905 kJ/mol
# GULP energy per Si atom -5583.688122 kJ/mol
# Density = 2.236697 g / cm^3
# Si number density = 22.417989 Si / 1000 Ang^3
#
#
#
# Elastic Constant Matrix: (Units=GPa)
#
#
# Indices 1 2 3 4 5 6 
#
# 1 124.6599 35.6740 19.7369 0.0000 -8.0661 0.0000
# 2 35.6740 85.1332 11.3888 0.0000 -5.1680 0.0000
# 3 19.7369 11.3888 50.1641 0.0000 -2.7544 0.0000
# 4 0.0000 0.0000 0.0000 3.0032 0.0000 -7.5149
# 5 -8.0661 -5.1680 -2.7544 0.0000 44.4233 0.0000
# 6 0.0000 0.0000 0.0000 -7.5149 0.0000 33.3390
#
#
#
# Elastic Compliance Matrix: (Units=1/GPa)
#
#
# Indices 1 2 3 4 5 6 
#
# 1 0.009571 -0.003554 -0.002896 0.000000 0.001145 0.000000
# 2 -0.003554 0.013503 -0.001622 0.000000 0.000825 0.000000
# 3 -0.002896 -0.001622 0.021476 0.000000 0.000617 0.000000
# 4 0.000000 0.000000 0.000000 0.763802 0.000000 0.172167
# 5 0.001145 0.000825 0.000617 0.000000 0.022853 0.000000
# 6 0.000000 0.000000 0.000000 0.172167 0.000000 0.068803
#
#
# Mechanical properties :
#
#
# Convention : Reuss Voigt Hill
#
# Bulk Modulus (GPa) = 35.20350 43.72851 39.46600
# Shear Modulus (GPa) = 5.40178 29.03028 17.21603
#
# Velocity S-wave (km/s) = 1.55396 3.60245 2.77421
# Velocity P-wave (km/s) = 4.35397 6.07058 5.28247
#
# Compressibility (1/GPa) = 0.02840627
#
# Stress axis : x y z
#
# Youngs Moduli (GPa) = 104.47737 74.06008 46.56325
#
# Poissons Ratio (x) = 0.26320 0.13485
# Poissons Ratio (y) = 0.37130 0.07552
# Poissons Ratio (z) = 0.30258 0.12012
#
# Static dielectric constant tensor:
#      x y z
#    x 1.832620 0.000000 -0.010770 
#    y 0.000000 1.794820 0.000000 
#    z -0.010770 0.000000 1.930870 
# 
# From -- ./inp_files/48268.got.cif
#   From: 2010.05.17/outbox.cif.g08.bks.cpg/sg11_25_cif.got.tgz:48268.got - 2010.06.03 12:22:45.
