data_PCOD9160338
_publ_section_title
;
Structure prediction by ZEFSAII (Michael W. Deem and Ramdas Pophale) SiO2 
 PCOD9160338
Probable space group: P 21/M
;
_chemical_formula_sum "Si O2"
_cell_formula_units_Z 32
_cell_length_a 12.646634
_cell_length_b 16.012264
_cell_length_c 18.540573
_cell_angle_alpha 90.000000
_cell_angle_beta 154.416910
_cell_angle_gamma 90.000000
_cell_volume 1621.261845
_symmetry_space_group_name_H-M "P 21/M"
_symmetry_group_IT_number 11
_symmetry_cell_setting 'monoclinic'
loop_
_space_group_symop_operation_xyz
x,y,z
-x,1/2+y,-z
-x,-y,-z
x,1/2-y,z
loop_
_atom_site_type_symbol
_atom_site_label
_atom_site_fract_x
_atom_site_fract_y
_atom_site_fract_z
Si Si1 0.642607 0.845548 0.085990
Si Si2 0.729227 0.968246 0.496651
Si Si3 0.326560 0.845265 0.191876
Si Si4 0.886614 0.847547 0.018027
Si Si5 0.011229 0.035661 0.790117
Si Si6 0.348191 0.925820 0.686190
Si Si7 0.432818 0.584471 0.103097
Si Si8 0.864148 0.154551 0.313873
O O1 0.730298 0.750000 0.135843
O O2 0.836557 0.911405 0.175503
O O3 0.557085 0.867725 0.113777
O O4 0.404084 0.852682 0.887375
O O5 0.489050 0.913479 0.333475
O O6 0.953659 0.907836 0.613424
O O7 0.732127 0.044212 0.441501
O O8 0.773163 0.001061 0.603890
O O9 0.394866 0.750000 0.252934
O O10 0.370565 0.860391 0.134463
O O11 0.045894 0.856968 0.043669
O O12 0.881744 0.750000 0.035097
O O13 0.610685 0.880542 0.841808
O O14 0.016023 0.902504 0.159327
O O15 0.186448 0.960316 0.923331
O O16 0.165133 0.870128 0.620374
O O17 0.394480 0.009733 0.761632
O O18 0.946287 0.250000 0.357124
#
# Coordination Sequence:
#
# PCOD9160338 Si02
#       8
#     4   4   4   4   4   4   4   4
#     4  11  20  33  57  87 119 153 195 237 283 341
#     4  11  23  37  55  87 125 154 182 236 297 350
#     4  10  23  42  61  84 115 153 197 240 287 341
#     4  10  21  42  66  83 109 153 202 243 280 336
#     4  11  21  36  60  88 118 151 191 240 289 344
#     4  10  21  36  60  85 115 154 195 239 285 340
#     4  10  19  35  58  83 114 151 197 239 275 336
#     4  11  20  34  57  85 121 157 190 231 289 347
#
# _framework density 19.737711000000001
#
# number of rings (size 3 to 8) (size 9 to 14) (size 15 to 20)
#    0.000    1.500    3.750    3.000    0.000    6.000 
#    0.000    5.000    0.000    3.000    0.000    0.000 
#    0.000    0.000    0.000    0.000    0.000    0.000 
#
# Total GULP energy -178838.446941 kJ/mol
# GULP energy per Si atom -5588.701467 kJ/mol
# Density = 1.969279 g / cm^3
# Si number density = 19.737711 Si / 1000 Ang^3
#
#
#
# Elastic Constant Matrix: (Units=GPa)
#
#
# Indices 1 2 3 4 5 6 
#
# 1 69.5637 20.9766 0.4708 0.0000 1.0624 0.0000
# 2 20.9766 68.8864 16.8657 0.0000 1.4257 0.0000
# 3 0.4708 16.8657 38.7202 0.0000 -14.1541 0.0000
# 4 0.0000 0.0000 0.0000 9.0402 0.0000 6.7114
# 5 1.0624 1.4257 -14.1541 0.0000 26.3881 0.0000
# 6 0.0000 0.0000 0.0000 6.7114 0.0000 50.4225
#
#
#
# Elastic Compliance Matrix: (Units=1/GPa)
#
#
# Indices 1 2 3 4 5 6 
#
# 1 0.016010 -0.005533 0.002599 0.000000 0.001048 0.000000
# 2 -0.005533 0.018912 -0.010527 0.000000 -0.006445 0.000000
# 3 0.002599 -0.010527 0.038000 0.000000 0.020847 0.000000
# 4 0.000000 0.000000 0.000000 0.122746 0.000000 -0.016338
# 5 0.001048 -0.006445 0.020847 0.000000 0.049384 0.000000
# 6 0.000000 0.000000 0.000000 -0.016338 0.000000 0.022007
#
#
# Mechanical properties :
#
#
# Convention : Reuss Voigt Hill
#
# Bulk Modulus (GPa) = 21.73882 28.19961 24.96921
# Shear Modulus (GPa) = 16.16476 26.42732 21.29604
#
# Velocity S-wave (km/s) = 2.86488 3.66310 3.28830
# Velocity P-wave (km/s) = 4.68841 5.67532 5.20531
#
# Compressibility (1/GPa) = 0.04600065
#
# Stress axis : x y z
#
# Youngs Moduli (GPa) = 62.46002 52.87583 26.31553
#
# Poissons Ratio (x) = 0.29257 -0.06839
# Poissons Ratio (y) = 0.34560 0.27701
# Poissons Ratio (z) = -0.16231 0.55660
#
# Static dielectric constant tensor:
#      x y z
#    x 1.673470 0.000000 -0.006950 
#    y 0.000000 1.685100 0.000000 
#    z -0.006950 0.000000 1.696050 
# 
# From -- ./inp_files/59517.got.cif
#   From: 2010.05.17/outbox.cif.g08.bks.cpg/sg11_30_cif.got.tgz:59517.got - 2010.06.03 12:22:45.
