data_PCOD9160976
_publ_section_title
;
Structure prediction by ZEFSAII (Michael W. Deem and Ramdas Pophale) SiO2 
 PCOD9160976
Probable space group: P 21/M
;
_chemical_formula_sum "Si O2"
_cell_formula_units_Z 32
_cell_length_a 17.042197
_cell_length_b 7.621431
_cell_length_c 24.308318
_cell_angle_alpha 90.000000
_cell_angle_beta 150.931904
_cell_angle_gamma 90.000000
_cell_volume 1533.974406
_symmetry_space_group_name_H-M "P 21/M"
_symmetry_group_IT_number 11
_symmetry_cell_setting 'monoclinic'
loop_
_space_group_symop_operation_xyz
x,y,z
-x,1/2+y,-z
-x,-y,-z
x,1/2-y,z
loop_
_atom_site_type_symbol
_atom_site_label
_atom_site_fract_x
_atom_site_fract_y
_atom_site_fract_z
Si Si1 0.866934 0.952501 0.848006
Si Si2 0.660099 0.538623 0.820792
Si Si3 0.818250 0.949494 0.022175
Si Si4 0.030058 0.455982 0.657333
Si Si5 0.696860 0.541294 0.395136
Si Si6 0.320374 0.541177 0.370770
Si Si7 0.999101 0.465553 0.761288
Si Si8 0.829345 0.960250 0.366090
O O1 0.915626 0.750000 0.885165
O O2 0.794143 0.025134 0.859804
O O3 0.725301 0.959242 0.715771
O O4 0.016515 0.051747 0.912485
O O5 0.676435 0.750000 0.832445
O O6 0.479990 0.498196 0.690988
O O7 0.692506 0.468644 0.902241
O O8 0.766099 0.750000 0.001461
O O9 0.873485 0.027201 0.114258
O O10 0.068542 0.250000 0.685624
O O11 0.846969 0.468636 0.521833
O O12 0.035106 0.528895 0.721956
O O13 0.147665 0.530531 0.681700
O O14 0.720314 0.750000 0.408596
O O15 0.706208 0.474701 0.337298
O O16 0.500000 0.500000 0.500000
O O17 0.305221 0.750000 0.355370
O O18 0.180051 0.484000 0.327529
O O19 0.001933 0.250000 0.763250
O O20 0.809410 0.750000 0.349261
O O21 0.000000 0.000000 0.500000
#
# Coordination Sequence:
#
# PCOD9160976 Si02
#       8
#     4   4   4   4   4   4   4   4
#     4  10  20  33  49  70  93 124 165 202 240 288
#     4  10  21  34  50  70  95 128 164 201 240 289
#     4   9  18  35  53  70  93 123 163 206 244 281
#     4   9  16  30  52  73  95 125 156 190 236 292
#     4  10  20  31  45  72 102 125 154 195 241 286
#     4  10  20  33  47  67  98 132 161 196 239 282
#     4   8  16  30  50  71  90 118 158 197 232 280
#     4   8  15  28  46  68  95 124 153 187 233 287
#
# _framework density 20.860842000000002
#
# number of rings (size 3 to 8) (size 9 to 14) (size 15 to 20)
#    0.000    2.750    0.000    2.250    1.750    2.000 
#    0.000    2.500    0.000    0.750    0.000    0.000 
#    0.000    0.000    0.000    0.000    0.000    0.625 
#
# Total GULP energy -178366.815307 kJ/mol
# GULP energy per Si atom -5573.962978 kJ/mol
# Density = 2.081336 g / cm^3
# Si number density = 20.860842 Si / 1000 Ang^3
#
#
#
# Elastic Constant Matrix: (Units=GPa)
#
#
# Indices 1 2 3 4 5 6 
#
# 1 98.6393 2.3728 8.7445 0.0000 -37.1940 0.0000
# 2 2.3728 53.3947 -9.0724 0.0000 -3.6759 0.0000
# 3 8.7445 -9.0724 40.9888 0.0000 -18.3635 0.0000
# 4 0.0000 0.0000 0.0000 7.7815 0.0000 -4.5524
# 5 -37.1940 -3.6759 -18.3635 0.0000 34.1539 0.0000
# 6 0.0000 0.0000 0.0000 -4.5524 0.0000 6.0693
#
#
#
# Elastic Compliance Matrix: (Units=1/GPa)
#
#
# Indices 1 2 3 4 5 6 
#
# 1 0.018720 0.002146 0.007533 0.000000 0.024667 0.000000
# 2 0.002146 0.020623 0.008099 0.000000 0.008912 0.000000
# 3 0.007533 0.008099 0.037739 0.000000 0.029366 0.000000
# 4 0.000000 0.000000 0.000000 0.228996 0.000000 0.171763
# 5 0.024667 0.008912 0.029366 0.000000 0.072890 0.000000
# 6 0.000000 0.000000 0.000000 0.171763 0.000000 0.293599
#
#
# Mechanical properties :
#
#
# Convention : Reuss Voigt Hill
#
# Bulk Modulus (GPa) = 8.87803 21.90139 15.38971
# Shear Modulus (GPa) = 7.41228 22.33279 14.87253
#
# Velocity S-wave (km/s) = 1.88704 3.27549 2.67299
# Velocity P-wave (km/s) = 3.00216 4.98264 4.11337
#
# Compressibility (1/GPa) = 0.11263766
#
# Stress axis : x y z
#
# Youngs Moduli (GPa) = 53.41934 48.49013 26.49779
#
# Poissons Ratio (x) = -0.10407 -0.19960
# Poissons Ratio (y) = -0.11465 -0.21461
# Poissons Ratio (z) = -0.40239 -0.39273
#
# Static dielectric constant tensor:
#      x y z
#    x 1.788040 0.000000 -0.033200 
#    y 0.000000 1.837350 0.000000 
#    z -0.033200 0.000000 1.740290 
# 
# From -- ./inp_files/69453.got.cif
#   From: 2010.05.17/outbox.cif.g08.bks.cpg/sg11_35_cif.got.tgz:69453.got - 2010.06.03 12:22:45.
