data_PCOD9160063
_publ_section_title
;
Structure prediction by ZEFSAII (Michael W. Deem and Ramdas Pophale) SiO2 
 PCOD9160063
Probable space group: P 21/M
;
_chemical_formula_sum "Si O2"
_cell_formula_units_Z 32
_cell_length_a 7.826874
_cell_length_b 25.439632
_cell_length_c 14.162255
_cell_angle_alpha 90.000000
_cell_angle_beta 153.071374
_cell_angle_gamma 90.000000
_cell_volume 1277.070642
_symmetry_space_group_name_H-M "P 21/M"
_symmetry_group_IT_number 11
_symmetry_cell_setting 'monoclinic'
loop_
_space_group_symop_operation_xyz
x,y,z
-x,1/2+y,-z
-x,-y,-z
x,1/2-y,z
loop_
_atom_site_type_symbol
_atom_site_label
_atom_site_fract_x
_atom_site_fract_y
_atom_site_fract_z
Si Si1 0.786036 0.115852 0.775831
Si Si2 0.009838 0.492227 0.821991
Si Si3 0.484260 0.192057 0.479065
Si Si4 0.148680 0.514799 0.467745
Si Si5 0.644220 0.372042 0.390720
Si Si6 0.391853 0.693277 0.006246
Si Si7 0.414378 0.190202 0.115019
Si Si8 0.246790 0.591911 0.042347
O O1 0.057399 0.070206 0.866739
O O2 0.529630 0.142662 0.571150
O O3 0.605092 0.089945 0.778155
O O4 0.003999 0.165782 0.927695
O O5 0.585458 0.501474 0.654683
O O6 0.037042 0.503908 0.723336
O O7 0.257256 0.534850 0.999725
O O8 0.597375 0.250000 0.571230
O O9 0.702855 0.175308 0.492730
O O10 0.054088 0.195658 0.235421
O O11 0.129787 0.577804 0.464521
O O12 0.000000 0.500000 0.500000
O O13 0.690063 0.348225 0.308759
O O14 0.204619 0.392666 0.179240
O O15 0.499596 0.750000 0.101996
O O16 0.558489 0.688734 0.983929
O O17 0.446422 0.640250 0.089686
O O18 0.456763 0.250000 0.168216
#
# Coordination Sequence:
#
# PCOD9160063 Si02
#       8
#     4   4   4   4   4   4   4   4
#     4  11  21  37  57  85 119 154 196 244 308 357
#     4  10  21  39  58  86 126 158 200 248 300 364
#     4  10  19  34  58  84 110 147 198 250 298 351
#     4  10  21  36  61  92 120 158 200 253 303 357
#     4   9  18  35  56  83 110 150 201 233 292 367
#     4   9  20  38  58  84 113 151 201 245 290 358
#     4  10  21  37  58  83 118 156 194 245 301 362
#     4   9  20  36  59  78 113 162 190 236 295 364
#
# _framework density 25.057345999999999
#
# number of rings (size 3 to 8) (size 9 to 14) (size 15 to 20)
#    0.000    2.250    1.250    1.125    3.500    3.500 
#    2.250    1.875    0.000    3.000    0.000    0.000 
#    0.000    0.000    0.000    0.000    0.000    0.000 
#
# Total GULP energy -178637.129668 kJ/mol
# GULP energy per Si atom -5582.410302 kJ/mol
# Density = 2.500031 g / cm^3
# Si number density = 25.057346 Si / 1000 Ang^3
#
#
#
# Elastic Constant Matrix: (Units=GPa)
#
#
# Indices 1 2 3 4 5 6 
#
# 1 123.5738 40.5270 29.4522 0.0000 -18.8572 0.0000
# 2 40.5270 151.6869 24.7179 0.0000 -12.7292 0.0000
# 3 29.4522 24.7179 31.4743 0.0000 -12.8481 0.0000
# 4 0.0000 0.0000 0.0000 59.6868 0.0000 -57.7450
# 5 -18.8572 -12.7292 -12.8481 0.0000 37.9429 0.0000
# 6 0.0000 0.0000 0.0000 -57.7450 0.0000 140.2950
#
#
#
# Elastic Compliance Matrix: (Units=1/GPa)
#
#
# Indices 1 2 3 4 5 6 
#
# 1 0.010818 -0.001380 -0.008162 0.000000 0.002150 0.000000
# 2 -0.001380 0.007748 -0.004656 0.000000 0.000337 0.000000
# 3 -0.008162 -0.004656 0.047312 0.000000 0.010402 0.000000
# 4 0.000000 0.000000 0.000000 0.027840 0.000000 0.011459
# 5 0.002150 0.000337 0.010402 0.000000 0.031059 0.000000
# 6 0.000000 0.000000 0.000000 0.011459 0.000000 0.011844
#
#
# Mechanical properties :
#
#
# Convention : Reuss Voigt Hill
#
# Bulk Modulus (GPa) = 26.67884 55.12548 40.90216
# Shear Modulus (GPa) = 28.16695 61.72082 44.94388
#
# Velocity S-wave (km/s) = 3.35640 4.96843 4.23973
# Velocity P-wave (km/s) = 5.06861 7.41358 6.35027
#
# Compressibility (1/GPa) = 0.03748289
#
# Stress axis : x y z
#
# Youngs Moduli (GPa) = 92.43651 129.06188 21.13611
#
# Poissons Ratio (x) = 0.17810 0.17251
# Poissons Ratio (y) = 0.12756 0.09841
# Poissons Ratio (z) = 0.75446 0.60093
#
# Static dielectric constant tensor:
#      x y z
#    x 2.089060 0.000000 0.085530 
#    y 0.000000 1.959370 0.000000 
#    z 0.085530 0.000000 2.037030 
# 
# From -- ./inp_files/48463.got.cif
#   From: 2010.05.17/outbox.cif.g08.bks.cpg/sg11_25_cif.got.tgz:48463.got - 2010.06.03 12:22:45.
