data_PCOD9160300
_publ_section_title
;
Structure prediction by ZEFSAII (Michael W. Deem and Ramdas Pophale) SiO2 
 PCOD9160300
Probable space group: P 21/M
;
_chemical_formula_sum "Si O2"
_cell_formula_units_Z 32
_cell_length_a 15.235321
_cell_length_b 7.700316
_cell_length_c 12.940130
_cell_angle_alpha 90.000000
_cell_angle_beta 69.296380
_cell_angle_gamma 90.000000
_cell_volume 1420.058497
_symmetry_space_group_name_H-M "P 21/M"
_symmetry_group_IT_number 11
_symmetry_cell_setting 'monoclinic'
loop_
_space_group_symop_operation_xyz
x,y,z
-x,1/2+y,-z
-x,-y,-z
x,1/2-y,z
loop_
_atom_site_type_symbol
_atom_site_label
_atom_site_fract_x
_atom_site_fract_y
_atom_site_fract_z
Si Si1 0.835126 0.546358 0.097646
Si Si2 0.432244 0.049206 0.278285
Si Si3 0.608082 0.456881 0.482935
Si Si4 0.892008 0.541180 0.518354
Si Si5 0.086815 0.463108 0.716556
Si Si6 0.638716 0.460702 0.247324
Si Si7 0.744878 0.954932 0.748488
Si Si8 0.117384 0.950404 0.145279
O O1 0.856349 0.750000 0.085905
O O2 0.867612 0.476320 0.195404
O O3 0.723570 0.517781 0.140600
O O4 0.883308 0.466260 0.977594
O O5 0.449959 0.250000 0.244280
O O6 0.536223 0.973790 0.253771
O O7 0.358896 0.970875 0.227711
O O8 0.377915 0.040703 0.411411
O O9 0.500000 0.500000 0.500000
O O10 0.619476 0.250000 0.489040
O O11 0.659294 0.519248 0.357440
O O12 0.884955 0.750000 0.520784
O O13 0.870576 0.479586 0.410411
O O14 0.820552 0.473018 0.634593
O O15 0.000000 0.500000 0.500000
O O16 0.088724 0.250000 0.716909
O O17 0.978407 0.522546 0.766895
O O18 0.635419 0.250000 0.252657
O O19 0.736188 0.750000 0.730501
O O20 0.790535 0.970826 0.841600
O O21 0.119974 0.750000 0.172336
#
# Coordination Sequence:
#
# PCOD9160300 Si02
#       8
#     4   4   4   4   4   4   4   4
#     4  11  23  38  60  85 110 145 194 240 281 337
#     4   9  19  35  56  81 114 152 189 232 280 335
#     4   9  17  30  50  76 109 146 184 227 275 332
#     4  10  19  35  57  85 119 150 184 227 279 337
#     4   9  20  37  58  85 115 148 184 227 283 340
#     4   9  19  36  53  78 114 148 186 232 283 330
#     4  10  21  36  59  87 116 152 191 232 278 336
#     4  11  22  40  61  80 113 151 187 235 286 338
#
# _framework density 22.534282000000001
#
# number of rings (size 3 to 8) (size 9 to 14) (size 15 to 20)
#    0.000    2.250    1.250    2.250    1.750    3.000 
#    0.000    3.750    0.000    0.000    0.000    0.000 
#    0.000    0.000    0.000    0.000    0.000    0.000 
#
# Total GULP energy -178632.462618 kJ/mol
# GULP energy per Si atom -5582.264457 kJ/mol
# Density = 2.248299 g / cm^3
# Si number density = 22.534282 Si / 1000 Ang^3
#
#
#
# Elastic Constant Matrix: (Units=GPa)
#
#
# Indices 1 2 3 4 5 6 
#
# 1 96.5857 2.2668 -0.8671 0.0000 21.3171 0.0000
# 2 2.2668 42.1412 -4.2450 0.0000 0.4178 0.0000
# 3 -0.8671 -4.2450 56.0709 0.0000 13.2554 0.0000
# 4 0.0000 0.0000 0.0000 20.6579 0.0000 0.9429
# 5 21.3171 0.4178 13.2554 0.0000 30.0706 0.0000
# 6 0.0000 0.0000 0.0000 0.9429 0.0000 15.2093
#
#
#
# Elastic Compliance Matrix: (Units=1/GPa)
#
#
# Indices 1 2 3 4 5 6 
#
# 1 0.012602 -0.000322 0.002547 0.000000 -0.010052 0.000000
# 2 -0.000322 0.023963 0.002047 0.000000 -0.001007 0.000000
# 3 0.002547 0.002047 0.020610 0.000000 -0.010919 0.000000
# 4 0.000000 0.000000 0.000000 0.048545 0.000000 -0.003009
# 5 -0.010052 -0.001007 -0.010919 0.000000 0.045208 0.000000
# 6 0.000000 0.000000 0.000000 -0.003009 0.000000 0.065936
#
#
# Mechanical properties :
#
#
# Convention : Reuss Voigt Hill
#
# Bulk Modulus (GPa) = 15.21576 21.01190 18.11383
# Shear Modulus (GPa) = 21.71769 26.36377 24.04073
#
# Velocity S-wave (km/s) = 3.10782 3.42415 3.26981
# Velocity P-wave (km/s) = 4.43227 4.99777 4.72349
#
# Compressibility (1/GPa) = 0.06572133
#
# Stress axis : x y z
#
# Youngs Moduli (GPa) = 79.34943 41.73053 48.51946
#
# Poissons Ratio (x) = 0.01342 -0.12357
# Poissons Ratio (y) = 0.02552 -0.09934
# Poissons Ratio (z) = -0.20210 -0.08544
#
# Static dielectric constant tensor:
#      x y z
#    x 1.880680 0.000000 0.001250 
#    y 0.000000 1.825440 0.000000 
#    z 0.001250 0.000000 1.821690 
# 
# From -- ./inp_files/51646.got.cif
#   From: 2010.05.17/outbox.cif.g08.bks.cpg/sg11_26_cif.got.tgz:51646.got - 2010.06.03 12:22:45.
