data_PCOD9160086
_publ_section_title
;
Structure prediction by ZEFSAII (Michael W. Deem and Ramdas Pophale) SiO2 
 PCOD9160086
Probable space group: P 21/M
;
_chemical_formula_sum "Si O2"
_cell_formula_units_Z 32
_cell_length_a 14.773863
_cell_length_b 14.918472
_cell_length_c 10.938119
_cell_angle_alpha 90.000000
_cell_angle_beta 39.283902
_cell_angle_gamma 90.000000
_cell_volume 1526.429940
_symmetry_space_group_name_H-M "P 21/M"
_symmetry_group_IT_number 11
_symmetry_cell_setting 'monoclinic'
loop_
_space_group_symop_operation_xyz
x,y,z
-x,1/2+y,-z
-x,-y,-z
x,1/2-y,z
loop_
_atom_site_type_symbol
_atom_site_label
_atom_site_fract_x
_atom_site_fract_y
_atom_site_fract_z
Si Si1 0.422428 0.403421 0.577157
Si Si2 0.695059 0.652293 0.807624
Si Si3 0.309648 0.845930 0.841325
Si Si4 0.257462 0.644465 0.350592
Si Si5 0.927822 0.858993 0.751876
Si Si6 0.570085 0.416599 0.054251
Si Si7 0.138731 0.023476 0.934683
Si Si8 0.511868 0.890525 0.223709
O O1 0.500000 0.500000 0.500000
O O2 0.527967 0.350540 0.379825
O O3 0.256072 0.422662 0.730266
O O4 0.433824 0.364512 0.701416
O O5 0.739682 0.750000 0.715368
O O6 0.830707 0.611293 0.736894
O O7 0.591343 0.609780 0.814711
O O8 0.587292 0.660527 0.035135
O O9 0.245159 0.750000 0.873995
O O10 0.338439 0.852485 0.955234
O O11 0.216049 0.930409 0.894942
O O12 0.275819 0.750000 0.299662
O O13 0.343998 0.625462 0.385026
O O14 0.091965 0.626968 0.543432
O O15 0.337616 0.582556 0.166804
O O16 0.905713 0.750000 0.793178
O O17 0.892873 0.916533 0.910469
O O18 0.554820 0.507581 0.146944
O O19 0.000000 0.000000 0.000000
#
# Coordination Sequence:
#
# PCOD9160086 Si02
#       8
#     4   4   4   4   4   4   4   4
#     4  10  21  40  60  86 120 157 208 263 309 360
#     4  10  19  34  58  87 118 155 198 253 308 363
#     4  11  24  42  67  93 124 170 215 262 324 383
#     4  10  22  36  59  93 125 161 208 258 311 375
#     4  10  22  40  61  91 129 170 212 260 320 376
#     4  11  20  38  62  89 124 159 202 257 315 381
#     4  11  24  43  64  90 133 168 208 270 317 382
#     4  11  19  36  61  85 117 156 208 259 308 364
#
# _framework density 20.963950000000001
#
# number of rings (size 3 to 8) (size 9 to 14) (size 15 to 20)
#    0.000    1.500    3.750    3.750    3.500    2.000 
#    0.000    6.875    0.000    0.000    0.000    0.875 
#    0.000    0.000    0.000    0.000    0.000    0.000 
#
# Total GULP energy -178346.979742 kJ/mol
# GULP energy per Si atom -5573.343117 kJ/mol
# Density = 2.091623 g / cm^3
# Si number density = 20.963950 Si / 1000 Ang^3
#
#
#
# Elastic Constant Matrix: (Units=GPa)
#
#
# Indices 1 2 3 4 5 6 
#
# 1 117.4135 21.8891 40.5032 0.0000 -34.7330 0.0000
# 2 21.8891 90.8399 9.4513 0.0000 -6.8437 0.0000
# 3 40.5032 9.4513 67.5761 0.0000 -28.7717 0.0000
# 4 0.0000 0.0000 0.0000 14.6555 0.0000 -8.0842
# 5 -34.7330 -6.8437 -28.7717 0.0000 42.0213 0.0000
# 6 0.0000 0.0000 0.0000 -8.0842 0.0000 20.3562
#
#
#
# Elastic Compliance Matrix: (Units=1/GPa)
#
#
# Indices 1 2 3 4 5 6 
#
# 1 0.012424 -0.002028 -0.004138 0.000000 0.007106 0.000000
# 2 -0.002028 0.011535 -0.000440 0.000000 -0.000099 0.000000
# 3 -0.004138 -0.000440 0.022376 0.000000 0.011829 0.000000
# 4 0.000000 0.000000 0.000000 0.087375 0.000000 0.034700
# 5 0.007106 -0.000099 0.011829 0.000000 0.037754 0.000000
# 6 0.000000 0.000000 0.000000 0.034700 0.000000 0.062905
#
#
# Mechanical properties :
#
#
# Convention : Reuss Voigt Hill
#
# Bulk Modulus (GPa) = 30.18873 46.61296 38.40084
# Shear Modulus (GPa) = 19.33314 29.00566 24.16940
#
# Velocity S-wave (km/s) = 3.04008 3.72371 3.39913
# Velocity P-wave (km/s) = 5.17246 6.38523 5.81057
#
# Compressibility (1/GPa) = 0.03312495
#
# Stress axis : x y z
#
# Youngs Moduli (GPa) = 80.48648 86.68986 44.69053
#
# Poissons Ratio (x) = 0.17581 0.18491
# Poissons Ratio (y) = 0.16323 0.01966
# Poissons Ratio (z) = 0.33302 0.03813
#
# Static dielectric constant tensor:
#      x y z
#    x 1.792720 0.000000 -0.004950 
#    y 0.000000 2.058270 0.000000 
#    z -0.004950 0.000000 1.760710 
# 
# From -- ./inp_files/39628.got.cif
#   From: 2010.05.17/outbox.cif.g08.bks.cpg/sg11_20_cif.got.tgz:39628.got - 2010.06.03 12:22:45.
