data_PCOD9160855
_publ_section_title
;
Structure prediction by ZEFSAII (Michael W. Deem and Ramdas Pophale) SiO2 
 PCOD9160855
Probable space group: P 21/M
;
_chemical_formula_sum "Si O2"
_cell_formula_units_Z 28
_cell_length_a 15.865605
_cell_length_b 10.528649
_cell_length_c 8.704123
_cell_angle_alpha 90.000000
_cell_angle_beta 118.422889
_cell_angle_gamma 90.000000
_cell_volume 1278.702910
_symmetry_space_group_name_H-M "P 21/M"
_symmetry_group_IT_number 11
_symmetry_cell_setting 'monoclinic'
loop_
_space_group_symop_operation_xyz
x,y,z
-x,1/2+y,-z
-x,-y,-z
x,1/2-y,z
loop_
_atom_site_type_symbol
_atom_site_label
_atom_site_fract_x
_atom_site_fract_y
_atom_site_fract_z
Si Si1 0.044541 0.900326 0.914529
Si Si2 0.269021 0.029043 0.450614
Si Si3 0.197013 0.611632 0.645963
Si Si4 0.200827 0.106284 0.053632
Si Si5 0.640911 0.529077 0.031116
Si Si6 0.538369 0.605412 0.248831
Si Si7 0.101467 0.118177 0.493958
O O1 0.062204 0.750000 0.974545
O O2 0.137467 0.983582 0.952220
O O3 0.968299 0.892641 0.710597
O O4 0.000000 0.000000 0.000000
O O5 0.239010 0.068352 0.255582
O O6 0.381682 0.040522 0.575111
O O7 0.209784 0.119971 0.516318
O O8 0.227642 0.899798 0.491407
O O9 0.164508 0.750000 0.660738
O O10 0.291403 0.572527 0.821989
O O11 0.110958 0.511950 0.593159
O O12 0.157048 0.250000 0.023797
O O13 0.287031 0.110279 0.007569
O O14 0.583879 0.599974 0.116588
O O15 0.562503 0.464550 0.853661
O O16 0.525841 0.750000 0.286618
O O17 0.084155 0.250000 0.564807
#
# Coordination Sequence:
#
# PCOD9160855 Si02
#       7
#     4   4   4   4   4   4   4
#     4  11  22  37  60  90 124 165 205 249 304 366
#     4   9  20  34  62  87 119 159 204 246 299 361
#     4   9  19  36  59  85 118 156 200 249 298 357
#     4  12  24  40  61  93 129 161 202 257 309 363
#     4  10  23  36  59  90 121 159 203 255 307 363
#     4  10  19  38  62  83 113 163 211 247 300 368
#     4   9  18  34  58  85 114 152 201 243 289 356
#
# _framework density 21.897189999999998
#
# number of rings (size 3 to 8) (size 9 to 14) (size 15 to 20)
#    0.857    1.143    1.429    2.571    0.000    5.143 
#    0.000    1.429    0.000    0.000    0.000    0.000 
#    0.000    0.000    0.000    0.000    0.000    0.000 
#
# Total GULP energy -155968.052479 kJ/mol
# GULP energy per Si atom -5570.287589 kJ/mol
# Density = 2.184735 g / cm^3
# Si number density = 21.897190 Si / 1000 Ang^3
#
#
#
# Elastic Constant Matrix: (Units=GPa)
#
#
# Indices 1 2 3 4 5 6 
#
# 1 59.8340 33.7803 6.3395 0.0000 11.6206 0.0000
# 2 33.7803 174.1923 49.8100 0.0000 17.4884 0.0000
# 3 6.3395 49.8100 79.0520 0.0000 14.6223 0.0000
# 4 0.0000 0.0000 0.0000 5.8794 0.0000 1.9862
# 5 11.6206 17.4884 14.6223 0.0000 37.2727 0.0000
# 6 0.0000 0.0000 0.0000 1.9862 0.0000 8.7068
#
#
#
# Elastic Compliance Matrix: (Units=1/GPa)
#
#
# Indices 1 2 3 4 5 6 
#
# 1 0.019654 -0.003808 0.001753 0.000000 -0.005029 0.000000
# 2 -0.003808 0.007839 -0.004500 0.000000 -0.000726 0.000000
# 3 0.001753 -0.004500 0.016233 0.000000 -0.004804 0.000000
# 4 0.000000 0.000000 0.000000 0.184287 0.000000 -0.042039
# 5 -0.005029 -0.000726 -0.004804 0.000000 0.030622 0.000000
# 6 0.000000 0.000000 0.000000 -0.042039 0.000000 0.124443
#
#
# Mechanical properties :
#
#
# Convention : Reuss Voigt Hill
#
# Bulk Modulus (GPa) = 32.66144 54.77088 43.71616
# Shear Modulus (GPa) = 12.30343 25.24834 18.77588
#
# Velocity S-wave (km/s) = 2.37296 3.39933 2.93141
# Velocity P-wave (km/s) = 4.73879 6.36194 5.60938
#
# Compressibility (1/GPa) = 0.03061714
#
# Stress axis : x y z
#
# Youngs Moduli (GPa) = 50.88140 127.57238 61.60311
#
# Poissons Ratio (x) = 0.48577 -0.10801
# Poissons Ratio (y) = 0.19375 0.27718
# Poissons Ratio (z) = -0.08921 0.57401
#
# Static dielectric constant tensor:
#      x y z
#    x 1.846270 0.000000 0.000150 
#    y 0.000000 1.912650 0.000000 
#    z 0.000150 0.000000 1.794660 
# 
# From -- ./inp_files/21607.got.cif
#   From: 2010.05.17/outbox.cif.g08.bks.cpg/sg11_11_cif.got.tgz:21607.got - 2010.06.03 12:22:45.
