data_PCOD9160029
_publ_section_title
;
Structure prediction by ZEFSAII (Michael W. Deem and Ramdas Pophale) SiO2 
 PCOD9160029
Probable space group: P 21/M
;
_chemical_formula_sum "Si O2"
_cell_formula_units_Z 32
_cell_length_a 15.697353
_cell_length_b 8.295051
_cell_length_c 27.323217
_cell_angle_alpha 90.000000
_cell_angle_beta 154.247065
_cell_angle_gamma 90.000000
_cell_volume 1545.818487
_symmetry_space_group_name_H-M "P 21/M"
_symmetry_group_IT_number 11
_symmetry_cell_setting 'monoclinic'
loop_
_space_group_symop_operation_xyz
x,y,z
-x,1/2+y,-z
-x,-y,-z
x,1/2-y,z
loop_
_atom_site_type_symbol
_atom_site_label
_atom_site_fract_x
_atom_site_fract_y
_atom_site_fract_z
Si Si1 0.074118 0.555312 0.485892
Si Si2 0.528114 0.442462 0.358009
Si Si3 0.256964 0.053120 0.760913
Si Si4 0.338081 0.555732 0.078107
Si Si5 0.422859 0.942729 0.407329
Si Si6 0.221654 0.942904 0.123421
Si Si7 0.277398 0.055567 0.880180
Si Si8 0.022226 0.054965 0.840128
O O1 0.078521 0.750000 0.487978
O O2 0.288144 0.497945 0.579448
O O3 0.000000 0.500000 0.500000
O O4 0.912233 0.501013 0.363070
O O5 0.533492 0.250000 0.362140
O O6 0.541605 0.502813 0.420746
O O7 0.329515 0.494841 0.227671
O O8 0.262155 0.250000 0.763397
O O9 0.470689 0.998060 0.852679
O O10 0.210904 0.001344 0.792151
O O11 0.341131 0.750000 0.079167
O O12 0.338820 0.503734 0.135071
O O13 0.140119 0.500804 0.948821
O O14 0.420049 0.750000 0.407107
O O15 0.200349 0.001187 0.281670
O O16 0.500000 0.000000 0.500000
O O17 0.221890 0.750000 0.125800
O O18 0.000000 0.000000 0.000000
O O19 0.271830 0.250000 0.878456
O O20 0.147135 0.997586 0.857828
O O21 0.500000 0.000000 0.000000
O O22 0.020068 0.250000 0.839612
#
# Coordination Sequence:
#
# PCOD9160029 Si02
#       8
#     4   4   4   4   4   4   4   4
#     4  10  22  40  64  90 122 164 206 254 308 369
#     4  11  24  42  65  93 126 165 209 258 314 376
#     4   9  18  34  57  82 112 152 193 233 293 358
#     4  10  20  35  58  86 115 152 193 239 294 359
#     4  11  25  44  65  89 120 163 211 261 314 372
#     4  11  23  39  62  89 120 157 203 254 309 370
#     4  10  19  34  57  84 116 152 191 238 293 357
#     4  10  22  37  58  86 118 154 195 246 301 358
#
# _framework density 20.701008000000002
#
# number of rings (size 3 to 8) (size 9 to 14) (size 15 to 20)
#    0.000    1.750    1.250    2.625    1.750    6.000 
#    0.000    1.250    0.000    0.000    0.000    0.000 
#    0.000    0.000    0.000    0.000    0.000    0.000 
#
# Total GULP energy -178804.110028 kJ/mol
# GULP energy per Si atom -5587.628438 kJ/mol
# Density = 2.065389 g / cm^3
# Si number density = 20.701008 Si / 1000 Ang^3
#
#
#
# Elastic Constant Matrix: (Units=GPa)
#
#
# Indices 1 2 3 4 5 6 
#
# 1 119.7418 18.3845 42.3356 0.0000 -16.7043 0.0000
# 2 18.3845 21.5021 12.4107 0.0000 -3.4517 0.0000
# 3 42.3356 12.4107 125.6944 0.0000 -18.1162 0.0000
# 4 0.0000 0.0000 0.0000 26.0266 0.0000 -4.6350
# 5 -16.7043 -3.4517 -18.1162 0.0000 45.0630 0.0000
# 6 0.0000 0.0000 0.0000 -4.6350 0.0000 26.5617
#
#
#
# Elastic Compliance Matrix: (Units=1/GPa)
#
#
# Indices 1 2 3 4 5 6 
#
# 1 0.010704 -0.007302 -0.002540 0.000000 0.002387 0.000000
# 2 -0.007302 0.054459 -0.002873 0.000000 0.000309 0.000000
# 3 -0.002540 -0.002873 0.009477 0.000000 0.002648 0.000000
# 4 0.000000 0.000000 0.000000 0.039655 0.000000 0.006920
# 5 0.002387 0.000309 0.002648 0.000000 0.024164 0.000000
# 6 0.000000 0.000000 0.000000 0.006920 0.000000 0.038856
#
#
# Mechanical properties :
#
#
# Convention : Reuss Voigt Hill
#
# Bulk Modulus (GPa) = 20.32183 45.91111 33.11647
# Shear Modulus (GPa) = 22.81576 32.45077 27.63326
#
# Velocity S-wave (km/s) = 3.32348 3.96358 3.65756
# Velocity P-wave (km/s) = 4.95636 6.57061 5.81973
#
# Compressibility (1/GPa) = 0.04920817
#
# Stress axis : x y z
#
# Youngs Moduli (GPa) = 93.42715 18.36256 105.52234
#
# Poissons Ratio (x) = 0.13409 0.26803
# Poissons Ratio (y) = 0.68224 0.30316
# Poissons Ratio (z) = 0.23731 0.05275
#
# Static dielectric constant tensor:
#      x y z
#    x 1.764570 0.000000 -0.008330 
#    y 0.000000 1.723000 0.000000 
#    z -0.008330 0.000000 1.725110 
# 
# From -- ./inp_files/69105.got.cif
#   From: 2010.05.17/outbox.cif.g08.bks.cpg/sg11_35_cif.got.tgz:69105.got - 2010.06.03 12:22:45.
