data_PCOD9160781
_publ_section_title
;
Structure prediction by ZEFSAII (Michael W. Deem and Ramdas Pophale) SiO2 
 PCOD9160781
Probable space group: P 21/M
;
_chemical_formula_sum "Si O2"
_cell_formula_units_Z 28
_cell_length_a 20.852056
_cell_length_b 8.369627
_cell_length_c 23.974070
_cell_angle_alpha 90.000000
_cell_angle_beta 18.794360
_cell_angle_gamma 90.000000
_cell_volume 1347.985543
_symmetry_space_group_name_H-M "P 21/M"
_symmetry_group_IT_number 11
_symmetry_cell_setting 'monoclinic'
loop_
_space_group_symop_operation_xyz
x,y,z
-x,1/2+y,-z
-x,-y,-z
x,1/2-y,z
loop_
_atom_site_type_symbol
_atom_site_label
_atom_site_fract_x
_atom_site_fract_y
_atom_site_fract_z
Si Si1 0.358025 0.560142 0.842655
Si Si2 0.076138 0.941753 0.496932
Si Si3 0.534561 0.559603 0.127947
Si Si4 0.432769 0.066104 0.495994
Si Si5 0.135200 0.941401 0.218542
Si Si6 0.190500 0.438440 0.875982
Si Si7 0.771001 0.944893 0.441740
O O1 0.335741 0.750000 0.854484
O O2 0.356159 0.516143 0.908714
O O3 0.195506 0.473791 0.937753
O O4 0.576771 0.511066 0.638595
O O5 0.073000 0.750000 0.501240
O O6 0.305363 0.995676 0.316147
O O7 0.000000 0.000000 0.500000
O O8 0.940736 0.007038 0.658421
O O9 0.536000 0.750000 0.132693
O O10 0.654727 0.511003 0.973921
O O11 0.382881 0.250000 0.546473
O O12 0.263627 0.997382 0.593514
O O13 0.500000 0.000000 0.500000
O O14 0.628163 0.042264 0.297432
O O15 0.144129 0.750000 0.208809
O O16 0.967509 0.998058 0.312004
O O17 0.221329 0.250000 0.840663
O O18 0.000000 0.500000 0.000000
O O19 0.773619 0.750000 0.437635
#
# Coordination Sequence:
#
# PCOD9160781 Si02
#       7
#     4   4   4   4   4   4   4
#     4  10  19  37  62  87 118 160 208 260 317 378
#     4  11  25  45  69  96 131 171 212 263 321 383
#     4  11  24  41  63  97 133 168 212 261 316 382
#     4  10  20  36  55  81 116 159 207 257 314 375
#     4  11  22  40  67  97 127 167 216 265 316 377
#     4  11  22  37  56  82 116 159 208 259 317 377
#     4   8  17  34  58  84 114 154 204 255 309 371
#
# _framework density 20.771735
#
# number of rings (size 3 to 8) (size 9 to 14) (size 15 to 20)
#    0.000    1.714    1.429    4.286    0.000    3.429 
#    0.000    6.429    0.000    0.000    0.000    0.000 
#    0.000    0.000    0.000    0.000    0.000    0.000 
#
# Total GULP energy -156369.591544 kJ/mol
# GULP energy per Si atom -5584.628269 kJ/mol
# Density = 2.072446 g / cm^3
# Si number density = 20.771735 Si / 1000 Ang^3
#
#
#
# Elastic Constant Matrix: (Units=GPa)
#
#
# Indices 1 2 3 4 5 6 
#
# 1 127.7972 10.9754 20.3722 0.0000 14.2304 0.0000
# 2 10.9754 40.1731 -0.7145 0.0000 1.2814 0.0000
# 3 20.3722 -0.7145 57.6665 0.0000 18.6471 0.0000
# 4 0.0000 0.0000 0.0000 24.4257 0.0000 6.1164
# 5 14.2304 1.2814 18.6471 0.0000 26.5776 0.0000
# 6 0.0000 0.0000 0.0000 6.1164 0.0000 35.7767
#
#
#
# Elastic Compliance Matrix: (Units=1/GPa)
#
#
# Indices 1 2 3 4 5 6 
#
# 1 0.008702 -0.002317 -0.002111 0.000000 -0.003066 0.000000
# 2 -0.002317 0.025584 0.001466 0.000000 -0.001021 0.000000
# 3 -0.002111 0.001466 0.022975 0.000000 -0.015060 0.000000
# 4 0.000000 0.000000 0.000000 0.042772 0.000000 -0.007312
# 5 -0.003066 -0.001021 -0.015060 0.000000 0.049883 0.000000
# 6 0.000000 0.000000 0.000000 -0.007312 0.000000 0.029201
#
#
# Mechanical properties :
#
#
# Convention : Reuss Voigt Hill
#
# Bulk Modulus (GPa) = 19.47979 31.87811 25.67895
# Shear Modulus (GPa) = 24.73371 30.35625 27.54498
#
# Velocity S-wave (km/s) = 3.45445 3.82700 3.64549
# Velocity P-wave (km/s) = 5.03084 5.90831 5.48714
#
# Compressibility (1/GPa) = 0.05133525
#
# Stress axis : x y z
#
# Youngs Moduli (GPa) = 114.91748 39.08703 43.52583
#
# Poissons Ratio (x) = 0.09057 0.09190
# Poissons Ratio (y) = 0.26628 -0.06380
# Poissons Ratio (z) = 0.24264 -0.05729
#
# Static dielectric constant tensor:
#      x y z
#    x 1.794140 0.000000 0.005050 
#    y 0.000000 1.721470 0.000000 
#    z 0.005050 0.000000 1.741190 
# 
# From -- ./inp_files/69783.got.cif
#   From: 2010.05.17/outbox.cif.g08.bks.cpg/sg11_35_cif.got.tgz:69783.got - 2010.06.03 12:22:45.
