data_PCOD9160905
_publ_section_title
;
Structure prediction by ZEFSAII (Michael W. Deem and Ramdas Pophale) SiO2 
 PCOD9160905
Probable space group: P 21/M
;
_chemical_formula_sum "Si O2"
_cell_formula_units_Z 32
_cell_length_a 29.633836
_cell_length_b 7.773135
_cell_length_c 12.584433
_cell_angle_alpha 90.000000
_cell_angle_beta 148.061000
_cell_angle_gamma 90.000000
_cell_volume 1533.510016
_symmetry_space_group_name_H-M "P 21/M"
_symmetry_group_IT_number 11
_symmetry_cell_setting 'monoclinic'
loop_
_space_group_symop_operation_xyz
x,y,z
-x,1/2+y,-z
-x,-y,-z
x,1/2-y,z
loop_
_atom_site_type_symbol
_atom_site_label
_atom_site_fract_x
_atom_site_fract_y
_atom_site_fract_z
Si Si1 0.094124 0.956987 0.725913
Si Si2 0.146261 0.549659 0.058361
Si Si3 0.753772 0.038972 0.125896
Si Si4 0.651037 0.451192 0.549067
Si Si5 0.254489 0.951031 0.648811
Si Si6 0.596581 0.042822 0.666643
Si Si7 0.098221 0.056003 0.194386
Si Si8 0.598557 0.458169 0.215223
O O1 0.104312 0.750000 0.752970
O O2 0.166324 0.017733 0.787299
O O3 0.106399 0.022307 0.870666
O O4 0.000000 0.000000 0.500000
O O5 0.119993 0.750000 0.020092
O O6 0.247270 0.546596 0.243028
O O7 0.125453 0.457647 0.126179
O O8 0.756543 0.250000 0.132390
O O9 0.756584 0.978307 0.253873
O O10 0.666625 0.984717 0.892649
O O11 0.623835 0.250000 0.493047
O O12 0.616660 0.527824 0.589406
O O13 0.622819 0.526632 0.380427
O O14 0.274412 0.750000 0.703824
O O15 0.333561 0.023391 0.737162
O O16 0.167813 0.960605 0.406324
O O17 0.606125 0.250000 0.681938
O O18 0.500000 0.000000 0.500000
O O19 0.102321 0.250000 0.241103
O O20 0.000000 0.000000 0.000000
O O21 0.608326 0.250000 0.236322
O O22 0.500000 0.500000 0.000000
#
# Coordination Sequence:
#
# PCOD9160905 Si02
#       8
#     4   4   4   4   4   4   4   4
#     4  10  21  37  60  88 118 153 192 238 288 347
#     4  10  19  39  65  85 113 154 200 245 293 349
#     4   9  19  37  60  84 115 155 193 231 285 349
#     4   9  17  35  60  80 108 152 196 236 287 345
#     4  10  21  40  62  85 118 158 198 241 292 350
#     4  10  20  36  58  84 114 153 196 239 287 344
#     4  12  26  42  62  89 119 153 195 245 297 357
#     4  10  21  36  57  83 115 154 194 240 289 343
#
# _framework density 20.867159000000001
#
# number of rings (size 3 to 8) (size 9 to 14) (size 15 to 20)
#    0.000    2.000    2.500    1.125    3.500    1.000 
#    0.000    1.875    0.000    0.000    0.000    0.000 
#    0.000    0.000    0.000    0.000    0.000    0.000 
#
# Total GULP energy -178614.044547 kJ/mol
# GULP energy per Si atom -5581.688892 kJ/mol
# Density = 2.081966 g / cm^3
# Si number density = 20.867159 Si / 1000 Ang^3
#
#
#
# Elastic Constant Matrix: (Units=GPa)
#
#
# Indices 1 2 3 4 5 6 
#
# 1 142.6112 1.0862 65.2327 0.0000 -9.4874 0.0000
# 2 1.0862 27.1984 -9.9210 0.0000 -2.8221 0.0000
# 3 65.2327 -9.9210 141.1499 0.0000 -14.5169 0.0000
# 4 0.0000 0.0000 0.0000 17.2780 0.0000 16.5287
# 5 -9.4874 -2.8221 -14.5169 0.0000 39.6285 0.0000
# 6 0.0000 0.0000 0.0000 16.5287 0.0000 6.4693
#
#
#
# Elastic Compliance Matrix: (Units=1/GPa)
#
#
# Indices 1 2 3 4 5 6 
#
# 1 0.008997 -0.001857 -0.004240 0.000000 0.000468 0.000000
# 2 -0.001857 0.038677 0.003964 0.000000 0.003762 0.000000
# 3 -0.004240 0.003964 0.009610 0.000000 0.002787 0.000000
# 4 0.000000 0.000000 0.000000 -0.040077 0.000000 0.102395
# 5 0.000468 0.003762 0.002787 0.000000 0.026635 0.000000
# 6 0.000000 0.000000 0.000000 0.102395 0.000000 -0.107037
#
#
# Mechanical properties :
#
#
# Convention : Reuss Voigt Hill
#
# Bulk Modulus (GPa) = 18.86229 47.08394 32.97311
# Shear Modulus (GPa) = -121.19779 29.64591 -45.77594
#
# Velocity S-wave (km/s) = -7.62933 3.77330 -4.68876
# Velocity P-wave (km/s) = 8.27950 6.44953 3.67109
#
# Compressibility (1/GPa) = 0.05301583
#
# Stress axis : x y z
#
# Youngs Moduli (GPa) = 111.14827 25.85501 104.06221
#
# Poissons Ratio (x) = 0.04802 0.44126
# Poissons Ratio (y) = 0.20645 -0.41248
# Poissons Ratio (z) = 0.47131 -0.10248
#
# Static dielectric constant tensor:
#      x y z
#    x 1.760140 0.000000 -0.114460 
#    y 0.000000 1.768490 0.000000 
#    z -0.114460 0.000000 1.984960 
# 
# From -- ./inp_files/45374.got.cif
#   From: 2010.05.17/outbox.cif.g08.bks.cpg/sg11_23_cif.got.tgz:45374.got - 2010.06.03 12:22:45.
