data_PCOD9160215
_publ_section_title
;
Structure prediction by ZEFSAII (Michael W. Deem and Ramdas Pophale) SiO2 
 PCOD9160215
Probable space group: P 21/M
;
_chemical_formula_sum "Si O2"
_cell_formula_units_Z 24
_cell_length_a 15.330153
_cell_length_b 7.437090
_cell_length_c 19.398983
_cell_angle_alpha 90.000000
_cell_angle_beta 23.352268
_cell_angle_gamma 90.000000
_cell_volume 876.685284
_symmetry_space_group_name_H-M "P 21/M"
_symmetry_group_IT_number 11
_symmetry_cell_setting 'monoclinic'
loop_
_space_group_symop_operation_xyz
x,y,z
-x,1/2+y,-z
-x,-y,-z
x,1/2-y,z
loop_
_atom_site_type_symbol
_atom_site_label
_atom_site_fract_x
_atom_site_fract_y
_atom_site_fract_z
Si Si1 0.472768 0.971046 0.916473
Si Si2 0.070904 0.037238 0.370418
Si Si3 0.982812 0.957400 0.288845
Si Si4 0.471289 0.029054 0.423831
Si Si5 0.069360 0.962981 0.869910
Si Si6 0.404761 0.957689 0.818284
O O1 0.473568 0.750000 0.917474
O O2 0.226593 0.037222 0.109279
O O3 0.675579 0.031877 0.815815
O O4 0.514031 0.031739 0.807613
O O5 0.068651 0.250000 0.362652
O O6 0.932066 0.960424 0.407780
O O7 0.000000 0.000000 0.500000
O O8 0.000501 0.750000 0.255768
O O9 0.781539 0.034010 0.390220
O O10 0.472761 0.250000 0.424589
O O11 0.678591 0.968109 0.319951
O O12 0.539756 0.967172 0.296675
O O13 0.072693 0.750000 0.858189
O O14 0.000000 0.000000 0.000000
O O15 0.861148 0.035456 0.979308
O O16 0.465406 0.750000 0.770596
#
# Coordination Sequence:
#
# PCOD9160215 Si02
#       6
#     4   4   4   4   4   4
#     4   9  19  34  54  76 103 136 169 202 250 308
#     4  11  22  37  55  78 103 131 167 210 252 298
#     4  10  19  35  56  77 101 135 170 205 249 302
#     4   8  15  28  49  71  97 131 167 202 246 297
#     4   9  16  28  46  71  98 128 164 208 252 292
#     4   9  16  30  49  71  97 131 170 207 242 291
#
# _framework density 27.375841999999999
#
# number of rings (size 3 to 8) (size 9 to 14) (size 15 to 20)
#    0.000    2.667    0.000    3.500    0.000    2.667 
#    0.000   11.667    0.000    0.000    0.000    0.000 
#    0.000    0.000    0.000    0.000    0.000    0.000 
#
# Total GULP energy -134212.847224 kJ/mol
# GULP energy per Si atom -5592.201968 kJ/mol
# Density = 2.731353 g / cm^3
# Si number density = 27.375842 Si / 1000 Ang^3
#
#
#
# Elastic Constant Matrix: (Units=GPa)
#
#
# Indices 1 2 3 4 5 6 
#
# 1 155.6784 2.4788 27.9603 0.0000 -38.0649 0.0000
# 2 2.4788 117.6131 1.2864 0.0000 0.0540 0.0000
# 3 27.9603 1.2864 149.9487 0.0000 -34.0238 0.0000
# 4 0.0000 0.0000 0.0000 13.6537 0.0000 -2.1378
# 5 -38.0649 0.0540 -34.0238 0.0000 57.8645 0.0000
# 6 0.0000 0.0000 0.0000 -2.1378 0.0000 18.9647
#
#
#
# Elastic Compliance Matrix: (Units=1/GPa)
#
#
# Indices 1 2 3 4 5 6 
#
# 1 0.007672 -0.000160 -0.000328 0.000000 0.004854 0.000000
# 2 -0.000160 0.008507 -0.000079 0.000000 -0.000160 0.000000
# 3 -0.000328 -0.000079 0.007711 0.000000 0.004318 0.000000
# 4 0.000000 0.000000 0.000000 0.074556 0.000000 0.008404
# 5 0.004854 -0.000160 0.004318 0.000000 0.023014 0.000000
# 6 0.000000 0.000000 0.000000 0.008404 0.000000 0.053677
#
#
# Mechanical properties :
#
#
# Convention : Reuss Voigt Hill
#
# Bulk Modulus (GPa) = 43.94795 54.07681 49.01238
# Shear Modulus (GPa) = 27.19523 44.19757 35.69640
#
# Velocity S-wave (km/s) = 3.15525 4.02241 3.61493
# Velocity P-wave (km/s) = 5.41872 6.43190 5.94693
#
# Compressibility (1/GPa) = 0.02275419
#
# Stress axis : x y z
#
# Youngs Moduli (GPa) = 130.34738 117.55339 129.69234
#
# Poissons Ratio (x) = 0.01885 0.04250
# Poissons Ratio (y) = 0.02090 0.01030
# Poissons Ratio (z) = 0.04272 0.00933
#
# Static dielectric constant tensor:
#      x y z
#    x 2.151000 0.000000 0.088410 
#    y 0.000000 1.994130 0.000000 
#    z 0.088410 0.000000 2.277400 
# 
# From -- ./inp_files/20639.got.cif
#   From: 2010.05.17/outbox.cif.g08.bks.cpg/sg11_11_cif.got.tgz:20639.got - 2010.06.03 12:22:45.
