data_PCOD9160881
_publ_section_title
;
Structure prediction by ZEFSAII (Michael W. Deem and Ramdas Pophale) SiO2 
 PCOD9160881
Probable space group: P 21/M
;
_chemical_formula_sum "Si O2"
_cell_formula_units_Z 28
_cell_length_a 9.035683
_cell_length_b 12.594045
_cell_length_c 16.213700
_cell_angle_alpha 90.000000
_cell_angle_beta 48.075879
_cell_angle_gamma 90.000000
_cell_volume 1372.773854
_symmetry_space_group_name_H-M "P 21/M"
_symmetry_group_IT_number 11
_symmetry_cell_setting 'monoclinic'
loop_
_space_group_symop_operation_xyz
x,y,z
-x,1/2+y,-z
-x,-y,-z
x,1/2-y,z
loop_
_atom_site_type_symbol
_atom_site_label
_atom_site_fract_x
_atom_site_fract_y
_atom_site_fract_z
Si Si1 0.532531 0.872114 0.724508
Si Si2 0.032306 0.551425 0.199590
Si Si3 0.652366 0.082604 0.043713
Si Si4 0.570019 0.526811 0.381758
Si Si5 0.182961 0.634132 0.488791
Si Si6 0.294910 0.129872 0.052879
Si Si7 0.121030 0.968812 0.343861
O O1 0.595171 0.750000 0.691035
O O2 0.363124 0.878378 0.857932
O O3 0.464097 0.925624 0.665245
O O4 0.706244 0.947186 0.697212
O O5 0.098933 0.427684 0.162313
O O6 0.131068 0.581288 0.250165
O O7 0.797813 0.562244 0.290375
O O8 0.359741 0.453705 0.958087
O O9 0.465945 0.124149 0.059343
O O10 0.852609 0.108001 0.918362
O O11 0.500000 0.500000 0.500000
O O12 0.417801 0.616099 0.406458
O O13 0.124956 0.750000 0.540283
O O14 0.116284 0.615211 0.419390
O O15 0.078124 0.539828 0.577866
O O16 0.264878 0.250000 0.038373
#
# Coordination Sequence:
#
# PCOD9160881 Si02
#       7
#     4   4   4   4   4   4   4
#     4  11  22  39  64  90 118 161 210 255 308 367
#     4  10  20  38  62  88 125 163 196 252 311 357
#     4   9  19  35  57  92 122 154 197 261 304 356
#     4  11  24  42  59  86 129 162 202 258 308 366
#     4  10  22  39  61  88 123 166 207 250 311 369
#     4   9  17  33  61  94 122 155 202 252 307 364
#     4  10  19  38  65  91 121 156 207 270 296 354
#
# _framework density 20.396657999999999
#
# number of rings (size 3 to 8) (size 9 to 14) (size 15 to 20)
#    0.857    1.143    2.857    0.857    0.000    2.286 
#    0.000    9.286    0.000    0.000    0.000    0.000 
#    0.000    0.000    0.000    0.000    0.000    0.000 
#
# Total GULP energy -156099.233472 kJ/mol
# GULP energy per Si atom -5574.972624 kJ/mol
# Density = 2.035023 g / cm^3
# Si number density = 20.396658 Si / 1000 Ang^3
#
#
#
# Elastic Constant Matrix: (Units=GPa)
#
#
# Indices 1 2 3 4 5 6 
#
# 1 69.9297 -4.7070 42.0366 0.0000 -7.1920 0.0000
# 2 -4.7070 38.0629 -1.6472 0.0000 13.6190 0.0000
# 3 42.0366 -1.6472 109.3725 0.0000 -2.1523 0.0000
# 4 0.0000 0.0000 0.0000 5.5067 0.0000 -2.0739
# 5 -7.1920 13.6190 -2.1523 0.0000 35.6940 0.0000
# 6 0.0000 0.0000 0.0000 -2.0739 0.0000 0.6295
#
#
#
# Elastic Compliance Matrix: (Units=1/GPa)
#
#
# Indices 1 2 3 4 5 6 
#
# 1 0.019028 0.000954 -0.007239 0.000000 0.003033 0.000000
# 2 0.000954 0.030480 -0.000133 0.000000 -0.011445 0.000000
# 3 -0.007239 -0.000133 0.011910 0.000000 -0.000690 0.000000
# 4 0.000000 0.000000 0.000000 -0.754690 0.000000 -2.486114
# 5 0.003033 -0.011445 -0.000690 0.000000 0.032952 0.000000
# 6 0.000000 0.000000 0.000000 -2.486114 0.000000 -6.601352
#
#
# Mechanical properties :
#
#
# Convention : Reuss Voigt Hill
#
# Bulk Modulus (GPa) = 20.58381 32.08112 26.33247
# Shear Modulus (GPa) = -0.69131 20.47822 9.89346
#
# Velocity S-wave (km/s) = -0.58281 3.17203 2.20478
# Velocity P-wave (km/s) = 3.10818 5.40171 4.40677
#
# Compressibility (1/GPa) = 0.04858187
#
# Stress axis : x y z
#
# Youngs Moduli (GPa) = 52.55426 32.80879 83.96421
#
# Poissons Ratio (x) = -0.03132 0.60783
# Poissons Ratio (y) = -0.05016 0.01117
# Poissons Ratio (z) = 0.38045 0.00437
#
# Static dielectric constant tensor:
#      x y z
#    x 1.733010 0.000000 -0.013830 
#    y 0.000000 1.718480 0.000000 
#    z -0.013830 0.000000 1.784180 
# 
# From -- ./inp_files/47576.got.cif
#   From: 2010.05.17/outbox.cif.g08.bks.cpg/sg11_24_cif.got.tgz:47576.got - 2010.06.03 12:22:45.
