data_PCOD9160958
_publ_section_title
;
Structure prediction by ZEFSAII (Michael W. Deem and Ramdas Pophale) SiO2 
 PCOD9160958
Probable space group: P 21/M
;
_chemical_formula_sum "Si O2"
_cell_formula_units_Z 14
_cell_length_a 17.471987
_cell_length_b 5.792581
_cell_length_c 22.978587
_cell_angle_alpha 90.000000
_cell_angle_beta 12.742891
_cell_angle_gamma 90.000000
_cell_volume 512.975722
_symmetry_space_group_name_H-M "P 21/M"
_symmetry_group_IT_number 11
_symmetry_cell_setting 'monoclinic'
loop_
_space_group_symop_operation_xyz
x,y,z
-x,1/2+y,-z
-x,-y,-z
x,1/2-y,z
loop_
_atom_site_type_symbol
_atom_site_label
_atom_site_fract_x
_atom_site_fract_y
_atom_site_fract_z
Si Si1 0.409002 0.250000 0.023598
Si Si2 0.822216 0.750000 0.571370
Si Si3 0.965791 0.498889 0.268736
Si Si4 0.862020 0.250000 0.533131
Si Si5 0.251871 0.999288 0.869421
O O1 0.297266 0.461769 0.064740
O O2 0.155430 0.250000 0.266088
O O3 0.813910 0.250000 0.734223
O O4 0.957404 0.750000 0.537608
O O5 0.664760 0.497009 0.675455
O O6 0.976288 0.750000 0.232229
O O7 0.637207 0.502516 0.556161
O O8 0.931744 0.250000 0.262155
O O9 0.198934 0.250000 0.937318
O O10 0.193929 0.750000 0.941629
O O11 0.000000 0.000000 0.000000
#
# Coordination Sequence:
#
# PCOD9160958 Si02
#       5
#     2   2   4   2   4
#     4  10  20  30  54  66  96 118 148 188 234 258
#     4  10  22  36  50  70  91 117 153 185 224 278
#     4   8  16  24  37  64  86 113 147 178 216 263
#     4  10  22  36  50  70  91 117 153 185 224 278
#     4   8  12  20  32  49  81 116 136 173 213 244
#
# _framework density 27.291740000000001
#
# number of rings (size 3 to 8) (size 9 to 14) (size 15 to 20)
#    0.857    2.286    0.000    0.857    4.000    0.000 
#    0.000    0.000    0.000    0.000    0.000    0.000 
#    0.000    2.286    0.000    0.000    0.000    0.000 
#
# Total GULP energy -78169.667265 kJ/mol
# GULP energy per Si atom -5583.547662 kJ/mol
# Density = 2.722962 g / cm^3
# Si number density = 27.291740 Si / 1000 Ang^3
#
#
#
# Elastic Constant Matrix: (Units=GPa)
#
#
# Indices 1 2 3 4 5 6 
#
# 1 66.9003 35.8648 36.0215 0.0000 18.1294 0.0000
# 2 35.8648 301.8786 8.8791 0.0000 6.2841 0.0000
# 3 36.0215 8.8791 38.3335 0.0000 13.2870 0.0000
# 4 0.0000 0.0000 0.0000 32.7853 0.0000 -17.3806
# 5 18.1294 6.2841 13.2870 0.0000 49.4815 0.0000
# 6 0.0000 0.0000 0.0000 -17.3806 0.0000 28.6184
#
#
#
# Elastic Compliance Matrix: (Units=1/GPa)
#
#
# Indices 1 2 3 4 5 6 
#
# 1 0.033459 -0.003029 -0.029356 0.000000 -0.003992 0.000000
# 2 -0.003029 0.003612 0.001967 0.000000 0.000123 0.000000
# 3 -0.029356 0.001967 0.054663 0.000000 -0.004172 0.000000
# 4 0.000000 0.000000 0.000000 0.044985 0.000000 0.027320
# 5 -0.003992 0.000123 -0.004172 0.000000 0.022777 0.000000
# 6 0.000000 0.000000 0.000000 0.027320 0.000000 0.051535
#
#
# Mechanical properties :
#
#
# Convention : Reuss Voigt Hill
#
# Bulk Modulus (GPa) = 32.36422 63.18258 47.77340
# Shear Modulus (GPa) = 17.71998 43.93351 30.82675
#
# Velocity S-wave (km/s) = 2.55086 4.01655 3.36449
# Velocity P-wave (km/s) = 4.53434 6.68665 5.71277
#
# Compressibility (1/GPa) = 0.03089832
#
# Stress axis : x y z
#
# Youngs Moduli (GPa) = 29.88696 276.85477 18.29380
#
# Poissons Ratio (x) = 0.83849 0.53704
# Poissons Ratio (y) = 0.09052 -0.03598
# Poissons Ratio (z) = 0.87737 -0.54450
#
# Static dielectric constant tensor:
#      x y z
#    x 2.079460 0.000000 -0.016540 
#    y 0.000000 2.243430 0.000000 
#    z -0.016540 0.000000 2.061950 
# 
# From -- ./inp_files/19951.got.cif
#   From: 2010.05.17/outbox.cif.g08.bks.cpg/sg11_10_cif.got.tgz:19951.got - 2010.06.03 12:22:45.
