data_PCOD9160454
_publ_section_title
;
Structure prediction by ZEFSAII (Michael W. Deem and Ramdas Pophale) SiO2 
 PCOD9160454
Probable space group: P 21/M
;
_chemical_formula_sum "Si O2"
_cell_formula_units_Z 32
_cell_length_a 13.726242
_cell_length_b 7.410655
_cell_length_c 31.651442
_cell_angle_alpha 90.000000
_cell_angle_beta 153.475139
_cell_angle_gamma 90.000000
_cell_volume 1437.828004
_symmetry_space_group_name_H-M "P 21/M"
_symmetry_group_IT_number 11
_symmetry_cell_setting 'monoclinic'
loop_
_space_group_symop_operation_xyz
x,y,z
-x,1/2+y,-z
-x,-y,-z
x,1/2-y,z
loop_
_atom_site_type_symbol
_atom_site_label
_atom_site_fract_x
_atom_site_fract_y
_atom_site_fract_z
Si Si1 0.062688 0.529673 0.418744
Si Si2 0.569128 0.970772 0.218791
Si Si3 0.964219 0.961494 0.125051
Si Si4 0.755142 0.464974 0.599595
Si Si5 0.760732 0.035861 0.426246
Si Si6 0.502378 0.967882 0.096154
Si Si7 0.336753 0.956472 0.209274
Si Si8 0.918764 0.970882 0.202871
O O1 0.065130 0.750000 0.420097
O O2 0.139838 0.466296 0.402989
O O3 0.218286 0.471485 0.517226
O O4 0.811809 0.475307 0.327605
O O5 0.565485 0.750000 0.217712
O O6 0.533499 0.028207 0.156688
O O7 0.395546 0.035099 0.186182
O O8 0.019716 0.750000 0.151892
O O9 0.944740 0.035451 0.165016
O O10 0.150661 0.039626 0.166738
O O11 0.730434 0.977102 0.012278
O O12 0.500000 0.500000 0.500000
O O13 0.788863 0.250000 0.612144
O O14 0.880987 0.529916 0.689841
O O15 0.724062 0.250000 0.411773
O O16 0.563488 0.954405 0.323245
O O17 0.000000 0.000000 0.500000
O O18 0.511283 0.750000 0.100438
O O19 0.697191 0.027977 0.140746
O O20 0.267798 0.750000 0.174292
O O21 0.912919 0.750000 0.199494
#
# Coordination Sequence:
#
# PCOD9160454 Si02
#       8
#     4   4   4   4   4   4   4   4
#     4   9  17  32  54  77 105 142 180 217 260 316
#     4   9  16  32  57  79 100 136 183 219 256 314
#     4  10  22  37  53  78 112 142 169 219 284 325
#     4  10  20  35  55  81 110 142 179 218 265 318
#     4  11  21  34  55  81 109 143 182 222 263 315
#     4  10  19  35  61  81  96 135 189 228 260 318
#     4  10  21  37  55  77 110 147 178 215 271 329
#     4   9  18  35  57  78 104 141 180 215 263 326
#
# _framework density 22.255793000000001
#
# number of rings (size 3 to 8) (size 9 to 14) (size 15 to 20)
#    0.000    2.250    2.500    0.750    1.750    1.000 
#    0.000    2.500    0.000    0.000    0.000    0.000 
#    0.000    0.000    0.000    0.000    0.000    0.000 
#
# Total GULP energy -178782.182274 kJ/mol
# GULP energy per Si atom -5586.943196 kJ/mol
# Density = 2.220514 g / cm^3
# Si number density = 22.255793 Si / 1000 Ang^3
#
#
#
# Elastic Constant Matrix: (Units=GPa)
#
#
# Indices 1 2 3 4 5 6 
#
# 1 203.9972 4.6140 60.6864 0.0000 13.1355 0.0000
# 2 4.6140 75.1866 -17.7495 0.0000 0.4175 0.0000
# 3 60.6864 -17.7495 79.6763 0.0000 21.6915 0.0000
# 4 0.0000 0.0000 0.0000 22.7822 0.0000 -1.0726
# 5 13.1355 0.4175 21.6915 0.0000 36.0864 0.0000
# 6 0.0000 0.0000 0.0000 -1.0726 0.0000 -2.1629
#
#
#
# Elastic Compliance Matrix: (Units=1/GPa)
#
#
# Indices 1 2 3 4 5 6 
#
# 1 0.006561 -0.001747 -0.005670 0.000000 0.001040 0.000000
# 2 -0.001747 0.014686 0.005351 0.000000 -0.002750 0.000000
# 3 -0.005670 0.005351 0.020944 0.000000 -0.010587 0.000000
# 4 0.000000 0.000000 0.000000 0.042893 0.000000 -0.021270
# 5 0.001040 -0.002750 -0.010587 0.000000 0.033729 0.000000
# 6 0.000000 0.000000 0.000000 -0.021270 0.000000 -0.451802
#
#
# Mechanical properties :
#
#
# Convention : Reuss Voigt Hill
#
# Bulk Modulus (GPa) = 26.27474 50.44020 38.35747
# Shear Modulus (GPa) = -15.81415 32.09510 8.14048
#
# Velocity S-wave (km/s) = -2.66853 3.80162 1.91458
# Velocity P-wave (km/s) = 1.52862 6.47941 4.70741
#
# Compressibility (1/GPa) = 0.03805936
#
# Stress axis : x y z
#
# Youngs Moduli (GPa) = 152.41018 68.09240 47.74739
#
# Poissons Ratio (x) = 0.11895 0.27071
# Poissons Ratio (y) = 0.26624 -0.25549
# Poissons Ratio (z) = 0.86412 -0.36436
#
# Static dielectric constant tensor:
#      x y z
#    x 1.836350 0.000000 0.024410 
#    y 0.000000 1.853690 0.000000 
#    z 0.024410 0.000000 1.845670 
# 
# From -- ./inp_files/54376.got.cif
#   From: 2010.05.17/outbox.cif.g08.bks.cpg/sg11_28_cif.got.tgz:54376.got - 2010.06.03 12:22:45.
