data_PCOD9160097
_publ_section_title
;
Structure prediction by ZEFSAII (Michael W. Deem and Ramdas Pophale) SiO2 
 PCOD9160097
Probable space group: P 21/M
;
_chemical_formula_sum "Si O2"
_cell_formula_units_Z 28
_cell_length_a 30.544889
_cell_length_b 8.762656
_cell_length_c 10.383396
_cell_angle_alpha 90.000000
_cell_angle_beta 146.512656
_cell_angle_gamma 90.000000
_cell_volume 1533.409883
_symmetry_space_group_name_H-M "P 21/M"
_symmetry_group_IT_number 11
_symmetry_cell_setting 'monoclinic'
loop_
_space_group_symop_operation_xyz
x,y,z
-x,1/2+y,-z
-x,-y,-z
x,1/2-y,z
loop_
_atom_site_type_symbol
_atom_site_label
_atom_site_fract_x
_atom_site_fract_y
_atom_site_fract_z
Si Si1 0.901551 0.068803 0.396030
Si Si2 0.330075 0.568314 0.838787
Si Si3 0.082262 0.067519 0.846514
Si Si4 0.259306 0.431437 0.924148
Si Si5 0.509902 0.931202 0.881763
Si Si6 0.761135 0.932033 0.623629
Si Si7 0.667816 0.068787 0.636979
O O1 0.889062 0.250000 0.375997
O O2 0.991463 0.032194 0.659787
O O3 0.897703 0.019541 0.236509
O O4 0.832690 0.981807 0.301769
O O5 0.330375 0.750000 0.850084
O O6 0.303216 0.494473 0.906560
O O7 0.270194 0.515759 0.579370
O O8 0.416572 0.509585 0.008248
O O9 0.086459 0.250000 0.829765
O O10 0.148107 0.033022 0.114702
O O11 0.265362 0.250000 0.945435
O O12 0.297083 0.504040 0.145170
O O13 0.524619 0.750000 0.928075
O O14 0.426663 0.954380 0.604609
O O15 0.500000 0.000000 0.000000
O O16 0.752902 0.750000 0.586740
O O17 0.708559 0.985793 0.616017
O O18 0.683590 0.250000 0.666392
#
# Coordination Sequence:
#
# PCOD9160097 Si02
#       7
#     4   4   4   4   4   4   4
#     4  10  19  34  58  88 123 158 199 249 300 356
#     4  12  26  43  63  88 122 162 204 251 307 364
#     4   9  19  34  57  90 122 157 200 248 298 353
#     4  12  25  42  62  88 123 163 204 249 308 366
#     4  11  23  40  64  92 123 157 201 250 302 358
#     4  11  21  37  62  92 124 159 203 249 299 359
#     4  11  23  39  63  93 122 158 202 249 300 358
#
# _framework density 18.259958999999998
#
# number of rings (size 3 to 8) (size 9 to 14) (size 15 to 20)
#    0.000    1.143    2.857    4.286    0.000    3.429 
#    0.000    0.714    0.000    0.000    0.000    0.000 
#    0.000    0.000    0.000    0.000    0.000    0.000 
#
# Total GULP energy -156551.216832 kJ/mol
# GULP energy per Si atom -5591.114887 kJ/mol
# Density = 1.821840 g / cm^3
# Si number density = 18.259959 Si / 1000 Ang^3
#
#
#
# Elastic Constant Matrix: (Units=GPa)
#
#
# Indices 1 2 3 4 5 6 
#
# 1 81.7486 18.3922 14.9575 0.0000 6.6530 0.0000
# 2 18.3922 66.2233 27.0966 0.0000 16.3882 0.0000
# 3 14.9575 27.0966 72.0343 0.0000 11.6027 0.0000
# 4 0.0000 0.0000 0.0000 30.8292 0.0000 0.1613
# 5 6.6530 16.3882 11.6027 0.0000 28.2635 0.0000
# 6 0.0000 0.0000 0.0000 0.1613 0.0000 35.5936
#
#
#
# Elastic Compliance Matrix: (Units=1/GPa)
#
#
# Indices 1 2 3 4 5 6 
#
# 1 0.013221 -0.002833 -0.001545 0.000000 -0.000835 0.000000
# 2 -0.002833 0.020388 -0.005658 0.000000 -0.008832 0.000000
# 3 -0.001545 -0.005658 0.016859 0.000000 -0.003276 0.000000
# 4 0.000000 0.000000 0.000000 0.032438 0.000000 -0.000147
# 5 -0.000835 -0.008832 -0.003276 0.000000 0.042044 0.000000
# 6 0.000000 0.000000 0.000000 -0.000147 0.000000 0.028096
#
#
# Mechanical properties :
#
#
# Convention : Reuss Voigt Hill
#
# Bulk Modulus (GPa) = 32.89974 37.87763 35.38869
# Shear Modulus (GPa) = 27.28513 29.57458 28.42985
#
# Velocity S-wave (km/s) = 3.86976 4.02884 3.95010
# Velocity P-wave (km/s) = 6.16630 6.51388 6.34247
#
# Compressibility (1/GPa) = 0.03039538
#
# Stress axis : x y z
#
# Youngs Moduli (GPa) = 75.63921 49.04812 59.31438
#
# Poissons Ratio (x) = 0.13895 0.09164
# Poissons Ratio (y) = 0.21428 0.33563
# Poissons Ratio (z) = 0.11687 0.27753
#
# Static dielectric constant tensor:
#      x y z
#    x 1.588460 0.000000 0.026260 
#    y 0.000000 1.608370 0.000000 
#    z 0.026260 0.000000 1.632670 
# 
# From -- ./inp_files/28614.got.cif
#   From: 2010.05.17/outbox.cif.g08.bks.cpg/sg11_15_cif.got.tgz:28614.got - 2010.06.03 12:22:45.
