data_PCOD9160225
_publ_section_title
;
Structure prediction by ZEFSAII (Michael W. Deem and Ramdas Pophale) SiO2 
 PCOD9160225
Probable space group: P 21/M
;
_chemical_formula_sum "Si O2"
_cell_formula_units_Z 24
_cell_length_a 9.694684
_cell_length_b 9.271465
_cell_length_c 22.676770
_cell_angle_alpha 90.000000
_cell_angle_beta 139.370572
_cell_angle_gamma 90.000000
_cell_volume 1327.252856
_symmetry_space_group_name_H-M "P 21/M"
_symmetry_group_IT_number 11
_symmetry_cell_setting 'monoclinic'
loop_
_space_group_symop_operation_xyz
x,y,z
-x,1/2+y,-z
-x,-y,-z
x,1/2-y,z
loop_
_atom_site_type_symbol
_atom_site_label
_atom_site_fract_x
_atom_site_fract_y
_atom_site_fract_z
Si Si1 0.094277 0.082623 0.586212
Si Si2 0.396978 0.582639 0.242465
Si Si3 0.912021 0.420458 0.296674
Si Si4 0.108140 0.418245 0.235739
Si Si5 0.320195 0.919161 0.979355
Si Si6 0.404346 0.420716 0.124761
O O1 0.033360 0.250000 0.564874
O O2 0.349856 0.073330 0.667803
O O3 0.027834 0.009966 0.626236
O O4 0.000000 0.000000 0.500000
O O5 0.340117 0.750000 0.215277
O O6 0.338795 0.490096 0.165664
O O7 0.282384 0.516715 0.261842
O O8 0.941813 0.250000 0.317560
O O9 0.041646 0.460082 0.280313
O O10 0.660287 0.440153 0.202858
O O11 0.174671 0.250000 0.257665
O O12 0.897196 0.427981 0.127407
O O13 0.374562 0.750000 0.004186
O O14 0.303871 0.996625 0.037076
O O15 0.500000 0.000000 0.000000
O O16 0.359918 0.250000 0.108762
#
# Coordination Sequence:
#
# PCOD9160225 Si02
#       6
#     4   4   4   4   4   4
#     4  10  21  38  61  87 110 137 178 222 271 332
#     4  10  22  38  56  83 113 143 182 229 277 327
#     4   9  18  35  57  81 110 143 183 225 271 325
#     4  10  21  37  55  80 113 150 186 225 276 327
#     4  11  21  34  53  80 112 147 193 236 271 319
#     4  10  19  35  56  79 108 149 191 231 277 322
#
# _framework density 18.082464000000002
#
# number of rings (size 3 to 8) (size 9 to 14) (size 15 to 20)
#    0.000    2.000    1.667    2.000    0.000    5.333 
#    0.000    0.833    0.000    0.000    0.000    0.000 
#    0.000    0.000    0.000    0.000    0.000    0.000 
#
# Total GULP energy -134045.113708 kJ/mol
# GULP energy per Si atom -5585.213071 kJ/mol
# Density = 1.804131 g / cm^3
# Si number density = 18.082464 Si / 1000 Ang^3
#
#
#
# Elastic Constant Matrix: (Units=GPa)
#
#
# Indices 1 2 3 4 5 6 
#
# 1 120.2008 74.1173 31.2360 0.0000 -36.5039 0.0000
# 2 74.1173 126.0552 62.1773 0.0000 -33.0933 0.0000
# 3 31.2360 62.1773 76.8988 0.0000 -42.2706 0.0000
# 4 0.0000 0.0000 0.0000 32.6608 0.0000 -6.2942
# 5 -36.5039 -33.0933 -42.2706 0.0000 29.7262 0.0000
# 6 0.0000 0.0000 0.0000 -6.2942 0.0000 34.2745
#
#
#
# Elastic Compliance Matrix: (Units=1/GPa)
#
#
# Indices 1 2 3 4 5 6 
#
# 1 0.071298 -0.049129 0.132023 0.000000 0.220597 0.000000
# 2 -0.049129 0.047080 -0.102883 0.000000 -0.154216 0.000000
# 3 0.132023 -0.102883 0.314750 0.000000 0.495163 0.000000
# 4 0.000000 0.000000 0.000000 0.031741 0.000000 0.005829
# 5 0.220597 -0.154216 0.495163 0.000000 0.836971 0.000000
# 6 0.000000 0.000000 0.000000 0.005829 0.000000 0.030247
#
#
# Mechanical properties :
#
#
# Convention : Reuss Voigt Hill
#
# Bulk Modulus (GPa) = 2.54355 73.13512 37.83934
# Shear Modulus (GPa) = 3.32642 29.70723 16.51683
#
# Velocity S-wave (km/s) = 1.35778 4.05764 3.02556
# Velocity P-wave (km/s) = 1.96667 7.90479 5.75993
#
# Compressibility (1/GPa) = 0.39315081
#
# Stress axis : x y z
#
# Youngs Moduli (GPa) = 14.02563 21.24023 3.17712
#
# Poissons Ratio (x) = 1.04351 -0.41945
# Poissons Ratio (y) = 0.68906 0.32687
# Poissons Ratio (z) = -1.85170 2.18525
#
# Static dielectric constant tensor:
#      x y z
#    x 1.611010 0.000000 0.006600 
#    y 0.000000 1.605980 0.000000 
#    z 0.006600 0.000000 1.595760 
# 
# From -- ./inp_files/20427.got.cif
#   From: 2010.05.17/outbox.cif.g08.bks.cpg/sg11_11_cif.got.tgz:20427.got - 2010.06.03 12:22:45.
