data_PCOD9160199
_publ_section_title
;
Structure prediction by ZEFSAII (Michael W. Deem and Ramdas Pophale) SiO2 
 PCOD9160199
Probable space group: P 21/M
;
_chemical_formula_sum "Si O2"
_cell_formula_units_Z 20
_cell_length_a 5.196721
_cell_length_b 14.491421
_cell_length_c 11.345803
_cell_angle_alpha 90.000000
_cell_angle_beta 82.961273
_cell_angle_gamma 90.000000
_cell_volume 847.988924
_symmetry_space_group_name_H-M "P 21/M"
_symmetry_group_IT_number 11
_symmetry_cell_setting 'monoclinic'
loop_
_space_group_symop_operation_xyz
x,y,z
-x,1/2+y,-z
-x,-y,-z
x,1/2-y,z
loop_
_atom_site_type_symbol
_atom_site_label
_atom_site_fract_x
_atom_site_fract_y
_atom_site_fract_z
Si Si1 0.195270 0.613745 0.081822
Si Si2 0.128574 0.360883 0.394707
Si Si3 0.407139 0.639200 0.477110
Si Si4 0.663210 0.603928 0.211913
Si Si5 0.960472 0.427649 0.151047
O O1 0.468076 0.638579 0.121942
O O2 0.952274 0.644103 0.176764
O O3 0.171834 0.501212 0.089584
O O4 0.130973 0.636717 0.950642
O O5 0.140346 0.250000 0.403303
O O6 0.883522 0.394958 0.485333
O O7 0.070968 0.384320 0.262814
O O8 0.394530 0.397397 0.435173
O O9 0.391935 0.750000 0.491580
O O10 0.530232 0.622076 0.343265
O O11 0.721201 0.494937 0.196209
#
# Coordination Sequence:
#
# PCOD9160199 Si02
#       5
#     4   4   4   4   4
#     4   9  20  34  55  80 106 134 168 220 266 299
#     4  10  22  37  54  76 106 143 173 214 264 308
#     4  10  22  38  53  75 110 141 175 217 260 308
#     4  10  19  35  55  79 104 139 173 212 265 305
#     4   9  21  34  58  76 112 132 176 217 260 310
#
# _framework density 23.585214000000001
#
# number of rings (size 3 to 8) (size 9 to 14) (size 15 to 20)
#    1.200    1.200    0.000    1.800    2.800    1.600 
#    0.000    2.000    0.000    0.000    0.000    0.000 
#    0.000    0.000    0.000    0.000    0.000    0.000 
#
# Total GULP energy -111683.190697 kJ/mol
# GULP energy per Si atom -5584.159535 kJ/mol
# Density = 2.353153 g / cm^3
# Si number density = 23.585214 Si / 1000 Ang^3
#
#
#
# Elastic Constant Matrix: (Units=GPa)
#
#
# Indices 1 2 3 4 5 6 
#
# 1 100.9503 20.0730 2.9235 0.0000 9.1905 0.0000
# 2 20.0730 47.5740 0.2979 0.0000 -1.2555 0.0000
# 3 2.9235 0.2979 75.6572 0.0000 7.5509 0.0000
# 4 0.0000 0.0000 0.0000 85.2147 0.0000 -10.2117
# 5 9.1905 -1.2555 7.5509 0.0000 34.7554 0.0000
# 6 0.0000 0.0000 0.0000 -10.2117 0.0000 9.2780
#
#
#
# Elastic Compliance Matrix: (Units=1/GPa)
#
#
# Indices 1 2 3 4 5 6 
#
# 1 0.011142 -0.004782 -0.000103 0.000000 -0.003097 0.000000
# 2 -0.004782 0.023094 -0.000118 0.000000 0.002124 0.000000
# 3 -0.000103 -0.000118 0.013513 0.000000 -0.002913 0.000000
# 4 0.000000 0.000000 0.000000 0.013518 0.000000 0.014878
# 5 -0.003097 0.002124 -0.002913 0.000000 0.030301 0.000000
# 6 0.000000 0.000000 0.000000 0.014878 0.000000 0.124157
#
#
# Mechanical properties :
#
#
# Convention : Reuss Voigt Hill
#
# Bulk Modulus (GPa) = 26.49507 30.08559 28.29033
# Shear Modulus (GPa) = 20.98097 39.24211 30.11154
#
# Velocity S-wave (km/s) = 2.98582 4.08345 3.57699
# Velocity P-wave (km/s) = 4.81092 5.91748 5.39266
#
# Compressibility (1/GPa) = 0.03774287
#
# Stress axis : x y z
#
# Youngs Moduli (GPa) = 89.75339 43.30051 74.00472
#
# Poissons Ratio (x) = 0.20707 0.00760
# Poissons Ratio (y) = 0.42921 0.00875
# Poissons Ratio (z) = 0.00921 0.00512
#
# Static dielectric constant tensor:
#      x y z
#    x 1.881650 0.000000 0.003950 
#    y 0.000000 1.941880 0.000000 
#    z 0.003950 0.000000 1.872330 
# 
# From -- ./inp_files/2269.got.cif
#   From: 2010.05.17/outbox.cif.g08.bks.cpg/sg11_2_cif.got.tgz:2269.got - 2010.06.03 12:22:45.
