data_PCOD9160002
_publ_section_title
;
Structure prediction by ZEFSAII (Michael W. Deem and Ramdas Pophale) SiO2 
 PCOD9160002
Probable space group: P 21/M
;
_chemical_formula_sum "Si O2"
_cell_formula_units_Z 32
_cell_length_a 9.907597
_cell_length_b 14.187639
_cell_length_c 12.168364
_cell_angle_alpha 90.000000
_cell_angle_beta 91.736911
_cell_angle_gamma 90.000000
_cell_volume 1709.665188
_symmetry_space_group_name_H-M "P 21/M"
_symmetry_group_IT_number 11
_symmetry_cell_setting 'monoclinic'
loop_
_space_group_symop_operation_xyz
x,y,z
-x,1/2+y,-z
-x,-y,-z
x,1/2-y,z
loop_
_atom_site_type_symbol
_atom_site_label
_atom_site_fract_x
_atom_site_fract_y
_atom_site_fract_z
Si Si1 0.910249 0.416422 0.948218
Si Si2 0.465446 0.361137 0.657613
Si Si3 0.201207 0.493716 0.650598
Si Si4 0.807656 0.349610 0.168396
Si Si5 0.501556 0.643411 0.915581
Si Si6 0.602941 0.448759 0.868638
Si Si7 0.727234 0.140147 0.536327
Si Si8 0.030337 0.641901 0.295547
O O1 0.757827 0.443042 0.909103
O O2 0.970661 0.376773 0.835958
O O3 0.887886 0.353080 0.055637
O O4 0.000000 0.500000 0.000000
O O5 0.429997 0.250000 0.660629
O O6 0.334606 0.427888 0.658438
O O7 0.558393 0.389420 0.763061
O O8 0.569131 0.376237 0.559137
O O9 0.175668 0.558736 0.757069
O O10 0.221309 0.566660 0.552036
O O11 0.072544 0.425858 0.644057
O O12 0.840371 0.250000 0.226049
O O13 0.649715 0.349504 0.133985
O O14 0.558801 0.750000 0.917277
O O15 0.573378 0.559692 0.851346
O O16 0.486442 0.599016 0.036701
O O17 0.740747 0.250000 0.502466
O O18 0.821862 0.129174 0.646684
O O19 0.990779 0.750000 0.312229
#
# Coordination Sequence:
#
# PCOD9160002 Si02
#       8
#     4   4   4   4   4   4   4   4
#     4  11  21  38  59  86 119 157 201 244 293 352
#     4  11  22  38  61  91 118 151 202 251 299 354
#     4  12  22  39  60  92 124 152 195 258 305 346
#     4  10  20  34  57  84 115 154 193 236 292 359
#     4   9  18  32  53  82 114 151 191 239 296 355
#     4  10  19  34  57  82 117 156 198 244 296 358
#     4  10  23  42  64  87 115 161 208 243 297 367
#     4  11  23  40  64  89 119 161 204 247 295 355
#
# _framework density 18.717113999999999
#
# number of rings (size 3 to 8) (size 9 to 14) (size 15 to 20)
#    0.000    1.500    3.750    2.250    0.000    1.000 
#    0.000    1.250    0.000    0.750    0.000    0.000 
#    0.000    0.000    0.000    0.000    0.000    0.000 
#
# Total GULP energy -178303.406485 kJ/mol
# GULP energy per Si atom -5571.981453 kJ/mol
# Density = 1.867451 g / cm^3
# Si number density = 18.717114 Si / 1000 Ang^3
#
#
#
# Elastic Constant Matrix: (Units=GPa)
#
#
# Indices 1 2 3 4 5 6 
#
# 1 64.2834 37.0709 8.5046 0.0000 -5.9595 0.0000
# 2 37.0709 123.8281 24.1605 0.0000 -4.0661 0.0000
# 3 8.5046 24.1605 50.2133 0.0000 -3.6742 0.0000
# 4 0.0000 0.0000 0.0000 17.0840 0.0000 11.8865
# 5 -5.9595 -4.0661 -3.6742 0.0000 20.2444 0.0000
# 6 0.0000 0.0000 0.0000 11.8865 0.0000 4.7896
#
#
#
# Elastic Compliance Matrix: (Units=1/GPa)
#
#
# Indices 1 2 3 4 5 6 
#
# 1 0.019209 -0.005554 -0.000252 0.000000 0.004493 0.000000
# 2 -0.005554 0.010539 -0.004150 0.000000 -0.000271 0.000000
# 3 -0.000252 -0.004150 0.022183 0.000000 0.003118 0.000000
# 4 0.000000 0.000000 0.000000 -0.080546 0.000000 0.199894
# 5 0.004493 -0.000271 0.003118 0.000000 0.051231 0.000000
# 6 0.000000 0.000000 0.000000 0.199894 0.000000 -0.287299
#
#
# Mechanical properties :
#
#
# Convention : Reuss Voigt Hill
#
# Bulk Modulus (GPa) = 31.23231 41.97743 36.60487
# Shear Modulus (GPa) = -21.35859 19.66284 -0.84787
#
# Velocity S-wave (km/s) = -3.38172 3.24470 -0.67378
# Velocity P-wave (km/s) = 1.21436 6.04263 4.35822
#
# Compressibility (1/GPa) = 0.03201813
#
# Stress axis : x y z
#
# Youngs Moduli (GPa) = 52.05932 94.88342 45.07982
#
# Poissons Ratio (x) = 0.52697 0.01137
# Poissons Ratio (y) = 0.28913 0.18709
# Poissons Ratio (z) = 0.01314 0.39379
#
# Static dielectric constant tensor:
#      x y z
#    x 1.630980 0.000000 -0.025580 
#    y 0.000000 1.670370 0.000000 
#    z -0.025580 0.000000 1.663800 
# 
# From -- ./inp_files/31896.got.cif
#   From: 2010.05.17/outbox.cif.g08.bks.cpg/sg11_16_cif.got.tgz:31896.got - 2010.06.03 12:22:45.
