data_PCOD9160626
_publ_section_title
;
Structure prediction by ZEFSAII (Michael W. Deem and Ramdas Pophale) SiO2 
 PCOD9160626
Probable space group: P 21/M
;
_chemical_formula_sum "Si O2"
_cell_formula_units_Z 32
_cell_length_a 15.221281
_cell_length_b 9.462519
_cell_length_c 23.205622
_cell_angle_alpha 90.000000
_cell_angle_beta 28.103169
_cell_angle_gamma 90.000000
_cell_volume 1574.446934
_symmetry_space_group_name_H-M "P 21/M"
_symmetry_group_IT_number 11
_symmetry_cell_setting 'monoclinic'
loop_
_space_group_symop_operation_xyz
x,y,z
-x,1/2+y,-z
-x,-y,-z
x,1/2-y,z
loop_
_atom_site_type_symbol
_atom_site_label
_atom_site_fract_x
_atom_site_fract_y
_atom_site_fract_z
Si Si1 0.959594 0.421715 0.154523
Si Si2 0.154376 0.095814 0.440202
Si Si3 0.714302 0.911482 0.116368
Si Si4 0.785294 0.918806 0.794073
Si Si5 0.792677 0.089392 0.902173
Si Si6 0.448004 0.026827 0.179050
Si Si7 0.786855 0.087762 0.483819
Si Si8 0.620710 0.918739 0.300370
O O1 0.962134 0.250000 0.157721
O O2 0.048294 0.496286 0.159053
O O3 0.758488 0.485831 0.257683
O O4 0.098106 0.470071 0.021835
O O5 0.076402 0.250000 0.497372
O O6 0.323822 0.106391 0.297578
O O7 0.216658 0.019742 0.461706
O O8 0.000000 0.000000 0.500000
O O9 0.759129 0.750000 0.101788
O O10 0.650051 0.965462 0.216011
O O11 0.554244 0.916939 0.159667
O O12 0.735478 0.750000 0.821582
O O13 0.696865 0.996894 0.789611
O O14 0.010832 0.925787 0.661865
O O15 0.725610 0.001103 0.885678
O O16 0.850128 0.250000 0.854651
O O17 0.621076 0.096883 0.046122
O O18 0.774456 0.250000 0.513301
O O19 0.597658 0.064523 0.557927
O O20 0.663513 0.750000 0.281076
#
# Coordination Sequence:
#
# PCOD9160626 Si02
#       8
#     4   4   4   4   4   4   4   4
#     4  10  21  38  59  87 119 156 197 249 305 357
#     4  12  23  37  58  87 124 164 202 242 294 356
#     4   9  19  34  56  88 125 160 198 240 294 359
#     4  11  23  42  62  85 121 162 202 249 302 354
#     4  11  24  42  63  89 117 155 207 257 300 353
#     4  11  22  38  61  91 125 164 199 242 298 355
#     4  10  22  40  61  87 123 161 199 245 300 357
#     4  10  19  36  60  88 119 157 197 243 299 359
#
# _framework density 20.324597000000001
#
# number of rings (size 3 to 8) (size 9 to 14) (size 15 to 20)
#    0.000    1.500    2.500    3.000    0.000    2.500 
#    0.000    1.250    0.000    0.000    0.000    0.000 
#    0.000    0.000    0.000    0.000    0.000    0.000 
#
# Total GULP energy -178302.999241 kJ/mol
# GULP energy per Si atom -5571.968726 kJ/mol
# Density = 2.027834 g / cm^3
# Si number density = 20.324597 Si / 1000 Ang^3
#
#
#
# Elastic Constant Matrix: (Units=GPa)
#
#
# Indices 1 2 3 4 5 6 
#
# 1 69.5332 30.0267 22.0147 0.0000 -13.1648 0.0000
# 2 30.0267 78.0950 39.0177 0.0000 -11.0206 0.0000
# 3 22.0147 39.0177 54.2304 0.0000 -19.2752 0.0000
# 4 0.0000 0.0000 0.0000 8.0779 0.0000 -8.5988
# 5 -13.1648 -11.0206 -19.2752 0.0000 39.1690 0.0000
# 6 0.0000 0.0000 0.0000 -8.5988 0.0000 -2.3117
#
#
#
# Elastic Compliance Matrix: (Units=1/GPa)
#
#
# Indices 1 2 3 4 5 6 
#
# 1 0.018051 -0.005316 -0.002276 0.000000 0.003451 0.000000
# 2 -0.005316 0.021657 -0.014414 0.000000 -0.002787 0.000000
# 3 -0.002276 -0.014414 0.033962 0.000000 0.011892 0.000000
# 4 0.000000 0.000000 0.000000 0.024961 0.000000 -0.092847
# 5 0.003451 -0.002787 0.011892 0.000000 0.031758 0.000000
# 6 0.000000 0.000000 0.000000 -0.092847 0.000000 -0.087222
#
#
# Mechanical properties :
#
#
# Convention : Reuss Voigt Hill
#
# Bulk Modulus (GPa) = 33.71958 42.66409 38.19183
# Shear Modulus (GPa) = 51.51062 16.37366 33.94214
#
# Velocity S-wave (km/s) = 5.03974 2.84140 4.09100
# Velocity P-wave (km/s) = 7.10576 5.63930 6.41458
#
# Compressibility (1/GPa) = 0.02965636
#
# Stress axis : x y z
#
# Youngs Moduli (GPa) = 55.39715 46.17346 29.44498
#
# Poissons Ratio (x) = 0.24547 0.06703
# Poissons Ratio (y) = 0.29451 0.42443
# Poissons Ratio (z) = 0.12610 0.66557
#
# Static dielectric constant tensor:
#      x y z
#    x 1.723470 0.000000 -0.009320 
#    y 0.000000 1.681210 0.000000 
#    z -0.009320 0.000000 1.762460 
# 
# From -- ./inp_files/69064.got.cif
#   From: 2010.05.17/outbox.cif.g08.bks.cpg/sg11_35_cif.got.tgz:69064.got - 2010.06.03 12:22:45.
