data_PCOD9160740
_publ_section_title
;
Structure prediction by ZEFSAII (Michael W. Deem and Ramdas Pophale) SiO2 
 PCOD9160740
Probable space group: P 21/M
;
_chemical_formula_sum "Si O2"
_cell_formula_units_Z 32
_cell_length_a 14.834800
_cell_length_b 7.922441
_cell_length_c 12.622083
_cell_angle_alpha 90.000000
_cell_angle_beta 91.972507
_cell_angle_gamma 90.000000
_cell_volume 1482.566993
_symmetry_space_group_name_H-M "P 21/M"
_symmetry_group_IT_number 11
_symmetry_cell_setting 'monoclinic'
loop_
_space_group_symop_operation_xyz
x,y,z
-x,1/2+y,-z
-x,-y,-z
x,1/2-y,z
loop_
_atom_site_type_symbol
_atom_site_label
_atom_site_fract_x
_atom_site_fract_y
_atom_site_fract_z
Si Si1 0.360358 0.047228 0.720201
Si Si2 0.026736 0.941259 0.617806
Si Si3 0.209507 0.047877 0.549616
Si Si4 0.260476 0.050955 0.324009
Si Si5 0.464579 0.546768 0.381271
Si Si6 0.987624 0.554692 0.157551
Si Si7 0.821612 0.050930 0.900499
Si Si8 0.786489 0.948148 0.120861
O O1 0.368147 0.250000 0.736122
O O2 0.304915 0.020593 0.609296
O O3 0.460784 0.984553 0.701033
O O4 0.295165 0.981769 0.811143
O O5 0.997442 0.750000 0.632707
O O6 0.134552 0.958936 0.616863
O O7 0.992590 0.045890 0.715956
O O8 0.000000 0.000000 0.500000
O O9 0.191610 0.250000 0.551438
O O10 0.210435 0.988528 0.428620
O O11 0.242891 0.250000 0.316252
O O12 0.366161 0.023250 0.350799
O O13 0.226278 0.971847 0.214157
O O14 0.500000 0.500000 0.500000
O O15 0.459717 0.750000 0.376376
O O16 0.982143 0.750000 0.124954
O O17 0.887843 0.477403 0.139656
O O18 0.075546 0.480633 0.103850
O O19 0.826350 0.250000 0.922932
O O20 0.769900 0.965195 0.995348
O O21 0.794036 0.750000 0.151835
#
# Coordination Sequence:
#
# PCOD9160740 Si02
#       8
#     4   4   4   4   4   4   4   4
#     4   9  18  36  62  89 118 152 191 235 292 352
#     4  12  24  35  52  82 119 158 199 243 294 352
#     4  10  19  37  60  83 117 155 193 238 293 355
#     4  11  23  40  62  88 119 161 203 244 300 362
#     4  11  21  37  62  94 125 156 195 243 298 358
#     4  10  21  39  62  86 117 157 200 246 298 353
#     4  11  24  40  59  88 122 156 201 255 299 347
#     4  10  20  39  65  87 116 160 201 241 293 358
#
# _framework density 21.584185000000002
#
# number of rings (size 3 to 8) (size 9 to 14) (size 15 to 20)
#    0.000    1.500    2.500    3.375    0.000    4.500 
#    0.000    1.875    0.000    0.000    0.000    0.000 
#    0.000    0.000    0.000    0.000    0.000    0.000 
#
# Total GULP energy -178762.769605 kJ/mol
# GULP energy per Si atom -5586.336550 kJ/mol
# Density = 2.153506 g / cm^3
# Si number density = 21.584185 Si / 1000 Ang^3
#
#
#
# Elastic Constant Matrix: (Units=GPa)
#
#
# Indices 1 2 3 4 5 6 
#
# 1 84.2631 -6.5221 30.5002 0.0000 -19.6906 0.0000
# 2 -6.5221 33.0739 -4.1578 0.0000 1.9309 0.0000
# 3 30.5002 -4.1578 119.9588 0.0000 -23.9140 0.0000
# 4 0.0000 0.0000 0.0000 22.7360 0.0000 1.2782
# 5 -19.6906 1.9309 -23.9140 0.0000 32.5887 0.0000
# 6 0.0000 0.0000 0.0000 1.2782 0.0000 18.4673
#
#
#
# Elastic Compliance Matrix: (Units=1/GPa)
#
#
# Indices 1 2 3 4 5 6 
#
# 1 0.014469 0.002167 -0.002210 0.000000 0.006993 0.000000
# 2 0.002167 0.030733 0.000483 0.000000 -0.000157 0.000000
# 3 -0.002210 0.000483 0.010124 0.000000 0.006065 0.000000
# 4 0.000000 0.000000 0.000000 0.044155 0.000000 -0.003056
# 5 0.006993 -0.000157 0.006065 0.000000 0.039371 0.000000
# 6 0.000000 0.000000 0.000000 -0.003056 0.000000 0.054361
#
#
# Mechanical properties :
#
#
# Convention : Reuss Voigt Hill
#
# Bulk Modulus (GPa) = 17.79157 30.77071 24.28114
# Shear Modulus (GPa) = 23.68915 29.25679 26.47297
#
# Velocity S-wave (km/s) = 3.31648 3.68567 3.50594
# Velocity P-wave (km/s) = 4.78813 5.69204 5.25954
#
# Compressibility (1/GPa) = 0.05620640
#
# Stress axis : x y z
#
# Youngs Moduli (GPa) = 69.11228 32.53876 98.77611
#
# Poissons Ratio (x) = -0.07052 0.21827
# Poissons Ratio (y) = -0.14979 -0.04769
# Poissons Ratio (z) = 0.15272 -0.01571
#
# Static dielectric constant tensor:
#      x y z
#    x 1.828130 0.000000 -0.001220 
#    y 0.000000 1.795070 0.000000 
#    z -0.001220 0.000000 1.792470 
# 
# From -- ./inp_files/38174.got.cif
#   From: 2010.05.17/outbox.cif.g08.bks.cpg/sg11_20_cif.got.tgz:38174.got - 2010.06.03 12:22:45.
