data_PCOD9160357
_publ_section_title
;
Structure prediction by ZEFSAII (Michael W. Deem and Ramdas Pophale) SiO2 
 PCOD9160357
Probable space group: P 21/M
;
_chemical_formula_sum "Si O2"
_cell_formula_units_Z 32
_cell_length_a 15.182629
_cell_length_b 8.157096
_cell_length_c 10.738391
_cell_angle_alpha 90.000000
_cell_angle_beta 83.992839
_cell_angle_gamma 90.000000
_cell_volume 1322.605752
_symmetry_space_group_name_H-M "P 21/M"
_symmetry_group_IT_number 11
_symmetry_cell_setting 'monoclinic'
loop_
_space_group_symop_operation_xyz
x,y,z
-x,1/2+y,-z
-x,-y,-z
x,1/2-y,z
loop_
_atom_site_type_symbol
_atom_site_label
_atom_site_fract_x
_atom_site_fract_y
_atom_site_fract_z
Si Si1 0.923107 0.059720 0.417090
Si Si2 0.823818 0.450408 0.200514
Si Si3 0.623954 0.049787 0.223906
Si Si4 0.559759 0.944590 0.678612
Si Si5 0.260463 0.435228 0.450976
Si Si6 0.616312 0.063183 0.940850
Si Si7 0.795577 0.071920 0.779278
Si Si8 0.087188 0.438172 0.051642
O O1 0.941961 0.250000 0.400108
O O2 0.902929 0.993291 0.281081
O O3 0.822618 0.033392 0.482215
O O4 0.000000 0.000000 0.500000
O O5 0.827868 0.250000 0.188583
O O6 0.722674 0.493143 0.254869
O O7 0.840255 0.533243 0.066161
O O8 0.621388 0.250000 0.220898
O O9 0.540845 0.992596 0.319341
O O10 0.608850 0.995278 0.081855
O O11 0.561222 0.750000 0.656354
O O12 0.640727 0.011221 0.581639
O O13 0.579606 0.973630 0.823335
O O14 0.263318 0.250000 0.500973
O O15 0.229762 0.431179 0.311260
O O16 0.580305 0.250000 0.946134
O O17 0.719979 0.074718 0.894474
O O18 0.793286 0.250000 0.716949
O O19 0.887314 0.041286 0.831763
O O20 0.081305 0.250000 0.087938
O O21 0.000000 0.500000 0.000000
#
# Coordination Sequence:
#
# PCOD9160357 Si02
#       8
#     4   4   4   4   4   4   4   4
#     4  11  25  44  68  89 112 151 200 255 308 363
#     4  10  22  43  65  87 117 155 203 251 301 360
#     4   9  16  32  56  82 115 155 197 240 294 350
#     4   9  18  31  53  84 118 157 197 240 287 344
#     4  10  21  38  59  87 124 158 199 248 296 354
#     4   9  16  28  50  78 115 158 194 236 283 339
#     4  10  19  35  58  85 118 157 199 243 293 347
#     4  12  25  39  59  87 122 158 194 239 300 366
#
# _framework density 24.194662000000001
#
# number of rings (size 3 to 8) (size 9 to 14) (size 15 to 20)
#    0.000    2.000    1.250    2.625    1.750    2.000 
#    0.000    1.250    0.000    0.000    0.000    0.000 
#    0.000    0.000    0.000    0.000    0.000    0.000 
#
# Total GULP energy -178445.842609 kJ/mol
# GULP energy per Si atom -5576.432582 kJ/mol
# Density = 2.413959 g / cm^3
# Si number density = 24.194662 Si / 1000 Ang^3
#
#
#
# Elastic Constant Matrix: (Units=GPa)
#
#
# Indices 1 2 3 4 5 6 
#
# 1 120.2067 -3.2566 9.8263 0.0000 3.9220 0.0000
# 2 -3.2566 39.4093 -1.2852 0.0000 5.1157 0.0000
# 3 9.8263 -1.2852 36.1076 0.0000 5.0783 0.0000
# 4 0.0000 0.0000 0.0000 18.1799 0.0000 -3.0927
# 5 3.9220 5.1157 5.0783 0.0000 22.8326 0.0000
# 6 0.0000 0.0000 0.0000 -3.0927 0.0000 18.7476
#
#
#
# Elastic Compliance Matrix: (Units=1/GPa)
#
#
# Indices 1 2 3 4 5 6 
#
# 1 0.008553 0.000789 -0.002135 0.000000 -0.001171 0.000000
# 2 0.000789 0.026323 0.001621 0.000000 -0.006394 0.000000
# 3 -0.002135 0.001621 0.029248 0.000000 -0.006502 0.000000
# 4 0.000000 0.000000 0.000000 0.056594 0.000000 0.009336
# 5 -0.001171 -0.006394 -0.006502 0.000000 0.046877 0.000000
# 6 0.000000 0.000000 0.000000 0.009336 0.000000 0.054880
#
#
# Mechanical properties :
#
#
# Convention : Reuss Voigt Hill
#
# Bulk Modulus (GPa) = 15.46178 22.92139 19.19158
# Shear Modulus (GPa) = 20.53540 24.64798 22.59169
#
# Velocity S-wave (km/s) = 2.91651 3.19523 3.05904
# Velocity P-wave (km/s) = 4.21257 4.80697 4.51955
#
# Compressibility (1/GPa) = 0.06467562
#
# Stress axis : x y z
#
# Youngs Moduli (GPa) = 116.91657 37.98989 34.19027
#
# Poissons Ratio (x) = -0.02998 0.07299
# Poissons Ratio (y) = -0.09227 -0.05544
# Poissons Ratio (z) = 0.24960 -0.06160
#
# Static dielectric constant tensor:
#      x y z
#    x 2.006690 0.000000 -0.050240 
#    y 0.000000 1.790190 0.000000 
#    z -0.050240 0.000000 2.005140 
# 
# From -- ./inp_files/38203.got.cif
#   From: 2010.05.17/outbox.cif.g08.bks.cpg/sg11_20_cif.got.tgz:38203.got - 2010.06.03 12:22:45.
