data_PCOD9160442
_publ_section_title
;
Structure prediction by ZEFSAII (Michael W. Deem and Ramdas Pophale) SiO2 
 PCOD9160442
Probable space group: P 21/M
;
_chemical_formula_sum "Si O2"
_cell_formula_units_Z 28
_cell_length_a 10.123105
_cell_length_b 8.573419
_cell_length_c 28.757949
_cell_angle_alpha 90.000000
_cell_angle_beta 142.403910
_cell_angle_gamma 90.000000
_cell_volume 1522.721170
_symmetry_space_group_name_H-M "P 21/M"
_symmetry_group_IT_number 11
_symmetry_cell_setting 'monoclinic'
loop_
_space_group_symop_operation_xyz
x,y,z
-x,1/2+y,-z
-x,-y,-z
x,1/2-y,z
loop_
_atom_site_type_symbol
_atom_site_label
_atom_site_fract_x
_atom_site_fract_y
_atom_site_fract_z
Si Si1 0.816625 0.936008 0.296414
Si Si2 0.721724 0.437128 0.541797
Si Si3 0.769084 0.564545 0.451901
Si Si4 0.461883 0.937085 0.697882
Si Si5 0.140962 0.439113 0.127499
Si Si6 0.353712 0.562980 0.001492
Si Si7 0.552725 0.563584 0.871042
O O1 0.796474 0.750000 0.284972
O O2 0.068728 0.979331 0.368696
O O3 0.715153 0.984981 0.317692
O O4 0.669475 0.020079 0.217116
O O5 0.500000 0.500000 0.500000
O O6 0.720037 0.250000 0.537526
O O7 0.744126 0.510811 0.497454
O O8 0.766545 0.750000 0.447393
O O9 0.585943 0.494106 0.367102
O O10 0.000000 0.500000 0.500000
O O11 0.439523 0.750000 0.694337
O O12 0.692998 0.980471 0.784841
O O13 0.135044 0.250000 0.123640
O O14 0.253963 0.490330 0.110373
O O15 0.897494 0.493487 0.069132
O O16 0.353294 0.750000 0.998264
O O17 0.437229 0.512280 0.075590
O O18 0.500000 0.500000 0.000000
O O19 0.569122 0.750000 0.880124
#
# Coordination Sequence:
#
# PCOD9160442 Si02
#       7
#     4   4   4   4   4   4   4
#     4  10  20  36  59  87 118 151 192 241 290 346
#     4  11  24  41  60  85 119 157 200 245 296 353
#     4  12  23  37  60  88 119 157 199 245 295 348
#     4  10  19  35  60  89 117 149 193 245 295 345
#     4   8  18  36  60  87 115 147 190 238 285 340
#     4  11  22  39  59  84 119 155 190 234 286 347
#     4  10  20  37  62  89 113 147 192 239 290 346
#
# _framework density 18.388133
#
# number of rings (size 3 to 8) (size 9 to 14) (size 15 to 20)
#    0.000    1.714    1.429    4.714    0.000    1.714 
#    2.571    7.857    0.000    0.000    0.000    0.000 
#    0.000    0.000    0.000    0.000    0.000    0.000 
#
# Total GULP energy -156342.743806 kJ/mol
# GULP energy per Si atom -5583.669422 kJ/mol
# Density = 1.834628 g / cm^3
# Si number density = 18.388133 Si / 1000 Ang^3
#
#
#
# Elastic Constant Matrix: (Units=GPa)
#
#
# Indices 1 2 3 4 5 6 
#
# 1 130.7231 27.3798 75.1853 0.0000 5.9266 0.0000
# 2 27.3798 46.7512 20.1845 0.0000 2.8862 0.0000
# 3 75.1853 20.1845 116.4925 0.0000 4.3036 0.0000
# 4 0.0000 0.0000 0.0000 29.0806 0.0000 -5.1812
# 5 5.9266 2.8862 4.3036 0.0000 28.0048 0.0000
# 6 0.0000 0.0000 0.0000 -5.1812 0.0000 30.6427
#
#
#
# Elastic Compliance Matrix: (Units=1/GPa)
#
#
# Indices 1 2 3 4 5 6 
#
# 1 0.012950 -0.004241 -0.007581 0.000000 -0.001138 0.000000
# 2 -0.004241 0.024596 -0.001473 0.000000 -0.001411 0.000000
# 3 -0.007581 -0.001473 0.013745 0.000000 -0.000356 0.000000
# 4 0.000000 0.000000 0.000000 0.035455 0.000000 0.005995
# 5 -0.001138 -0.001411 -0.000356 0.000000 0.036149 0.000000
# 6 0.000000 0.000000 0.000000 0.005995 0.000000 0.033648
#
#
# Mechanical properties :
#
#
# Convention : Reuss Voigt Hill
#
# Bulk Modulus (GPa) = 40.48136 59.94065 50.21101
# Shear Modulus (GPa) = 26.12777 28.96008 27.54393
#
# Velocity S-wave (km/s) = 3.77358 3.97285 3.87449
# Velocity P-wave (km/s) = 6.40697 7.32891 6.88339
#
# Compressibility (1/GPa) = 0.02470273
#
# Stress axis : x y z
#
# Youngs Moduli (GPa) = 77.22102 40.65650 72.75115
#
# Poissons Ratio (x) = 0.17241 0.55153
# Poissons Ratio (y) = 0.32747 0.10714
# Poissons Ratio (z) = 0.58542 0.05987
#
# Static dielectric constant tensor:
#      x y z
#    x 1.594840 0.000000 0.009220 
#    y 0.000000 1.622740 0.000000 
#    z 0.009220 0.000000 1.644400 
# 
# From -- ./inp_files/66872.got.cif
#   From: 2010.05.17/outbox.cif.g08.bks.cpg/sg11_34_cif.got.tgz:66872.got - 2010.06.03 12:22:45.
