data_PCOD9160046
_publ_section_title
;
Structure prediction by ZEFSAII (Michael W. Deem and Ramdas Pophale) SiO2 
 PCOD9160046
Probable space group: P 21/M
;
_chemical_formula_sum "Si O2"
_cell_formula_units_Z 32
_cell_length_a 21.288670
_cell_length_b 14.934289
_cell_length_c 15.179768
_cell_angle_alpha 90.000000
_cell_angle_beta 19.465016
_cell_angle_gamma 90.000000
_cell_volume 1608.214287
_symmetry_space_group_name_H-M "P 21/M"
_symmetry_group_IT_number 11
_symmetry_cell_setting 'monoclinic'
loop_
_space_group_symop_operation_xyz
x,y,z
-x,1/2+y,-z
-x,-y,-z
x,1/2-y,z
loop_
_atom_site_type_symbol
_atom_site_label
_atom_site_fract_x
_atom_site_fract_y
_atom_site_fract_z
Si Si1 0.607454 0.644007 0.616064
Si Si2 0.410358 0.644473 0.380908
Si Si3 0.945422 0.144009 0.278156
Si Si4 0.992858 0.644472 0.215898
Si Si5 0.689202 0.996430 0.935482
Si Si6 0.295573 0.151681 0.704459
Si Si7 0.938467 0.503584 0.436895
Si Si8 0.615183 0.413586 0.384809
O O1 0.553372 0.750000 0.686273
O O2 0.645672 0.610685 0.465965
O O3 0.805804 0.635987 0.403877
O O4 0.447559 0.581478 0.868981
O O5 0.450159 0.750000 0.339883
O O6 0.225242 0.635985 0.565020
O O7 0.384425 0.600059 0.511114
O O8 0.573156 0.591749 0.114721
O O9 0.967284 0.250000 0.272411
O O10 0.919278 0.081483 0.397323
O O11 0.130980 0.110680 0.980719
O O12 0.030177 0.750000 0.179816
O O13 0.948722 0.591749 0.363455
O O14 0.175527 0.600062 0.928985
O O15 0.770651 0.994216 0.729377
O O16 0.866868 0.000023 0.766292
O O17 0.219019 0.250000 0.781011
O O18 0.479304 0.159284 0.520734
O O19 0.500000 0.500000 0.500000
#
# Coordination Sequence:
#
# PCOD9160046 Si02
#       8
#     4   4   4   4   4   4   4   4
#     4  10  22  40  64  93 125 163 206 257 315 375
#     4  11  23  40  63  91 125 164 207 256 312 374
#     4  10  22  40  64  93 125 163 206 257 315 375
#     4  11  23  40  63  91 125 164 207 256 312 374
#     4  11  25  43  62  87 120 160 209 262 314 373
#     4  10  19  34  57  86 121 155 191 237 294 360
#     4  11  25  43  62  87 120 160 209 262 314 373
#     4  12  23  36  60  94 128 163 201 247 305 368
#
# _framework density 19.897846000000001
#
# number of rings (size 3 to 8) (size 9 to 14) (size 15 to 20)
#    0.000    1.250    0.000    6.375    0.000    8.000 
#    0.000    8.750    0.000    0.000    0.000    0.000 
#    0.000    0.000    0.000    0.000    0.000    0.000 
#
# Total GULP energy -178768.483807 kJ/mol
# GULP energy per Si atom -5586.515119 kJ/mol
# Density = 1.985256 g / cm^3
# Si number density = 19.897846 Si / 1000 Ang^3
#
#
#
# Elastic Constant Matrix: (Units=GPa)
#
#
# Indices 1 2 3 4 5 6 
#
# 1 247.1342 70.1459 -35.4626 0.0000 64.4040 0.0000
# 2 70.1459 163.6268 80.8184 0.0000 14.7795 0.0000
# 3 -35.4626 80.8184 284.4824 0.0000 -11.7933 0.0000
# 4 0.0000 0.0000 0.0000 15.3710 0.0000 -13.2385
# 5 64.4040 14.7795 -11.7933 0.0000 48.3427 0.0000
# 6 0.0000 0.0000 0.0000 -13.2385 0.0000 24.1962
#
#
#
# Elastic Compliance Matrix: (Units=1/GPa)
#
#
# Indices 1 2 3 4 5 6 
#
# 1 0.007343 -0.003094 0.001443 0.000000 -0.008484 0.000000
# 2 -0.003094 0.008778 -0.002848 0.000000 0.000743 0.000000
# 3 0.001443 -0.002848 0.004506 0.000000 0.000048 0.000000
# 4 0.000000 0.000000 0.000000 0.123035 0.000000 0.067316
# 5 -0.008484 0.000743 0.000048 0.000000 0.031773 0.000000
# 6 0.000000 0.000000 0.000000 0.067316 0.000000 0.078160
#
#
# Mechanical properties :
#
#
# Convention : Reuss Voigt Hill
#
# Bulk Modulus (GPa) = 86.00895 102.91630 94.46263
# Shear Modulus (GPa) = 18.76389 56.23142 37.49765
#
# Velocity S-wave (km/s) = 3.07418 5.32179 4.34580
# Velocity P-wave (km/s) = 7.47796 9.46554 8.52984
#
# Compressibility (1/GPa) = 0.01162670
#
# Stress axis : x y z
#
# Youngs Moduli (GPa) = 136.19209 113.92694 221.91655
#
# Poissons Ratio (x) = 0.35247 -0.32012
# Poissons Ratio (y) = 0.42136 0.63212
# Poissons Ratio (z) = -0.19646 0.32452
#
# Static dielectric constant tensor:
#      x y z
#    x 1.681780 0.000000 -0.006320 
#    y 0.000000 1.812510 0.000000 
#    z -0.006320 0.000000 1.677550 
# 
# From -- ./inp_files/54972.got.cif
#   From: 2010.05.17/outbox.cif.g08.bks.cpg/sg11_28_cif.got.tgz:54972.got - 2010.06.03 12:22:45.
