data_PCOD9160008
_publ_section_title
;
Structure prediction by ZEFSAII (Michael W. Deem and Ramdas Pophale) SiO2 
 PCOD9160008
Probable space group: P 21/M
;
_chemical_formula_sum "Si O2"
_cell_formula_units_Z 32
_cell_length_a 20.763848
_cell_length_b 8.808944
_cell_length_c 26.985345
_cell_angle_alpha 90.000000
_cell_angle_beta 160.026336
_cell_angle_gamma 90.000000
_cell_volume 1686.019123
_symmetry_space_group_name_H-M "P 21/M"
_symmetry_group_IT_number 11
_symmetry_cell_setting 'monoclinic'
loop_
_space_group_symop_operation_xyz
x,y,z
-x,1/2+y,-z
-x,-y,-z
x,1/2-y,z
loop_
_atom_site_type_symbol
_atom_site_label
_atom_site_fract_x
_atom_site_fract_y
_atom_site_fract_z
Si Si1 0.393449 0.932061 0.839582
Si Si2 0.816595 0.931129 0.149361
Si Si3 0.964336 0.067550 0.351809
Si Si4 0.275558 0.068361 0.221797
Si Si5 0.612035 0.432024 0.534379
Si Si6 0.082941 0.069078 0.982155
Si Si7 0.970659 0.430766 0.161080
Si Si8 0.820698 0.931777 0.399554
O O1 0.381216 0.750000 0.826323
O O2 0.225564 0.979058 0.755243
O O3 0.354442 0.002515 0.757252
O O4 0.601449 0.972891 0.008018
O O5 0.829759 0.750000 0.155085
O O6 0.955204 0.990610 0.292134
O O7 0.860977 0.004764 0.128870
O O8 0.959728 0.250000 0.342881
O O9 0.139568 0.028289 0.514460
O O10 0.243777 0.250000 0.204520
O O11 0.482045 0.035315 0.392383
O O12 0.233163 0.030245 0.133962
O O13 0.118552 0.984079 0.141306
O O14 0.500000 0.500000 0.500000
O O15 0.629505 0.250000 0.552108
O O16 0.816594 0.505920 0.680842
O O17 0.080923 0.250000 0.973818
O O18 0.111882 0.989367 0.950685
O O19 0.972556 0.250000 0.162936
O O20 0.823614 0.750000 0.397745
O O21 0.000000 0.000000 0.500000
#
# Coordination Sequence:
#
# PCOD9160008 Si02
#       8
#     4   4   4   4   4   4   4   4
#     4   9  19  35  56  83 113 144 186 234 279 333
#     4  11  23  38  56  80 109 147 190 232 281 337
#     4   9  18  34  55  83 115 145 181 229 279 331
#     4   9  19  34  56  86 114 139 175 221 273 327
#     4  11  21  36  59  87 114 144 182 225 272 328
#     4  10  19  34  57  83 111 142 177 223 272 327
#     4  12  25  40  56  78 112 151 189 232 281 334
#     4   9  17  30  52  81 112 143 180 225 274 325
#
# _framework density 18.979619
#
# number of rings (size 3 to 8) (size 9 to 14) (size 15 to 20)
#    0.000    2.000    1.250    3.750    0.000    4.500 
#    0.000    1.250    0.000    1.500    0.000    0.000 
#    0.000    0.000    0.000    0.000    0.000    0.000 
#
# Total GULP energy -178603.837818 kJ/mol
# GULP energy per Si atom -5581.369932 kJ/mol
# Density = 1.893642 g / cm^3
# Si number density = 18.979619 Si / 1000 Ang^3
#
#
#
# Elastic Constant Matrix: (Units=GPa)
#
#
# Indices 1 2 3 4 5 6 
#
# 1 89.2664 27.7846 20.5876 0.0000 -31.8841 0.0000
# 2 27.7846 37.1654 16.7302 0.0000 -16.6095 0.0000
# 3 20.5876 16.7302 56.4017 0.0000 -31.0556 0.0000
# 4 0.0000 0.0000 0.0000 26.6562 0.0000 -6.0439
# 5 -31.8841 -16.6095 -31.0556 0.0000 35.6529 0.0000
# 6 0.0000 0.0000 0.0000 -6.0439 0.0000 30.6803
#
#
#
# Elastic Compliance Matrix: (Units=1/GPa)
#
#
# Indices 1 2 3 4 5 6 
#
# 1 0.018947 -0.008734 0.005312 0.000000 0.017502 0.000000
# 2 -0.008734 0.038210 -0.005084 0.000000 0.005562 0.000000
# 3 0.005312 -0.005084 0.035763 0.000000 0.033534 0.000000
# 4 0.000000 0.000000 0.000000 0.039269 0.000000 0.007736
# 5 0.017502 0.005562 0.033534 0.000000 0.075501 0.000000
# 6 0.000000 0.000000 0.000000 0.007736 0.000000 0.034118
#
#
# Mechanical properties :
#
#
# Convention : Reuss Voigt Hill
#
# Bulk Modulus (GPa) = 13.17365 34.78202 23.97783
# Shear Modulus (GPa) = 17.59796 26.44662 22.02229
#
# Velocity S-wave (km/s) = 3.04830 3.73691 3.41003
# Velocity P-wave (km/s) = 4.39836 6.08153 5.30710
#
# Compressibility (1/GPa) = 0.07590912
#
# Stress axis : x y z
#
# Youngs Moduli (GPa) = 52.77763 26.17093 27.96175
#
# Poissons Ratio (x) = 0.22858 -0.14853
# Poissons Ratio (y) = 0.46096 0.14214
# Poissons Ratio (z) = -0.28034 0.13304
#
# Static dielectric constant tensor:
#      x y z
#    x 1.654670 0.000000 -0.021970 
#    y 0.000000 1.630850 0.000000 
#    z -0.021970 0.000000 1.674610 
# 
# From -- ./inp_files/72222.got.cif
#   From: 2010.05.17/outbox.cif.g08.bks.cpg/sg11_37_cif.got.tgz:72222.got - 2010.06.03 12:22:45.
