data_PCOD9160435
_publ_section_title
;
Structure prediction by ZEFSAII (Michael W. Deem and Ramdas Pophale) SiO2 
 PCOD9160435
Probable space group: P 21/M
;
_chemical_formula_sum "Si O2"
_cell_formula_units_Z 28
_cell_length_a 22.911242
_cell_length_b 14.791437
_cell_length_c 9.418864
_cell_angle_alpha 90.000000
_cell_angle_beta 26.058336
_cell_angle_gamma 90.000000
_cell_volume 1402.183720
_symmetry_space_group_name_H-M "P 21/M"
_symmetry_group_IT_number 11
_symmetry_cell_setting 'monoclinic'
loop_
_space_group_symop_operation_xyz
x,y,z
-x,1/2+y,-z
-x,-y,-z
x,1/2-y,z
loop_
_atom_site_type_symbol
_atom_site_label
_atom_site_fract_x
_atom_site_fract_y
_atom_site_fract_z
Si Si1 0.240396 0.989346 0.726690
Si Si2 0.996869 0.148043 0.758313
Si Si3 0.192923 0.469903 0.512701
Si Si4 0.567197 0.355595 0.303885
Si Si5 0.486446 0.468445 0.755208
Si Si6 0.856765 0.350216 0.550147
Si Si7 0.924397 0.591674 0.709469
O O1 0.393931 0.962808 0.394325
O O2 0.198522 0.032288 0.669242
O O3 0.141615 0.904485 0.961773
O O4 0.209603 0.058110 0.923245
O O5 0.971989 0.250000 0.854632
O O6 0.085272 0.095953 0.679651
O O7 0.078350 0.144920 0.431309
O O8 0.155188 0.570018 0.537717
O O9 0.340311 0.448890 0.133139
O O10 0.527152 0.250000 0.375066
O O11 0.522639 0.398999 0.549961
O O12 0.517451 0.428682 0.297009
O O13 0.727416 0.358174 0.934846
O O14 0.854612 0.250000 0.490847
O O15 0.985037 0.362400 0.368716
O O16 0.000000 0.500000 0.500000
#
# Coordination Sequence:
#
# PCOD9160435 Si02
#       7
#     4   4   4   4   4   4   4
#     4  11  23  41  63  88 125 168 201 250 305 374
#     4  11  24  41  65  93 122 161 208 259 308 360
#     4  11  23  42  60  91 129 161 203 256 304 367
#     4   9  19  36  61  92 121 157 208 259 302 359
#     4  10  22  37  64  88 123 166 204 247 310 364
#     4  10  19  35  61  90 121 162 207 254 308 362
#     4  10  19  35  60  86 119 152 200 257 302 351
#
# _framework density 19.968855000000001
#
# number of rings (size 3 to 8) (size 9 to 14) (size 15 to 20)
#    0.000    1.714    2.857    3.000    4.000    2.857 
#    0.000    2.143    0.000    3.429    0.000    0.000 
#    0.000    0.000    0.000    0.000    0.000    0.000 
#
# Total GULP energy -156345.126799 kJ/mol
# GULP energy per Si atom -5583.754529 kJ/mol
# Density = 1.992340 g / cm^3
# Si number density = 19.968855 Si / 1000 Ang^3
#
#
#
# Elastic Constant Matrix: (Units=GPa)
#
#
# Indices 1 2 3 4 5 6 
#
# 1 48.8907 10.2380 9.9441 0.0000 -7.9062 0.0000
# 2 10.2380 107.7925 24.6018 0.0000 -10.1740 0.0000
# 3 9.9441 24.6018 67.2463 0.0000 -16.2973 0.0000
# 4 0.0000 0.0000 0.0000 13.9585 0.0000 -12.3351
# 5 -7.9062 -10.1740 -16.2973 0.0000 35.0494 0.0000
# 6 0.0000 0.0000 0.0000 -12.3351 0.0000 -7.3733
#
#
#
# Elastic Compliance Matrix: (Units=1/GPa)
#
#
# Indices 1 2 3 4 5 6 
#
# 1 0.021692 -0.001293 -0.001848 0.000000 0.003658 0.000000
# 2 -0.001293 0.010258 -0.003280 0.000000 0.001161 0.000000
# 3 -0.001848 -0.003280 0.018046 0.000000 0.007022 0.000000
# 4 0.000000 0.000000 0.000000 0.028906 0.000000 -0.048359
# 5 0.003658 0.001161 0.007022 0.000000 0.032958 0.000000
# 6 0.000000 0.000000 0.000000 -0.048359 0.000000 -0.054723
#
#
# Mechanical properties :
#
#
# Convention : Reuss Voigt Hill
#
# Bulk Modulus (GPa) = 26.91578 34.83305 30.87442
# Shear Modulus (GPa) = 60.70514 20.26996 40.48755
#
# Velocity S-wave (km/s) = 5.51959 3.18949 4.50770
# Velocity P-wave (km/s) = 7.35727 5.57183 6.52590
#
# Compressibility (1/GPa) = 0.03715292
#
# Stress axis : x y z
#
# Youngs Moduli (GPa) = 46.09978 97.48341 55.41440
#
# Poissons Ratio (x) = 0.12607 0.10241
# Poissons Ratio (y) = 0.05962 0.18178
# Poissons Ratio (z) = 0.08519 0.31978
#
# Static dielectric constant tensor:
#      x y z
#    x 1.720320 0.000000 0.022460 
#    y 0.000000 1.697470 0.000000 
#    z 0.022460 0.000000 1.725190 
# 
# From -- ./inp_files/26918.got.cif
#   From: 2010.05.17/outbox.cif.g08.bks.cpg/sg11_14_cif.got.tgz:26918.got - 2010.06.03 12:22:45.
