data_PCOD9160831
_publ_section_title
;
Structure prediction by ZEFSAII (Michael W. Deem and Ramdas Pophale) SiO2 
 PCOD9160831
Probable space group: P 21/M
;
_chemical_formula_sum "Si O2"
_cell_formula_units_Z 24
_cell_length_a 11.489694
_cell_length_b 14.877972
_cell_length_c 13.430145
_cell_angle_alpha 90.000000
_cell_angle_beta 31.153229
_cell_angle_gamma 90.000000
_cell_volume 1187.679845
_symmetry_space_group_name_H-M "P 21/M"
_symmetry_group_IT_number 11
_symmetry_cell_setting 'monoclinic'
loop_
_space_group_symop_operation_xyz
x,y,z
-x,1/2+y,-z
-x,-y,-z
x,1/2-y,z
loop_
_atom_site_type_symbol
_atom_site_label
_atom_site_fract_x
_atom_site_fract_y
_atom_site_fract_z
Si Si1 0.817506 0.750000 0.977221
Si Si2 0.747964 0.250000 0.979087
Si Si3 0.656569 0.440921 0.812791
Si Si4 0.545776 0.750000 0.986631
Si Si5 0.502101 0.060917 0.402449
Si Si6 0.677631 0.549125 0.101281
Si Si7 0.717875 0.250000 0.242859
Si Si8 0.016233 0.565084 0.267205
O O1 0.776095 0.750000 0.885468
O O2 0.060968 0.750000 0.850124
O O3 0.710592 0.655490 0.092032
O O4 0.505224 0.250000 0.096257
O O5 0.743762 0.250000 0.102388
O O6 0.876669 0.159822 0.848877
O O7 0.567516 0.465432 0.769942
O O8 0.902186 0.450366 0.678895
O O9 0.500000 0.500000 0.000000
O O10 0.581341 0.338347 0.883219
O O11 0.584365 0.160190 0.365002
O O12 0.248459 0.066253 0.548735
O O13 0.500000 0.000000 0.500000
O O14 0.672052 0.012600 0.201695
O O15 0.867945 0.511612 0.886611
#
# Coordination Sequence:
#
# PCOD9160831 Si02
#       8
#     2   2   4   2   4   4   2   4
#     4  10  22  38  66  85 123 170 205 249 313 365
#     4  10  19  37  69  91 122 157 204 258 308 362
#     4   8  16  32  61  89 115 154 201 243 303 367
#     4   8  16  33  57  94 113 153 206 246 301 367
#     4  12  27  40  60  91 129 160 209 252 301 371
#     4  10  21  41  62  91 122 161 207 251 304 367
#     4  12  25  42  64  94 120 164 213 247 308 372
#     4  10  20  39  64  90 123 161 195 257 313 354
#
# _framework density 20.207467000000001
#
# number of rings (size 3 to 8) (size 9 to 14) (size 15 to 20)
#    0.000    2.000    1.667    1.500    2.333    2.667 
#    0.000    0.833    3.667    0.000    0.000    0.000 
#    0.000    0.000    0.000    0.000    0.000    0.000 
#
# Total GULP energy -133705.902673 kJ/mol
# GULP energy per Si atom -5571.079278 kJ/mol
# Density = 2.016147 g / cm^3
# Si number density = 20.207467 Si / 1000 Ang^3
#
#
#
# Elastic Constant Matrix: (Units=GPa)
#
#
# Indices 1 2 3 4 5 6 
#
# 1 131.6986 31.0419 49.6904 0.0000 -33.9342 0.0000
# 2 31.0419 146.8614 30.7158 0.0000 5.0422 0.0000
# 3 49.6904 30.7158 49.7390 0.0000 -22.2789 0.0000
# 4 0.0000 0.0000 0.0000 23.9279 0.0000 -2.4439
# 5 -33.9342 5.0422 -22.2789 0.0000 37.7259 0.0000
# 6 0.0000 0.0000 0.0000 -2.4439 0.0000 27.6346
#
#
#
# Elastic Compliance Matrix: (Units=1/GPa)
#
#
# Indices 1 2 3 4 5 6 
#
# 1 0.013064 -0.000938 -0.009724 0.000000 0.006133 0.000000
# 2 -0.000938 0.008751 -0.007300 0.000000 -0.006324 0.000000
# 3 -0.009724 -0.007300 0.041941 0.000000 0.016997 0.000000
# 4 0.000000 0.000000 0.000000 0.042173 0.000000 0.003730
# 5 0.006133 -0.006324 0.016997 0.000000 0.042906 0.000000
# 6 0.000000 0.000000 0.000000 0.003730 0.000000 0.036516
#
#
# Mechanical properties :
#
#
# Convention : Reuss Voigt Hill
#
# Bulk Modulus (GPa) = 35.93101 61.24391 48.58746
# Shear Modulus (GPa) = 21.68697 32.31441 27.00069
#
# Velocity S-wave (km/s) = 3.27955 4.00325 3.65934
# Velocity P-wave (km/s) = 5.67100 7.19315 6.47695
#
# Compressibility (1/GPa) = 0.02783112
#
# Stress axis : x y z
#
# Youngs Moduli (GPa) = 76.54892 114.26865 23.84311
#
# Poissons Ratio (x) = 0.10718 0.23186
# Poissons Ratio (y) = 0.07180 0.17405
# Poissons Ratio (z) = 0.74439 0.83416
#
# Static dielectric constant tensor:
#      x y z
#    x 1.792320 0.000000 -0.006860 
#    y 0.000000 1.681130 0.000000 
#    z -0.006860 0.000000 1.681770 
# 
# From -- ./inp_files/35407.got.cif
#   From: 2010.05.17/outbox.cif.g08.bks.cpg/sg11_18_cif.got.tgz:35407.got - 2010.06.03 12:22:45.
