data_PCOD9160243
_publ_section_title
;
Structure prediction by ZEFSAII (Michael W. Deem and Ramdas Pophale) SiO2 
 PCOD9160243
Probable space group: P 21/M
;
_chemical_formula_sum "Si O2"
_cell_formula_units_Z 28
_cell_length_a 16.053847
_cell_length_b 7.610866
_cell_length_c 12.171220
_cell_angle_alpha 90.000000
_cell_angle_beta 59.480854
_cell_angle_gamma 90.000000
_cell_volume 1281.097486
_symmetry_space_group_name_H-M "P 21/M"
_symmetry_group_IT_number 11
_symmetry_cell_setting 'monoclinic'
loop_
_space_group_symop_operation_xyz
x,y,z
-x,1/2+y,-z
-x,-y,-z
x,1/2-y,z
loop_
_atom_site_type_symbol
_atom_site_label
_atom_site_fract_x
_atom_site_fract_y
_atom_site_fract_z
Si Si1 0.500395 0.535813 0.333389
Si Si2 0.035077 0.541615 0.099790
Si Si3 0.886401 0.539340 0.583708
Si Si4 0.854871 0.533837 0.362185
Si Si5 0.660450 0.953660 0.394992
Si Si6 0.211538 0.458878 0.126674
Si Si7 0.428981 0.460740 0.948069
O O1 0.496136 0.750000 0.341859
O O2 0.401991 0.466574 0.451948
O O3 0.589537 0.472566 0.349850
O O4 0.521764 0.476417 0.196803
O O5 0.035785 0.750000 0.108290
O O6 0.140303 0.482251 0.070535
O O7 0.955161 0.474625 0.240537
O O8 0.000000 0.500000 0.000000
O O9 0.875827 0.750000 0.592577
O O10 0.843590 0.476598 0.495953
O O11 0.838845 0.469989 0.728011
O O12 0.000000 0.500000 0.500000
O O13 0.854267 0.750000 0.362661
O O14 0.765607 0.471322 0.347837
O O15 0.674957 0.750000 0.355534
O O16 0.220920 0.250000 0.136016
O O17 0.319784 0.529313 0.036869
O O18 0.421214 0.250000 0.942428
O O19 0.500000 0.500000 0.000000
#
# Coordination Sequence:
#
# PCOD9160243 Si02
#       7
#     4   4   4   4   4   4   4
#     4   9  19  36  55  80 111 142 180 231 287 333
#     4  11  23  39  60  86 119 154 193 235 283 344
#     4  10  19  35  56  82 112 142 184 229 275 330
#     4   9  19  34  57  84 109 145 185 225 277 337
#     4   9  18  34  59  82 105 142 185 227 275 335
#     4  10  22  39  61  85 114 153 194 238 286 341
#     4  10  23  40  59  83 114 152 194 238 287 342
#
# _framework density 21.856259999999999
#
# number of rings (size 3 to 8) (size 9 to 14) (size 15 to 20)
#    0.000    2.286    1.429    0.429    4.000    1.143 
#    0.000    2.143    0.000    0.000    0.000    0.000 
#    0.000    0.000    0.000    0.000    0.000    0.000 
#
# Total GULP energy -156342.075112 kJ/mol
# GULP energy per Si atom -5583.645540 kJ/mol
# Density = 2.180651 g / cm^3
# Si number density = 21.856260 Si / 1000 Ang^3
#
#
#
# Elastic Constant Matrix: (Units=GPa)
#
#
# Indices 1 2 3 4 5 6 
#
# 1 118.8118 -15.1752 30.5813 0.0000 -7.4541 0.0000
# 2 -15.1752 44.2204 -13.3708 0.0000 0.1181 0.0000
# 3 30.5813 -13.3708 82.9908 0.0000 22.8052 0.0000
# 4 0.0000 0.0000 0.0000 17.9149 0.0000 0.0269
# 5 -7.4541 0.1181 22.8052 0.0000 28.1459 0.0000
# 6 0.0000 0.0000 0.0000 0.0269 0.0000 18.7174
#
#
#
# Elastic Compliance Matrix: (Units=1/GPa)
#
#
# Indices 1 2 3 4 5 6 
#
# 1 0.010561 0.001913 -0.005596 0.000000 0.007323 0.000000
# 2 0.001913 0.024496 0.004028 0.000000 -0.002860 0.000000
# 3 -0.005596 0.004028 0.019518 0.000000 -0.017313 0.000000
# 4 0.000000 0.000000 0.000000 0.055819 0.000000 -0.000080
# 5 0.007323 -0.002860 -0.017313 0.000000 0.051508 0.000000
# 6 0.000000 0.000000 0.000000 -0.000080 0.000000 0.053426
#
#
# Mechanical properties :
#
#
# Convention : Reuss Voigt Hill
#
# Bulk Modulus (GPa) = 18.09509 27.78819 22.94164
# Shear Modulus (GPa) = 21.45369 29.22150 25.33760
#
# Velocity S-wave (km/s) = 3.13642 3.66045 3.40852
# Velocity P-wave (km/s) = 4.62745 5.53234 5.10001
#
# Compressibility (1/GPa) = 0.05526361
#
# Stress axis : x y z
#
# Youngs Moduli (GPa) = 94.69149 40.82330 51.23530
#
# Poissons Ratio (x) = -0.07808 0.28669
# Poissons Ratio (y) = -0.18111 -0.20635
# Poissons Ratio (z) = 0.52985 -0.16442
#
# Static dielectric constant tensor:
#      x y z
#    x 1.787280 0.000000 0.012400 
#    y 0.000000 1.828150 0.000000 
#    z 0.012400 0.000000 1.797030 
# 
# From -- ./inp_files/37704.got.cif
#   From: 2010.05.17/outbox.cif.g08.bks.cpg/sg11_19_cif.got.tgz:37704.got - 2010.06.03 12:22:45.
