data_PCOD9160516
_publ_section_title
;
Structure prediction by ZEFSAII (Michael W. Deem and Ramdas Pophale) SiO2 
 PCOD9160516
Probable space group: P 21/M
;
_chemical_formula_sum "Si O2"
_cell_formula_units_Z 24
_cell_length_a 20.385434
_cell_length_b 8.671534
_cell_length_c 9.911946
_cell_angle_alpha 90.000000
_cell_angle_beta 50.006637
_cell_angle_gamma 90.000000
_cell_volume 1342.366159
_symmetry_space_group_name_H-M "P 21/M"
_symmetry_group_IT_number 11
_symmetry_cell_setting 'monoclinic'
loop_
_space_group_symop_operation_xyz
x,y,z
-x,1/2+y,-z
-x,-y,-z
x,1/2-y,z
loop_
_atom_site_type_symbol
_atom_site_label
_atom_site_fract_x
_atom_site_fract_y
_atom_site_fract_z
Si Si1 0.525363 0.565616 0.112814
Si Si2 0.094240 0.064602 0.854019
Si Si3 0.723938 0.936234 0.905597
Si Si4 0.218708 0.063166 0.459266
Si Si5 0.367915 0.435109 0.471105
Si Si6 0.758585 0.433459 0.149719
O O1 0.517417 0.750000 0.119255
O O2 0.460299 0.497943 0.308913
O O3 0.500000 0.500000 0.000000
O O4 0.623633 0.527929 0.015943
O O5 0.092885 0.250000 0.859497
O O6 0.136598 0.015218 0.655021
O O7 0.160146 0.004842 0.879859
O O8 0.000000 0.000000 0.000000
O O9 0.731638 0.750000 0.907267
O O10 0.772784 0.988975 0.705477
O O11 0.756455 0.013420 0.998445
O O12 0.218936 0.250000 0.455406
O O13 0.302553 0.020037 0.435916
O O14 0.369268 0.250000 0.477977
O O15 0.325432 0.502839 0.661694
O O16 0.761028 0.250000 0.157449
#
# Coordination Sequence:
#
# PCOD9160516 Si02
#       6
#     4   4   4   4   4   4
#     4  11  21  33  54  82 113 149 195 240 280 331
#     4  10  20  38  64  89 113 144 181 227 278 340
#     4  10  20  37  56  79 112 152 189 230 283 334
#     4   8  16  33  57  81 107 143 185 226 275 330
#     4  10  19  36  57  79 109 151 194 236 281 330
#     4  11  23  38  56  84 115 146 186 233 284 338
#
# _framework density 17.878876999999999
#
# number of rings (size 3 to 8) (size 9 to 14) (size 15 to 20)
#    0.000    2.000    1.667    4.000    0.000    2.000 
#    0.000    2.500    0.000    0.000    0.000    0.000 
#    0.000    0.000    0.000    0.000    0.000    0.000 
#
# Total GULP energy -133994.580006 kJ/mol
# GULP energy per Si atom -5583.107500 kJ/mol
# Density = 1.783818 g / cm^3
# Si number density = 17.878877 Si / 1000 Ang^3
#
#
#
# Elastic Constant Matrix: (Units=GPa)
#
#
# Indices 1 2 3 4 5 6 
#
# 1 75.6273 43.2349 83.7779 0.0000 1.0397 0.0000
# 2 43.2349 67.9093 55.2615 0.0000 -4.1167 0.0000
# 3 83.7779 55.2615 177.1680 0.0000 3.1462 0.0000
# 4 0.0000 0.0000 0.0000 28.0631 0.0000 -3.2103
# 5 1.0397 -4.1167 3.1462 0.0000 35.8023 0.0000
# 6 0.0000 0.0000 0.0000 -3.2103 0.0000 26.1150
#
#
#
# Elastic Compliance Matrix: (Units=1/GPa)
#
#
# Indices 1 2 3 4 5 6 
#
# 1 0.033121 -0.011300 -0.012116 0.000000 -0.001196 0.000000
# 2 -0.011300 0.023877 -0.002162 0.000000 0.003264 0.000000
# 3 -0.012116 -0.002162 0.012065 0.000000 -0.000957 0.000000
# 4 0.000000 0.000000 0.000000 0.036142 0.000000 0.004443
# 5 -0.001196 0.003264 -0.000957 0.000000 0.028425 0.000000
# 6 0.000000 0.000000 0.000000 0.004443 0.000000 0.038838
#
#
# Mechanical properties :
#
#
# Convention : Reuss Voigt Hill
#
# Bulk Modulus (GPa) = 55.84430 76.13925 65.99178
# Shear Modulus (GPa) = 21.77751 27.22475 24.50113
#
# Velocity S-wave (km/s) = 3.49386 3.90645 3.70590
# Velocity P-wave (km/s) = 6.89773 7.93888 7.43655
#
# Compressibility (1/GPa) = 0.01790693
#
# Stress axis : x y z
#
# Youngs Moduli (GPa) = 30.19217 41.88146 82.88251
#
# Poissons Ratio (x) = 0.47325 1.00423
# Poissons Ratio (y) = 0.34116 0.17921
# Poissons Ratio (z) = 0.36582 0.09056
#
# Static dielectric constant tensor:
#      x y z
#    x 1.580170 0.000000 0.005280 
#    y 0.000000 1.598790 0.000000 
#    z 0.005280 0.000000 1.620710 
# 
# From -- ./inp_files/25735.got.cif
#   From: 2010.05.17/outbox.cif.g08.bks.cpg/sg11_13_cif.got.tgz:25735.got - 2010.06.03 12:22:45.
