data_PCOD9160764
_publ_section_title
;
Structure prediction by ZEFSAII (Michael W. Deem and Ramdas Pophale) SiO2 
 PCOD9160764
Probable space group: P 21/M
;
_chemical_formula_sum "Si O2"
_cell_formula_units_Z 18
_cell_length_a 8.423089
_cell_length_b 15.840503
_cell_length_c 9.770353
_cell_angle_alpha 90.000000
_cell_angle_beta 141.462794
_cell_angle_gamma 90.000000
_cell_volume 812.184107
_symmetry_space_group_name_H-M "P 21/M"
_symmetry_group_IT_number 11
_symmetry_cell_setting 'monoclinic'
loop_
_space_group_symop_operation_xyz
x,y,z
-x,1/2+y,-z
-x,-y,-z
x,1/2-y,z
loop_
_atom_site_type_symbol
_atom_site_label
_atom_site_fract_x
_atom_site_fract_y
_atom_site_fract_z
Si Si1 0.430733 0.250000 0.451032
Si Si2 0.719795 0.978434 0.958763
Si Si3 0.172168 0.571004 0.688175
Si Si4 0.753983 0.102194 0.747309
Si Si5 0.122510 0.750000 0.977687
Si Si6 0.021778 0.250000 0.407374
O O1 0.581640 0.161843 0.534156
O O2 0.292036 0.250000 0.509143
O O3 0.178513 0.250000 0.191791
O O4 0.669492 0.018271 0.772792
O O5 0.459955 0.933886 0.827621
O O6 0.799280 0.046059 0.131402
O O7 0.967551 0.919030 0.120709
O O8 0.000000 0.500000 0.500000
O O9 0.035731 0.660338 0.564863
O O10 0.776121 0.167310 0.885998
O O11 0.172404 0.750000 0.851960
#
# Coordination Sequence:
#
# PCOD9160764 Si02
#       6
#     2   4   4   4   2   2
#     4   9  19  33  58  85 111 153 195 234 302 353
#     4  10  22  37  59  88 117 154 196 250 303 351
#     4  11  23  41  60  88 124 163 201 239 304 361
#     4  10  19  37  61  86 116 148 200 253 294 350
#     4   9  19  35  57  88 114 153 198 240 301 349
#     4  10  20  40  59  85 119 160 199 246 293 364
#
# _framework density 22.162465000000001
#
# number of rings (size 3 to 8) (size 9 to 14) (size 15 to 20)
#    0.667    1.333    2.222    1.333    0.000    3.556 
#    0.000    7.778    0.000    0.000    0.000    0.000 
#    0.000    0.000    0.000    0.000    0.000    0.000 
#
# Total GULP energy -100212.573248 kJ/mol
# GULP energy per Si atom -5567.365180 kJ/mol
# Density = 2.211202 g / cm^3
# Si number density = 22.162465 Si / 1000 Ang^3
#
#
#
# Elastic Constant Matrix: (Units=GPa)
#
#
# Indices 1 2 3 4 5 6 
#
# 1 48.3569 20.6174 4.4937 0.0000 18.0802 0.0000
# 2 20.6174 136.9454 18.9834 0.0000 21.2800 0.0000
# 3 4.4937 18.9834 29.7995 0.0000 13.7537 0.0000
# 4 0.0000 0.0000 0.0000 22.6341 0.0000 2.2043
# 5 18.0802 21.2800 13.7537 0.0000 34.1167 0.0000
# 6 0.0000 0.0000 0.0000 2.2043 0.0000 23.0989
#
#
#
# Elastic Compliance Matrix: (Units=1/GPa)
#
#
# Indices 1 2 3 4 5 6 
#
# 1 0.026651 -0.002356 0.004082 0.000000 -0.014300 0.000000
# 2 -0.002356 0.008597 -0.003959 0.000000 -0.002517 0.000000
# 3 0.004082 -0.003959 0.043398 0.000000 -0.017189 0.000000
# 4 0.000000 0.000000 0.000000 0.044596 0.000000 -0.004256
# 5 -0.014300 -0.002517 -0.017189 0.000000 0.045389 0.000000
# 6 0.000000 0.000000 0.000000 -0.004256 0.000000 0.043698
#
#
# Mechanical properties :
#
#
# Convention : Reuss Voigt Hill
#
# Bulk Modulus (GPa) = 13.48090 33.69898 23.58994
# Shear Modulus (GPa) = 20.70200 27.37042 24.03621
#
# Velocity S-wave (km/s) = 3.05962 3.51805 3.29682
# Velocity P-wave (km/s) = 4.31019 5.63389 5.01590
#
# Compressibility (1/GPa) = 0.07417904
#
# Stress axis : x y z
#
# Youngs Moduli (GPa) = 37.52143 116.32037 23.04270
#
# Poissons Ratio (x) = 0.27408 -0.09406
# Poissons Ratio (y) = 0.08841 0.09123
# Poissons Ratio (z) = -0.15317 0.46056
#
# Static dielectric constant tensor:
#      x y z
#    x 1.827200 0.000000 -0.069250 
#    y 0.000000 1.867760 0.000000 
#    z -0.069250 0.000000 1.875780 
# 
# From -- ./inp_files/32398.got.cif
#   From: 2010.05.17/outbox.cif.g08.bks.cpg/sg11_17_cif.got.tgz:32398.got - 2010.06.03 12:22:45.
