data_PCOD9160391
_publ_section_title
;
Structure prediction by ZEFSAII (Michael W. Deem and Ramdas Pophale) SiO2 
 PCOD9160391
Probable space group: P 21/M
;
_chemical_formula_sum "Si O2"
_cell_formula_units_Z 28
_cell_length_a 9.749951
_cell_length_b 8.899717
_cell_length_c 27.640326
_cell_angle_alpha 90.000000
_cell_angle_beta 40.402207
_cell_angle_gamma 90.000000
_cell_volume 1554.521752
_symmetry_space_group_name_H-M "P 21/M"
_symmetry_group_IT_number 11
_symmetry_cell_setting 'monoclinic'
loop_
_space_group_symop_operation_xyz
x,y,z
-x,1/2+y,-z
-x,-y,-z
x,1/2-y,z
loop_
_atom_site_type_symbol
_atom_site_label
_atom_site_fract_x
_atom_site_fract_y
_atom_site_fract_z
Si Si1 0.365515 0.070466 0.579203
Si Si2 0.866090 0.073825 0.708782
Si Si3 0.946734 0.430394 0.066607
Si Si4 0.042762 0.582197 0.211487
Si Si5 0.524270 0.430867 0.239814
Si Si6 0.718054 0.420612 0.953396
Si Si7 0.384707 0.574077 0.675657
O O1 0.381041 0.250000 0.573875
O O2 0.115265 0.030691 0.639215
O O3 0.500000 0.000000 0.500000
O O4 0.446365 0.010180 0.609583
O O5 0.850532 0.250000 0.700200
O O6 0.814900 0.057078 0.779638
O O7 0.696427 0.983767 0.723590
O O8 0.940460 0.250000 0.064415
O O9 0.725815 0.480053 0.152458
O O10 0.136529 0.484067 0.050012
O O11 0.000000 0.500000 0.000000
O O12 0.942610 0.750000 0.246202
O O13 0.164587 0.587455 0.129302
O O14 0.866566 0.455425 0.255356
O O15 0.533534 0.250000 0.238493
O O16 0.538806 0.482026 0.292145
O O17 0.689579 0.250000 0.979607
O O18 0.500000 0.500000 0.000000
O O19 0.434683 0.750000 0.657683
#
# Coordination Sequence:
#
# PCOD9160391 Si02
#       7
#     4   4   4   4   4   4   4
#     4  10  21  39  62  91 120 150 189 232 281 342
#     4   9  20  36  57  85 115 147 188 233 281 339
#     4  11  24  42  58  82 116 156 202 251 304 357
#     4   9  19  36  55  79 108 144 191 238 286 342
#     4  10  22  38  57  84 117 151 194 240 288 346
#     4  11  23  38  57  82 112 150 195 247 301 354
#     4  10  19  35  59  85 113 149 188 233 282 334
#
# _framework density 18.011970000000002
#
# number of rings (size 3 to 8) (size 9 to 14) (size 15 to 20)
#    0.000    2.000    1.429    2.571    2.000    5.714 
#    0.000    0.714    0.000    0.000    0.000    0.000 
#    0.000    0.000    0.000    0.000    0.000    0.000 
#
# Total GULP energy -156064.294389 kJ/mol
# GULP energy per Si atom -5573.724800 kJ/mol
# Density = 1.797097 g / cm^3
# Si number density = 18.011970 Si / 1000 Ang^3
#
#
#
# Elastic Constant Matrix: (Units=GPa)
#
#
# Indices 1 2 3 4 5 6 
#
# 1 148.9233 39.7189 68.0889 0.0000 18.4985 0.0000
# 2 39.7189 50.0587 37.9764 0.0000 9.7226 0.0000
# 3 68.0889 37.9764 95.2223 0.0000 25.8479 0.0000
# 4 0.0000 0.0000 0.0000 27.2858 0.0000 -0.0755
# 5 18.4985 9.7226 25.8479 0.0000 28.1381 0.0000
# 6 0.0000 0.0000 0.0000 -0.0755 0.0000 33.9675
#
#
#
# Elastic Compliance Matrix: (Units=1/GPa)
#
#
# Indices 1 2 3 4 5 6 
#
# 1 0.010448 -0.003762 -0.005940 0.000000 -0.000112 0.000000
# 2 -0.003762 0.030010 -0.009506 0.000000 0.000835 0.000000
# 3 -0.005940 -0.009506 0.022099 0.000000 -0.013111 0.000000
# 4 0.000000 0.000000 0.000000 0.036649 0.000000 0.000081
# 5 -0.000112 0.000835 -0.013111 0.000000 0.047368 0.000000
# 6 0.000000 0.000000 0.000000 0.000081 0.000000 0.029440
#
#
# Mechanical properties :
#
#
# Convention : Reuss Voigt Hill
#
# Bulk Modulus (GPa) = 41.42067 65.08587 53.25327
# Shear Modulus (GPa) = 22.47420 27.77295 25.12358
#
# Velocity S-wave (km/s) = 3.53616 3.93098 3.73879
# Velocity P-wave (km/s) = 6.30228 7.53769 6.94750
#
# Compressibility (1/GPa) = 0.02414253
#
# Stress axis : x y z
#
# Youngs Moduli (GPa) = 95.71264 33.32180 45.25057
#
# Poissons Ratio (x) = 0.12535 0.26879
# Poissons Ratio (y) = 0.36004 0.43014
# Poissons Ratio (z) = 0.56854 0.31675
#
# Static dielectric constant tensor:
#      x y z
#    x 1.511320 0.000000 0.050320 
#    y 0.000000 3.638220 0.000000 
#    z 0.050320 0.000000 1.618080 
# 
# From -- ./inp_files/28241.got.cif
#   From: 2010.05.17/outbox.cif.g08.bks.cpg/sg11_15_cif.got.tgz:28241.got - 2010.06.03 12:22:45.
