data_PCOD9160313
_publ_section_title
;
Structure prediction by ZEFSAII (Michael W. Deem and Ramdas Pophale) SiO2 
 PCOD9160313
Probable space group: P 21/M
;
_chemical_formula_sum "Si O2"
_cell_formula_units_Z 28
_cell_length_a 8.037717
_cell_length_b 9.030031
_cell_length_c 25.573391
_cell_angle_alpha 90.000000
_cell_angle_beta 132.568203
_cell_angle_gamma 90.000000
_cell_volume 1366.994834
_symmetry_space_group_name_H-M "P 21/M"
_symmetry_group_IT_number 11
_symmetry_cell_setting 'monoclinic'
loop_
_space_group_symop_operation_xyz
x,y,z
-x,1/2+y,-z
-x,-y,-z
x,1/2-y,z
loop_
_atom_site_type_symbol
_atom_site_label
_atom_site_fract_x
_atom_site_fract_y
_atom_site_fract_z
Si Si1 0.104792 0.571154 0.573768
Si Si2 0.981898 0.927293 0.168392
Si Si3 0.720724 0.087621 0.033532
Si Si4 0.652483 0.426440 0.183934
Si Si5 0.944385 0.926876 0.651320
Si Si6 0.638244 0.570900 0.682683
Si Si7 0.788228 0.413836 0.930209
O O1 0.084447 0.750000 0.567136
O O2 0.976349 0.516769 0.599101
O O3 0.373511 0.538808 0.632178
O O4 0.000000 0.500000 0.500000
O O5 0.972479 0.750000 0.167285
O O6 0.213394 0.989431 0.241821
O O7 0.930910 0.992055 0.099753
O O8 0.787521 0.997073 0.164697
O O9 0.740400 0.250000 0.062302
O O10 0.680807 0.109012 0.964336
O O11 0.500000 0.000000 0.000000
O O12 0.633559 0.250000 0.170901
O O13 0.818855 0.451383 0.268278
O O14 0.404287 0.494000 0.140190
O O15 0.914021 0.750000 0.640566
O O16 0.746598 0.976437 0.649334
O O17 0.671001 0.750000 0.694371
O O18 0.836572 0.250000 0.918411
O O19 0.000000 0.500000 0.000000
#
# Coordination Sequence:
#
# PCOD9160313 Si02
#       7
#     4   4   4   4   4   4   4
#     4  10  21  38  60  86 118 150 186 231 284 348
#     4  11  21  34  56  85 114 147 191 243 292 343
#     4  11  22  36  56  80 110 150 194 239 290 345
#     4  10  19  35  58  79 108 149 190 235 287 344
#     4   8  17  35  58  83 111 148 187 229 283 342
#     4   9  19  37  59  83 113 153 196 235 285 349
#     4  11  24  38  53  78 112 149 192 241 295 350
#
# _framework density 20.482885
#
# number of rings (size 3 to 8) (size 9 to 14) (size 15 to 20)
#    0.000    2.000    1.429    3.429    0.000    4.000 
#    0.000    6.429    0.000    0.000    0.000    0.000 
#    0.000    0.000    0.000    0.000    0.000    0.000 
#
# Total GULP energy -156013.635794 kJ/mol
# GULP energy per Si atom -5571.915564 kJ/mol
# Density = 2.043627 g / cm^3
# Si number density = 20.482885 Si / 1000 Ang^3
#
#
#
# Elastic Constant Matrix: (Units=GPa)
#
#
# Indices 1 2 3 4 5 6 
#
# 1 29.4783 1.7854 2.2879 0.0000 -2.2564 0.0000
# 2 1.7854 92.6231 20.0096 0.0000 12.3042 0.0000
# 3 2.2879 20.0096 68.8586 0.0000 -4.3509 0.0000
# 4 0.0000 0.0000 0.0000 35.4134 0.0000 0.5434
# 5 -2.2564 12.3042 -4.3509 0.0000 38.2289 0.0000
# 6 0.0000 0.0000 0.0000 0.5434 0.0000 19.5470
#
#
#
# Elastic Compliance Matrix: (Units=1/GPa)
#
#
# Indices 1 2 3 4 5 6 
#
# 1 0.034198 -0.000783 -0.000771 0.000000 0.002183 0.000000
# 2 -0.000783 0.012219 -0.003804 0.000000 -0.004412 0.000000
# 3 -0.000771 -0.003804 0.015842 0.000000 0.002982 0.000000
# 4 0.000000 0.000000 0.000000 0.028250 0.000000 -0.000785
# 5 0.002183 -0.004412 0.002982 0.000000 0.028046 0.000000
# 6 0.000000 0.000000 0.000000 -0.000785 0.000000 0.051180
#
#
# Mechanical properties :
#
#
# Convention : Reuss Voigt Hill
#
# Bulk Modulus (GPa) = 19.40069 26.56952 22.98511
# Shear Modulus (GPa) = 25.29963 29.76299 27.53131
#
# Velocity S-wave (km/s) = 3.51830 3.81605 3.67019
# Velocity P-wave (km/s) = 5.09870 5.69351 5.40429
#
# Compressibility (1/GPa) = 0.05154456
#
# Stress axis : x y z
#
# Youngs Moduli (GPa) = 29.24182 81.83766 63.12411
#
# Poissons Ratio (x) = 0.06404 0.04866
# Poissons Ratio (y) = 0.02288 0.24010
# Poissons Ratio (z) = 0.02254 0.31128
#
# Static dielectric constant tensor:
#      x y z
#    x 1.961320 0.000000 -0.023650 
#    y 0.000000 2.670230 0.000000 
#    z -0.023650 0.000000 1.704550 
# 
# From -- ./inp_files/70921.got.cif
#   From: 2010.05.17/outbox.cif.g08.bks.cpg/sg11_36_cif.got.tgz:70921.got - 2010.06.03 12:22:45.
