data_PCOD9160333
_publ_section_title
;
Structure prediction by ZEFSAII (Michael W. Deem and Ramdas Pophale) SiO2 
 PCOD9160333
Probable space group: P 21/M
;
_chemical_formula_sum "Si O2"
_cell_formula_units_Z 28
_cell_length_a 15.232916
_cell_length_b 14.110740
_cell_length_c 5.383705
_cell_angle_alpha 90.000000
_cell_angle_beta 111.520626
_cell_angle_gamma 90.000000
_cell_volume 1076.540509
_symmetry_space_group_name_H-M "P 21/M"
_symmetry_group_IT_number 11
_symmetry_cell_setting 'monoclinic'
loop_
_space_group_symop_operation_xyz
x,y,z
-x,1/2+y,-z
-x,-y,-z
x,1/2-y,z
loop_
_atom_site_type_symbol
_atom_site_label
_atom_site_fract_x
_atom_site_fract_y
_atom_site_fract_z
Si Si1 0.820572 0.998845 0.725613
Si Si2 0.784381 0.642087 0.289646
Si Si3 0.879237 0.356774 0.411994
Si Si4 0.961414 0.858097 0.775519
Si Si5 0.515042 0.634464 0.191666
Si Si6 0.382851 0.364420 0.207001
Si Si7 0.699814 0.141690 0.921890
O O1 0.888579 0.068763 0.636784
O O2 0.750995 0.066778 0.799807
O O3 0.759157 0.936563 0.466399
O O4 0.899590 0.922328 0.894636
O O5 0.754450 0.750000 0.327042
O O6 0.896541 0.641604 0.453709
O O7 0.727314 0.618603 0.980540
O O8 0.907835 0.250000 0.505658
O O9 0.936688 0.384969 0.223772
O O10 0.768919 0.355232 0.229524
O O11 0.963974 0.750000 0.868084
O O12 0.520550 0.750000 0.192540
O O13 0.557795 0.603636 0.972584
O O14 0.405172 0.613022 0.116390
O O15 0.572565 0.599876 0.492118
O O16 0.390471 0.250000 0.230258
O O17 0.698733 0.250000 0.816656
#
# Coordination Sequence:
#
# PCOD9160333 Si02
#       7
#     4   4   4   4   4   4   4
#     4  10  19  35  58  82 114 153 192 238 296 363
#     4   8  17  35  58  84 116 148 193 248 300 356
#     4  10  20  35  58  83 115 153 191 242 297 355
#     4   8  17  35  59  85 115 149 190 244 299 355
#     4   9  19  34  59  86 117 160 206 249 304 362
#     4   9  17  35  60  86 116 159 204 250 307 363
#     4  10  22  36  53  84 117 151 196 246 293 355
#
# _framework density 26.009239999999998
#
# number of rings (size 3 to 8) (size 9 to 14) (size 15 to 20)
#    0.857    2.000    0.000    0.857    2.000    0.571 
#    2.571    1.429    3.143    2.571    0.000    0.000 
#    0.000    0.000    0.000    0.000    0.000    0.000 
#
# Total GULP energy -156420.647440 kJ/mol
# GULP energy per Si atom -5586.451694 kJ/mol
# Density = 2.595004 g / cm^3
# Si number density = 26.009240 Si / 1000 Ang^3
#
#
#
# Elastic Constant Matrix: (Units=GPa)
#
#
# Indices 1 2 3 4 5 6 
#
# 1 135.6412 27.0709 53.5157 0.0000 23.7587 0.0000
# 2 27.0709 113.6393 21.6357 0.0000 -26.1433 0.0000
# 3 53.5157 21.6357 102.1858 0.0000 5.3234 0.0000
# 4 0.0000 0.0000 0.0000 -1.7600 0.0000 -4.2720
# 5 23.7587 -26.1433 5.3234 0.0000 34.4696 0.0000
# 6 0.0000 0.0000 0.0000 -4.2720 0.0000 22.5247
#
#
#
# Elastic Compliance Matrix: (Units=1/GPa)
#
#
# Indices 1 2 3 4 5 6 
#
# 1 0.012095 -0.004497 -0.004809 0.000000 -0.011005 0.000000
# 2 -0.004497 0.013126 -0.001113 0.000000 0.013227 0.000000
# 3 -0.004809 -0.001113 0.012512 0.000000 0.000538 0.000000
# 4 0.000000 0.000000 0.000000 -0.389062 0.000000 -0.073790
# 5 -0.011005 0.013227 0.000538 0.000000 0.046545 0.000000
# 6 0.000000 0.000000 0.000000 -0.073790 0.000000 0.030401
#
#
# Mechanical properties :
#
#
# Convention : Reuss Voigt Hill
#
# Bulk Modulus (GPa) = 59.18929 61.76787 60.47858
# Shear Modulus (GPa) = -20.16829 27.66312 3.74742
#
# Velocity S-wave (km/s) = -2.78767 3.26481 1.20164
# Velocity P-wave (km/s) = 3.52774 6.16538 5.02279
#
# Compressibility (1/GPa) = 0.01689495
#
# Stress axis : x y z
#
# Youngs Moduli (GPa) = 82.68047 76.18484 79.92319
#
# Poissons Ratio (x) = 0.34263 0.38432
# Poissons Ratio (y) = 0.37185 0.08894
# Poissons Ratio (z) = 0.39758 0.08478
#
# Static dielectric constant tensor:
#      x y z
#    x 2.034030 0.000000 0.005370 
#    y 0.000000 2.095830 0.000000 
#    z 0.005370 0.000000 2.064870 
# 
# From -- ./inp_files/7934.got.cif
#   From: 2010.05.17/outbox.cif.g08.bks.cpg/sg11_4_cif.got.tgz:7934.got - 2010.06.03 12:22:45.
