data_PCOD9160586
_publ_section_title
;
Structure prediction by ZEFSAII (Michael W. Deem and Ramdas Pophale) SiO2 
 PCOD9160586
Probable space group: P 21/M
;
_chemical_formula_sum "Si O2"
_cell_formula_units_Z 28
_cell_length_a 8.666239
_cell_length_b 13.566620
_cell_length_c 12.433353
_cell_angle_alpha 90.000000
_cell_angle_beta 114.688523
_cell_angle_gamma 90.000000
_cell_volume 1328.187625
_symmetry_space_group_name_H-M "P 21/M"
_symmetry_group_IT_number 11
_symmetry_cell_setting 'monoclinic'
loop_
_space_group_symop_operation_xyz
x,y,z
-x,1/2+y,-z
-x,-y,-z
x,1/2-y,z
loop_
_atom_site_type_symbol
_atom_site_label
_atom_site_fract_x
_atom_site_fract_y
_atom_site_fract_z
Si Si1 0.896330 0.999227 0.743601
Si Si2 0.992454 0.635108 0.574269
Si Si3 0.542621 0.945246 0.699757
Si Si4 0.328671 0.364116 0.677375
Si Si5 0.273924 0.866772 0.479130
Si Si6 0.244368 0.055817 0.887181
Si Si7 0.449742 0.639073 0.895779
O O1 0.980474 0.929537 0.677163
O O2 0.744954 0.942926 0.758487
O O3 0.800682 0.083474 0.647974
O O4 0.047713 0.042910 0.858217
O O5 0.015749 0.750000 0.608346
O O6 0.819091 0.626370 0.454814
O O7 0.145758 0.605590 0.539682
O O8 0.458978 0.905443 0.566010
O O9 0.468421 0.879436 0.774341
O O10 0.474898 0.056305 0.698147
O O11 0.384752 0.250000 0.694852
O O12 0.253486 0.393880 0.771831
O O13 0.274387 0.750000 0.469329
O O14 0.328405 0.946891 0.905112
O O15 0.365630 0.118676 0.998963
O O16 0.393045 0.750000 0.902187
#
# Coordination Sequence:
#
# PCOD9160586 Si02
#       7
#     4   4   4   4   4   4   4
#     4  12  23  38  57  89 125 154 194 238 296 355
#     4  10  20  34  58  86 116 154 198 243 287 340
#     4  11  24  38  56  85 126 163 193 236 291 358
#     4  10  19  36  59  86 118 154 198 244 292 343
#     4  11  22  37  57  84 118 160 200 242 291 346
#     4  10  22  39  68  90 113 151 201 254 294 340
#     4  10  22  43  65  88 115 153 199 248 296 345
#
# _framework density 21.08136
#
# number of rings (size 3 to 8) (size 9 to 14) (size 15 to 20)
#    0.000    1.429    2.857    3.429    0.000    4.571 
#    0.000    0.000    0.000    0.000    0.000    0.000 
#    0.000    0.000    0.000    0.000    0.000    0.000 
#
# Total GULP energy -156632.919263 kJ/mol
# GULP energy per Si atom -5594.032831 kJ/mol
# Density = 2.103338 g / cm^3
# Si number density = 21.081360 Si / 1000 Ang^3
#
#
#
# Elastic Constant Matrix: (Units=GPa)
#
#
# Indices 1 2 3 4 5 6 
#
# 1 44.9453 -18.4778 -2.7588 0.0000 14.1489 0.0000
# 2 -18.4778 106.6079 -3.8776 0.0000 -7.8710 0.0000
# 3 -2.7588 -3.8776 52.7008 0.0000 23.2219 0.0000
# 4 0.0000 0.0000 0.0000 13.9284 0.0000 4.9299
# 5 14.1489 -7.8710 23.2219 0.0000 26.4194 0.0000
# 6 0.0000 0.0000 0.0000 4.9299 0.0000 15.4507
#
#
#
# Elastic Compliance Matrix: (Units=1/GPa)
#
#
# Indices 1 2 3 4 5 6 
#
# 1 0.034924 0.004310 0.016029 0.000000 -0.031509 0.000000
# 2 0.004310 0.010149 0.001072 0.000000 -0.000227 0.000000
# 3 0.016029 0.001072 0.038412 0.000000 -0.042028 0.000000
# 4 0.000000 0.000000 0.000000 0.080936 0.000000 -0.025824
# 5 -0.031509 -0.000227 -0.042028 0.000000 0.091600 0.000000
# 6 0.000000 0.000000 0.000000 -0.025824 0.000000 0.072962
#
#
# Mechanical properties :
#
#
# Convention : Reuss Voigt Hill
#
# Bulk Modulus (GPa) = 7.91708 17.11396 12.51552
# Shear Modulus (GPa) = 15.23169 26.45093 20.84131
#
# Velocity S-wave (km/s) = 2.69089 3.54603 3.14763
# Velocity P-wave (km/s) = 3.66308 4.99013 4.37719
#
# Compressibility (1/GPa) = 0.12630922
#
# Stress axis : x y z
#
# Youngs Moduli (GPa) = 28.63347 98.52778 26.03333
#
# Poissons Ratio (x) = -0.42464 -0.41730
# Poissons Ratio (y) = -0.12341 -0.02792
# Poissons Ratio (z) = -0.45898 -0.10566
#
# Static dielectric constant tensor:
#      x y z
#    x 1.779300 0.000000 0.007610 
#    y 0.000000 1.745490 0.000000 
#    z 0.007610 0.000000 1.758300 
# 
# From -- ./inp_files/18141.got.cif
#   From: 2010.05.17/outbox.cif.g08.bks.cpg/sg11_10_cif.got.tgz:18141.got - 2010.06.03 12:22:45.
