data_PCOD9160899
_publ_section_title
;
Structure prediction by ZEFSAII (Michael W. Deem and Ramdas Pophale) SiO2 
 PCOD9160899
Probable space group: P 21/M
;
_chemical_formula_sum "Si O2"
_cell_formula_units_Z 20
_cell_length_a 10.732545
_cell_length_b 9.887929
_cell_length_c 7.767622
_cell_angle_alpha 90.000000
_cell_angle_beta 96.569489
_cell_angle_gamma 90.000000
_cell_volume 818.907948
_symmetry_space_group_name_H-M "P 21/M"
_symmetry_group_IT_number 11
_symmetry_cell_setting 'monoclinic'
loop_
_space_group_symop_operation_xyz
x,y,z
-x,1/2+y,-z
-x,-y,-z
x,1/2-y,z
loop_
_atom_site_type_symbol
_atom_site_label
_atom_site_fract_x
_atom_site_fract_y
_atom_site_fract_z
Si Si1 0.027360 0.250000 0.422216
Si Si2 0.780853 0.250000 0.552698
Si Si3 0.512305 0.750000 0.108411
Si Si4 0.399320 0.525763 0.333315
Si Si5 0.739876 0.750000 0.739030
Si Si6 0.718386 0.250000 0.141124
Si Si7 0.191905 0.250000 0.874985
Si Si8 0.914054 0.470569 0.150753
O O1 0.177187 0.250000 0.423150
O O2 0.931353 0.250000 0.567852
O O3 0.984640 0.383030 0.306092
O O4 0.717975 0.118564 0.625887
O O5 0.737012 0.250000 0.347556
O O6 0.470235 0.616133 0.204312
O O7 0.659349 0.750000 0.114018
O O8 0.426041 0.750000 0.926934
O O9 0.500000 0.500000 0.500000
O O10 0.343643 0.383617 0.266503
O O11 0.830087 0.750000 0.920901
O O12 0.793411 0.379600 0.080624
O O13 0.136355 0.386863 0.790274
O O14 0.000000 0.500000 0.000000
#
# Coordination Sequence:
#
# PCOD9160899 Si02
#       8
#     2   2   2   4   2   2   2   4
#     4  10  23  41  68  98 131 178 219 276 330 396
#     4   9  23  47  64  90 140 177 213 272 340 390
#     4  11  27  41  68 104 129 175 230 270 330 393
#     4  11  26  47  66  92 137 183 219 269 336 398
#     4  12  24  42  72  98 131 174 232 274 325 397
#     4  10  23  41  69  97 137 167 220 286 324 386
#     4  12  24  38  67 109 134 171 222 282 325 400
#     4  10  19  39  62  97 141 170 204 269 352 382
#
# _framework density 24.422771000000001
#
# number of rings (size 3 to 8) (size 9 to 14) (size 15 to 20)
#    0.000    1.600    2.000    3.000    8.400    2.400 
#    0.000    0.000    0.000    0.000    0.000    0.000 
#    0.000    0.000    0.000    0.000    0.000    0.000 
#
# Total GULP energy -112088.963149 kJ/mol
# GULP energy per Si atom -5604.448157 kJ/mol
# Density = 2.436718 g / cm^3
# Si number density = 24.422771 Si / 1000 Ang^3
#
#
#
# Elastic Constant Matrix: (Units=GPa)
#
#
# Indices 1 2 3 4 5 6 
#
# 1 146.1289 68.1287 17.9473 0.0000 -22.2363 0.0000
# 2 68.1287 215.8514 18.7951 0.0000 -1.8302 0.0000
# 3 17.9473 18.7951 44.6181 0.0000 2.4214 0.0000
# 4 0.0000 0.0000 0.0000 9.5376 0.0000 9.1355
# 5 -22.2363 -1.8302 2.4214 0.0000 47.9896 0.0000
# 6 0.0000 0.0000 0.0000 9.1355 0.0000 7.8417
#
#
#
# Elastic Compliance Matrix: (Units=1/GPa)
#
#
# Indices 1 2 3 4 5 6 
#
# 1 0.009026 -0.002571 -0.002777 0.000000 0.004224 0.000000
# 2 -0.002571 0.005546 -0.001252 0.000000 -0.000917 0.000000
# 3 -0.002777 -0.001252 0.024195 0.000000 -0.002555 0.000000
# 4 0.000000 0.000000 0.000000 -0.904891 0.000000 1.054186
# 5 0.004224 -0.000917 -0.002555 0.000000 0.022889 0.000000
# 6 0.000000 0.000000 0.000000 1.054186 0.000000 -1.100589
#
#
# Mechanical properties :
#
#
# Convention : Reuss Voigt Hill
#
# Bulk Modulus (GPa) = 39.11305 68.48230 53.79767
# Shear Modulus (GPa) = -2.60132 33.18892 15.29380
#
# Velocity S-wave (km/s) = -1.03317 3.69037 2.50514
# Velocity P-wave (km/s) = 3.82446 6.80145 5.51753
#
# Compressibility (1/GPa) = 0.02556691
#
# Stress axis : x y z
#
# Youngs Moduli (GPa) = 110.79270 180.32277 41.33010
#
# Poissons Ratio (x) = 0.46365 0.11476
# Poissons Ratio (y) = 0.28487 0.05175
# Poissons Ratio (z) = 0.30764 0.22577
#
# Static dielectric constant tensor:
#      x y z
#    x 1.918630 0.000000 -0.020770 
#    y 0.000000 1.930500 0.000000 
#    z -0.020770 0.000000 2.002250 
# 
# From -- ./inp_files/16107.got.cif
#   From: 2010.05.17/outbox.cif.g08.bks.cpg/sg11_9_cif.got.tgz:16107.got - 2010.06.03 12:22:45.
