data_PCOD9160221
_publ_section_title
;
Structure prediction by ZEFSAII (Michael W. Deem and Ramdas Pophale) SiO2 
 PCOD9160221
Probable space group: P 21/M
;
_chemical_formula_sum "Si O2"
_cell_formula_units_Z 32
_cell_length_a 19.033778
_cell_length_b 8.449836
_cell_length_c 12.049310
_cell_angle_alpha 90.000000
_cell_angle_beta 55.573346
_cell_angle_gamma 90.000000
_cell_volume 1598.493023
_symmetry_space_group_name_H-M "P 21/M"
_symmetry_group_IT_number 11
_symmetry_cell_setting 'monoclinic'
loop_
_space_group_symop_operation_xyz
x,y,z
-x,1/2+y,-z
-x,-y,-z
x,1/2-y,z
loop_
_atom_site_type_symbol
_atom_site_label
_atom_site_fract_x
_atom_site_fract_y
_atom_site_fract_z
Si Si1 0.801790 0.940507 0.222493
Si Si2 0.577131 0.060734 0.006826
Si Si3 0.040243 0.056975 0.779850
Si Si4 0.379190 0.441199 0.552009
Si Si5 0.537397 0.938203 0.287481
Si Si6 0.846106 0.059244 0.954223
Si Si7 0.766897 0.058709 0.790178
Si Si8 0.917387 0.939258 0.507407
O O1 0.803692 0.750000 0.220218
O O2 0.890745 0.000022 0.193134
O O3 0.719515 0.987303 0.367247
O O4 0.792787 0.998305 0.105295
O O5 0.577087 0.250000 0.003087
O O6 0.668852 0.005127 0.877967
O O7 0.500000 0.000000 0.000000
O O8 0.566275 0.010989 0.145189
O O9 0.038728 0.250000 0.785637
O O10 0.071857 0.011036 0.629605
O O11 0.943479 0.002452 0.881301
O O12 0.386594 0.250000 0.538397
O O13 0.411088 0.489045 0.647420
O O14 0.440654 0.515766 0.405701
O O15 0.545625 0.750000 0.271032
O O16 0.846302 0.250000 0.954818
O O17 0.808227 0.008027 0.870648
O O18 0.767899 0.250000 0.786167
O O19 0.829878 0.998169 0.639237
O O20 0.918868 0.750000 0.509763
O O21 0.000000 0.000000 0.500000
#
# Coordination Sequence:
#
# PCOD9160221 Si02
#       8
#     4   4   4   4   4   4   4   4
#     4  10  20  34  53  81 113 145 186 230 278 338
#     4  11  24  41  61  85 118 155 193 242 298 356
#     4   9  19  35  54  77 111 149 182 226 282 334
#     4   9  19  35  56  83 115 149 187 236 289 344
#     4  10  20  36  59  84 113 148 193 240 285 345
#     4  10  19  35  56  78 112 149 183 228 282 338
#     4  10  22  40  61  86 115 150 192 238 290 346
#     4  11  21  37  60  84 114 152 196 243 288 339
#
# _framework density 20.018854000000001
#
# number of rings (size 3 to 8) (size 9 to 14) (size 15 to 20)
#    0.000    2.000    1.250    2.250    0.000    3.500 
#    0.000    2.500    0.000    0.000    0.000    0.000 
#    0.000    0.000    0.000    0.000    0.000    0.000 
#
# Total GULP energy -178710.844436 kJ/mol
# GULP energy per Si atom -5584.713889 kJ/mol
# Density = 1.997329 g / cm^3
# Si number density = 20.018854 Si / 1000 Ang^3
#
#
#
# Elastic Constant Matrix: (Units=GPa)
#
#
# Indices 1 2 3 4 5 6 
#
# 1 57.6948 10.4112 19.7936 0.0000 -24.7133 0.0000
# 2 10.4112 14.7165 12.2304 0.0000 -5.2866 0.0000
# 3 19.7936 12.2304 112.3007 0.0000 -21.3296 0.0000
# 4 0.0000 0.0000 0.0000 35.4414 0.0000 -0.0970
# 5 -24.7133 -5.2866 -21.3296 0.0000 37.4253 0.0000
# 6 0.0000 0.0000 0.0000 -0.0970 0.0000 20.2578
#
#
#
# Elastic Compliance Matrix: (Units=1/GPa)
#
#
# Indices 1 2 3 4 5 6 
#
# 1 0.026362 -0.012848 -0.000320 0.000000 0.015410 0.000000
# 2 -0.012848 0.082473 -0.006859 0.000000 -0.000743 0.000000
# 3 -0.000320 -0.006859 0.010635 0.000000 0.004881 0.000000
# 4 0.000000 0.000000 0.000000 0.028216 0.000000 0.000135
# 5 0.015410 -0.000743 0.004881 0.000000 0.039573 0.000000
# 6 0.000000 0.000000 0.000000 0.000135 0.000000 0.049364
#
#
# Mechanical properties :
#
#
# Convention : Reuss Voigt Hill
#
# Bulk Modulus (GPa) = 12.59171 29.95359 21.27265
# Shear Modulus (GPa) = 16.49354 28.11000 22.30177
#
# Velocity S-wave (km/s) = 2.87348 3.75130 3.34134
# Velocity P-wave (km/s) = 4.16086 5.81018 5.05326
#
# Compressibility (1/GPa) = 0.07941732
#
# Stress axis : x y z
#
# Youngs Moduli (GPa) = 37.93366 12.12511 94.02826
#
# Poissons Ratio (x) = 0.15578 0.03012
# Poissons Ratio (y) = 0.48736 0.64490
# Poissons Ratio (z) = 0.01215 0.08316
#
# Static dielectric constant tensor:
#      x y z
#    x 1.725760 0.000000 -0.019300 
#    y 0.000000 1.685380 0.000000 
#    z -0.019300 0.000000 1.681100 
# 
# From -- ./inp_files/38277.got.cif
#   From: 2010.05.17/outbox.cif.g08.bks.cpg/sg11_20_cif.got.tgz:38277.got - 2010.06.03 12:22:45.
