data_PCOD9160182
_publ_section_title
;
Structure prediction by ZEFSAII (Michael W. Deem and Ramdas Pophale) SiO2 
 PCOD9160182
Probable space group: P 21/M
;
_chemical_formula_sum "Si O2"
_cell_formula_units_Z 32
_cell_length_a 12.982177
_cell_length_b 7.481588
_cell_length_c 30.311087
_cell_angle_alpha 90.000000
_cell_angle_beta 24.202533
_cell_angle_gamma 90.000000
_cell_volume 1206.946076
_symmetry_space_group_name_H-M "P 21/M"
_symmetry_group_IT_number 11
_symmetry_cell_setting 'monoclinic'
loop_
_space_group_symop_operation_xyz
x,y,z
-x,1/2+y,-z
-x,-y,-z
x,1/2-y,z
loop_
_atom_site_type_symbol
_atom_site_label
_atom_site_fract_x
_atom_site_fract_y
_atom_site_fract_z
Si Si1 0.566343 0.536672 0.024511
Si Si2 0.145280 0.043947 0.366021
Si Si3 0.597806 0.453853 0.824660
Si Si4 0.098430 0.529402 0.790238
Si Si5 0.522430 0.044292 0.290666
Si Si6 0.977670 0.462236 0.957359
Si Si7 0.150599 0.956789 0.675179
Si Si8 0.269025 0.968090 0.533731
O O1 0.563337 0.750000 0.030906
O O2 0.857082 0.473438 0.913034
O O3 0.500000 0.500000 0.000000
O O4 0.370330 0.467246 0.138096
O O5 0.096936 0.250000 0.396492
O O6 0.300308 0.965009 0.346786
O O7 0.883308 0.968049 0.449696
O O8 0.312529 0.044108 0.255576
O O9 0.680871 0.250000 0.788562
O O10 0.295096 0.456645 0.945019
O O11 0.103074 0.750000 0.787835
O O12 0.359926 0.466989 0.710084
O O13 0.050428 0.461311 0.759607
O O14 0.454247 0.250000 0.326252
O O15 0.774450 0.041735 0.162236
O O16 0.976111 0.250000 0.950431
O O17 0.000000 0.500000 0.000000
O O18 0.084461 0.750000 0.699667
O O19 0.125969 0.026151 0.634866
O O20 0.450694 0.965814 0.569079
O O21 0.271919 0.750000 0.532472
#
# Coordination Sequence:
#
# PCOD9160182 Si02
#       8
#     4   4   4   4   4   4   4   4
#     4  10  22  37  53  77 111 148 184 227 273 322
#     4  10  21  34  55  82 109 145 181 225 281 327
#     4  11  22  36  53  77 110 147 186 228 271 321
#     4   9  18  35  57  78 106 145 186 222 266 329
#     4  10  19  35  54  76 109 145 185 224 268 328
#     4  12  22  33  51  75 106 145 188 229 268 315
#     4   9  18  35  60  81 101 139 181 222 276 333
#     4   9  19  36  56  82 109 132 174 230 281 332
#
# _framework density 26.513196000000001
#
# number of rings (size 3 to 8) (size 9 to 14) (size 15 to 20)
#    0.000    2.000    2.500    1.500    1.750    1.500 
#    0.000    1.875    0.000    0.000    0.000    0.000 
#    0.000    0.000    0.000    0.000    0.000    0.000 
#
# Total GULP energy -178748.674310 kJ/mol
# GULP energy per Si atom -5585.896072 kJ/mol
# Density = 2.645285 g / cm^3
# Si number density = 26.513196 Si / 1000 Ang^3
#
#
#
# Elastic Constant Matrix: (Units=GPa)
#
#
# Indices 1 2 3 4 5 6 
#
# 1 145.5190 18.1110 -12.9371 0.0000 -35.9232 0.0000
# 2 18.1110 121.3968 8.2931 0.0000 -12.4522 0.0000
# 3 -12.9371 8.2931 62.9797 0.0000 -5.5979 0.0000
# 4 0.0000 0.0000 0.0000 20.0902 0.0000 -4.9198
# 5 -35.9232 -12.4522 -5.5979 0.0000 45.7936 0.0000
# 6 0.0000 0.0000 0.0000 -4.9198 0.0000 18.0989
#
#
#
# Elastic Compliance Matrix: (Units=1/GPa)
#
#
# Indices 1 2 3 4 5 6 
#
# 1 0.008958 -0.000781 0.002577 0.000000 0.007130 0.000000
# 2 -0.000781 0.008595 -0.001151 0.000000 0.001584 0.000000
# 3 0.002577 -0.001151 0.016894 0.000000 0.003773 0.000000
# 4 0.000000 0.000000 0.000000 0.053325 0.000000 0.014495
# 5 0.007130 0.001584 0.003773 0.000000 0.028322 0.000000
# 6 0.000000 0.000000 0.000000 0.014495 0.000000 0.059192
#
#
# Mechanical properties :
#
#
# Convention : Reuss Voigt Hill
#
# Bulk Modulus (GPa) = 27.98273 39.64772 33.81523
# Shear Modulus (GPa) = 26.89449 37.89178 32.39313
#
# Velocity S-wave (km/s) = 3.18839 3.78453 3.49918
# Velocity P-wave (km/s) = 4.91240 5.83809 5.39514
#
# Compressibility (1/GPa) = 0.03573632
#
# Stress axis : x y z
#
# Youngs Moduli (GPa) = 111.62695 116.34546 59.19091
#
# Poissons Ratio (x) = 0.09088 -0.15252
# Poissons Ratio (y) = 0.08720 0.06816
# Poissons Ratio (z) = -0.28764 0.13397
#
# Static dielectric constant tensor:
#      x y z
#    x 2.923930 0.000000 -0.116970 
#    y 0.000000 1.921540 0.000000 
#    z -0.116970 0.000000 2.147680 
# 
# From -- ./inp_files/73040.got.cif
#   From: 2010.05.17/outbox.cif.g08.bks.cpg/sg11_37_cif.got.tgz:73040.got - 2010.06.03 12:22:45.
