data_PCOD9160506
_publ_section_title
;
Structure prediction by ZEFSAII (Michael W. Deem and Ramdas Pophale) SiO2 
 PCOD9160506
Probable space group: P 21/M
;
_chemical_formula_sum "Si O2"
_cell_formula_units_Z 28
_cell_length_a 5.359983
_cell_length_b 14.272795
_cell_length_c 18.121561
_cell_angle_alpha 90.000000
_cell_angle_beta 108.933513
_cell_angle_gamma 90.000000
_cell_volume 1311.327933
_symmetry_space_group_name_H-M "P 21/M"
_symmetry_group_IT_number 11
_symmetry_cell_setting 'monoclinic'
loop_
_space_group_symop_operation_xyz
x,y,z
-x,1/2+y,-z
-x,-y,-z
x,1/2-y,z
loop_
_atom_site_type_symbol
_atom_site_label
_atom_site_fract_x
_atom_site_fract_y
_atom_site_fract_z
Si Si1 0.931145 0.857288 0.443326
Si Si2 0.541792 0.858152 0.544354
Si Si3 0.866784 0.006405 0.805119
Si Si4 0.654200 0.846892 0.889083
Si Si5 0.784606 0.551372 0.032061
Si Si6 0.833547 0.145392 0.250447
Si Si7 0.432304 0.992026 0.663708
O O1 0.881564 0.750000 0.412261
O O2 0.774306 0.865462 0.506344
O O3 0.245727 0.867389 0.482419
O O4 0.802188 0.938432 0.381750
O O5 0.552621 0.750000 0.574991
O O6 0.557772 0.943069 0.603762
O O7 0.750278 0.936909 0.855205
O O8 0.626211 0.051163 0.736841
O O9 0.969679 0.934973 0.753526
O O10 0.093561 0.058736 0.873945
O O11 0.765046 0.750000 0.867577
O O12 0.346885 0.846526 0.840417
O O13 0.725742 0.854707 0.981093
O O14 0.500000 0.500000 0.000000
O O15 0.000000 0.500000 0.000000
O O16 0.925463 0.250000 0.277924
O O17 0.667439 0.099002 0.300152
#
# Coordination Sequence:
#
# PCOD9160506 Si02
#       7
#     4   4   4   4   4   4   4
#     4  10  23  42  63  85 116 157 204 246 289 348
#     4  10  22  40  62  89 117 153 198 246 293 354
#     4  10  21  34  55  85 118 157 191 240 298 354
#     4   9  18  34  54  80 112 150 194 240 285 341
#     4  10  19  36  56  78 108 151 193 229 273 338
#     4  10  20  33  53  85 121 153 192 240 300 358
#     4  11  23  36  58  88 120 157 195 241 304 354
#
# _framework density 21.352398000000001
#
# number of rings (size 3 to 8) (size 9 to 14) (size 15 to 20)
#    0.000    2.000    1.429    1.714    4.000    1.714 
#    0.000    0.714    0.000    0.857    0.000    0.000 
#    0.000    0.000    0.000    0.000    0.000    0.000 
#
# Total GULP energy -155882.781462 kJ/mol
# GULP energy per Si atom -5567.242195 kJ/mol
# Density = 2.130380 g / cm^3
# Si number density = 21.352398 Si / 1000 Ang^3
#
#
#
# Elastic Constant Matrix: (Units=GPa)
#
#
# Indices 1 2 3 4 5 6 
#
# 1 70.1172 -4.5880 14.9456 0.0000 7.0499 0.0000
# 2 -4.5880 56.0939 36.3898 0.0000 10.8142 0.0000
# 3 14.9456 36.3898 94.9837 0.0000 33.0837 0.0000
# 4 0.0000 0.0000 0.0000 23.9300 0.0000 -11.8995
# 5 7.0499 10.8142 33.0837 0.0000 27.6012 0.0000
# 6 0.0000 0.0000 0.0000 -11.8995 0.0000 27.9603
#
#
#
# Elastic Compliance Matrix: (Units=1/GPa)
#
#
# Indices 1 2 3 4 5 6 
#
# 1 0.015356 0.003698 -0.003369 0.000000 -0.001333 0.000000
# 2 0.003698 0.024736 -0.010908 0.000000 0.002439 0.000000
# 3 -0.003369 -0.010908 0.023088 0.000000 -0.022540 0.000000
# 4 0.000000 0.000000 0.000000 0.053006 0.000000 0.022559
# 5 -0.001333 0.002439 -0.022540 0.000000 0.062632 0.000000
# 6 0.000000 0.000000 0.000000 0.022559 0.000000 0.045366
#
#
# Mechanical properties :
#
#
# Convention : Reuss Voigt Hill
#
# Bulk Modulus (GPa) = 23.79630 34.96550 29.38090
# Shear Modulus (GPa) = 19.27907 27.52814 23.40360
#
# Velocity S-wave (km/s) = 3.00809 3.59448 3.31428
# Velocity P-wave (km/s) = 4.82012 5.79983 5.33252
#
# Compressibility (1/GPa) = 0.04202335
#
# Stress axis : x y z
#
# Youngs Moduli (GPa) = 65.12130 40.42693 43.31242
#
# Poissons Ratio (x) = -0.14952 0.14591
# Poissons Ratio (y) = -0.24085 0.47245
# Poissons Ratio (z) = 0.21938 0.44098
#
# Static dielectric constant tensor:
#      x y z
#    x 1.798180 0.000000 0.019510 
#    y 0.000000 1.814050 0.000000 
#    z 0.019510 0.000000 1.858690 
# 
# From -- ./inp_files/56957.got.cif
#   From: 2010.05.17/outbox.cif.g08.bks.cpg/sg11_29_cif.got.tgz:56957.got - 2010.06.03 12:22:45.
