data_PCOD9160392
_publ_section_title
;
Structure prediction by ZEFSAII (Michael W. Deem and Ramdas Pophale) SiO2 
 PCOD9160392
Probable space group: P 21/M
;
_chemical_formula_sum "Si O2"
_cell_formula_units_Z 32
_cell_length_a 29.110994
_cell_length_b 8.607816
_cell_length_c 11.669521
_cell_angle_alpha 90.000000
_cell_angle_beta 34.826523
_cell_angle_gamma 90.000000
_cell_volume 1669.976478
_symmetry_space_group_name_H-M "P 21/M"
_symmetry_group_IT_number 11
_symmetry_cell_setting 'monoclinic'
loop_
_space_group_symop_operation_xyz
x,y,z
-x,1/2+y,-z
-x,-y,-z
x,1/2-y,z
loop_
_atom_site_type_symbol
_atom_site_label
_atom_site_fract_x
_atom_site_fract_y
_atom_site_fract_z
Si Si1 0.331417 0.065003 0.117071
Si Si2 0.590167 0.063721 0.813688
Si Si3 0.580115 0.435562 0.278923
Si Si4 0.271928 0.562436 0.630945
Si Si5 0.882420 0.564480 0.171122
Si Si6 0.826667 0.063074 0.683837
Si Si7 0.960446 0.563996 0.254434
Si Si8 0.743439 0.437013 0.080902
O O1 0.324070 0.250000 0.139715
O O2 0.360533 0.996913 0.177681
O O3 0.246903 0.995744 0.245297
O O4 0.397105 0.017243 0.886877
O O5 0.587122 0.250000 0.823557
O O6 0.641307 0.015904 0.596662
O O7 0.500000 0.000000 0.000000
O O8 0.500000 0.500000 0.500000
O O9 0.575166 0.250000 0.271433
O O10 0.655343 0.466489 0.208993
O O11 0.270751 0.750000 0.636451
O O12 0.202672 0.506118 0.687746
O O13 0.252933 0.502260 0.797478
O O14 0.878386 0.750000 0.175773
O O15 0.911857 0.518430 0.238021
O O16 0.950852 0.504503 0.943950
O O17 0.826324 0.250000 0.682145
O O18 0.909656 0.999580 0.464264
O O19 0.805897 0.008914 0.855797
O O20 0.965103 0.750000 0.249240
O O21 0.752809 0.250000 0.067993
#
# Coordination Sequence:
#
# PCOD9160392 Si02
#       8
#     4   4   4   4   4   4   4   4
#     4  11  22  37  56  79 112 149 190 235 284 341
#     4  11  24  39  58  84 114 149 191 238 290 348
#     4  10  20  35  57  83 110 142 187 240 292 341
#     4  10  21  39  60  80 111 153 189 227 283 347
#     4  10  21  36  56  86 117 148 185 231 282 332
#     4  10  19  35  59  85 114 146 186 238 288 336
#     4  10  20  35  58  86 117 148 186 232 280 340
#     4   8  18  36  56  79 109 147 187 229 282 341
#
# _framework density 19.161947000000001
#
# number of rings (size 3 to 8) (size 9 to 14) (size 15 to 20)
#    0.000    2.000    0.000    4.500    1.750    4.500 
#    0.000    4.375    0.000    0.000    0.000    0.000 
#    0.000    0.000    0.000    0.000    0.000    0.000 
#
# Total GULP energy -178721.662505 kJ/mol
# GULP energy per Si atom -5585.051953 kJ/mol
# Density = 1.911833 g / cm^3
# Si number density = 19.161947 Si / 1000 Ang^3
#
#
#
# Elastic Constant Matrix: (Units=GPa)
#
#
# Indices 1 2 3 4 5 6 
#
# 1 47.3207 11.5758 21.2722 0.0000 8.8907 0.0000
# 2 11.5758 33.5787 22.1454 0.0000 4.8060 0.0000
# 3 21.2722 22.1454 138.1515 0.0000 0.6342 0.0000
# 4 0.0000 0.0000 0.0000 33.5136 0.0000 -2.3173
# 5 8.8907 4.8060 0.6342 0.0000 18.5581 0.0000
# 6 0.0000 0.0000 0.0000 -2.3173 0.0000 19.9799
#
#
#
# Elastic Compliance Matrix: (Units=1/GPa)
#
#
# Indices 1 2 3 4 5 6 
#
# 1 0.025869 -0.005326 -0.003079 0.000000 -0.010909 0.000000
# 2 -0.005326 0.035775 -0.004885 0.000000 -0.006546 0.000000
# 3 -0.003079 -0.004885 0.008484 0.000000 0.002450 0.000000
# 4 0.000000 0.000000 0.000000 0.030080 0.000000 0.003489
# 5 -0.010909 -0.006546 0.002450 0.000000 0.060723 0.000000
# 6 0.000000 0.000000 0.000000 0.003489 0.000000 0.050455
#
#
# Mechanical properties :
#
#
# Convention : Reuss Voigt Hill
#
# Bulk Modulus (GPa) = 22.96268 36.55972 29.76120
# Shear Modulus (GPa) = 19.80342 25.34750 22.57546
#
# Velocity S-wave (km/s) = 3.21826 3.64098 3.43613
# Velocity P-wave (km/s) = 5.08125 6.06601 5.59533
#
# Compressibility (1/GPa) = 0.04354893
#
# Stress axis : x y z
#
# Youngs Moduli (GPa) = 38.65617 27.95237 117.86428
#
# Poissons Ratio (x) = 0.14887 0.36296
# Poissons Ratio (y) = 0.20587 0.57572
# Poissons Ratio (z) = 0.11904 0.13654
#
# Static dielectric constant tensor:
#      x y z
#    x 1.653010 0.000000 0.029420 
#    y 0.000000 1.646310 0.000000 
#    z 0.029420 0.000000 1.678780 
# 
# From -- ./inp_files/45167.got.cif
#   From: 2010.05.17/outbox.cif.g08.bks.cpg/sg11_23_cif.got.tgz:45167.got - 2010.06.03 12:22:45.
