data_PCOD9160294
_publ_section_title
;
Structure prediction by ZEFSAII (Michael W. Deem and Ramdas Pophale) SiO2 
 PCOD9160294
Probable space group: P 21/M
;
_chemical_formula_sum "Si O2"
_cell_formula_units_Z 28
_cell_length_a 15.240748
_cell_length_b 7.901152
_cell_length_c 11.455115
_cell_angle_alpha 90.000000
_cell_angle_beta 113.082068
_cell_angle_gamma 90.000000
_cell_volume 1268.988418
_symmetry_space_group_name_H-M "P 21/M"
_symmetry_group_IT_number 11
_symmetry_cell_setting 'monoclinic'
loop_
_space_group_symop_operation_xyz
x,y,z
-x,1/2+y,-z
-x,-y,-z
x,1/2-y,z
loop_
_atom_site_type_symbol
_atom_site_label
_atom_site_fract_x
_atom_site_fract_y
_atom_site_fract_z
Si Si1 0.244842 0.053903 0.811933
Si Si2 0.656342 0.449850 0.927299
Si Si3 0.735522 0.955063 0.724362
Si Si4 0.961701 0.055525 0.352669
Si Si5 0.045765 0.454563 0.149195
Si Si6 0.411634 0.046976 0.534409
Si Si7 0.555248 0.957475 0.186333
O O1 0.237524 0.250000 0.774177
O O2 0.347685 0.985887 0.824614
O O3 0.152499 0.964320 0.713820
O O4 0.257815 0.037060 0.957771
O O5 0.660811 0.250000 0.952531
O O6 0.673223 0.479679 0.799745
O O7 0.550423 0.516144 0.905599
O O8 0.733945 0.750000 0.727148
O O9 0.844152 0.011008 0.792432
O O10 0.684860 0.011454 0.578636
O O11 0.989645 0.250000 0.361469
O O12 0.998924 0.980009 0.247255
O O13 0.000000 0.000000 0.500000
O O14 0.042612 0.250000 0.151856
O O15 0.000000 0.500000 0.000000
O O16 0.406532 0.250000 0.539802
O O17 0.430419 0.985067 0.673441
O O18 0.500000 0.000000 0.500000
O O19 0.552450 0.750000 0.178837
#
# Coordination Sequence:
#
# PCOD9160294 Si02
#       7
#     4   4   4   4   4   4   4
#     4  11  23  40  63  87 118 160 203 247 299 357
#     4  11  21  37  59  88 125 158 196 245 296 359
#     4  10  21  36  60  88 116 153 197 242 299 365
#     4  11  25  45  67  94 126 164 208 260 315 370
#     4  10  23  42  65  91 121 159 205 256 310 368
#     4  10  19  35  57  83 116 152 193 240 294 355
#     4   9  20  36  58  85 118 159 197 239 297 356
#
# _framework density 22.064819
#
# number of rings (size 3 to 8) (size 9 to 14) (size 15 to 20)
#    0.000    1.714    1.429    2.571    2.000    4.000 
#    0.000    3.571    0.000    0.000    0.000    0.000 
#    0.000    0.000    0.000    0.000    0.000    0.000 
#
# Total GULP energy -156315.140007 kJ/mol
# GULP energy per Si atom -5582.683572 kJ/mol
# Density = 2.201460 g / cm^3
# Si number density = 22.064819 Si / 1000 Ang^3
#
#
#
# Elastic Constant Matrix: (Units=GPa)
#
#
# Indices 1 2 3 4 5 6 
#
# 1 103.6941 2.8886 57.6899 0.0000 9.8207 0.0000
# 2 2.8886 27.1925 6.5216 0.0000 -1.7146 0.0000
# 3 57.6899 6.5216 171.4596 0.0000 18.8908 0.0000
# 4 0.0000 0.0000 0.0000 29.6220 0.0000 -0.0286
# 5 9.8207 -1.7146 18.8908 0.0000 39.6045 0.0000
# 6 0.0000 0.0000 0.0000 -0.0286 0.0000 22.1105
#
#
#
# Elastic Compliance Matrix: (Units=1/GPa)
#
#
# Indices 1 2 3 4 5 6 
#
# 1 0.011914 -0.000409 -0.003869 0.000000 -0.001127 0.000000
# 2 -0.000409 0.037346 -0.001554 0.000000 0.002459 0.000000
# 3 -0.003869 -0.001554 0.007488 0.000000 -0.002680 0.000000
# 4 0.000000 0.000000 0.000000 0.033759 0.000000 0.000044
# 5 -0.001127 0.002459 -0.002680 0.000000 0.026914 0.000000
# 6 0.000000 0.000000 0.000000 0.000044 0.000000 0.045227
#
#
# Mechanical properties :
#
#
# Convention : Reuss Voigt Hill
#
# Bulk Modulus (GPa) = 22.18016 48.50515 35.34265
# Shear Modulus (GPa) = 26.40743 33.95048 30.17896
#
# Velocity S-wave (km/s) = 3.46325 3.92684 3.70231
# Velocity P-wave (km/s) = 5.10551 6.52617 5.85906
#
# Compressibility (1/GPa) = 0.04508534
#
# Stress axis : x y z
#
# Youngs Moduli (GPa) = 83.93212 26.77661 133.53939
#
# Poissons Ratio (x) = 0.01095 0.51668
# Poissons Ratio (y) = 0.03431 0.20751
# Poissons Ratio (z) = 0.32474 0.04161
#
# Static dielectric constant tensor:
#      x y z
#    x 1.818420 0.000000 -0.033700 
#    y 0.000000 1.826460 0.000000 
#    z -0.033700 0.000000 1.810840 
# 
# From -- ./inp_files/38390.got.cif
#   From: 2010.05.17/outbox.cif.g08.bks.cpg/sg11_20_cif.got.tgz:38390.got - 2010.06.03 12:22:45.
