data_PCOD9160803
_publ_section_title
;
Structure prediction by ZEFSAII (Michael W. Deem and Ramdas Pophale) SiO2 
 PCOD9160803
Probable space group: P 21/M
;
_chemical_formula_sum "Si O2"
_cell_formula_units_Z 28
_cell_length_a 29.692712
_cell_length_b 8.924546
_cell_length_c 5.351589
_cell_angle_alpha 90.000000
_cell_angle_beta 109.511894
_cell_angle_gamma 90.000000
_cell_volume 1336.698209
_symmetry_space_group_name_H-M "P 21/M"
_symmetry_group_IT_number 11
_symmetry_cell_setting 'monoclinic'
loop_
_space_group_symop_operation_xyz
x,y,z
-x,1/2+y,-z
-x,-y,-z
x,1/2-y,z
loop_
_atom_site_type_symbol
_atom_site_label
_atom_site_fract_x
_atom_site_fract_y
_atom_site_fract_z
Si Si1 0.471473 0.589013 0.744418
Si Si2 0.654193 0.430976 0.129555
Si Si3 0.808021 0.067311 0.890141
Si Si4 0.976313 0.067819 0.706118
Si Si5 0.702490 0.568552 0.715886
Si Si6 0.864839 0.431044 0.495630
Si Si7 0.425989 0.414287 0.280184
O O1 0.456264 0.750000 0.809331
O O2 0.427203 0.509595 0.533135
O O3 0.517499 0.610442 0.648771
O O4 0.500000 0.500000 0.000000
O O5 0.657049 0.250000 0.139993
O O6 0.676280 0.502748 0.420447
O O7 0.680716 0.496927 0.930339
O O8 0.600392 0.490902 0.979027
O O9 0.802023 0.250000 0.878762
O O10 0.836723 0.023379 0.693194
O O11 0.756957 0.988271 0.800757
O O12 0.837879 0.023996 0.192319
O O13 0.980190 0.250000 0.713321
O O14 0.920218 0.025034 0.601763
O O15 0.000000 0.000000 0.500000
O O16 0.000000 0.000000 0.000000
O O17 0.700096 0.750000 0.714812
O O18 0.864591 0.250000 0.495806
O O19 0.403812 0.250000 0.257881
#
# Coordination Sequence:
#
# PCOD9160803 Si02
#       7
#     4   4   4   4   4   4   4
#     4  10  21  37  60  87 120 159 202 249 306 368
#     4  12  26  45  69  96 127 170 218 259 310 386
#     4  10  19  37  63  89 117 159 214 262 307 376
#     4  11  22  39  61  91 129 172 217 265 320 377
#     4  12  26  45  67  97 133 166 203 264 332 383
#     4   9  19  35  60  88 120 165 214 259 310 376
#     4  10  22  40  60  87 121 159 202 255 312 368
#
# _framework density 20.947139
#
# number of rings (size 3 to 8) (size 9 to 14) (size 15 to 20)
#    0.000    1.429    0.000    5.571    2.000    5.143 
#    0.000    4.286    0.000    0.000    0.000    0.000 
#    0.000    0.000    0.000    0.000    0.000    0.000 
#
# Total GULP energy -156276.518365 kJ/mol
# GULP energy per Si atom -5581.304227 kJ/mol
# Density = 2.089946 g / cm^3
# Si number density = 20.947139 Si / 1000 Ang^3
#
#
#
# Elastic Constant Matrix: (Units=GPa)
#
#
# Indices 1 2 3 4 5 6 
#
# 1 130.0770 40.0655 69.4262 0.0000 -4.6240 0.0000
# 2 40.0655 157.9518 70.4788 0.0000 6.5557 0.0000
# 3 69.4262 70.4788 197.7007 0.0000 4.0905 0.0000
# 4 0.0000 0.0000 0.0000 30.6557 0.0000 3.2068
# 5 -4.6240 6.5557 4.0905 0.0000 34.8163 0.0000
# 6 0.0000 0.0000 0.0000 3.2068 0.0000 29.0333
#
#
#
# Elastic Compliance Matrix: (Units=1/GPa)
#
#
# Indices 1 2 3 4 5 6 
#
# 1 0.009742 -0.001195 -0.003034 0.000000 0.001875 0.000000
# 2 -0.001195 0.007718 -0.002304 0.000000 -0.001341 0.000000
# 3 -0.003034 -0.002304 0.006961 0.000000 -0.000787 0.000000
# 4 0.000000 0.000000 0.000000 0.033002 0.000000 -0.003645
# 5 0.001875 -0.001341 -0.000787 0.000000 0.029316 0.000000
# 6 0.000000 0.000000 0.000000 -0.003645 0.000000 0.034846
#
#
# Mechanical properties :
#
#
# Convention : Reuss Voigt Hill
#
# Bulk Modulus (GPa) = 88.06630 93.96338 91.01484
# Shear Modulus (GPa) = 36.11798 39.28500 37.70149
#
# Velocity S-wave (km/s) = 4.15691 4.33533 4.24705
# Velocity P-wave (km/s) = 8.07300 8.36749 8.22156
#
# Compressibility (1/GPa) = 0.01135508
#
# Stress axis : x y z
#
# Youngs Moduli (GPa) = 102.65102 129.56889 143.65561
#
# Poissons Ratio (x) = 0.15487 0.43581
# Poissons Ratio (y) = 0.12269 0.33097
# Poissons Ratio (z) = 0.31141 0.29851
#
# Static dielectric constant tensor:
#      x y z
#    x 1.862040 0.000000 -0.057870 
#    y 0.000000 1.737390 0.000000 
#    z -0.057870 0.000000 1.713490 
# 
# From -- ./inp_files/9714.got.cif
#   From: 2010.05.17/outbox.cif.g08.bks.cpg/sg11_5_cif.got.tgz:9714.got - 2010.06.03 12:22:45.
