data_PCOD9160027
_publ_section_title
;
Structure prediction by ZEFSAII (Michael W. Deem and Ramdas Pophale) SiO2 
 PCOD9160027
Probable space group: P 21/M
;
_chemical_formula_sum "Si O2"
_cell_formula_units_Z 28
_cell_length_a 20.125281
_cell_length_b 9.112863
_cell_length_c 13.737135
_cell_angle_alpha 90.000000
_cell_angle_beta 144.285391
_cell_angle_gamma 90.000000
_cell_volume 1470.681247
_symmetry_space_group_name_H-M "P 21/M"
_symmetry_group_IT_number 11
_symmetry_cell_setting 'monoclinic'
loop_
_space_group_symop_operation_xyz
x,y,z
-x,1/2+y,-z
-x,-y,-z
x,1/2-y,z
loop_
_atom_site_type_symbol
_atom_site_label
_atom_site_fract_x
_atom_site_fract_y
_atom_site_fract_z
Si Si1 0.504311 0.411981 0.763751
Si Si2 0.624796 0.574825 0.661148
Si Si3 0.190806 0.925280 0.509012
Si Si4 0.283183 0.424833 0.012138
Si Si5 0.608296 0.911020 0.164969
Si Si6 0.031471 0.426042 0.640057
Si Si7 0.696179 0.076625 0.561722
O O1 0.515825 0.250000 0.730131
O O2 0.426846 0.391578 0.764983
O O3 0.433495 0.534208 0.621683
O O4 0.625157 0.478574 0.936591
O O5 0.500000 0.500000 0.500000
O O6 0.611667 0.750000 0.636935
O O7 0.707723 0.513943 0.674842
O O8 0.682107 0.543677 0.834201
O O9 0.207982 0.750000 0.535875
O O10 0.224701 0.963496 0.437353
O O11 0.063814 0.961862 0.391994
O O12 0.274765 0.001120 0.687011
O O13 0.298163 0.250000 0.014931
O O14 0.156277 0.464751 0.828909
O O15 0.620190 0.750000 0.132629
O O16 0.500000 0.000000 0.000000
O O17 0.029230 0.250000 0.623605
O O18 0.000000 0.500000 0.500000
O O19 0.706188 0.250000 0.590479
#
# Coordination Sequence:
#
# PCOD9160027 Si02
#       7
#     4   4   4   4   4   4   4
#     4  10  20  33  52  80 113 147 186 234 282 339
#     4  11  21  34  56  87 121 156 191 236 291 349
#     4   9  20  39  59  79 111 151 193 238 289 349
#     4  10  22  38  57  82 116 153 192 236 290 349
#     4  10  21  34  52  80 111 144 186 237 293 348
#     4  10  23  43  63  84 112 153 200 246 294 345
#     4  10  19  34  57  84 115 152 186 229 290 347
#
# _framework density 19.038796999999999
#
# number of rings (size 3 to 8) (size 9 to 14) (size 15 to 20)
#    0.000    2.000    1.429    1.714    2.000    4.000 
#    0.000    0.714    0.000    0.000    0.000    0.000 
#    0.000    0.000    0.000    0.000    0.000    0.000 
#
# Total GULP energy -155999.864095 kJ/mol
# GULP energy per Si atom -5571.423718 kJ/mol
# Density = 1.899546 g / cm^3
# Si number density = 19.038797 Si / 1000 Ang^3
#
#
#
# Elastic Constant Matrix: (Units=GPa)
#
#
# Indices 1 2 3 4 5 6 
#
# 1 84.7822 24.1499 38.1318 0.0000 11.6341 0.0000
# 2 24.1499 51.6948 24.8793 0.0000 2.6206 0.0000
# 3 38.1318 24.8793 104.5721 0.0000 12.4833 0.0000
# 4 0.0000 0.0000 0.0000 21.4528 0.0000 -1.9769
# 5 11.6341 2.6206 12.4833 0.0000 31.8147 0.0000
# 6 0.0000 0.0000 0.0000 -1.9769 0.0000 28.6334
#
#
#
# Elastic Compliance Matrix: (Units=1/GPa)
#
#
# Indices 1 2 3 4 5 6 
#
# 1 0.015576 -0.005159 -0.004011 0.000000 -0.003697 0.000000
# 2 -0.005159 0.023556 -0.003900 0.000000 0.001476 0.000000
# 3 -0.004011 -0.003900 0.012317 0.000000 -0.003045 0.000000
# 4 0.000000 0.000000 0.000000 0.046912 0.000000 0.003239
# 5 -0.003697 0.001476 -0.003045 0.000000 0.033857 0.000000
# 6 0.000000 0.000000 0.000000 0.003239 0.000000 0.035148
#
#
# Mechanical properties :
#
#
# Convention : Reuss Voigt Hill
#
# Bulk Modulus (GPa) = 39.50974 46.15235 42.83105
# Shear Modulus (GPa) = 24.75978 26.63939 25.69959
#
# Velocity S-wave (km/s) = 3.61014 3.74467 3.67802
# Velocity P-wave (km/s) = 6.17858 6.55672 6.37045
#
# Compressibility (1/GPa) = 0.02531021
#
# Stress axis : x y z
#
# Youngs Moduli (GPa) = 64.20290 42.45187 81.19130
#
# Poissons Ratio (x) = 0.21899 0.32566
# Poissons Ratio (y) = 0.33119 0.31661
# Poissons Ratio (z) = 0.25752 0.16554
#
# Static dielectric constant tensor:
#      x y z
#    x 1.740780 0.000000 -0.036290 
#    y 0.000000 1.710030 0.000000 
#    z -0.036290 0.000000 1.646290 
# 
# From -- ./inp_files/37698.got.cif
#   From: 2010.05.17/outbox.cif.g08.bks.cpg/sg11_19_cif.got.tgz:37698.got - 2010.06.03 12:22:45.
