data_PCOD9160072
_publ_section_title
;
Structure prediction by ZEFSAII (Michael W. Deem and Ramdas Pophale) SiO2 
 PCOD9160072
Probable space group: P 21/M
;
_chemical_formula_sum "Si O2"
_cell_formula_units_Z 32
_cell_length_a 22.204157
_cell_length_b 8.813578
_cell_length_c 28.668538
_cell_angle_alpha 90.000000
_cell_angle_beta 18.832953
_cell_angle_gamma 90.000000
_cell_volume 1811.086515
_symmetry_space_group_name_H-M "P 21/M"
_symmetry_group_IT_number 11
_symmetry_cell_setting 'monoclinic'
loop_
_space_group_symop_operation_xyz
x,y,z
-x,1/2+y,-z
-x,-y,-z
x,1/2-y,z
loop_
_atom_site_type_symbol
_atom_site_label
_atom_site_fract_x
_atom_site_fract_y
_atom_site_fract_z
Si Si1 0.455112 0.568349 0.083137
Si Si2 0.911949 0.068631 0.914498
Si Si3 0.388954 0.931352 0.939911
Si Si4 0.199309 0.930643 0.839111
Si Si5 0.963336 0.431539 0.577934
Si Si6 0.690565 0.931590 0.341095
Si Si7 0.638618 0.929591 0.191019
Si Si8 0.670269 0.069357 0.657814
O O1 0.469970 0.750000 0.070986
O O2 0.587374 0.503204 0.026779
O O3 0.242987 0.528279 0.253326
O O4 0.500000 0.500000 0.000000
O O5 0.890007 0.250000 0.938884
O O6 0.130283 0.033171 0.757543
O O7 0.804302 0.033445 0.945402
O O8 0.803074 0.982189 0.035452
O O9 0.408636 0.750000 0.928362
O O10 0.551049 0.997200 0.787530
O O11 0.184430 0.750000 0.846764
O O12 0.262004 0.000308 0.744188
O O13 0.339884 0.979233 0.777132
O O14 0.000000 0.000000 0.000000
O O15 0.977120 0.250000 0.565379
O O16 0.000000 0.500000 0.500000
O O17 0.126027 0.497299 0.491218
O O18 0.675373 0.750000 0.348864
O O19 0.500000 0.000000 0.500000
O O20 0.655550 0.750000 0.187456
O O21 0.448533 0.958369 0.301869
O O22 0.681651 0.250000 0.657085
#
# Coordination Sequence:
#
# PCOD9160072 Si02
#       8
#     4   4   4   4   4   4   4   4
#     4  11  24  40  58  84 116 152 194 238 288 345
#     4   9  19  35  57  84 114 150 192 236 286 346
#     4  10  19  34  58  85 113 149 191 236 287 344
#     4  12  23  37  59  87 117 152 194 242 293 348
#     4  11  22  36  58  85 115 150 190 236 287 343
#     4  11  23  40  60  86 120 157 198 243 290 349
#     4  10  20  34  56  86 118 151 191 241 292 344
#     4  10  20  34  55  86 119 150 191 240 289 344
#
# _framework density 17.668952000000001
#
# number of rings (size 3 to 8) (size 9 to 14) (size 15 to 20)
#    0.000    1.500    2.500    3.375    0.000    4.000 
#    0.000    1.250    0.000    1.500    0.000    0.000 
#    0.000    0.000    0.000    0.000    0.000    0.000 
#
# Total GULP energy -178771.449273 kJ/mol
# GULP energy per Si atom -5586.607790 kJ/mol
# Density = 1.762874 g / cm^3
# Si number density = 17.668952 Si / 1000 Ang^3
#
#
#
# Elastic Constant Matrix: (Units=GPa)
#
#
# Indices 1 2 3 4 5 6 
#
# 1 142.9865 66.1123 77.3632 0.0000 -4.4620 0.0000
# 2 66.1123 83.1415 62.4051 0.0000 -5.9681 0.0000
# 3 77.3632 62.4051 121.7734 0.0000 -7.6129 0.0000
# 4 0.0000 0.0000 0.0000 29.8501 0.0000 -0.0826
# 5 -4.4620 -5.9681 -7.6129 0.0000 29.1311 0.0000
# 6 0.0000 0.0000 0.0000 -0.0826 0.0000 33.4836
#
#
#
# Elastic Compliance Matrix: (Units=1/GPa)
#
#
# Indices 1 2 3 4 5 6 
#
# 1 0.012489 -0.006486 -0.004650 0.000000 -0.000631 0.000000
# 2 -0.006486 0.022972 -0.007543 0.000000 0.001742 0.000000
# 3 -0.004650 -0.007543 0.015138 0.000000 0.001698 0.000000
# 4 0.000000 0.000000 0.000000 0.033501 0.000000 0.000083
# 5 -0.000631 0.001742 0.001698 0.000000 0.035032 0.000000
# 6 0.000000 0.000000 0.000000 0.000083 0.000000 0.029866
#
#
# Mechanical properties :
#
#
# Convention : Reuss Voigt Hill
#
# Bulk Modulus (GPa) = 75.52312 84.40695 79.96504
# Shear Modulus (GPa) = 26.21002 27.96102 27.08552
#
# Velocity S-wave (km/s) = 3.85566 3.98237 3.91953
# Velocity P-wave (km/s) = 7.91566 8.30787 8.11414
#
# Compressibility (1/GPa) = 0.01324098
#
# Stress axis : x y z
#
# Youngs Moduli (GPa) = 80.07317 43.53160 66.06070
#
# Poissons Ratio (x) = 0.28234 0.30716
# Poissons Ratio (y) = 0.51935 0.49829
# Poissons Ratio (z) = 0.37231 0.32835
#
# Static dielectric constant tensor:
#      x y z
#    x 1.611490 0.000000 -0.035410 
#    y 0.000000 1.588630 0.000000 
#    z -0.035410 0.000000 1.578710 
# 
# From -- ./inp_files/72051.got.cif
#   From: 2010.05.17/outbox.cif.g08.bks.cpg/sg11_37_cif.got.tgz:72051.got - 2010.06.03 12:22:45.
