data_PCOD9160943
_publ_section_title
;
Structure prediction by ZEFSAII (Michael W. Deem and Ramdas Pophale) SiO2 
 PCOD9160943
Probable space group: P 21/M
;
_chemical_formula_sum "Si O2"
_cell_formula_units_Z 16
_cell_length_a 16.148081
_cell_length_b 5.760413
_cell_length_c 7.018527
_cell_angle_alpha 90.000000
_cell_angle_beta 61.826544
_cell_angle_gamma 90.000000
_cell_volume 575.511240
_symmetry_space_group_name_H-M "P 21/M"
_symmetry_group_IT_number 11
_symmetry_cell_setting 'monoclinic'
loop_
_space_group_symop_operation_xyz
x,y,z
-x,1/2+y,-z
-x,-y,-z
x,1/2-y,z
loop_
_atom_site_type_symbol
_atom_site_label
_atom_site_fract_x
_atom_site_fract_y
_atom_site_fract_z
Si Si1 0.518537 0.250000 0.384265
Si Si2 0.725562 0.250000 0.271346
Si Si3 0.033774 0.000497 0.743917
Si Si4 0.179093 0.501282 0.134932
Si Si5 0.417717 0.250000 0.087834
Si Si6 0.629084 0.250000 0.784268
O O1 0.500000 0.500000 0.500000
O O2 0.630820 0.250000 0.250227
O O3 0.455312 0.250000 0.264363
O O4 0.690978 0.250000 0.524737
O O5 0.786232 0.035148 0.123253
O O6 0.081651 0.250000 0.655822
O O7 0.934209 0.000623 0.741516
O O8 0.081525 0.750000 0.660451
O O9 0.000000 0.000000 0.000000
O O10 0.207883 0.750000 0.191904
O O11 0.208934 0.250000 0.169374
O O12 0.366308 0.496446 0.121043
O O13 0.514606 0.250000 0.862452
#
# Coordination Sequence:
#
# PCOD9160943 Si02
#       6
#     2   2   4   4   2   2
#     4  12  22  32  48  66  85 110 142 182 218 255
#     4  10  20  28  46  62  84 110 136 176 217 245
#     4   8  12  20  32  47  70 101 132 153 186 233
#     4   8  16  24  35  55  78 103 134 159 200 246
#     4  10  20  36  44  68  79 108 145 175 219 260
#     4  10  20  32  52  58  86 108 139 183 214 258
#
# _framework density 27.801369999999999
#
# number of rings (size 3 to 8) (size 9 to 14) (size 15 to 20)
#    0.750    2.000    2.500    0.000    3.500    0.000 
#    0.000    0.000    0.000    0.000    0.000    0.000 
#    0.000    0.000    0.000    2.250    1.000    0.000 
#
# Total GULP energy -89330.747423 kJ/mol
# GULP energy per Si atom -5583.171714 kJ/mol
# Density = 2.773809 g / cm^3
# Si number density = 27.801370 Si / 1000 Ang^3
#
#
#
# Elastic Constant Matrix: (Units=GPa)
#
#
# Indices 1 2 3 4 5 6 
#
# 1 72.2312 55.5207 13.8486 0.0000 -5.8434 0.0000
# 2 55.5207 369.1257 62.6496 0.0000 0.3518 0.0000
# 3 13.8486 62.6496 173.7152 0.0000 -28.6904 0.0000
# 4 0.0000 0.0000 0.0000 16.3669 0.0000 20.8730
# 5 -5.8434 0.3518 -28.6904 0.0000 33.1063 0.0000
# 6 0.0000 0.0000 0.0000 20.8730 0.0000 46.2944
#
#
#
# Elastic Compliance Matrix: (Units=1/GPa)
#
#
# Indices 1 2 3 4 5 6 
#
# 1 0.015917 -0.002410 0.000080 0.000000 0.002904 0.000000
# 2 -0.002410 0.003285 -0.001247 0.000000 -0.001541 0.000000
# 3 0.000080 -0.001247 0.007241 0.000000 0.006302 0.000000
# 4 0.000000 0.000000 0.000000 0.143765 0.000000 -0.064820
# 5 0.002904 -0.001541 0.006302 0.000000 0.036196 0.000000
# 6 0.000000 0.000000 0.000000 -0.064820 0.000000 0.050827
#
#
# Mechanical properties :
#
#
# Convention : Reuss Voigt Hill
#
# Bulk Modulus (GPa) = 51.84639 97.67888 74.76264
# Shear Modulus (GPa) = 18.46279 51.35707 34.90993
#
# Velocity S-wave (km/s) = 2.57980 4.30267 3.54742
# Velocity P-wave (km/s) = 5.25007 7.73917 6.61279
#
# Compressibility (1/GPa) = 0.01928774
#
# Stress axis : x y z
#
# Youngs Moduli (GPa) = 62.82657 304.43483 138.10698
#
# Poissons Ratio (x) = 0.73382 -0.01106
# Poissons Ratio (y) = 0.15144 0.17222
# Poissons Ratio (z) = -0.00503 0.37963
#
# Static dielectric constant tensor:
#      x y z
#    x 2.203270 0.000000 0.049320 
#    y 0.000000 2.153630 0.000000 
#    z 0.049320 0.000000 2.169270 
# 
# From -- ./inp_files/23479.got.cif
#   From: 2010.05.17/outbox.cif.g08.bks.cpg/sg11_12_cif.got.tgz:23479.got - 2010.06.03 12:22:45.
