data_PCOD9160222
_publ_section_title
;
Structure prediction by ZEFSAII (Michael W. Deem and Ramdas Pophale) SiO2 
 PCOD9160222
Probable space group: P 21/M
;
_chemical_formula_sum "Si O2"
_cell_formula_units_Z 32
_cell_length_a 12.854805
_cell_length_b 7.665433
_cell_length_c 29.889569
_cell_angle_alpha 90.000000
_cell_angle_beta 29.979560
_cell_angle_gamma 90.000000
_cell_volume 1471.713862
_symmetry_space_group_name_H-M "P 21/M"
_symmetry_group_IT_number 11
_symmetry_cell_setting 'monoclinic'
loop_
_space_group_symop_operation_xyz
x,y,z
-x,1/2+y,-z
-x,-y,-z
x,1/2-y,z
loop_
_atom_site_type_symbol
_atom_site_label
_atom_site_fract_x
_atom_site_fract_y
_atom_site_fract_z
Si Si1 0.817494 0.457244 0.533623
Si Si2 0.914790 0.960570 0.146185
Si Si3 0.951445 0.535142 0.326615
Si Si4 0.186352 0.454135 0.964982
Si Si5 0.629563 0.948856 0.516983
Si Si6 0.820074 0.545507 0.280986
Si Si7 0.475451 0.962175 0.281439
Si Si8 0.645374 0.036187 0.768375
O O1 0.810915 0.250000 0.528839
O O2 0.806395 0.545378 0.489808
O O3 0.617860 0.516508 0.636611
O O4 0.000000 0.500000 0.500000
O O5 0.907465 0.750000 0.150357
O O6 0.882387 0.026573 0.209016
O O7 0.713812 0.018346 0.192214
O O8 0.112589 0.009834 0.043042
O O9 0.946039 0.750000 0.329258
O O10 0.744167 0.477015 0.430681
O O11 0.939803 0.474995 0.279785
O O12 0.159801 0.478893 0.274604
O O13 0.211877 0.250000 0.949386
O O14 0.417089 0.526746 0.869390
O O15 0.000000 0.500000 0.000000
O O16 0.571816 0.750000 0.529480
O O17 0.424124 0.034468 0.614478
O O18 0.870074 0.750000 0.259579
O O19 0.469853 0.750000 0.283210
O O20 0.345106 0.019557 0.287149
O O21 0.649646 0.250000 0.767709
#
# Coordination Sequence:
#
# PCOD9160222 Si02
#       8
#     4   4   4   4   4   4   4   4
#     4  11  21  34  52  78 113 151 189 228 276 335
#     4  10  19  35  56  79 107 141 180 223 274 330
#     4   9  19  35  56  80 106 145 193 231 273 335
#     4  11  21  34  57  85 112 142 179 226 276 333
#     4  11  21  34  55  83 112 144 187 238 281 328
#     4  10  20  37  59  80 107 147 192 233 275 332
#     4   9  16  30  52  74 103 142 178 215 266 330
#     4   9  17  32  54  78 105 139 180 222 269 329
#
# _framework density 21.743355999999999
#
# number of rings (size 3 to 8) (size 9 to 14) (size 15 to 20)
#    0.000    2.000    2.500    2.250    0.000    2.500 
#    0.000    1.250    0.000    3.750    0.000    0.000 
#    0.000    0.000    0.000    0.000    0.000    0.000 
#
# Total GULP energy -178603.861851 kJ/mol
# GULP energy per Si atom -5581.370683 kJ/mol
# Density = 2.169387 g / cm^3
# Si number density = 21.743356 Si / 1000 Ang^3
#
#
#
# Elastic Constant Matrix: (Units=GPa)
#
#
# Indices 1 2 3 4 5 6 
#
# 1 143.3501 2.7232 38.1480 0.0000 8.5493 0.0000
# 2 2.7232 41.3223 -1.3508 0.0000 -0.6555 0.0000
# 3 38.1480 -1.3508 81.3674 0.0000 13.7852 0.0000
# 4 0.0000 0.0000 0.0000 16.8570 0.0000 -0.6217
# 5 8.5493 -0.6555 13.7852 0.0000 28.2211 0.0000
# 6 0.0000 0.0000 0.0000 -0.6217 0.0000 9.0790
#
#
#
# Elastic Compliance Matrix: (Units=1/GPa)
#
#
# Indices 1 2 3 4 5 6 
#
# 1 0.007999 -0.000657 -0.003650 0.000000 -0.000656 0.000000
# 2 -0.000657 0.024271 0.000634 0.000000 0.000453 0.000000
# 3 -0.003650 0.000634 0.015069 0.000000 -0.006240 0.000000
# 4 0.000000 0.000000 0.000000 0.059473 0.000000 0.004073
# 5 -0.000656 0.000453 -0.006240 0.000000 0.038692 0.000000
# 6 0.000000 0.000000 0.000000 0.004073 0.000000 0.110423
#
#
# Mechanical properties :
#
#
# Convention : Reuss Voigt Hill
#
# Bulk Modulus (GPa) = 25.00399 38.34226 31.67313
# Shear Modulus (GPa) = 18.07641 25.93272 22.00457
#
# Velocity S-wave (km/s) = 2.88645 3.45726 3.18467
# Velocity P-wave (km/s) = 4.75745 5.79734 5.30295
#
# Compressibility (1/GPa) = 0.03999362
#
# Stress axis : x y z
#
# Youngs Moduli (GPa) = 125.01832 41.20103 66.36173
#
# Poissons Ratio (x) = 0.02706 0.24222
# Poissons Ratio (y) = 0.08212 -0.04208
# Poissons Ratio (z) = 0.45632 -0.02613
#
# Static dielectric constant tensor:
#      x y z
#    x 1.815170 0.000000 -0.012320 
#    y 0.000000 1.816380 0.000000 
#    z -0.012320 0.000000 1.832430 
# 
# From -- ./inp_files/73066.got.cif
#   From: 2010.05.17/outbox.cif.g08.bks.cpg/sg11_37_cif.got.tgz:73066.got - 2010.06.03 12:22:45.
