data_PCOD9160749
_publ_section_title
;
Structure prediction by ZEFSAII (Michael W. Deem and Ramdas Pophale) SiO2 
 PCOD9160749
Probable space group: P 21/M
;
_chemical_formula_sum "Si O2"
_cell_formula_units_Z 28
_cell_length_a 15.292907
_cell_length_b 18.023377
_cell_length_c 8.770745
_cell_angle_alpha 90.000000
_cell_angle_beta 38.199569
_cell_angle_gamma 90.000000
_cell_volume 1494.974980
_symmetry_space_group_name_H-M "P 21/M"
_symmetry_group_IT_number 11
_symmetry_cell_setting 'monoclinic'
loop_
_space_group_symop_operation_xyz
x,y,z
-x,1/2+y,-z
-x,-y,-z
x,1/2-y,z
loop_
_atom_site_type_symbol
_atom_site_label
_atom_site_fract_x
_atom_site_fract_y
_atom_site_fract_z
Si Si1 0.143939 0.416216 0.890233
Si Si2 0.343889 0.164317 0.854049
Si Si3 0.670504 0.486726 0.595908
Si Si4 0.333067 0.832342 0.548312
Si Si5 0.338896 0.481299 0.042845
Si Si6 0.038517 0.834391 0.110115
Si Si7 0.926035 0.027239 0.754366
O O1 0.248148 0.365220 0.847600
O O2 0.236169 0.467725 0.651380
O O3 0.042292 0.366018 0.926933
O O4 0.061344 0.470181 0.121193
O O5 0.311775 0.250000 0.934517
O O6 0.511973 0.159355 0.589725
O O7 0.321774 0.105113 0.020161
O O8 0.687426 0.399383 0.540473
O O9 0.705054 0.505703 0.722736
O O10 0.503339 0.502635 0.801634
O O11 0.329102 0.750000 0.482108
O O12 0.204979 0.836009 0.841971
O O13 0.240060 0.526406 0.062367
O O14 0.996113 0.750000 0.200924
O O15 0.017650 0.893168 0.272694
O O16 0.000000 0.000000 0.500000
#
# Coordination Sequence:
#
# PCOD9160749 Si02
#       7
#     4   4   4   4   4   4   4
#     4  11  22  36  62  84 113 154 195 241 279 344
#     4   9  19  37  57  84 116 151 191 234 288 340
#     4  10  19  37  60  88 115 149 198 237 281 337
#     4   9  19  34  59  84 114 148 185 234 287 340
#     4   9  21  35  59  87 117 152 193 237 283 340
#     4  11  23  39  58  87 117 150 192 240 292 343
#     4  11  23  38  59  85 119 156 193 236 288 346
#
# _framework density 18.729410000000001
#
# number of rings (size 3 to 8) (size 9 to 14) (size 15 to 20)
#    0.000    2.000    1.429    1.714    4.000    1.714 
#    0.000    8.571    0.000    2.571    0.000    0.000 
#    0.000    0.000    0.000    0.000    0.000    0.000 
#
# Total GULP energy -156286.988193 kJ/mol
# GULP energy per Si atom -5581.678150 kJ/mol
# Density = 1.868678 g / cm^3
# Si number density = 18.729410 Si / 1000 Ang^3
#
#
#
# Elastic Constant Matrix: (Units=GPa)
#
#
# Indices 1 2 3 4 5 6 
#
# 1 90.5996 68.8000 18.8124 0.0000 4.4920 0.0000
# 2 68.8000 146.4139 45.0614 0.0000 8.4918 0.0000
# 3 18.8124 45.0614 71.6392 0.0000 12.5725 0.0000
# 4 0.0000 0.0000 0.0000 20.6282 0.0000 -3.8159
# 5 4.4920 8.4918 12.5725 0.0000 23.8657 0.0000
# 6 0.0000 0.0000 0.0000 -3.8159 0.0000 24.3627
#
#
#
# Elastic Compliance Matrix: (Units=1/GPa)
#
#
# Indices 1 2 3 4 5 6 
#
# 1 0.017201 -0.008296 0.000828 0.000000 -0.000722 0.000000
# 2 -0.008296 0.012472 -0.005687 0.000000 0.000120 0.000000
# 3 0.000828 -0.005687 0.018722 0.000000 -0.007995 0.000000
# 4 0.000000 0.000000 0.000000 0.049924 0.000000 0.007819
# 5 -0.000722 0.000120 -0.007995 0.000000 0.046206 0.000000
# 6 0.000000 0.000000 0.000000 0.007819 0.000000 0.042271
#
#
# Mechanical properties :
#
#
# Convention : Reuss Voigt Hill
#
# Bulk Modulus (GPa) = 45.28152 63.77781 54.52966
# Shear Modulus (GPa) = 22.67911 25.50325 24.09118
#
# Velocity S-wave (km/s) = 3.48355 3.69408 3.59036
# Velocity P-wave (km/s) = 6.35683 7.23334 6.80920
#
# Compressibility (1/GPa) = 0.02208407
#
# Stress axis : x y z
#
# Youngs Moduli (GPa) = 58.13569 80.18280 53.41356
#
# Poissons Ratio (x) = 0.66517 -0.04421
# Poissons Ratio (y) = 0.48228 0.30377
# Poissons Ratio (z) = -0.04812 0.45602
#
# Static dielectric constant tensor:
#      x y z
#    x 1.645010 0.000000 -0.042410 
#    y 0.000000 1.645250 0.000000 
#    z -0.042410 0.000000 1.664510 
# 
# From -- ./inp_files/22739.got.cif
#   From: 2010.05.17/outbox.cif.g08.bks.cpg/sg11_12_cif.got.tgz:22739.got - 2010.06.03 12:22:45.
