data_PCOD9160452
_publ_section_title
;
Structure prediction by ZEFSAII (Michael W. Deem and Ramdas Pophale) SiO2 
 PCOD9160452
Probable space group: P 21/M
;
_chemical_formula_sum "Si O2"
_cell_formula_units_Z 18
_cell_length_a 6.890937
_cell_length_b 18.987507
_cell_length_c 7.706801
_cell_angle_alpha 90.000000
_cell_angle_beta 41.424174
_cell_angle_gamma 90.000000
_cell_volume 667.166818
_symmetry_space_group_name_H-M "P 21/M"
_symmetry_group_IT_number 11
_symmetry_cell_setting 'monoclinic'
loop_
_space_group_symop_operation_xyz
x,y,z
-x,1/2+y,-z
-x,-y,-z
x,1/2-y,z
loop_
_atom_site_type_symbol
_atom_site_label
_atom_site_fract_x
_atom_site_fract_y
_atom_site_fract_z
Si Si1 0.946097 0.750000 0.349566
Si Si2 0.100118 0.750000 0.884253
Si Si3 0.824291 0.596993 0.478189
Si Si4 0.306390 0.514767 0.958371
Si Si5 0.487710 0.250000 0.864056
Si Si6 0.088174 0.373341 0.194962
O O1 0.769637 0.678439 0.474689
O O2 0.165475 0.750000 0.369089
O O3 0.175123 0.750000 0.034408
O O4 0.139985 0.820209 0.743363
O O5 0.734565 0.750000 0.150242
O O6 0.971748 0.596227 0.573501
O O7 0.058194 0.567760 0.187610
O O8 0.533639 0.549788 0.674824
O O9 0.163807 0.438723 0.020367
O O10 0.500000 0.500000 0.000000
O O11 0.372962 0.322484 0.027843
#
# Coordination Sequence:
#
# PCOD9160452 Si02
#       6
#     2   2   4   4   2   4
#     4  12  20  38  62  92 125 163 217 247 318 370
#     4   8  21  38  64  90 127 163 207 263 300 370
#     4  11  22  33  67  89 122 168 202 258 312 371
#     4  10  19  35  60  96 120 160 210 253 311 374
#     4   8  19  36  66  82 124 164 200 254 308 358
#     4   8  17  39  60  89 128 156 211 253 311 368
#
# _framework density 26.979756999999999
#
# number of rings (size 3 to 8) (size 9 to 14) (size 15 to 20)
#    1.333    0.889    0.000    6.667    0.000    0.889 
#    0.000    2.222   19.556    0.000    0.000    1.556 
#    0.000    0.000    0.000    0.000    0.000    0.000 
#
# Total GULP energy -100641.418072 kJ/mol
# GULP energy per Si atom -5591.189893 kJ/mol
# Density = 2.691835 g / cm^3
# Si number density = 26.979757 Si / 1000 Ang^3
#
#
#
# Elastic Constant Matrix: (Units=GPa)
#
#
# Indices 1 2 3 4 5 6 
#
# 1 83.0533 18.0074 34.0871 0.0000 12.1427 0.0000
# 2 18.0074 162.5856 33.5086 0.0000 -7.4317 0.0000
# 3 34.0871 33.5086 95.4320 0.0000 -10.4008 0.0000
# 4 0.0000 0.0000 0.0000 45.0014 0.0000 2.3452
# 5 12.1427 -7.4317 -10.4008 0.0000 42.4092 0.0000
# 6 0.0000 0.0000 0.0000 2.3452 0.0000 -6.2428
#
#
#
# Elastic Compliance Matrix: (Units=1/GPa)
#
#
# Indices 1 2 3 4 5 6 
#
# 1 0.015525 -0.000773 -0.005932 0.000000 -0.006035 0.000000
# 2 -0.000773 0.006684 -0.001972 0.000000 0.000909 0.000000
# 3 -0.005932 -0.001972 0.013806 0.000000 0.004739 0.000000
# 4 0.000000 0.000000 0.000000 0.021795 0.000000 0.008188
# 5 -0.006035 0.000909 0.004739 0.000000 0.026629 0.000000
# 6 0.000000 0.000000 0.000000 0.008188 0.000000 -0.157108
#
#
# Mechanical properties :
#
#
# Convention : Reuss Voigt Hill
#
# Bulk Modulus (GPa) = 53.58341 56.91968 55.25154
# Shear Modulus (GPa) = -101.84328 33.26473 -34.28927
#
# Velocity S-wave (km/s) = -6.15061 3.51515 -3.56887
# Velocity P-wave (km/s) = 5.52596 6.13335 1.88172
#
# Compressibility (1/GPa) = 0.01866249
#
# Stress axis : x y z
#
# Youngs Moduli (GPa) = 64.41245 149.60762 72.43099
#
# Poissons Ratio (x) = 0.11562 0.42964
# Poissons Ratio (y) = 0.04978 0.14282
# Poissons Ratio (z) = 0.38208 0.29501
#
# Static dielectric constant tensor:
#      x y z
#    x 2.133820 0.000000 0.011660 
#    y 0.000000 2.098910 0.000000 
#    z 0.011660 0.000000 2.072500 
# 
# From -- ./inp_files/14174.got.cif
#   From: 2010.05.17/outbox.cif.g08.bks.cpg/sg11_8_cif.got.tgz:14174.got - 2010.06.03 12:22:45.
