data_PCOD9160169
_publ_section_title
;
Structure prediction by ZEFSAII (Michael W. Deem and Ramdas Pophale) SiO2 
 PCOD9160169
Probable space group: P 21/M
;
_chemical_formula_sum "Si O2"
_cell_formula_units_Z 22
_cell_length_a 8.036264
_cell_length_b 10.086003
_cell_length_c 13.308375
_cell_angle_alpha 90.000000
_cell_angle_beta 123.053814
_cell_angle_gamma 90.000000
_cell_volume 904.116828
_symmetry_space_group_name_H-M "P 21/M"
_symmetry_group_IT_number 11
_symmetry_cell_setting 'monoclinic'
loop_
_space_group_symop_operation_xyz
x,y,z
-x,1/2+y,-z
-x,-y,-z
x,1/2-y,z
loop_
_atom_site_type_symbol
_atom_site_label
_atom_site_fract_x
_atom_site_fract_y
_atom_site_fract_z
Si Si1 0.506439 0.891800 0.417107
Si Si2 0.914928 0.541492 0.306940
Si Si3 0.438292 0.967203 0.174039
Si Si4 0.847510 0.250000 0.994077
Si Si5 0.432890 0.250000 0.088672
Si Si6 0.115262 0.250000 0.541501
Si Si7 0.059397 0.250000 0.849040
Si Si8 0.902609 0.250000 0.229658
O O1 0.424223 0.750000 0.425743
O O2 0.405094 0.931183 0.279037
O O3 0.731145 0.861318 0.457445
O O4 0.500000 0.000000 0.500000
O O5 0.672387 0.556428 0.229456
O O6 0.988485 0.631114 0.423881
O O7 0.985209 0.619136 0.230471
O O8 0.952925 0.383589 0.307628
O O9 0.296651 0.877209 0.059521
O O10 0.392352 0.118521 0.137690
O O11 0.968774 0.250000 0.930283
O O12 0.973478 0.250000 0.138072
O O13 0.665127 0.250000 0.140791
O O14 0.295971 0.250000 0.946578
#
# Coordination Sequence:
#
# PCOD9160169 Si02
#       8
#     4   4   4   2   2   2   2   2
#     4   9  17  30  51  79 106 131 158 210 270 327
#     4   9  17  35  52  72 100 139 181 219 252 310
#     4  10  19  35  52  73 110 135 173 219 269 307
#     4  12  22  34  49  72 111 149 176 224 258 299
#     4  10  21  31  49  75  99 144 184 219 248 304
#     4   7  15  30  46  70 106 129 157 200 252 305
#     4  11  22  33  49  72 104 151 190 210 253 301
#     4  10  20  30  53  75  98 139 183 223 261 293
#
# _framework density 24.333138000000002
#
# number of rings (size 3 to 8) (size 9 to 14) (size 15 to 20)
#    0.545    1.818    0.909    3.273    1.273    5.818 
#    1.636    0.000    0.000    0.000    0.000   11.455 
#    0.000    0.000    0.000    0.000    0.000    0.000 
#
# Total GULP energy -122488.246925 kJ/mol
# GULP energy per Si atom -5567.647587 kJ/mol
# Density = 2.427775 g / cm^3
# Si number density = 24.333138 Si / 1000 Ang^3
#
#
#
# Elastic Constant Matrix: (Units=GPa)
#
#
# Indices 1 2 3 4 5 6 
#
# 1 75.7325 33.8758 28.1803 0.0000 -16.4989 0.0000
# 2 33.8758 215.3867 41.9141 0.0000 -26.4636 0.0000
# 3 28.1803 41.9141 79.6045 0.0000 -14.7893 0.0000
# 4 0.0000 0.0000 0.0000 27.3382 0.0000 -2.2150
# 5 -16.4989 -26.4636 -14.7893 0.0000 34.6917 0.0000
# 6 0.0000 0.0000 0.0000 -2.2150 0.0000 1.5749
#
#
#
# Elastic Compliance Matrix: (Units=1/GPa)
#
#
# Indices 1 2 3 4 5 6 
#
# 1 0.016411 -0.001120 -0.004266 0.000000 0.005131 0.000000
# 2 -0.001120 0.005559 -0.002000 0.000000 0.002855 0.000000
# 3 -0.004266 -0.002000 0.015709 0.000000 0.003142 0.000000
# 4 0.000000 0.000000 0.000000 0.041283 0.000000 0.058060
# 5 0.005131 0.002855 0.003142 0.000000 0.034783 0.000000
# 6 0.000000 0.000000 0.000000 0.058060 0.000000 0.716605
#
#
# Mechanical properties :
#
#
# Convention : Reuss Voigt Hill
#
# Bulk Modulus (GPa) = 43.65674 64.29600 53.97637
# Shear Modulus (GPa) = 5.86332 30.50454 18.18393
#
# Velocity S-wave (km/s) = 1.55397 3.54449 2.73663
# Velocity P-wave (km/s) = 4.60435 6.57509 5.67591
#
# Compressibility (1/GPa) = 0.02290597
#
# Stress axis : x y z
#
# Youngs Moduli (GPa) = 60.93493 179.88834 63.65693
#
# Poissons Ratio (x) = 0.20155 0.27158
# Poissons Ratio (y) = 0.06827 0.12731
# Poissons Ratio (z) = 0.25997 0.35976
#
# Static dielectric constant tensor:
#      x y z
#    x 1.979100 0.000000 0.031130 
#    y 0.000000 1.913810 0.000000 
#    z 0.031130 0.000000 2.011440 
# 
# From -- ./inp_files/46668.got.cif
#   From: 2010.05.17/outbox.cif.g08.bks.cpg/sg11_24_cif.got.tgz:46668.got - 2010.06.03 12:22:45.
