data_PCOD9160124
_publ_section_title
;
Structure prediction by ZEFSAII (Michael W. Deem and Ramdas Pophale) SiO2 
 PCOD9160124
Probable space group: P 21/M
;
_chemical_formula_sum "Si O2"
_cell_formula_units_Z 28
_cell_length_a 7.479058
_cell_length_b 19.054994
_cell_length_c 11.240354
_cell_angle_alpha 90.000000
_cell_angle_beta 48.222252
_cell_angle_gamma 90.000000
_cell_volume 1194.593424
_symmetry_space_group_name_H-M "P 21/M"
_symmetry_group_IT_number 11
_symmetry_cell_setting 'monoclinic'
loop_
_space_group_symop_operation_xyz
x,y,z
-x,1/2+y,-z
-x,-y,-z
x,1/2-y,z
loop_
_atom_site_type_symbol
_atom_site_label
_atom_site_fract_x
_atom_site_fract_y
_atom_site_fract_z
Si Si1 0.030867 0.597772 0.875143
Si Si2 0.120777 0.403797 0.319993
Si Si3 0.440455 0.827560 0.764923
Si Si4 0.182926 0.450811 0.803127
Si Si5 0.333319 0.326855 0.587428
Si Si6 0.721624 0.042693 0.846409
Si Si7 0.161277 0.830853 0.344561
O O1 0.933341 0.619168 0.791126
O O2 0.618042 0.621132 0.753380
O O3 0.223525 0.533894 0.769963
O O4 0.835155 0.565415 0.050070
O O5 0.838400 0.343666 0.105047
O O6 0.931936 0.367591 0.492723
O O7 0.138495 0.488337 0.303750
O O8 0.502577 0.750000 0.779084
O O9 0.486601 0.831150 0.602787
O O10 0.918597 0.442150 0.860972
O O11 0.347832 0.394230 0.665012
O O12 0.359302 0.250000 0.634190
O O13 0.076788 0.327927 0.633435
O O14 0.669423 0.114781 0.800558
O O15 0.500000 0.000000 0.000000
O O16 0.239959 0.750000 0.326201
#
# Coordination Sequence:
#
# PCOD9160124 Si02
#       7
#     4   4   4   4   4   4   4
#     4  10  21  36  57  84 115 151 190 237 286 340
#     4  10  20  37  60  86 117 154 196 243 292 353
#     4  10  21  37  58  84 112 145 189 238 290 345
#     4   9  19  36  54  82 116 150 193 233 287 352
#     4   8  16  33  56  80 109 146 186 233 287 344
#     4  10  19  34  59  87 120 158 201 249 298 355
#     4   9  18  35  58  83 116 157 199 245 300 358
#
# _framework density 23.438939000000001
#
# number of rings (size 3 to 8) (size 9 to 14) (size 15 to 20)
#    0.000    2.571    0.000    2.571    0.000    3.429 
#    0.000    8.571    0.000    0.857    0.000    0.000 
#    0.000    0.000    0.000    0.000    0.000    0.000 
#
# Total GULP energy -156307.385634 kJ/mol
# GULP energy per Si atom -5582.406630 kJ/mol
# Density = 2.338559 g / cm^3
# Si number density = 23.438939 Si / 1000 Ang^3
#
#
#
# Elastic Constant Matrix: (Units=GPa)
#
#
# Indices 1 2 3 4 5 6 
#
# 1 81.2639 16.7328 24.3918 0.0000 14.7506 0.0000
# 2 16.7328 115.0408 58.2267 0.0000 17.3144 0.0000
# 3 24.3918 58.2267 57.4651 0.0000 15.9242 0.0000
# 4 0.0000 0.0000 0.0000 18.7874 0.0000 -9.9359
# 5 14.7506 17.3144 15.9242 0.0000 30.7845 0.0000
# 6 0.0000 0.0000 0.0000 -9.9359 0.0000 5.6941
#
#
#
# Elastic Compliance Matrix: (Units=1/GPa)
#
#
# Indices 1 2 3 4 5 6 
#
# 1 0.014871 0.002215 -0.007280 0.000000 -0.004605 0.000000
# 2 0.002215 0.018190 -0.018960 0.000000 -0.001485 0.000000
# 3 -0.007280 -0.018960 0.041769 0.000000 -0.007454 0.000000
# 4 0.000000 0.000000 0.000000 0.689755 0.000000 1.203582
# 5 -0.004605 -0.001485 -0.007454 0.000000 0.039381 0.000000
# 6 0.000000 0.000000 0.000000 1.203582 0.000000 2.275800
#
#
# Mechanical properties :
#
#
# Convention : Reuss Voigt Hill
#
# Bulk Modulus (GPa) = 37.34243 50.27470 43.80857
# Shear Modulus (GPa) = 1.59401 21.34777 11.47089
#
# Velocity S-wave (km/s) = 0.82556 3.02119 2.21463
# Velocity P-wave (km/s) = 4.10793 5.80223 5.02698
#
# Compressibility (1/GPa) = 0.02677919
#
# Stress axis : x y z
#
# Youngs Moduli (GPa) = 67.24670 54.97416 23.94113
#
# Poissons Ratio (x) = -0.12177 0.17430
# Poissons Ratio (y) = -0.14895 0.45393
# Poissons Ratio (z) = 0.48957 1.04232
#
# Static dielectric constant tensor:
#      x y z
#    x 1.872830 0.000000 -0.030800 
#    y 0.000000 1.906680 0.000000 
#    z -0.030800 0.000000 1.916770 
# 
# From -- ./inp_files/32628.got.cif
#   From: 2010.05.17/outbox.cif.g08.bks.cpg/sg11_17_cif.got.tgz:32628.got - 2010.06.03 12:22:45.
