data_PCOD9160668
_publ_section_title
;
Structure prediction by ZEFSAII (Michael W. Deem and Ramdas Pophale) SiO2 
 PCOD9160668
Probable space group: P 21/M
;
_chemical_formula_sum "Si O2"
_cell_formula_units_Z 32
_cell_length_a 22.200999
_cell_length_b 8.389661
_cell_length_c 17.271087
_cell_angle_alpha 90.000000
_cell_angle_beta 152.796258
_cell_angle_gamma 90.000000
_cell_volume 1470.621935
_symmetry_space_group_name_H-M "P 21/M"
_symmetry_group_IT_number 11
_symmetry_cell_setting 'monoclinic'
loop_
_space_group_symop_operation_xyz
x,y,z
-x,1/2+y,-z
-x,-y,-z
x,1/2-y,z
loop_
_atom_site_type_symbol
_atom_site_label
_atom_site_fract_x
_atom_site_fract_y
_atom_site_fract_z
Si Si1 0.499983 0.057734 0.682674
Si Si2 0.324581 0.556277 0.982498
Si Si3 0.792468 0.942567 0.646328
Si Si4 0.353382 0.560720 0.843837
Si Si5 0.364072 0.440282 0.307965
Si Si6 0.898155 0.063898 0.153827
Si Si7 0.197323 0.432852 0.520305
Si Si8 0.922917 0.935821 0.011232
O O1 0.503120 0.250000 0.679942
O O2 0.541184 0.014603 0.817636
O O3 0.352361 0.006097 0.490375
O O4 0.610810 0.990069 0.752212
O O5 0.320736 0.750000 0.976089
O O6 0.309951 0.496651 0.878617
O O7 0.206632 0.506215 0.903740
O O8 0.795056 0.750000 0.650956
O O9 0.789247 0.995516 0.552232
O O10 0.932592 0.993727 0.843171
O O11 0.353900 0.750000 0.849819
O O12 0.269575 0.514431 0.673440
O O13 0.500000 0.500000 0.000000
O O14 0.500000 0.500000 0.500000
O O15 0.359690 0.250000 0.310129
O O16 0.222837 0.500252 0.179419
O O17 0.869135 0.250000 0.098257
O O18 0.041426 0.065636 0.356325
O O19 0.910401 0.962425 0.089800
O O20 0.245344 0.250000 0.572198
O O21 0.927804 0.750000 0.996929
#
# Coordination Sequence:
#
# PCOD9160668 Si02
#       8
#     4   4   4   4   4   4   4   4
#     4  10  19  36  62  87 111 143 189 237 278 329
#     4   9  18  33  55  78 103 141 186 228 275 331
#     4   9  19  35  59  86 113 153 195 229 274 336
#     4  11  22  35  50  71 103 144 187 231 282 334
#     4  11  24  40  60  88 118 148 182 224 277 335
#     4   9  17  33  57  78 101 142 186 225 275 334
#     4   9  18  33  52  77 109 142 184 229 273 329
#     4  10  20  35  56  85 118 146 181 230 277 325
#
# _framework density 21.759501
#
# number of rings (size 3 to 8) (size 9 to 14) (size 15 to 20)
#    0.000    2.250    1.250    2.625    0.000    6.500 
#    0.000    4.375    0.000    0.000    0.000    0.000 
#    0.000    0.000    0.000    0.000    0.000    0.000 
#
# Total GULP energy -178517.709864 kJ/mol
# GULP energy per Si atom -5578.678433 kJ/mol
# Density = 2.170998 g / cm^3
# Si number density = 21.759501 Si / 1000 Ang^3
#
#
#
# Elastic Constant Matrix: (Units=GPa)
#
#
# Indices 1 2 3 4 5 6 
#
# 1 74.6519 2.9972 38.1460 0.0000 12.7981 0.0000
# 2 2.9972 18.6973 18.6437 0.0000 2.9189 0.0000
# 3 38.1460 18.6437 134.7983 0.0000 14.5268 0.0000
# 4 0.0000 0.0000 0.0000 33.1559 0.0000 -1.1557
# 5 12.7981 2.9189 14.5268 0.0000 47.1817 0.0000
# 6 0.0000 0.0000 0.0000 -1.1557 0.0000 20.1873
#
#
#
# Elastic Compliance Matrix: (Units=1/GPa)
#
#
# Indices 1 2 3 4 5 6 
#
# 1 0.016174 0.002463 -0.004580 0.000000 -0.003129 0.000000
# 2 0.002463 0.062485 -0.009154 0.000000 -0.001715 0.000000
# 3 -0.004580 -0.009154 0.010122 0.000000 -0.001308 0.000000
# 4 0.000000 0.000000 0.000000 0.030221 0.000000 0.001730
# 5 -0.003129 -0.001715 -0.001308 0.000000 0.022552 0.000000
# 6 0.000000 0.000000 0.000000 0.001730 0.000000 0.049635
#
#
# Mechanical properties :
#
#
# Convention : Reuss Voigt Hill
#
# Bulk Modulus (GPa) = 15.09735 38.63572 26.86653
# Shear Modulus (GPa) = 21.20351 31.32903 26.26627
#
# Velocity S-wave (km/s) = 3.12500 3.79857 3.47813
# Velocity P-wave (km/s) = 4.46925 6.08549 5.33888
#
# Compressibility (1/GPa) = 0.06623680
#
# Stress axis : x y z
#
# Youngs Moduli (GPa) = 61.82934 16.00393 98.79773
#
# Poissons Ratio (x) = -0.03942 0.45253
# Poissons Ratio (y) = -0.15229 0.90443
# Poissons Ratio (z) = 0.28320 0.14650
#
# Static dielectric constant tensor:
#      x y z
#    x 1.858360 0.000000 -0.012420 
#    y 0.000000 1.766590 0.000000 
#    z -0.012420 0.000000 1.833800 
# 
# From -- ./inp_files/67147.got.cif
#   From: 2010.05.17/outbox.cif.g08.bks.cpg/sg11_34_cif.got.tgz:67147.got - 2010.06.03 12:22:45.
