data_PCOD9160578
_publ_section_title
;
Structure prediction by ZEFSAII (Michael W. Deem and Ramdas Pophale) SiO2 
 PCOD9160578
Probable space group: P 21/M
;
_chemical_formula_sum "Si O2"
_cell_formula_units_Z 32
_cell_length_a 14.607792
_cell_length_b 8.182816
_cell_length_c 20.519357
_cell_angle_alpha 90.000000
_cell_angle_beta 139.192158
_cell_angle_gamma 90.000000
_cell_volume 1602.923471
_symmetry_space_group_name_H-M "P 21/M"
_symmetry_group_IT_number 11
_symmetry_cell_setting 'monoclinic'
loop_
_space_group_symop_operation_xyz
x,y,z
-x,1/2+y,-z
-x,-y,-z
x,1/2-y,z
loop_
_atom_site_type_symbol
_atom_site_label
_atom_site_fract_x
_atom_site_fract_y
_atom_site_fract_z
Si Si1 0.902909 0.549945 0.802344
Si Si2 0.162809 0.050613 0.379845
Si Si3 0.217907 0.552560 0.009954
Si Si4 0.313513 0.444848 0.204150
Si Si5 0.864941 0.447082 0.272621
Si Si6 0.629619 0.947726 0.400067
Si Si7 0.644604 0.053018 0.046186
Si Si8 0.841159 0.555797 0.402012
O O1 0.903894 0.750000 0.801938
O O2 0.856250 0.496549 0.704933
O O3 0.794274 0.493782 0.798788
O O4 0.060718 0.499012 0.905814
O O5 0.163167 0.250000 0.378942
O O6 0.299300 0.998120 0.493601
O O7 0.024661 0.000411 0.345940
O O8 0.217367 0.750000 0.009161
O O9 0.323410 0.495709 0.009826
O O10 0.264115 0.498582 0.106100
O O11 0.309026 0.250000 0.203884
O O12 0.471223 0.498955 0.304161
O O13 0.865300 0.250000 0.274158
O O14 0.769987 0.501309 0.161190
O O15 0.806065 0.507028 0.309414
O O16 0.631924 0.750000 0.400528
O O17 0.730724 0.007185 0.395857
O O18 0.647174 0.250000 0.046334
O O19 0.500000 0.000000 0.000000
O O20 0.840273 0.750000 0.407071
O O21 0.000000 0.500000 0.500000
#
# Coordination Sequence:
#
# PCOD9160578 Si02
#       8
#     4   4   4   4   4   4   4   4
#     4   9  18  36  63  88 109 143 192 243 290 339
#     4   9  16  34  62  85 109 146 193 234 278 343
#     4  10  20  39  64  85 112 153 195 231 280 352
#     4  11  24  38  56  86 119 149 188 243 294 330
#     4  10  19  36  59  84 111 149 193 233 283 340
#     4  10  22  39  58  82 115 156 193 228 280 350
#     4  10  22  37  58  86 116 150 189 232 284 341
#     4  11  22  36  57  84 113 149 190 231 275 333
#
# _framework density 19.963522999999999
#
# number of rings (size 3 to 8) (size 9 to 14) (size 15 to 20)
#    0.000    2.000    2.500    1.125    1.750    2.500 
#    0.000    0.625    0.000    3.000    0.000    0.000 
#    0.000    0.000    0.000    0.000    0.000    0.000 
#
# Total GULP energy -178692.239606 kJ/mol
# GULP energy per Si atom -5584.132488 kJ/mol
# Density = 1.991809 g / cm^3
# Si number density = 19.963523 Si / 1000 Ang^3
#
#
#
# Elastic Constant Matrix: (Units=GPa)
#
#
# Indices 1 2 3 4 5 6 
#
# 1 172.2544 15.3800 103.8679 0.0000 -2.8048 0.0000
# 2 15.3800 10.3947 16.3913 0.0000 -1.7743 0.0000
# 3 103.8679 16.3913 161.0565 0.0000 -15.4591 0.0000
# 4 0.0000 0.0000 0.0000 19.3497 0.0000 -1.2597
# 5 -2.8048 -1.7743 -15.4591 0.0000 32.1094 0.0000
# 6 0.0000 0.0000 0.0000 -1.2597 0.0000 21.7995
#
#
#
# Elastic Compliance Matrix: (Units=1/GPa)
#
#
# Indices 1 2 3 4 5 6 
#
# 1 0.009912 -0.005516 -0.006057 0.000000 -0.002355 0.000000
# 2 -0.005516 0.117681 -0.008221 0.000000 0.002063 0.000000
# 3 -0.006057 -0.008221 0.011384 0.000000 0.004497 0.000000
# 4 0.000000 0.000000 0.000000 0.051875 0.000000 0.002998
# 5 -0.002355 0.002063 0.004497 0.000000 0.033217 0.000000
# 6 0.000000 0.000000 0.000000 0.002998 0.000000 0.046046
#
#
# Mechanical properties :
#
#
# Convention : Reuss Voigt Hill
#
# Bulk Modulus (GPa) = 10.06165 68.33157 39.19661
# Shear Modulus (GPa) = 14.58437 28.52283 21.55360
#
# Velocity S-wave (km/s) = 2.70580 3.78398 3.28937
# Velocity P-wave (km/s) = 3.84874 7.30711 5.83980
#
# Compressibility (1/GPa) = 0.09938726
#
# Stress axis : x y z
#
# Youngs Moduli (GPa) = 100.88939 8.49755 87.84578
#
# Poissons Ratio (x) = 0.04688 0.53208
# Poissons Ratio (y) = 0.55655 0.72220
# Poissons Ratio (z) = 0.61108 0.06986
#
# Static dielectric constant tensor:
#      x y z
#    x 1.699480 0.000000 -0.011000 
#    y 0.000000 1.687920 0.000000 
#    z -0.011000 0.000000 1.689390 
# 
# From -- ./inp_files/65233.got.cif
#   From: 2010.05.17/outbox.cif.g08.bks.cpg/sg11_33_cif.got.tgz:65233.got - 2010.06.03 12:22:45.
