data_PCOD9160022
_publ_section_title
;
Structure prediction by ZEFSAII (Michael W. Deem and Ramdas Pophale) SiO2 
 PCOD9160022
Probable space group: P 21/M
;
_chemical_formula_sum "Si O2"
_cell_formula_units_Z 32
_cell_length_a 12.324489
_cell_length_b 7.521815
_cell_length_c 28.400876
_cell_angle_alpha 90.000000
_cell_angle_beta 33.887683
_cell_angle_gamma 90.000000
_cell_volume 1467.979893
_symmetry_space_group_name_H-M "P 21/M"
_symmetry_group_IT_number 11
_symmetry_cell_setting 'monoclinic'
loop_
_space_group_symop_operation_xyz
x,y,z
-x,1/2+y,-z
-x,-y,-z
x,1/2-y,z
loop_
_atom_site_type_symbol
_atom_site_label
_atom_site_fract_x
_atom_site_fract_y
_atom_site_fract_z
Si Si1 0.785090 0.467030 0.819801
Si Si2 0.454667 0.948351 0.667400
Si Si3 0.875166 0.964379 0.496683
Si Si4 0.980852 0.456796 0.172197
Si Si5 0.345267 0.043762 0.981884
Si Si6 0.478428 0.549816 0.255952
Si Si7 0.867389 0.033964 0.684292
Si Si8 0.224663 0.959825 0.921170
O O1 0.781009 0.250000 0.821303
O O2 0.928025 0.531217 0.808862
O O3 0.563492 0.528671 0.911102
O O4 0.858934 0.525369 0.741453
O O5 0.431851 0.750000 0.654740
O O6 0.652231 0.032859 0.575952
O O7 0.238966 0.033330 0.746300
O O8 0.515960 0.936866 0.699775
O O9 0.863435 0.750000 0.499485
O O10 0.980082 0.024490 0.410692
O O11 0.000000 0.000000 0.500000
O O12 0.953870 0.250000 0.166834
O O13 0.152874 0.533871 0.076752
O O14 0.352210 0.250000 0.994534
O O15 0.311763 0.033934 0.938119
O O16 0.417547 0.750000 0.291097
O O17 0.336000 0.484885 0.266677
O O18 0.685119 0.548615 0.157123
O O19 0.879298 0.250000 0.682018
O O20 0.260569 0.750000 0.906418
O O21 0.000000 0.000000 0.000000
#
# Coordination Sequence:
#
# PCOD9160022 Si02
#       8
#     4   4   4   4   4   4   4   4
#     4  10  20  37  59  80 107 147 195 239 281 336
#     4  10  21  36  55  83 118 151 188 235 290 346
#     4  10  19  34  57  84 113 148 187 230 286 346
#     4  10  22  38  55  79 113 149 186 237 289 334
#     4  10  20  37  58  80 111 149 190 236 285 338
#     4  11  20  35  58  82 114 150 186 229 286 345
#     4   9  18  34  56  82 111 143 180 230 286 335
#     4  12  24  36  53  81 117 154 192 232 281 340
#
# _framework density 21.798662
#
# number of rings (size 3 to 8) (size 9 to 14) (size 15 to 20)
#    0.000    1.750    2.500    2.625    0.000    2.500 
#    0.000    1.250    0.000    0.000    0.000    0.000 
#    0.000    0.000    0.000    0.000    0.000    0.000 
#
# Total GULP energy -178508.526527 kJ/mol
# GULP energy per Si atom -5578.391454 kJ/mol
# Density = 2.174905 g / cm^3
# Si number density = 21.798662 Si / 1000 Ang^3
#
#
#
# Elastic Constant Matrix: (Units=GPa)
#
#
# Indices 1 2 3 4 5 6 
#
# 1 29.4806 -0.3604 7.7535 0.0000 1.2006 0.0000
# 2 -0.3604 67.1347 7.5109 0.0000 0.3206 0.0000
# 3 7.7535 7.5109 160.8830 0.0000 2.8948 0.0000
# 4 0.0000 0.0000 0.0000 -15.1489 0.0000 2.1498
# 5 1.2006 0.3206 2.8948 0.0000 28.0183 0.0000
# 6 0.0000 0.0000 0.0000 2.1498 0.0000 21.4661
#
#
#
# Elastic Compliance Matrix: (Units=1/GPa)
#
#
# Indices 1 2 3 4 5 6 
#
# 1 0.034413 0.000376 -0.001652 0.000000 -0.001308 0.000000
# 2 0.000376 0.014978 -0.000715 0.000000 -0.000114 0.000000
# 3 -0.001652 -0.000715 0.006339 0.000000 -0.000576 0.000000
# 4 0.000000 0.000000 0.000000 -0.065086 0.000000 0.006518
# 5 -0.001308 -0.000114 -0.000576 0.000000 0.035808 0.000000
# 6 0.000000 0.000000 0.000000 0.006518 0.000000 0.045932
#
#
# Mechanical properties :
#
#
# Convention : Reuss Voigt Hill
#
# Bulk Modulus (GPa) = 19.32507 31.92292 25.62400
# Shear Modulus (GPa) = 53.40931 23.04006 38.22468
#
# Velocity S-wave (km/s) = 4.95524 3.25460 4.19206
# Velocity P-wave (km/s) = 6.45164 5.36651 5.93393
#
# Compressibility (1/GPa) = 0.05174624
#
# Stress axis : x y z
#
# Youngs Moduli (GPa) = 29.05876 66.76454 157.75128
#
# Poissons Ratio (x) = -0.02509 0.26068
# Poissons Ratio (y) = -0.01092 0.11284
# Poissons Ratio (z) = 0.04802 0.04776
#
# Static dielectric constant tensor:
#      x y z
#    x 1.737400 0.000000 -0.009850 
#    y 0.000000 1.850310 0.000000 
#    z -0.009850 0.000000 1.848780 
# 
# From -- ./inp_files/38140.got.cif
#   From: 2010.05.17/outbox.cif.g08.bks.cpg/sg11_20_cif.got.tgz:38140.got - 2010.06.03 12:22:45.
