data_PCOD9160555
_publ_section_title
;
Structure prediction by ZEFSAII (Michael W. Deem and Ramdas Pophale) SiO2 
 PCOD9160555
Probable space group: P 21/M
;
_chemical_formula_sum "Si O2"
_cell_formula_units_Z 28
_cell_length_a 9.897125
_cell_length_b 14.904409
_cell_length_c 19.692467
_cell_angle_alpha 90.000000
_cell_angle_beta 25.677319
_cell_angle_gamma 90.000000
_cell_volume 1258.679004
_symmetry_space_group_name_H-M "P 21/M"
_symmetry_group_IT_number 11
_symmetry_cell_setting 'monoclinic'
loop_
_space_group_symop_operation_xyz
x,y,z
-x,1/2+y,-z
-x,-y,-z
x,1/2-y,z
loop_
_atom_site_type_symbol
_atom_site_label
_atom_site_fract_x
_atom_site_fract_y
_atom_site_fract_z
Si Si1 0.857649 0.037799 0.881138
Si Si2 0.558716 0.401432 0.565157
Si Si3 0.765278 0.603105 0.501606
Si Si4 0.710783 0.535819 0.085820
Si Si5 0.379113 0.851512 0.135625
Si Si6 0.238702 0.851805 0.384262
Si Si7 0.834012 0.348320 0.296675
O O1 0.973192 0.938895 0.804500
O O2 0.185023 0.091517 0.739516
O O3 0.662269 0.084645 0.910519
O O4 0.693037 0.033890 0.030115
O O5 0.696808 0.501300 0.511915
O O6 0.699136 0.349390 0.564664
O O7 0.664466 0.362955 0.445664
O O8 0.444631 0.651830 0.631626
O O9 0.058861 0.634168 0.323281
O O10 0.890336 0.621201 0.520270
O O11 0.665219 0.624088 0.057201
O O12 0.451312 0.566804 0.257851
O O13 0.000000 0.500000 0.000000
O O14 0.388948 0.750000 0.109441
O O15 0.303999 0.750000 0.328534
O O16 0.987192 0.250000 0.227734
#
# Coordination Sequence:
#
# PCOD9160555 Si02
#       7
#     4   4   4   4   4   4   4
#     4  11  22  41  61  91 127 163 206 255 314 369
#     4  11  20  37  61  91 126 161 199 256 312 363
#     4  10  19  36  58  91 122 157 203 245 307 369
#     4  11  23  42  61  85 121 163 204 259 313 363
#     4  11  22  40  68  93 120 162 211 261 304 368
#     4  11  23  38  62  90 118 162 212 256 304 369
#     4  11  21  36  62  90 127 165 199 252 308 368
#
# _framework density 22.245543000000001
#
# number of rings (size 3 to 8) (size 9 to 14) (size 15 to 20)
#    0.000    1.143    4.286    4.714    0.000    1.714 
#    0.000    0.000    0.000    1.714    0.000    0.000 
#    0.000    0.000    0.000    0.000    0.000    0.000 
#
# Total GULP energy -156066.310893 kJ/mol
# GULP energy per Si atom -5573.796818 kJ/mol
# Density = 2.219491 g / cm^3
# Si number density = 22.245543 Si / 1000 Ang^3
#
#
#
# Elastic Constant Matrix: (Units=GPa)
#
#
# Indices 1 2 3 4 5 6 
#
# 1 142.2629 36.8510 26.4567 0.0000 -34.6707 0.0000
# 2 36.8510 132.4613 17.4947 0.0000 -20.9669 0.0000
# 3 26.4567 17.4947 69.6302 0.0000 -19.7396 0.0000
# 4 0.0000 0.0000 0.0000 -2.9781 0.0000 3.4231
# 5 -34.6707 -20.9669 -19.7396 0.0000 36.7628 0.0000
# 6 0.0000 0.0000 0.0000 3.4231 0.0000 24.2386
#
#
#
# Elastic Compliance Matrix: (Units=1/GPa)
#
#
# Indices 1 2 3 4 5 6 
#
# 1 0.009406 -0.001275 -0.001115 0.000000 0.007545 0.000000
# 2 -0.001275 0.008517 -0.000730 0.000000 0.003263 0.000000
# 3 -0.001115 -0.000730 0.017165 0.000000 0.007749 0.000000
# 4 0.000000 0.000000 0.000000 -0.288885 0.000000 0.040798
# 5 0.007545 0.003263 0.007749 0.000000 0.040338 0.000000
# 6 0.000000 0.000000 0.000000 0.040798 0.000000 0.035495
#
#
# Mechanical properties :
#
#
# Convention : Reuss Voigt Hill
#
# Bulk Modulus (GPa) = 34.66496 56.21772 45.44134
# Shear Modulus (GPa) = -30.84363 29.17477 -0.83443
#
# Velocity S-wave (km/s) = -3.72762 3.62538 -0.61312
# Velocity P-wave (km/s) = 1.70593 6.54605 4.46881
#
# Compressibility (1/GPa) = 0.02884757
#
# Stress axis : x y z
#
# Youngs Moduli (GPa) = 106.32073 117.41146 58.25667
#
# Poissons Ratio (x) = 0.14973 0.06493
# Poissons Ratio (y) = 0.13558 0.04255
# Poissons Ratio (z) = 0.11850 0.08576
#
# Static dielectric constant tensor:
#      x y z
#    x 1.838660 0.000000 0.023690 
#    y 0.000000 4.246570 0.000000 
#    z 0.023690 0.000000 1.885700 
# 
# From -- ./inp_files/63874.got.cif
#   From: 2010.05.17/outbox.cif.g08.bks.cpg/sg11_32_cif.got.tgz:63874.got - 2010.06.03 12:22:45.
