data_PCOD9160851
_publ_section_title
;
Structure prediction by ZEFSAII (Michael W. Deem and Ramdas Pophale) SiO2 
 PCOD9160851
Probable space group: P 21/M
;
_chemical_formula_sum "Si O2"
_cell_formula_units_Z 28
_cell_length_a 14.463200
_cell_length_b 13.134094
_cell_length_c 8.545616
_cell_angle_alpha 90.000000
_cell_angle_beta 51.289380
_cell_angle_gamma 90.000000
_cell_volume 1266.711065
_symmetry_space_group_name_H-M "P 21/M"
_symmetry_group_IT_number 11
_symmetry_cell_setting 'monoclinic'
loop_
_space_group_symop_operation_xyz
x,y,z
-x,1/2+y,-z
-x,-y,-z
x,1/2-y,z
loop_
_atom_site_type_symbol
_atom_site_label
_atom_site_fract_x
_atom_site_fract_y
_atom_site_fract_z
Si Si1 0.473024 0.857544 0.169353
Si Si2 0.177398 0.079338 0.832078
Si Si3 0.006769 0.133207 0.435365
Si Si4 0.643198 0.358963 0.044598
Si Si5 0.011011 0.946087 0.212077
Si Si6 0.432569 0.046571 0.424763
Si Si7 0.261391 0.412275 0.071449
O O1 0.451326 0.750000 0.277441
O O2 0.431378 0.957289 0.300101
O O3 0.402243 0.855574 0.084330
O O4 0.615019 0.867949 0.999305
O O5 0.084099 0.110670 0.796740
O O6 0.300218 0.069943 0.612124
O O7 0.218158 0.133481 0.950267
O O8 0.111793 0.981088 0.981390
O O9 0.987063 0.250000 0.411447
O O10 0.955951 0.113450 0.663405
O O11 0.148274 0.108999 0.299259
O O12 0.966431 0.053271 0.342585
O O13 0.702915 0.250000 0.018874
O O14 0.521105 0.367332 0.271253
O O15 0.709733 0.467461 0.987414
O O16 0.500000 0.000000 0.500000
#
# Coordination Sequence:
#
# PCOD9160851 Si02
#       7
#     4   4   4   4   4   4   4
#     4  10  21  36  55  86 121 161 203 244 297 358
#     4  10  20  40  60  85 120 161 192 245 316 349
#     4  10  21  41  67  91 114 156 211 253 303 361
#     4  10  22  38  57  90 126 165 209 245 301 365
#     4   9  22  41  63  85 121 153 197 258 299 357
#     4  11  20  37  60  85 122 160 194 248 298 364
#     4  10  19  38  61  88 124 159 195 258 300 352
#
# _framework density 22.104489000000001
#
# number of rings (size 3 to 8) (size 9 to 14) (size 15 to 20)
#    0.000    2.000    2.857    2.143    4.000    0.571 
#    0.000   16.429    0.000    0.000    0.000    0.000 
#    0.000    0.000    0.000    0.000    0.000    0.000 
#
# Total GULP energy -155883.514511 kJ/mol
# GULP energy per Si atom -5567.268375 kJ/mol
# Density = 2.205418 g / cm^3
# Si number density = 22.104489 Si / 1000 Ang^3
#
#
#
# Elastic Constant Matrix: (Units=GPa)
#
#
# Indices 1 2 3 4 5 6 
#
# 1 64.1598 -0.4064 -13.8110 0.0000 9.1802 0.0000
# 2 -0.4064 125.2221 2.0542 0.0000 9.5462 0.0000
# 3 -13.8110 2.0542 76.7900 0.0000 -3.8826 0.0000
# 4 0.0000 0.0000 0.0000 -21.0977 0.0000 -5.7674
# 5 9.1802 9.5462 -3.8826 0.0000 32.5446 0.0000
# 6 0.0000 0.0000 0.0000 -5.7674 0.0000 4.4592
#
#
#
# Elastic Compliance Matrix: (Units=1/GPa)
#
#
# Indices 1 2 3 4 5 6 
#
# 1 0.016836 0.000353 0.002790 0.000000 -0.004520 0.000000
# 2 0.000353 0.008185 -0.000284 0.000000 -0.002534 0.000000
# 3 0.002790 -0.000284 0.013578 0.000000 0.000916 0.000000
# 4 0.000000 0.000000 0.000000 -0.035018 0.000000 -0.045291
# 5 -0.004520 -0.002534 0.000916 0.000000 0.032855 0.000000
# 6 0.000000 0.000000 0.000000 -0.045291 0.000000 0.165677
#
#
# Mechanical properties :
#
#
# Convention : Reuss Voigt Hill
#
# Bulk Modulus (GPa) = 22.56398 26.87172 24.71785
# Shear Modulus (GPa) = 23.67803 21.73689 22.70746
#
# Velocity S-wave (km/s) = 3.27645 3.13928 3.20860
# Velocity P-wave (km/s) = 4.95414 5.03221 4.99333
#
# Compressibility (1/GPa) = 0.04431842
#
# Stress axis : x y z
#
# Youngs Moduli (GPa) = 59.39788 122.17755 73.64735
#
# Poissons Ratio (x) = -0.04318 -0.20547
# Poissons Ratio (y) = -0.02099 0.02088
# Poissons Ratio (z) = -0.16572 0.03464
#
# Static dielectric constant tensor:
#      x y z
#    x 1.818570 0.000000 -0.023470 
#    y 0.000000 1.889390 0.000000 
#    z -0.023470 0.000000 1.837930 
# 
# From -- ./inp_files/22097.got.cif
#   From: 2010.05.17/outbox.cif.g08.bks.cpg/sg11_12_cif.got.tgz:22097.got - 2010.06.03 12:22:45.
