data_PCOD9160785
_publ_section_title
;
Structure prediction by ZEFSAII (Michael W. Deem and Ramdas Pophale) SiO2 
 PCOD9160785
Probable space group: P 21/M
;
_chemical_formula_sum "Si O2"
_cell_formula_units_Z 32
_cell_length_a 11.624639
_cell_length_b 14.750111
_cell_length_c 14.404707
_cell_angle_alpha 90.000000
_cell_angle_beta 41.931694
_cell_angle_gamma 90.000000
_cell_volume 1650.495625
_symmetry_space_group_name_H-M "P 21/M"
_symmetry_group_IT_number 11
_symmetry_cell_setting 'monoclinic'
loop_
_space_group_symop_operation_xyz
x,y,z
-x,1/2+y,-z
-x,-y,-z
x,1/2-y,z
loop_
_atom_site_type_symbol
_atom_site_label
_atom_site_fract_x
_atom_site_fract_y
_atom_site_fract_z
Si Si1 0.047973 0.459151 0.691918
Si Si2 0.808278 0.523549 0.582366
Si Si3 0.313657 0.038241 0.141175
Si Si4 0.728092 0.650230 0.003598
Si Si5 0.476904 0.042253 0.728203
Si Si6 0.887530 0.350659 0.260538
Si Si7 0.549064 0.350360 0.341993
Si Si8 0.289763 0.354898 0.671716
O O1 0.145318 0.423467 0.540862
O O2 0.111584 0.562387 0.673516
O O3 0.114614 0.402087 0.740125
O O4 0.843545 0.470541 0.796159
O O5 0.715845 0.557593 0.732133
O O6 0.679214 0.443096 0.627151
O O7 0.000000 0.500000 0.500000
O O8 0.287809 0.128011 0.095316
O O9 0.500000 0.000000 0.000000
O O10 0.661860 0.750000 0.066465
O O11 0.628567 0.575184 0.120387
O O12 0.930677 0.645876 0.901824
O O13 0.389410 0.092042 0.693324
O O14 0.469394 0.934853 0.714555
O O15 0.876182 0.250000 0.312157
O O16 0.733885 0.357457 0.280308
O O17 0.529651 0.250000 0.311707
O O18 0.416436 0.358277 0.507107
O O19 0.262502 0.250000 0.714350
#
# Coordination Sequence:
#
# PCOD9160785 Si02
#       8
#     4   4   4   4   4   4   4   4
#     4  10  19  37  62  88 123 162 197 254 311 359
#     4  10  21  36  64  91 115 155 209 253 307 368
#     4  10  20  40  62  83 116 164 206 254 304 364
#     4  10  22  38  59  87 118 159 209 255 301 362
#     4  12  20  36  63  84 126 162 199 250 313 366
#     4   9  18  35  57  86 122 158 200 244 296 364
#     4  10  20  34  56  86 120 159 199 242 302 375
#     4  11  22  36  58  92 129 161 201 252 314 379
#
# _framework density 19.388116
#
# number of rings (size 3 to 8) (size 9 to 14) (size 15 to 20)
#    0.000    1.750    3.750    1.500    0.000    0.500 
#    0.000    2.500    0.000    5.250    0.000    0.000 
#    0.000    0.000    0.000    0.000    0.000    0.000 
#
# Total GULP energy -178164.448896 kJ/mol
# GULP energy per Si atom -5567.639028 kJ/mol
# Density = 1.934399 g / cm^3
# Si number density = 19.388116 Si / 1000 Ang^3
#
#
#
# Elastic Constant Matrix: (Units=GPa)
#
#
# Indices 1 2 3 4 5 6 
#
# 1 118.7547 34.5794 34.0304 0.0000 -9.5925 0.0000
# 2 34.5794 102.0417 34.2029 0.0000 8.6104 0.0000
# 3 34.0304 34.2029 83.3389 0.0000 0.4338 0.0000
# 4 0.0000 0.0000 0.0000 24.4086 0.0000 1.3605
# 5 -9.5925 8.6104 0.4338 0.0000 35.0750 0.0000
# 6 0.0000 0.0000 0.0000 1.3605 0.0000 5.9086
#
#
#
# Elastic Compliance Matrix: (Units=1/GPa)
#
#
# Indices 1 2 3 4 5 6 
#
# 1 0.010416 -0.002782 -0.003130 0.000000 0.003570 0.000000
# 2 -0.002782 0.012374 -0.003923 0.000000 -0.003750 0.000000
# 3 -0.003130 -0.003923 0.014888 0.000000 -0.000077 0.000000
# 4 0.000000 0.000000 0.000000 0.041502 0.000000 -0.009556
# 5 0.003570 -0.003750 -0.000077 0.000000 0.030408 0.000000
# 6 0.000000 0.000000 0.000000 -0.009556 0.000000 0.171446
#
#
# Mechanical properties :
#
#
# Convention : Reuss Voigt Hill
#
# Bulk Modulus (GPa) = 55.53104 56.64010 56.08557
# Shear Modulus (GPa) = 16.30222 26.49994 21.40108
#
# Velocity S-wave (km/s) = 2.90286 3.70105 3.32599
# Velocity P-wave (km/s) = 6.31977 6.89500 6.61364
#
# Compressibility (1/GPa) = 0.01800795
#
# Stress axis : x y z
#
# Youngs Moduli (GPa) = 96.00495 80.81513 67.16928
#
# Poissons Ratio (x) = 0.22481 0.21025
# Poissons Ratio (y) = 0.26707 0.26350
# Poissons Ratio (z) = 0.30051 0.31703
#
# Static dielectric constant tensor:
#      x y z
#    x 1.738080 0.000000 -0.011970 
#    y 0.000000 1.689230 0.000000 
#    z -0.011970 0.000000 1.694760 
# 
# From -- ./inp_files/50372.got.cif
#   From: 2010.05.17/outbox.cif.g08.bks.cpg/sg11_26_cif.got.tgz:50372.got - 2010.06.03 12:22:45.
