data_PCOD9160985
_publ_section_title
;
Structure prediction by ZEFSAII (Michael W. Deem and Ramdas Pophale) SiO2 
 PCOD9160985
Probable space group: P 21/M
;
_chemical_formula_sum "Si O2"
_cell_formula_units_Z 32
_cell_length_a 15.446657
_cell_length_b 18.019192
_cell_length_c 20.600827
_cell_angle_alpha 90.000000
_cell_angle_beta 19.187258
_cell_angle_gamma 90.000000
_cell_volume 1884.503090
_symmetry_space_group_name_H-M "P 21/M"
_symmetry_group_IT_number 11
_symmetry_cell_setting 'monoclinic'
loop_
_space_group_symop_operation_xyz
x,y,z
-x,1/2+y,-z
-x,-y,-z
x,1/2-y,z
loop_
_atom_site_type_symbol
_atom_site_label
_atom_site_fract_x
_atom_site_fract_y
_atom_site_fract_z
Si Si1 0.545287 0.166151 0.227334
Si Si2 0.475946 0.834322 0.114315
Si Si3 0.202729 0.455858 0.051348
Si Si4 0.186468 0.544143 0.559413
Si Si5 0.963309 0.915037 0.423230
Si Si6 0.582749 0.915033 0.803764
Si Si7 0.115001 0.165675 0.294770
Si Si8 0.764295 0.014098 0.117807
O O1 0.615994 0.250000 0.192000
O O2 0.556338 0.148237 0.142127
O O3 0.711011 0.101818 0.144448
O O4 0.237587 0.148210 0.460888
O O5 0.407763 0.750000 0.181143
O O6 0.223455 0.878554 0.266837
O O7 0.625071 0.881328 0.063558
O O8 0.680660 0.831751 0.909675
O O9 0.934757 0.448176 0.282665
O O10 0.376541 0.520407 0.963056
O O11 0.175713 0.480119 0.995917
O O12 0.129442 0.618678 0.559145
O O13 0.489249 0.519867 0.339044
O O14 0.018060 0.479611 0.642273
O O15 0.794788 0.948036 0.602621
O O16 0.737551 0.878552 0.752704
O O17 0.052310 0.250000 0.358848
O O18 0.000000 0.000000 0.000000
#
# Coordination Sequence:
#
# PCOD9160985 Si02
#       8
#     4   4   4   4   4   4   4   4
#     4   8  16  31  51  75 103 133 164 215 263 300
#     4  10  20  31  46  75 113 146 176 205 239 300
#     4  10  20  36  55  75 103 139 174 213 262 308
#     4  10  20  36  55  75 103 139 174 213 262 308
#     4   9  18  29  50  77 105 141 173 211 240 302
#     4   9  18  29  50  77 105 141 173 211 240 302
#     4  10  20  31  46  75 113 146 176 205 239 300
#     4  10  22  39  57  79  99 125 178 227 267 318
#
# _framework density 16.980605000000001
#
# number of rings (size 3 to 8) (size 9 to 14) (size 15 to 20)
#    0.750    1.750    1.250    2.250    1.750    3.500 
#    0.000    1.250    0.000    6.750    0.000    0.000 
#    0.000    0.000    0.000    0.000    0.000    0.000 
#
# Total GULP energy -178185.628434 kJ/mol
# GULP energy per Si atom -5568.300889 kJ/mol
# Density = 1.694196 g / cm^3
# Si number density = 16.980605 Si / 1000 Ang^3
#
#
#
# Elastic Constant Matrix: (Units=GPa)
#
#
# Indices 1 2 3 4 5 6 
#
# 1 88.6610 48.1261 52.0481 0.0000 -15.9784 0.0000
# 2 48.1261 59.8226 36.5274 0.0000 -14.4212 0.0000
# 3 52.0481 36.5274 69.8057 0.0000 -7.2790 0.0000
# 4 0.0000 0.0000 0.0000 11.2105 0.0000 1.4206
# 5 -15.9784 -14.4212 -7.2790 0.0000 22.6932 0.0000
# 6 0.0000 0.0000 0.0000 1.4206 0.0000 10.0922
#
#
#
# Elastic Compliance Matrix: (Units=1/GPa)
#
#
# Indices 1 2 3 4 5 6 
#
# 1 0.026474 -0.011748 -0.012857 0.000000 0.007051 0.000000
# 2 -0.011748 0.033323 -0.007586 0.000000 0.010472 0.000000
# 3 -0.012857 -0.007586 0.027349 0.000000 -0.005101 0.000000
# 4 0.000000 0.000000 0.000000 0.090822 0.000000 -0.012785
# 5 0.007051 0.010472 -0.005101 0.000000 0.054049 0.000000
# 6 0.000000 0.000000 0.000000 -0.012785 0.000000 0.100886
#
#
# Mechanical properties :
#
#
# Convention : Reuss Voigt Hill
#
# Bulk Modulus (GPa) = 43.92608 54.63248 49.27928
# Shear Modulus (GPa) = 12.34953 14.23835 13.29394
#
# Velocity S-wave (km/s) = 2.69972 2.89884 2.80105
# Velocity P-wave (km/s) = 5.97014 6.59148 6.28849
#
# Compressibility (1/GPa) = 0.02276552
#
# Stress axis : x y z
#
# Youngs Moduli (GPa) = 37.77292 30.00925 36.56393
#
# Poissons Ratio (x) = 0.35254 0.47010
# Poissons Ratio (y) = 0.44374 0.27737
# Poissons Ratio (z) = 0.48564 0.22765
#
# Static dielectric constant tensor:
#      x y z
#    x 1.568760 0.000000 0.023950 
#    y 0.000000 1.597400 0.000000 
#    z 0.023950 0.000000 1.587790 
# 
# From -- ./inp_files/55113.got.cif
#   From: 2010.05.17/outbox.cif.g08.bks.cpg/sg11_28_cif.got.tgz:55113.got - 2010.06.03 12:22:45.
