data_PCOD9160813
_publ_section_title
;
Structure prediction by ZEFSAII (Michael W. Deem and Ramdas Pophale) SiO2 
 PCOD9160813
Probable space group: P 21/M
;
_chemical_formula_sum "Si O2"
_cell_formula_units_Z 28
_cell_length_a 10.159779
_cell_length_b 18.686783
_cell_length_c 17.860829
_cell_angle_alpha 90.000000
_cell_angle_beta 157.064910
_cell_angle_gamma 90.000000
_cell_volume 1321.409722
_symmetry_space_group_name_H-M "P 21/M"
_symmetry_group_IT_number 11
_symmetry_cell_setting 'monoclinic'
loop_
_space_group_symop_operation_xyz
x,y,z
-x,1/2+y,-z
-x,-y,-z
x,1/2-y,z
loop_
_atom_site_type_symbol
_atom_site_label
_atom_site_fract_x
_atom_site_fract_y
_atom_site_fract_z
Si Si1 0.379449 0.474968 0.682237
Si Si2 0.258657 0.575173 0.267455
Si Si3 0.200689 0.833154 0.377901
Si Si4 0.387041 0.170176 0.102015
Si Si5 0.609946 0.167292 0.066175
Si Si6 0.130149 0.574691 0.931485
Si Si7 0.547999 0.626353 0.709111
O O1 0.460146 0.427533 0.650689
O O2 0.557788 0.547904 0.750106
O O3 0.000000 0.500000 0.500000
O O4 0.560066 0.445937 0.851537
O O5 0.357668 0.616556 0.395407
O O6 0.102696 0.496157 0.202983
O O7 0.939942 0.620274 0.069731
O O8 0.308968 0.750000 0.428474
O O9 0.293585 0.862907 0.508047
O O10 0.796157 0.835730 0.157815
O O11 0.275563 0.250000 0.022269
O O12 0.534322 0.172442 0.261899
O O13 0.646221 0.147576 0.172925
O O14 0.720153 0.250000 0.111204
O O15 0.765261 0.110431 0.091264
O O16 0.912649 0.633994 0.862468
#
# Coordination Sequence:
#
# PCOD9160813 Si02
#       7
#     4   4   4   4   4   4   4
#     4  11  22  39  62  93 127 159 207 268 317 371
#     4  10  20  41  62  90 127 162 211 258 311 376
#     4  10  22  40  62  91 128 166 208 259 318 374
#     4  10  19  37  64  88 120 162 206 256 311 368
#     4   9  21  39  59  89 125 162 208 261 319 376
#     4  11  21  39  65  92 125 162 214 260 308 384
#     4  11  21  40  62  88 125 161 211 255 311 376
#
# _framework density 21.189492000000001
#
# number of rings (size 3 to 8) (size 9 to 14) (size 15 to 20)
#    0.000    1.714    2.857    3.429    0.000    5.714 
#    5.143    0.000    0.000    1.714    0.000    0.000 
#    0.000    0.000    0.000    0.000    0.000    0.000 
#
# Total GULP energy -156169.513189 kJ/mol
# GULP energy per Si atom -5577.482614 kJ/mol
# Density = 2.114126 g / cm^3
# Si number density = 21.189492 Si / 1000 Ang^3
#
#
#
# Elastic Constant Matrix: (Units=GPa)
#
#
# Indices 1 2 3 4 5 6 
#
# 1 179.9350 57.6964 39.7591 0.0000 -24.1964 0.0000
# 2 57.6964 64.9678 2.6956 0.0000 -11.9433 0.0000
# 3 39.7591 2.6956 53.3370 0.0000 -26.1125 0.0000
# 4 0.0000 0.0000 0.0000 -15.9169 0.0000 -57.4885
# 5 -24.1964 -11.9433 -26.1125 0.0000 40.8929 0.0000
# 6 0.0000 0.0000 0.0000 -57.4885 0.0000 -63.4256
#
#
#
# Elastic Compliance Matrix: (Units=1/GPa)
#
#
# Indices 1 2 3 4 5 6 
#
# 1 0.009830 -0.008712 -0.007689 0.000000 -0.001638 0.000000
# 2 -0.008712 0.024164 0.009026 0.000000 0.007666 0.000000
# 3 -0.007689 0.009026 0.033588 0.000000 0.019534 0.000000
# 4 0.000000 0.000000 0.000000 0.027632 0.000000 -0.025045
# 5 -0.001638 0.007666 0.019534 0.000000 0.038198 0.000000
# 6 0.000000 0.000000 0.000000 -0.025045 0.000000 0.006934
#
#
# Mechanical properties :
#
#
# Convention : Reuss Voigt Hill
#
# Bulk Modulus (GPa) = 18.92810 55.39356 37.16083
# Shear Modulus (GPa) = 28.95121 5.51601 17.23361
#
# Velocity S-wave (km/s) = 3.70036 1.61519 2.85495
# Velocity P-wave (km/s) = 5.21623 5.44768 5.33321
#
# Compressibility (1/GPa) = 0.05283149
#
# Stress axis : x y z
#
# Youngs Moduli (GPa) = 101.73291 41.38459 29.77286
#
# Poissons Ratio (x) = 0.36052 0.22892
# Poissons Ratio (y) = 0.88625 -0.26873
# Poissons Ratio (z) = 0.78222 -0.37353
#
# Static dielectric constant tensor:
#      x y z
#    x 1.875210 0.000000 -0.009110 
#    y 0.000000 1.840560 0.000000 
#    z -0.009110 0.000000 1.783570 
# 
# From -- ./inp_files/48343.got.cif
#   From: 2010.05.17/outbox.cif.g08.bks.cpg/sg11_25_cif.got.tgz:48343.got - 2010.06.03 12:22:45.
