data_PCOD9160913
_publ_section_title
;
Structure prediction by ZEFSAII (Michael W. Deem and Ramdas Pophale) SiO2 
 PCOD9160913
Probable space group: P 21/M
;
_chemical_formula_sum "Si O2"
_cell_formula_units_Z 26
_cell_length_a 16.419868
_cell_length_b 15.061108
_cell_length_c 5.275704
_cell_angle_alpha 90.000000
_cell_angle_beta 60.768853
_cell_angle_gamma 90.000000
_cell_volume 1138.545660
_symmetry_space_group_name_H-M "P 21/M"
_symmetry_group_IT_number 11
_symmetry_cell_setting 'monoclinic'
loop_
_space_group_symop_operation_xyz
x,y,z
-x,1/2+y,-z
-x,-y,-z
x,1/2-y,z
loop_
_atom_site_type_symbol
_atom_site_label
_atom_site_fract_x
_atom_site_fract_y
_atom_site_fract_z
Si Si1 0.257562 0.033672 0.598254
Si Si2 0.922353 0.847306 0.155935
Si Si3 0.336450 0.750000 0.728419
Si Si4 0.970022 0.102091 0.514828
Si Si5 0.437629 0.357941 0.437554
Si Si6 0.249007 0.582542 0.122285
Si Si7 0.476685 0.650010 0.191285
O O1 0.279811 0.972832 0.321686
O O2 0.157517 0.079110 0.702305
O O3 0.336447 0.108633 0.513298
O O4 0.251139 0.979766 0.869984
O O5 0.877761 0.750000 0.213068
O O6 0.989628 0.852173 0.295607
O O7 0.981737 0.862214 0.811951
O O8 0.377677 0.673658 0.465190
O O9 0.303710 0.671755 0.973097
O O10 0.859160 0.109283 0.668325
O O11 0.000000 0.000000 0.500000
O O12 0.447435 0.250000 0.450374
O O13 0.466757 0.395268 0.667108
O O14 0.507603 0.389087 0.108541
O O15 0.519452 0.750000 0.093346
#
# Coordination Sequence:
#
# PCOD9160913 Si02
#       7
#     4   4   2   4   4   4   4
#     4  12  24  43  65 103 134 170 220 281 329 392
#     4  12  25  42  69 102 138 179 230 272 335 404
#     4  10  26  48  68  94 130 178 224 276 324 412
#     4  12  23  46  67  94 141 185 220 277 339 381
#     4  10  19  39  69  95 124 170 207 258 335 398
#     4  12  27  43  67  96 134 177 226 276 330 389
#     4   8  19  38  66  85 128 165 207 262 332 377
#
# _framework density 22.836151999999998
#
# number of rings (size 3 to 8) (size 9 to 14) (size 15 to 20)
#    0.462    0.615    3.077    3.231    2.154    3.077 
#    0.000    9.231    0.000    0.000    0.000    0.000 
#    0.000    0.000    0.000    0.000    0.000    0.000 
#
# Total GULP energy -144822.568960 kJ/mol
# GULP energy per Si atom -5570.098806 kJ/mol
# Density = 2.278418 g / cm^3
# Si number density = 22.836152 Si / 1000 Ang^3
#
#
#
# Elastic Constant Matrix: (Units=GPa)
#
#
# Indices 1 2 3 4 5 6 
#
# 1 47.5302 14.6538 32.1661 0.0000 15.2230 0.0000
# 2 14.6538 68.9423 36.9295 0.0000 22.4827 0.0000
# 3 32.1661 36.9295 120.7405 0.0000 20.9066 0.0000
# 4 0.0000 0.0000 0.0000 90.2494 0.0000 -39.9363
# 5 15.2230 22.4827 20.9066 0.0000 32.0636 0.0000
# 6 0.0000 0.0000 0.0000 -39.9363 0.0000 63.4448
#
#
#
# Elastic Compliance Matrix: (Units=1/GPa)
#
#
# Indices 1 2 3 4 5 6 
#
# 1 0.028030 0.000372 -0.005898 0.000000 -0.009723 0.000000
# 2 0.000372 0.020603 -0.004361 0.000000 -0.011780 0.000000
# 3 -0.005898 -0.004361 0.011468 0.000000 -0.001619 0.000000
# 4 0.000000 0.000000 0.000000 0.015358 0.000000 0.009668
# 5 -0.009723 -0.011780 -0.001619 0.000000 0.045120 0.000000
# 6 0.000000 0.000000 0.000000 0.009668 0.000000 0.021847
#
#
# Mechanical properties :
#
#
# Convention : Reuss Voigt Hill
#
# Bulk Modulus (GPa) = 24.79666 44.96797 34.88232
# Shear Modulus (GPa) = 28.46691 47.38247 37.92469
#
# Velocity S-wave (km/s) = 3.53451 4.56004 4.07963
# Velocity P-wave (km/s) = 5.24777 6.88909 6.12367
#
# Compressibility (1/GPa) = 0.04032801
#
# Stress axis : x y z
#
# Youngs Moduli (GPa) = 35.67616 48.53562 87.20183
#
# Poissons Ratio (x) = -0.01806 0.51428
# Poissons Ratio (y) = -0.01328 0.38030
# Poissons Ratio (z) = 0.21040 0.21167
#
# Static dielectric constant tensor:
#      x y z
#    x 1.890630 0.000000 0.013710 
#    y 0.000000 1.842670 0.000000 
#    z 0.013710 0.000000 1.819850 
# 
# From -- ./inp_files/7850.got.cif
#   From: 2010.05.17/outbox.cif.g08.bks.cpg/sg11_4_cif.got.tgz:7850.got - 2010.06.03 12:22:45.
