data_PCOD9160787
_publ_section_title
;
Structure prediction by ZEFSAII (Michael W. Deem and Ramdas Pophale) SiO2 
 PCOD9160787
Probable space group: P 21/M
;
_chemical_formula_sum "Si O2"
_cell_formula_units_Z 28
_cell_length_a 21.771140
_cell_length_b 8.128695
_cell_length_c 15.028291
_cell_angle_alpha 90.000000
_cell_angle_beta 150.784346
_cell_angle_gamma 90.000000
_cell_volume 1298.131665
_symmetry_space_group_name_H-M "P 21/M"
_symmetry_group_IT_number 11
_symmetry_cell_setting 'monoclinic'
loop_
_space_group_symop_operation_xyz
x,y,z
-x,1/2+y,-z
-x,-y,-z
x,1/2-y,z
loop_
_atom_site_type_symbol
_atom_site_label
_atom_site_fract_x
_atom_site_fract_y
_atom_site_fract_z
Si Si1 0.401027 0.446882 0.950804
Si Si2 0.107461 0.553386 0.564321
Si Si3 0.871291 0.557574 0.791599
Si Si4 0.246153 0.445414 0.088138
Si Si5 0.631006 0.061805 0.581977
Si Si6 0.035393 0.549800 0.272044
Si Si7 0.564473 0.951653 0.809284
O O1 0.401990 0.250000 0.952381
O O2 0.253209 0.497076 0.759331
O O3 0.500000 0.500000 0.000000
O O4 0.450628 0.508359 0.109557
O O5 0.108341 0.750000 0.568167
O O6 0.067345 0.503204 0.413350
O O7 0.000000 0.500000 0.500000
O O8 0.849952 0.750000 0.784328
O O9 0.763012 0.450581 0.698496
O O10 0.878227 0.526019 0.695094
O O11 0.000000 0.500000 0.000000
O O12 0.233440 0.250000 0.066761
O O13 0.342878 0.481390 0.289861
O O14 0.301958 0.500294 0.064417
O O15 0.106716 0.509109 0.928787
O O16 0.594670 0.250000 0.552747
O O17 0.535387 0.987414 0.389429
O O18 0.042422 0.750000 0.273655
O O19 0.556897 0.750000 0.800593
#
# Coordination Sequence:
#
# PCOD9160787 Si02
#       7
#     4   4   4   4   4   4   4
#     4  11  24  45  68  95 129 173 222 277 334 393
#     4  11  24  44  70 100 132 172 218 274 335 395
#     4  12  24  39  59  87 122 161 206 256 308 368
#     4  10  19  37  62  89 120 160 202 248 301 368
#     4  11  22  37  59  89 123 162 203 249 304 369
#     4  10  22  39  63  90 124 165 206 252 314 376
#     4   9  21  40  63  87 121 165 205 247 312 375
#
# _framework density 21.569461
#
# number of rings (size 3 to 8) (size 9 to 14) (size 15 to 20)
#    0.000    1.429    1.429    3.857    2.000    3.429 
#    0.000    5.714    0.000    0.000    0.000    0.000 
#    0.000    0.000    0.000    0.000    0.000    0.000 
#
# Total GULP energy -156358.951637 kJ/mol
# GULP energy per Si atom -5584.248273 kJ/mol
# Density = 2.152037 g / cm^3
# Si number density = 21.569461 Si / 1000 Ang^3
#
#
#
# Elastic Constant Matrix: (Units=GPa)
#
#
# Indices 1 2 3 4 5 6 
#
# 1 175.1782 7.2340 45.5361 0.0000 -8.1834 0.0000
# 2 7.2340 36.1081 3.4308 0.0000 -0.6010 0.0000
# 3 45.5361 3.4308 93.5298 0.0000 -0.8707 0.0000
# 4 0.0000 0.0000 0.0000 27.0628 0.0000 -0.2852
# 5 -8.1834 -0.6010 -0.8707 0.0000 31.9156 0.0000
# 6 0.0000 0.0000 0.0000 -0.2852 0.0000 31.1796
#
#
#
# Elastic Compliance Matrix: (Units=1/GPa)
#
#
# Indices 1 2 3 4 5 6 
#
# 1 0.006653 -0.001003 -0.003187 0.000000 0.001600 0.000000
# 2 -0.001003 0.027951 -0.000534 0.000000 0.000255 0.000000
# 3 -0.003187 -0.000534 0.012259 0.000000 -0.000493 0.000000
# 4 0.000000 0.000000 0.000000 0.036955 0.000000 0.000338
# 5 0.001600 0.000255 -0.000493 0.000000 0.031734 0.000000
# 6 0.000000 0.000000 0.000000 0.000338 0.000000 0.032075
#
#
# Mechanical properties :
#
#
# Convention : Reuss Voigt Hill
#
# Bulk Modulus (GPa) = 26.72942 46.35755 36.54349
# Shear Modulus (GPa) = 29.49015 34.60593 32.04804
#
# Velocity S-wave (km/s) = 3.70160 4.00984 3.85880
# Velocity P-wave (km/s) = 5.53970 6.55570 6.06900
#
# Compressibility (1/GPa) = 0.03741196
#
# Stress axis : x y z
#
# Youngs Moduli (GPa) = 150.30317 35.77730 81.57497
#
# Poissons Ratio (x) = 0.03590 0.26002
# Poissons Ratio (y) = 0.15082 0.04359
# Poissons Ratio (z) = 0.47909 0.01912
#
# Static dielectric constant tensor:
#      x y z
#    x 1.797050 0.000000 0.018400 
#    y 0.000000 1.766690 0.000000 
#    z 0.018400 0.000000 1.821980 
# 
# From -- ./inp_files/54634.got.cif
#   From: 2010.05.17/outbox.cif.g08.bks.cpg/sg11_28_cif.got.tgz:54634.got - 2010.06.03 12:22:45.
