data_PCOD9160019
_publ_section_title
;
Structure prediction by ZEFSAII (Michael W. Deem and Ramdas Pophale) SiO2 
 PCOD9160019
Probable space group: P 21/M
;
_chemical_formula_sum "Si O2"
_cell_formula_units_Z 28
_cell_length_a 17.835516
_cell_length_b 8.587100
_cell_length_c 14.679366
_cell_angle_alpha 90.000000
_cell_angle_beta 138.367136
_cell_angle_gamma 90.000000
_cell_volume 1493.618640
_symmetry_space_group_name_H-M "P 21/M"
_symmetry_group_IT_number 11
_symmetry_cell_setting 'monoclinic'
loop_
_space_group_symop_operation_xyz
x,y,z
-x,1/2+y,-z
-x,-y,-z
x,1/2-y,z
loop_
_atom_site_type_symbol
_atom_site_label
_atom_site_fract_x
_atom_site_fract_y
_atom_site_fract_z
Si Si1 0.374926 0.065317 0.867020
Si Si2 0.271511 0.562251 0.234718
Si Si3 0.544731 0.435077 0.736397
Si Si4 0.906499 0.935588 0.071200
Si Si5 0.675980 0.434846 0.376789
Si Si6 0.257581 0.933368 0.934549
Si Si7 0.164328 0.939999 0.322373
O O1 0.378718 0.250000 0.879576
O O2 0.338705 0.018755 0.732647
O O3 0.291608 0.995491 0.867024
O O4 0.500000 0.000000 0.000000
O O5 0.275525 0.750000 0.237904
O O6 0.387384 0.510067 0.291649
O O7 0.243656 0.507732 0.310900
O O8 0.168242 0.512362 0.075925
O O9 0.519717 0.250000 0.706581
O O10 0.433429 0.527695 0.661059
O O11 0.634051 0.454029 0.900433
O O12 0.904589 0.750000 0.056826
O O13 0.035899 0.989969 0.189373
O O14 0.844817 0.978995 0.109445
O O15 0.682270 0.250000 0.366484
O O16 0.783204 0.487211 0.533654
O O17 0.233170 0.750000 0.909338
O O18 0.164720 0.750000 0.321766
#
# Coordination Sequence:
#
# PCOD9160019 Si02
#       7
#     4   4   4   4   4   4   4
#     4  12  23  37  59  86 112 141 181 225 274 328
#     4   9  18  35  57  79 109 147 189 232 279 324
#     4   9  18  32  52  79 111 142 179 228 280 326
#     4  10  19  34  57  84 112 142 188 235 275 324
#     4  11  22  36  55  79 112 150 187 225 277 333
#     4  10  20  36  58  84 113 142 179 227 280 326
#     4   9  20  37  55  78 111 152 189 231 277 323
#
# _framework density 18.746418999999999
#
# number of rings (size 3 to 8) (size 9 to 14) (size 15 to 20)
#    0.000    2.000    1.429    3.857    0.000    2.857 
#    0.000    5.714    0.000    0.000    0.000    0.000 
#    0.000    0.000    0.000    0.000    0.000    0.000 
#
# Total GULP energy -156348.146482 kJ/mol
# GULP energy per Si atom -5583.862374 kJ/mol
# Density = 1.870375 g / cm^3
# Si number density = 18.746419 Si / 1000 Ang^3
#
#
#
# Elastic Constant Matrix: (Units=GPa)
#
#
# Indices 1 2 3 4 5 6 
#
# 1 58.6339 -15.4457 -1.9206 0.0000 -20.1861 0.0000
# 2 -15.4457 10.6271 -13.7389 0.0000 0.9433 0.0000
# 3 -1.9206 -13.7389 23.0023 0.0000 -19.6024 0.0000
# 4 0.0000 0.0000 0.0000 18.4231 0.0000 -0.0650
# 5 -20.1861 0.9433 -19.6024 0.0000 19.8814 0.0000
# 6 0.0000 0.0000 0.0000 -0.0650 0.0000 26.1362
#
#
#
# Elastic Compliance Matrix: (Units=1/GPa)
#
#
# Indices 1 2 3 4 5 6 
#
# 1 0.006699 -0.017810 -0.022292 0.000000 -0.014332 0.000000
# 2 -0.017810 0.017988 -0.043066 0.000000 -0.061398 0.000000
# 3 -0.022292 -0.043066 -0.010366 0.000000 -0.030811 0.000000
# 4 0.000000 0.000000 0.000000 0.054280 0.000000 0.000135
# 5 -0.014332 -0.061398 -0.030811 0.000000 0.008282 0.000000
# 6 0.000000 0.000000 0.000000 0.000135 0.000000 0.038261
#
#
# Mechanical properties :
#
#
# Convention : Reuss Voigt Hill
#
# Bulk Modulus (GPa) = -6.57834 3.33923 -1.61956
# Shear Modulus (GPa) = 21.66314 21.11273 21.38793
#
# Velocity S-wave (km/s) = 3.40308 3.35957 3.38140
# Velocity P-wave (km/s) = 3.45319 4.10294 3.79201
#
# Compressibility (1/GPa) = -0.15201400
#
# Stress axis : x y z
#
# Youngs Moduli (GPa) = 149.27171 55.59360 -96.46524
#
# Poissons Ratio (x) = 0.99011 -2.15036
# Poissons Ratio (y) = 2.65850 -4.15436
# Poissons Ratio (z) = 3.32750 2.39419
#
# Static dielectric constant tensor:
#      x y z
#    x 1.648830 0.000000 -0.001780 
#    y 0.000000 1.635710 0.000000 
#    z -0.001780 0.000000 1.633860 
# 
# From -- ./inp_files/53300.got.cif
#   From: 2010.05.17/outbox.cif.g08.bks.cpg/sg11_27_cif.got.tgz:53300.got - 2010.06.03 12:22:45.
