data_PCOD9160814
_publ_section_title
;
Structure prediction by ZEFSAII (Michael W. Deem and Ramdas Pophale) SiO2 
 PCOD9160814
Probable space group: P 21/M
;
_chemical_formula_sum "Si O2"
_cell_formula_units_Z 28
_cell_length_a 16.737501
_cell_length_b 15.137629
_cell_length_c 5.266297
_cell_angle_alpha 90.000000
_cell_angle_beta 116.061900
_cell_angle_gamma 90.000000
_cell_volume 1198.629199
_symmetry_space_group_name_H-M "P 21/M"
_symmetry_group_IT_number 11
_symmetry_cell_setting 'monoclinic'
loop_
_space_group_symop_operation_xyz
x,y,z
-x,1/2+y,-z
-x,-y,-z
x,1/2-y,z
loop_
_atom_site_type_symbol
_atom_site_label
_atom_site_fract_x
_atom_site_fract_y
_atom_site_fract_z
Si Si1 0.312210 0.405885 0.187985
Si Si2 0.136644 0.647367 0.006134
Si Si3 0.801986 0.004526 0.306307
Si Si4 0.316361 0.912672 0.496087
Si Si5 0.886886 0.750000 0.311615
Si Si6 0.033403 0.075497 0.352797
Si Si7 0.769243 0.750000 0.646595
Si Si8 0.505475 0.562346 0.757397
O O1 0.319740 0.502685 0.319253
O O2 0.400961 0.387750 0.149594
O O3 0.224620 0.420216 0.897026
O O4 0.291449 0.334447 0.372159
O O5 0.124366 0.750000 0.933250
O O6 0.158025 0.586017 0.793920
O O7 0.041282 0.605342 0.953602
O O8 0.226489 0.639750 0.299909
O O9 0.709510 0.043050 0.275565
O O10 0.872047 0.965375 0.607259
O O11 0.416316 0.876897 0.636800
O O12 0.945782 0.663593 0.457566
O O13 0.847343 0.750000 0.971367
O O14 0.810732 0.750000 0.426339
O O15 0.000000 0.000000 0.500000
O O16 0.500000 0.500000 0.500000
O O17 0.500000 0.500000 0.000000
#
# Coordination Sequence:
#
# PCOD9160814 Si02
#       8
#     4   4   4   4   2   4   2   4
#     4  10  21  38  62  95 128 166 214 273 334 400
#     4  10  22  39  56  87 131 171 220 275 340 397
#     4  10  19  37  64  89 121 166 228 272 332 402
#     4  10  21  38  63  88 123 173 221 271 326 401
#     4  12  24  46  66  97 135 182 228 284 348 411
#     4  10  21  41  63  93 131 176 231 283 340 408
#     4  12  26  40  68  97 141 170 216 282 348 405
#     4  10  20  37  67  93 124 165 217 265 324 398
#
# _framework density 23.360019999999999
#
# number of rings (size 3 to 8) (size 9 to 14) (size 15 to 20)
#    0.000    1.714    3.571    0.857    0.000    1.143 
#    6.429    0.000    0.000    0.000    0.000    0.000 
#    0.000    0.000    0.000    0.000    0.000    0.000 
#
# Total GULP energy -156058.977949 kJ/mol
# GULP energy per Si atom -5573.534927 kJ/mol
# Density = 2.330685 g / cm^3
# Si number density = 23.360020 Si / 1000 Ang^3
#
#
#
# Elastic Constant Matrix: (Units=GPa)
#
#
# Indices 1 2 3 4 5 6 
#
# 1 89.6096 31.0446 4.3888 0.0000 6.9969 0.0000
# 2 31.0446 99.6571 22.3204 0.0000 15.0801 0.0000
# 3 4.3888 22.3204 57.6997 0.0000 -3.0987 0.0000
# 4 0.0000 0.0000 0.0000 8.9788 0.0000 -6.8080
# 5 6.9969 15.0801 -3.0987 0.0000 38.3480 0.0000
# 6 0.0000 0.0000 0.0000 -6.8080 0.0000 18.0537
#
#
#
# Elastic Compliance Matrix: (Units=1/GPa)
#
#
# Indices 1 2 3 4 5 6 
#
# 1 0.012547 -0.003919 0.000524 0.000000 -0.000706 0.000000
# 2 -0.003919 0.013117 -0.005037 0.000000 -0.004850 0.000000
# 3 0.000524 -0.005037 0.019425 0.000000 0.003455 0.000000
# 4 0.000000 0.000000 0.000000 0.155969 0.000000 0.058815
# 5 -0.000706 -0.004850 0.003455 0.000000 0.028392 0.000000
# 6 0.000000 0.000000 0.000000 0.058815 0.000000 0.077569
#
#
# Mechanical properties :
#
#
# Convention : Reuss Voigt Hill
#
# Bulk Modulus (GPa) = 35.42909 40.27490 37.85199
# Shear Modulus (GPa) = 15.00186 25.69028 20.34607
#
# Velocity S-wave (km/s) = 2.53692 3.31985 2.95444
# Velocity P-wave (km/s) = 4.87655 5.65452 5.27988
#
# Compressibility (1/GPa) = 0.02822540
#
# Stress axis : x y z
#
# Youngs Moduli (GPa) = 79.70233 76.23571 51.47968
#
# Poissons Ratio (x) = 0.29877 -0.02696
# Poissons Ratio (y) = 0.31235 0.25928
# Poissons Ratio (z) = -0.04175 0.38397
#
# Static dielectric constant tensor:
#      x y z
#    x 2.021240 0.000000 0.114310 
#    y 0.000000 1.870610 0.000000 
#    z 0.114310 0.000000 1.901030 
# 
# From -- ./inp_files/8171.got.cif
#   From: 2010.05.17/outbox.cif.g08.bks.cpg/sg11_5_cif.got.tgz:8171.got - 2010.06.03 12:22:45.
