data_PCOD9160094
_publ_section_title
;
Structure prediction by ZEFSAII (Michael W. Deem and Ramdas Pophale) SiO2 
 PCOD9160094
Probable space group: P 21/M
;
_chemical_formula_sum "Si O2"
_cell_formula_units_Z 24
_cell_length_a 23.854664
_cell_length_b 8.376113
_cell_length_c 11.346011
_cell_angle_alpha 90.000000
_cell_angle_beta 31.198707
_cell_angle_gamma 90.000000
_cell_volume 1174.343781
_symmetry_space_group_name_H-M "P 21/M"
_symmetry_group_IT_number 11
_symmetry_cell_setting 'monoclinic'
loop_
_space_group_symop_operation_xyz
x,y,z
-x,1/2+y,-z
-x,-y,-z
x,1/2-y,z
loop_
_atom_site_type_symbol
_atom_site_label
_atom_site_fract_x
_atom_site_fract_y
_atom_site_fract_z
Si Si1 0.269193 0.058157 0.657936
Si Si2 0.695747 0.557249 0.895177
Si Si3 0.376536 0.442709 0.225783
Si Si4 0.072607 0.940174 0.480016
Si Si5 0.023691 0.056524 0.092976
Si Si6 0.525164 0.059714 0.583188
O O1 0.266147 0.250000 0.658856
O O2 0.315628 0.997282 0.450380
O O3 0.359468 0.007972 0.587461
O O4 0.147297 0.005171 0.896741
O O5 0.701270 0.750000 0.894535
O O6 0.690749 0.509123 0.767616
O O7 0.802051 0.487556 0.764248
O O8 0.578259 0.505704 0.154220
O O9 0.379651 0.250000 0.222195
O O10 0.500000 0.500000 0.000000
O O11 0.061396 0.750000 0.502073
O O12 0.040850 0.997117 0.671650
O O13 0.000000 0.000000 0.500000
O O14 0.016178 0.250000 0.102713
O O15 0.000000 0.000000 0.000000
O O16 0.529722 0.250000 0.582987
O O17 0.500000 0.000000 0.500000
#
# Coordination Sequence:
#
# PCOD9160094 Si02
#       6
#     4   4   4   4   4   4
#     4  10  21  38  62  90 123 159 197 247 306 365
#     4  10  22  41  63  88 123 162 201 251 306 365
#     4  10  19  34  58  88 120 154 193 240 298 361
#     4  11  25  43  65  94 126 165 213 263 314 373
#     4  10  23  43  66  93 126 165 210 260 313 370
#     4  11  24  40  60  88 122 160 204 251 304 365
#
# _framework density 20.436948000000001
#
# number of rings (size 3 to 8) (size 9 to 14) (size 15 to 20)
#    0.000    1.667    1.667    2.000    2.333    5.333 
#    0.000    0.000    0.000    0.000    0.000    0.000 
#    0.000    0.000    0.000    0.000    0.000    0.000 
#
# Total GULP energy -133914.362463 kJ/mol
# GULP energy per Si atom -5579.765103 kJ/mol
# Density = 2.039043 g / cm^3
# Si number density = 20.436948 Si / 1000 Ang^3
#
#
#
# Elastic Constant Matrix: (Units=GPa)
#
#
# Indices 1 2 3 4 5 6 
#
# 1 136.0077 7.4051 28.4982 0.0000 -19.7061 0.0000
# 2 7.4051 8.0406 8.3110 0.0000 -1.5482 0.0000
# 3 28.4982 8.3110 81.8094 0.0000 -20.9716 0.0000
# 4 0.0000 0.0000 0.0000 25.0949 0.0000 -4.3004
# 5 -19.7061 -1.5482 -20.9716 0.0000 41.1358 0.0000
# 6 0.0000 0.0000 0.0000 -4.3004 0.0000 35.0256
#
#
#
# Elastic Compliance Matrix: (Units=1/GPa)
#
#
# Indices 1 2 3 4 5 6 
#
# 1 0.008425 -0.005524 -0.001602 0.000000 0.003012 0.000000
# 2 -0.005524 0.142765 -0.013666 0.000000 -0.004240 0.000000
# 3 -0.001602 -0.013666 0.015922 0.000000 0.006836 0.000000
# 4 0.000000 0.000000 0.000000 0.040705 0.000000 0.004998
# 5 0.003012 -0.004240 0.006836 0.000000 0.029078 0.000000
# 6 0.000000 0.000000 0.000000 0.004998 0.000000 0.029164
#
#
# Mechanical properties :
#
#
# Convention : Reuss Voigt Hill
#
# Bulk Modulus (GPa) = 7.96629 34.92071 21.44350
# Shear Modulus (GPa) = 14.30670 32.36082 23.33376
#
# Velocity S-wave (km/s) = 2.64870 3.98357 3.38264
# Velocity P-wave (km/s) = 3.64151 6.18729 5.07657
#
# Compressibility (1/GPa) = 0.12552898
#
# Stress axis : x y z
#
# Youngs Moduli (GPa) = 118.69085 7.00450 62.80554
#
# Poissons Ratio (x) = 0.03869 0.10060
# Poissons Ratio (y) = 0.65563 0.85832
# Poissons Ratio (z) = 0.19011 0.09573
#
# Static dielectric constant tensor:
#      x y z
#    x 1.759330 0.000000 0.035350 
#    y 0.000000 1.715680 0.000000 
#    z 0.035350 0.000000 1.789730 
# 
# From -- ./inp_files/43888.got.cif
#   From: 2010.05.17/outbox.cif.g08.bks.cpg/sg11_22_cif.got.tgz:43888.got - 2010.06.03 12:22:45.
