data_PCOD9160723
_publ_section_title
;
Structure prediction by ZEFSAII (Michael W. Deem and Ramdas Pophale) SiO2 
 PCOD9160723
Probable space group: P 21/M
;
_chemical_formula_sum "Si O2"
_cell_formula_units_Z 32
_cell_length_a 12.347934
_cell_length_b 17.437181
_cell_length_c 15.610533
_cell_angle_alpha 90.000000
_cell_angle_beta 152.839737
_cell_angle_gamma 90.000000
_cell_volume 1534.302469
_symmetry_space_group_name_H-M "P 21/M"
_symmetry_group_IT_number 11
_symmetry_cell_setting 'monoclinic'
loop_
_space_group_symop_operation_xyz
x,y,z
-x,1/2+y,-z
-x,-y,-z
x,1/2-y,z
loop_
_atom_site_type_symbol
_atom_site_label
_atom_site_fract_x
_atom_site_fract_y
_atom_site_fract_z
Si Si1 0.038938 0.163459 0.613663
Si Si2 0.567484 0.335491 0.001785
Si Si3 0.929033 0.662573 0.100519
Si Si4 0.163148 0.593122 0.949893
Si Si5 0.150444 0.422268 0.122542
Si Si6 0.042167 0.538164 0.296932
Si Si7 0.449222 0.011915 0.683598
Si Si8 0.591554 0.107783 0.200758
O O1 0.015457 0.250000 0.633768
O O2 0.311164 0.156514 0.775592
O O3 0.018991 0.096445 0.669815
O O4 0.826651 0.152976 0.397155
O O5 0.575201 0.250000 0.045531
O O6 0.765045 0.345365 0.069075
O O7 0.590302 0.393867 0.097166
O O8 0.991525 0.750000 0.161084
O O9 0.104241 0.600282 0.266936
O O10 0.921002 0.642891 0.994780
O O11 0.660946 0.645930 0.948536
O O12 0.920213 0.601396 0.831675
O O13 0.148501 0.513749 0.885885
O O14 0.373924 0.580138 0.167480
O O15 0.410122 0.449114 0.275878
O O16 0.000000 0.500000 0.000000
O O17 0.219189 0.476836 0.464161
O O18 0.385828 0.970461 0.728671
#
# Coordination Sequence:
#
# PCOD9160723 Si02
#       8
#     4   4   4   4   4   4   4   4
#     4  10  20  34  55  83 116 148 186 234 284 331
#     4  11  23  37  57  80 110 154 191 227 274 335
#     4  11  19  34  62  89 112 142 185 239 286 329
#     4  11  22  40  56  80 116 152 192 225 270 341
#     4   9  18  39  57  80 112 148 185 227 280 330
#     4  11  20  34  59  89 112 145 180 233 293 336
#     4   9  20  36  60  88 109 142 183 234 288 331
#     4  10  19  37  59  84 115 144 182 236 290 330
#
# _framework density 20.856383999999998
#
# number of rings (size 3 to 8) (size 9 to 14) (size 15 to 20)
#    0.000    1.750    5.000    1.500    0.000    4.000 
#    0.000    3.125    0.000    0.000    0.000    0.000 
#    0.000    0.000    0.000    0.000    0.000    0.000 
#
# Total GULP energy -178149.105500 kJ/mol
# GULP energy per Si atom -5567.159547 kJ/mol
# Density = 2.080891 g / cm^3
# Si number density = 20.856384 Si / 1000 Ang^3
#
#
#
# Elastic Constant Matrix: (Units=GPa)
#
#
# Indices 1 2 3 4 5 6 
#
# 1 102.0756 -4.7214 12.4148 0.0000 -6.8412 0.0000
# 2 -4.7214 30.4586 1.0164 0.0000 -5.9767 0.0000
# 3 12.4148 1.0164 80.7768 0.0000 -21.6587 0.0000
# 4 0.0000 0.0000 0.0000 13.4854 0.0000 -5.0816
# 5 -6.8412 -5.9767 -21.6587 0.0000 10.2649 0.0000
# 6 0.0000 0.0000 0.0000 -5.0816 0.0000 18.8976
#
#
#
# Elastic Compliance Matrix: (Units=1/GPa)
#
#
# Indices 1 2 3 4 5 6 
#
# 1 0.010683 0.004326 0.002045 0.000000 0.013953 0.000000
# 2 0.004326 0.044955 0.015108 0.000000 0.060934 0.000000
# 3 0.002045 0.015108 0.033620 0.000000 0.081095 0.000000
# 4 0.000000 0.000000 0.000000 0.082515 0.000000 0.022188
# 5 0.013953 0.060934 0.081095 0.000000 0.313305 0.000000
# 6 0.000000 0.000000 0.000000 0.022188 0.000000 0.058883
#
#
# Mechanical properties :
#
#
# Convention : Reuss Voigt Hill
#
# Bulk Modulus (GPa) = 7.56349 25.63674 16.60011
# Shear Modulus (GPa) = 9.17304 22.16965 15.67135
#
# Velocity S-wave (km/s) = 2.09946 3.26385 2.74413
# Velocity P-wave (km/s) = 3.08404 5.14999 4.24463
#
# Compressibility (1/GPa) = 0.13221414
#
# Stress axis : x y z
#
# Youngs Moduli (GPa) = 93.60505 22.24471 29.74459
#
# Poissons Ratio (x) = -0.09622 -0.06083
# Poissons Ratio (y) = -0.40491 -0.44938
# Poissons Ratio (z) = -0.19141 -0.33607
#
# Static dielectric constant tensor:
#      x y z
#    x 1.772000 0.000000 0.019530 
#    y 0.000000 1.771960 0.000000 
#    z 0.019530 0.000000 1.784230 
# 
# From -- ./inp_files/50719.got.cif
#   From: 2010.05.17/outbox.cif.g08.bks.cpg/sg11_26_cif.got.tgz:50719.got - 2010.06.03 12:22:45.
