data_PCOD9160719
_publ_section_title
;
Structure prediction by ZEFSAII (Michael W. Deem and Ramdas Pophale) SiO2 
 PCOD9160719
Probable space group: P 21/M
;
_chemical_formula_sum "Si O2"
_cell_formula_units_Z 32
_cell_length_a 9.164486
_cell_length_b 24.272131
_cell_length_c 16.036827
_cell_angle_alpha 90.000000
_cell_angle_beta 26.818074
_cell_angle_gamma 90.000000
_cell_volume 1609.400645
_symmetry_space_group_name_H-M "P 21/M"
_symmetry_group_IT_number 11
_symmetry_cell_setting 'monoclinic'
loop_
_space_group_symop_operation_xyz
x,y,z
-x,1/2+y,-z
-x,-y,-z
x,1/2-y,z
loop_
_atom_site_type_symbol
_atom_site_label
_atom_site_fract_x
_atom_site_fract_y
_atom_site_fract_z
Si Si1 0.102248 0.116408 0.606297
Si Si2 0.107147 0.119517 0.279196
Si Si3 0.744617 0.499794 0.794542
Si Si4 0.129418 0.887136 0.779942
Si Si5 0.110520 0.877454 0.107506
Si Si6 0.910800 0.813780 0.546958
Si Si7 0.114226 0.503498 0.036046
Si Si8 0.121263 0.687223 0.938692
O O1 0.485987 0.109438 0.406719
O O2 0.983547 0.152702 0.589018
O O3 0.932603 0.056978 0.694641
O O4 0.027491 0.141988 0.734481
O O5 0.994654 0.154366 0.416323
O O6 0.974270 0.136712 0.256741
O O7 0.035580 0.054036 0.320178
O O8 0.499337 0.122456 0.081107
O O9 0.500000 0.500000 0.000000
O O10 0.502505 0.504528 0.840243
O O11 0.013332 0.849263 0.915517
O O12 0.994435 0.948636 0.860881
O O13 0.008247 0.939961 0.135325
O O14 0.011855 0.839583 0.080884
O O15 0.014896 0.750000 0.494364
O O16 0.515886 0.813654 0.742630
O O17 0.000000 0.500000 0.000000
O O18 0.017633 0.750000 0.982589
#
# Coordination Sequence:
#
# PCOD9160719 Si02
#       8
#     4   4   4   4   4   4   4   4
#     4  11  22  37  59  88 118 150 189 236 290 341
#     4  10  20  38  61  83 114 156 190 229 282 346
#     4  11  20  38  58  84 121 150 184 231 288 353
#     4  11  21  35  58  89 115 146 191 236 287 336
#     4  10  19  37  59  82 113 152 189 224 284 348
#     4   9  21  40  58  81 115 154 196 238 285 336
#     4  11  20  36  59  84 117 151 185 230 281 346
#     4   9  19  36  58  81 109 149 195 235 280 340
#
# _framework density 19.883178000000001
#
# number of rings (size 3 to 8) (size 9 to 14) (size 15 to 20)
#    0.000    1.750    5.000    0.000    1.750    3.500 
#    2.250    0.000    0.000    3.750    0.000    0.000 
#    0.000    0.000    0.000    0.000    0.000    0.000 
#
# Total GULP energy -178605.911794 kJ/mol
# GULP energy per Si atom -5581.434744 kJ/mol
# Density = 1.983792 g / cm^3
# Si number density = 19.883178 Si / 1000 Ang^3
#
#
#
# Elastic Constant Matrix: (Units=GPa)
#
#
# Indices 1 2 3 4 5 6 
#
# 1 137.3427 44.4953 17.1544 0.0000 32.9343 0.0000
# 2 44.4953 130.2425 42.1271 0.0000 29.1490 0.0000
# 3 17.1544 42.1271 27.2760 0.0000 24.9336 0.0000
# 4 0.0000 0.0000 0.0000 17.3753 0.0000 -2.9461
# 5 32.9343 29.1490 24.9336 0.0000 33.2912 0.0000
# 6 0.0000 0.0000 0.0000 -2.9461 0.0000 11.7083
#
#
#
# Elastic Compliance Matrix: (Units=1/GPa)
#
#
# Indices 1 2 3 4 5 6 
#
# 1 0.012724 -0.007474 0.028747 0.000000 -0.027574 0.000000
# 2 -0.007474 0.021986 -0.058402 0.000000 0.031884 0.000000
# 3 0.028747 -0.058402 0.279159 0.000000 -0.186381 0.000000
# 4 0.000000 0.000000 0.000000 0.060118 0.000000 0.015127
# 5 -0.027574 0.031884 -0.186381 0.000000 0.168990 0.000000
# 6 0.000000 0.000000 0.000000 0.015127 0.000000 0.089216
#
#
# Mechanical properties :
#
#
# Convention : Reuss Voigt Hill
#
# Bulk Modulus (GPa) = 4.17345 55.82385 29.99865
# Shear Modulus (GPa) = 6.35872 25.21390 15.78631
#
# Velocity S-wave (km/s) = 1.79025 3.56491 2.82077
# Velocity P-wave (km/s) = 2.52524 6.71428 5.07240
#
# Compressibility (1/GPa) = 0.23961011
#
# Stress axis : x y z
#
# Youngs Moduli (GPa) = 78.59192 45.48406 3.58218
#
# Poissons Ratio (x) = 0.33995 -0.10298
# Poissons Ratio (y) = 0.58740 0.20921
# Poissons Ratio (z) = -2.25926 2.65637
#
# Static dielectric constant tensor:
#      x y z
#    x 1.725980 0.000000 0.001630 
#    y 0.000000 1.713090 0.000000 
#    z 0.001630 0.000000 1.716430 
# 
# From -- ./inp_files/48445.got.cif
#   From: 2010.05.17/outbox.cif.g08.bks.cpg/sg11_25_cif.got.tgz:48445.got - 2010.06.03 12:22:45.
