data_PCOD9160789
_publ_section_title
;
Structure prediction by ZEFSAII (Michael W. Deem and Ramdas Pophale) SiO2 
 PCOD9160789
Probable space group: P 21/M
;
_chemical_formula_sum "Si O2"
_cell_formula_units_Z 24
_cell_length_a 12.103942
_cell_length_b 14.223943
_cell_length_c 21.893537
_cell_angle_alpha 90.000000
_cell_angle_beta 161.931891
_cell_angle_gamma 90.000000
_cell_volume 1169.043851
_symmetry_space_group_name_H-M "P 21/M"
_symmetry_group_IT_number 11
_symmetry_cell_setting 'monoclinic'
loop_
_space_group_symop_operation_xyz
x,y,z
-x,1/2+y,-z
-x,-y,-z
x,1/2-y,z
loop_
_atom_site_type_symbol
_atom_site_label
_atom_site_fract_x
_atom_site_fract_y
_atom_site_fract_z
Si Si1 0.685003 0.149554 0.742513
Si Si2 0.581154 0.892550 0.527264
Si Si3 0.598480 0.528461 0.767405
Si Si4 0.282898 0.645282 0.497883
Si Si5 0.771458 0.468867 0.195329
Si Si6 0.466518 0.858926 0.809527
O O1 0.537215 0.250000 0.683663
O O2 0.653081 0.138808 0.652942
O O3 0.484349 0.067078 0.672777
O O4 0.105952 0.148027 0.975024
O O5 0.492889 0.845866 0.544445
O O6 0.971700 0.894850 0.704260
O O7 0.500000 0.000000 0.500000
O O8 0.557425 0.607295 0.693297
O O9 0.370799 0.571003 0.703344
O O10 0.000000 0.500000 0.000000
O O11 0.144013 0.750000 0.440756
O O12 0.986964 0.562730 0.331547
O O13 0.609767 0.413407 0.167740
O O14 0.500000 0.500000 0.000000
O O15 0.335782 0.750000 0.739232
#
# Coordination Sequence:
#
# PCOD9160789 Si02
#       6
#     4   4   4   4   4   4
#     4  10  19  37  63  92 121 161 214 261 314 374
#     4  10  19  37  62  90 117 162 209 260 312 367
#     4  10  21  39  66  89 122 160 215 258 311 369
#     4  11  23  42  65  93 129 169 214 263 317 374
#     4  11  24  39  65  93 132 164 208 261 320 378
#     4  10  22  39  63  91 127 169 206 254 319 383
#
# _framework density 20.529598
#
# number of rings (size 3 to 8) (size 9 to 14) (size 15 to 20)
#    0.000    1.667    3.333    3.000    2.333    4.667 
#    0.000    0.833    0.000    0.000    0.000    0.000 
#    0.000    0.000    0.000    0.000    0.000    0.000 
#
# Total GULP energy -133645.074844 kJ/mol
# GULP energy per Si atom -5568.544785 kJ/mol
# Density = 2.048287 g / cm^3
# Si number density = 20.529598 Si / 1000 Ang^3
#
#
#
# Elastic Constant Matrix: (Units=GPa)
#
#
# Indices 1 2 3 4 5 6 
#
# 1 140.5363 74.7873 10.4316 0.0000 -18.8232 0.0000
# 2 74.7873 173.6652 22.2762 0.0000 -5.6694 0.0000
# 3 10.4316 22.2762 57.7608 0.0000 -15.9454 0.0000
# 4 0.0000 0.0000 0.0000 1.8729 0.0000 19.0455
# 5 -18.8232 -5.6694 -15.9454 0.0000 28.7267 0.0000
# 6 0.0000 0.0000 0.0000 19.0455 0.0000 10.3908
#
#
#
# Elastic Compliance Matrix: (Units=1/GPa)
#
#
# Indices 1 2 3 4 5 6 
#
# 1 0.010246 -0.004412 0.001729 0.000000 0.006803 0.000000
# 2 -0.004412 0.007958 -0.003114 0.000000 -0.003049 0.000000
# 3 0.001729 -0.003114 0.021664 0.000000 0.012544 0.000000
# 4 0.000000 0.000000 0.000000 -0.030270 0.000000 0.055483
# 5 0.006803 -0.003049 0.012544 0.000000 0.045629 0.000000
# 6 0.000000 0.000000 0.000000 0.055483 0.000000 -0.005456
#
#
# Mechanical properties :
#
#
# Convention : Reuss Voigt Hill
#
# Bulk Modulus (GPa) = 35.36734 65.21695 50.29215
# Shear Modulus (GPa) = 70.62998 25.82922 48.22960
#
# Velocity S-wave (km/s) = 5.87185 3.55088 4.85219
# Velocity P-wave (km/s) = 7.95213 6.97481 7.47945
#
# Compressibility (1/GPa) = 0.02827467
#
# Stress axis : x y z
#
# Youngs Moduli (GPa) = 97.59494 125.65643 46.15889
#
# Poissons Ratio (x) = 0.55443 -0.07982
# Poissons Ratio (y) = 0.43061 0.14374
# Poissons Ratio (z) = -0.16876 0.39130
#
# Static dielectric constant tensor:
#      x y z
#    x 1.761980 0.000000 -0.025820 
#    y 0.000000 1.701780 0.000000 
#    z -0.025820 0.000000 1.795910 
# 
# From -- ./inp_files/64828.got.cif
#   From: 2010.05.17/outbox.cif.g08.bks.cpg/sg11_33_cif.got.tgz:64828.got - 2010.06.03 12:22:45.
