data_PCOD9160942
_publ_section_title
;
Structure prediction by ZEFSAII (Michael W. Deem and Ramdas Pophale) SiO2 
 PCOD9160942
Probable space group: P 21/M
;
_chemical_formula_sum "Si O2"
_cell_formula_units_Z 24
_cell_length_a 18.982068
_cell_length_b 5.728978
_cell_length_c 8.572376
_cell_angle_alpha 90.000000
_cell_angle_beta 64.911818
_cell_angle_gamma 90.000000
_cell_volume 844.277649
_symmetry_space_group_name_H-M "P 21/M"
_symmetry_group_IT_number 11
_symmetry_cell_setting 'monoclinic'
loop_
_space_group_symop_operation_xyz
x,y,z
-x,1/2+y,-z
-x,-y,-z
x,1/2-y,z
loop_
_atom_site_type_symbol
_atom_site_label
_atom_site_fract_x
_atom_site_fract_y
_atom_site_fract_z
Si Si1 0.602912 0.250000 0.081095
Si Si2 0.383228 0.250000 0.830861
Si Si3 0.094854 0.000126 0.404853
Si Si4 0.563348 0.250000 0.754990
Si Si5 0.292541 0.998910 0.445904
Si Si6 0.532043 0.750000 0.541987
Si Si7 0.794211 0.499491 0.140972
Si Si8 0.939848 0.999323 0.219841
O O1 0.645075 0.495061 0.084641
O O2 0.521562 0.250000 0.251376
O O3 0.581324 0.250000 0.920424
O O4 0.472495 0.250000 0.814574
O O5 0.388224 0.250000 0.638460
O O6 0.118637 0.750000 0.315856
O O7 0.119157 0.250000 0.314644
O O8 0.112336 0.001556 0.573857
O O9 0.000000 0.000000 0.500000
O O10 0.613047 0.467757 0.636396
O O11 0.276308 0.250000 0.386719
O O12 0.255589 0.994401 0.651447
O O13 0.270139 0.750000 0.388969
O O14 0.500000 0.500000 0.500000
O O15 0.779493 0.750000 0.078111
O O16 0.882182 0.502672 0.128243
O O17 0.783933 0.250000 0.072108
O O18 0.982649 0.750000 0.184448
O O19 0.981696 0.250000 0.185133
#
# Coordination Sequence:
#
# PCOD9160942 Si02
#       8
#     2   2   4   2   4   2   4   4
#     4  10  20  30  44  58  76  94 116 138 163 196
#     4  10  20  30  44  58  76  94 116 138 163 196
#     4   8  12  16  20  28  40  53  71 102 138 168
#     4  10  20  26  42  58  78  90 114 138 172 194
#     4   8  16  24  33  46  68  86 102 126 160 191
#     4   8  16  32  44  56  72  96 116 136 160 190
#     4   8  12  20  28  37  50  72  94 114 139 178
#     4   8  12  16  24  32  41  58  84 107 132 170
#
# _framework density 28.426667999999999
#
# number of rings (size 3 to 8) (size 9 to 14) (size 15 to 20)
#    0.500    3.000    0.000    0.500    2.333    0.000 
#    0.000    0.000    0.000    0.000    0.000    0.000 
#    0.000    0.000    0.000    0.000    0.000    0.000 
#
# Total GULP energy -133830.051133 kJ/mol
# GULP energy per Si atom -5576.252131 kJ/mol
# Density = 2.836197 g / cm^3
# Si number density = 28.426668 Si / 1000 Ang^3
#
#
#
# Elastic Constant Matrix: (Units=GPa)
#
#
# Indices 1 2 3 4 5 6 
#
# 1 78.9961 39.1614 27.9956 0.0000 12.6175 0.0000
# 2 39.1614 400.8066 21.9475 0.0000 5.2101 0.0000
# 3 27.9956 21.9475 113.4742 0.0000 -8.7633 0.0000
# 4 0.0000 0.0000 0.0000 -3.9819 0.0000 7.5887
# 5 12.6175 5.2101 -8.7633 0.0000 16.5667 0.0000
# 6 0.0000 0.0000 0.0000 7.5887 0.0000 20.9722
#
#
#
# Elastic Compliance Matrix: (Units=1/GPa)
#
#
# Indices 1 2 3 4 5 6 
#
# 1 0.017716 -0.001230 -0.005364 0.000000 -0.015944 0.000000
# 2 -0.001230 0.002626 -0.000204 0.000000 0.000003 0.000000
# 3 -0.005364 -0.000204 0.010943 0.000000 0.009938 0.000000
# 4 0.000000 0.000000 0.000000 -0.148635 0.000000 0.053783
# 5 -0.015944 0.000003 0.009938 0.000000 0.077761 0.000000
# 6 0.000000 0.000000 0.000000 0.053783 0.000000 0.028221
#
#
# Mechanical properties :
#
#
# Convention : Reuss Voigt Hill
#
# Bulk Modulus (GPa) = 56.53382 85.72064 71.12723
# Shear Modulus (GPa) = 615.31294 40.32287 327.81790
#
# Velocity S-wave (km/s) = 14.72841 3.77037 10.75039
# Velocity P-wave (km/s) = 17.58311 7.01247 13.38545
#
# Compressibility (1/GPa) = 0.01768853
#
# Stress axis : x y z
#
# Youngs Moduli (GPa) = 56.44548 380.76401 91.38249
#
# Poissons Ratio (x) = 0.46834 0.49019
# Poissons Ratio (y) = 0.06943 0.01867
# Poissons Ratio (z) = 0.30279 0.07779
#
# Static dielectric constant tensor:
#      x y z
#    x 2.368890 0.000000 0.100370 
#    y 0.000000 2.333660 0.000000 
#    z 0.100370 0.000000 2.176390 
# 
# From -- ./inp_files/27894.got.cif
#   From: 2010.05.17/outbox.cif.g08.bks.cpg/sg11_14_cif.got.tgz:27894.got - 2010.06.03 12:22:45.
