data_PCOD9160363
_publ_section_title
;
Structure prediction by ZEFSAII (Michael W. Deem and Ramdas Pophale) SiO2 
 PCOD9160363
Probable space group: P 21/M
;
_chemical_formula_sum "Si O2"
_cell_formula_units_Z 32
_cell_length_a 13.197755
_cell_length_b 15.182015
_cell_length_c 19.443173
_cell_angle_alpha 90.000000
_cell_angle_beta 154.851964
_cell_angle_gamma 90.000000
_cell_volume 1655.553153
_symmetry_space_group_name_H-M "P 21/M"
_symmetry_group_IT_number 11
_symmetry_cell_setting 'monoclinic'
loop_
_space_group_symop_operation_xyz
x,y,z
-x,1/2+y,-z
-x,-y,-z
x,1/2-y,z
loop_
_atom_site_type_symbol
_atom_site_label
_atom_site_fract_x
_atom_site_fract_y
_atom_site_fract_z
Si Si1 0.489733 0.402014 0.409140
Si Si2 0.837381 0.350323 0.109856
Si Si3 0.687196 0.903063 0.551387
Si Si4 0.491643 0.649241 0.289951
Si Si5 0.993275 0.647156 0.941397
Si Si6 0.385362 0.050177 0.864974
Si Si7 0.278440 0.988901 0.655214
Si Si8 0.879360 0.148861 0.547861
O O1 0.405098 0.366996 0.431778
O O2 0.575882 0.501203 0.472657
O O3 0.709117 0.352100 0.509753
O O4 0.257925 0.401252 0.217350
O O5 0.899151 0.250000 0.164078
O O6 0.884671 0.364613 0.058342
O O7 0.027531 0.409103 0.267340
O O8 0.568108 0.370974 0.961863
O O9 0.612316 0.850202 0.438464
O O10 0.501500 0.750000 0.267059
O O11 0.619634 0.574111 0.322981
O O12 0.210948 0.624815 0.125305
O O13 0.934103 0.750000 0.914219
O O14 0.120486 0.091790 0.708913
O O15 0.394294 0.988600 0.802087
O O16 0.500000 0.000000 0.000000
O O17 0.276831 0.902792 0.606050
O O18 0.000000 0.000000 0.500000
O O19 0.934950 0.250000 0.562795
#
# Coordination Sequence:
#
# PCOD9160363 Si02
#       8
#     4   4   4   4   4   4   4   4
#     4  10  20  38  61  85 127 163 204 246 311 375
#     4  10  19  35  58  86 119 153 199 253 305 360
#     4  10  21  36  59  94 121 159 204 260 311 361
#     4  11  21  38  63  93 124 157 208 264 315 358
#     4   9  19  34  57  87 114 153 201 250 300 360
#     4  11  23  40  65  90 123 159 208 266 313 370
#     4  10  23  41  61  90 125 161 207 257 310 377
#     4  11  23  42  65  88 127 176 209 244 315 386
#
# _framework density 19.328887000000002
#
# number of rings (size 3 to 8) (size 9 to 14) (size 15 to 20)
#    0.000    1.750    2.500    1.875    1.750    4.000 
#    0.000    1.250    0.000    0.000    0.000    0.000 
#    0.000    0.000    0.000    0.000    0.000    0.000 
#
# Total GULP energy -178366.818294 kJ/mol
# GULP energy per Si atom -5573.963072 kJ/mol
# Density = 1.928489 g / cm^3
# Si number density = 19.328887 Si / 1000 Ang^3
#
#
#
# Elastic Constant Matrix: (Units=GPa)
#
#
# Indices 1 2 3 4 5 6 
#
# 1 73.1736 21.9493 37.9902 0.0000 -2.0073 0.0000
# 2 21.9493 83.5367 27.6500 0.0000 -3.6773 0.0000
# 3 37.9902 27.6500 113.8688 0.0000 -4.1571 0.0000
# 4 0.0000 0.0000 0.0000 34.1274 0.0000 2.7726
# 5 -2.0073 -3.6773 -4.1571 0.0000 40.3137 0.0000
# 6 0.0000 0.0000 0.0000 2.7726 0.0000 13.3866
#
#
#
# Elastic Compliance Matrix: (Units=1/GPa)
#
#
# Indices 1 2 3 4 5 6 
#
# 1 0.017126 -0.002834 -0.005023 0.000000 0.000076 0.000000
# 2 -0.002834 0.013516 -0.002305 0.000000 0.000854 0.000000
# 3 -0.005023 -0.002305 0.011042 0.000000 0.000678 0.000000
# 4 0.000000 0.000000 0.000000 0.029803 0.000000 -0.006173
# 5 0.000076 0.000854 0.000678 0.000000 0.024957 0.000000
# 6 0.000000 0.000000 0.000000 -0.006173 0.000000 0.075980
#
#
# Mechanical properties :
#
#
# Convention : Reuss Voigt Hill
#
# Bulk Modulus (GPa) = 46.81614 49.52867 48.17240
# Shear Modulus (GPa) = 25.01631 29.76484 27.39057
#
# Velocity S-wave (km/s) = 3.60146 3.92843 3.76850
# Velocity P-wave (km/s) = 6.44728 6.80122 6.62661
#
# Compressibility (1/GPa) = 0.02136016
#
# Stress axis : x y z
#
# Youngs Moduli (GPa) = 58.39051 73.98609 90.56037
#
# Poissons Ratio (x) = 0.20968 0.45487
# Poissons Ratio (y) = 0.16548 0.20877
# Poissons Ratio (z) = 0.29329 0.17056
#
# Static dielectric constant tensor:
#      x y z
#    x 1.706490 0.000000 -0.015470 
#    y 0.000000 1.702150 0.000000 
#    z -0.015470 0.000000 1.690690 
# 
# From -- ./inp_files/65808.got.cif
#   From: 2010.05.17/outbox.cif.g08.bks.cpg/sg11_33_cif.got.tgz:65808.got - 2010.06.03 12:22:45.
