data_PCOD9160742
_publ_section_title
;
Structure prediction by ZEFSAII (Michael W. Deem and Ramdas Pophale) SiO2 
 PCOD9160742
Probable space group: P 21/M
;
_chemical_formula_sum "Si O2"
_cell_formula_units_Z 32
_cell_length_a 12.055044
_cell_length_b 8.159043
_cell_length_c 15.709294
_cell_angle_alpha 90.000000
_cell_angle_beta 85.112660
_cell_angle_gamma 90.000000
_cell_volume 1539.510943
_symmetry_space_group_name_H-M "P 21/M"
_symmetry_group_IT_number 11
_symmetry_cell_setting 'monoclinic'
loop_
_space_group_symop_operation_xyz
x,y,z
-x,1/2+y,-z
-x,-y,-z
x,1/2-y,z
loop_
_atom_site_type_symbol
_atom_site_label
_atom_site_fract_x
_atom_site_fract_y
_atom_site_fract_z
Si Si1 0.561062 0.945664 0.868446
Si Si2 0.319737 0.949726 0.459058
Si Si3 0.911845 0.946307 0.076460
Si Si4 0.946313 0.942997 0.262380
Si Si5 0.512081 0.443744 0.693336
Si Si6 0.923073 0.448400 0.584026
Si Si7 0.286074 0.942391 0.654126
Si Si8 0.330263 0.945976 0.970256
O O1 0.558244 0.750000 0.860245
O O2 0.439519 0.004052 0.910827
O O3 0.579465 0.023234 0.775134
O O4 0.649723 0.992914 0.934795
O O5 0.323231 0.750000 0.458146
O O6 0.420318 0.006468 0.393166
O O7 0.202584 0.001623 0.426073
O O8 0.319877 0.001091 0.557303
O O9 0.911409 0.750000 0.080681
O O10 0.947768 0.012720 0.167046
O O11 0.786761 0.999740 0.060918
O O12 0.000000 0.000000 0.000000
O O13 0.972058 0.750000 0.254119
O O14 0.026964 0.011838 0.330286
O O15 0.821212 0.964441 0.305217
O O16 0.493119 0.250000 0.685641
O O17 0.393210 0.531340 0.705693
O O18 0.923812 0.250000 0.586166
O O19 0.000000 0.500000 0.500000
O O20 0.257890 0.750000 0.651366
O O21 0.333329 0.750000 0.970602
#
# Coordination Sequence:
#
# PCOD9160742 Si02
#       8
#     4   4   4   4   4   4   4   4
#     4  10  21  38  61  90 119 150 192 244 294 351
#     4   9  20  36  55  81 115 155 193 238 293 344
#     4  11  24  41  60  87 122 158 199 249 300 358
#     4  10  22  38  61  89 117 153 196 241 296 356
#     4  11  22  36  55  82 118 157 195 236 291 353
#     4  10  19  37  60  84 113 147 191 239 287 342
#     4  11  21  36  58  83 115 153 197 246 291 342
#     4  10  21  39  63  87 115 154 195 241 299 355
#
# _framework density 20.785822
#
# number of rings (size 3 to 8) (size 9 to 14) (size 15 to 20)
#    0.000    1.750    1.250    3.000    0.000    5.500 
#    0.000    5.625    0.000    0.000    0.000    0.000 
#    0.000    0.000    0.000    0.000    0.000    0.000 
#
# Total GULP energy -178823.770101 kJ/mol
# GULP energy per Si atom -5588.242816 kJ/mol
# Density = 2.073851 g / cm^3
# Si number density = 20.785822 Si / 1000 Ang^3
#
#
#
# Elastic Constant Matrix: (Units=GPa)
#
#
# Indices 1 2 3 4 5 6 
#
# 1 58.9455 -1.0897 17.1664 0.0000 20.8068 0.0000
# 2 -1.0897 20.4319 -1.7041 0.0000 0.7661 0.0000
# 3 17.1664 -1.7041 131.4391 0.0000 17.6620 0.0000
# 4 0.0000 0.0000 0.0000 25.9237 0.0000 1.9306
# 5 20.8068 0.7661 17.6620 0.0000 30.8977 0.0000
# 6 0.0000 0.0000 0.0000 1.9306 0.0000 23.1479
#
#
#
# Elastic Compliance Matrix: (Units=1/GPa)
#
#
# Indices 1 2 3 4 5 6 
#
# 1 0.022425 0.001665 -0.000945 0.000000 -0.014602 0.000000
# 2 0.001665 0.049203 0.000796 0.000000 -0.002796 0.000000
# 3 -0.000945 0.000796 0.008296 0.000000 -0.004126 0.000000
# 4 0.000000 0.000000 0.000000 0.038816 0.000000 -0.003237
# 5 -0.014602 -0.002796 -0.004126 0.000000 0.044626 0.000000
# 6 0.000000 0.000000 0.000000 -0.003237 0.000000 0.043470
#
#
# Mechanical properties :
#
#
# Convention : Reuss Voigt Hill
#
# Bulk Modulus (GPa) = 12.05451 26.61795 19.33623
# Shear Modulus (GPa) = 21.60228 29.09013 25.34621
#
# Velocity S-wave (km/s) = 3.22728 3.74507 3.49578
# Velocity P-wave (km/s) = 4.43837 5.61555 5.06130
#
# Compressibility (1/GPa) = 0.08295653
#
# Stress axis : x y z
#
# Youngs Moduli (GPa) = 44.59255 20.32390 120.53674
#
# Poissons Ratio (x) = -0.03383 0.11391
# Poissons Ratio (y) = -0.07424 -0.09598
# Poissons Ratio (z) = 0.04214 -0.01618
#
# Static dielectric constant tensor:
#      x y z
#    x 1.725710 0.000000 0.000230 
#    y 0.000000 1.757410 0.000000 
#    z 0.000230 0.000000 1.783030 
# 
# From -- ./inp_files/49366.got.cif
#   From: 2010.05.17/outbox.cif.g08.bks.cpg/sg11_25_cif.got.tgz:49366.got - 2010.06.03 12:22:45.
