data_PCOD9160744
_publ_section_title
;
Structure prediction by ZEFSAII (Michael W. Deem and Ramdas Pophale) SiO2 
 PCOD9160744
Probable space group: P 21/M
;
_chemical_formula_sum "Si O2"
_cell_formula_units_Z 32
_cell_length_a 25.907074
_cell_length_b 7.784585
_cell_length_c 15.764600
_cell_angle_alpha 90.000000
_cell_angle_beta 152.129896
_cell_angle_gamma 90.000000
_cell_volume 1486.241028
_symmetry_space_group_name_H-M "P 21/M"
_symmetry_group_IT_number 11
_symmetry_cell_setting 'monoclinic'
loop_
_space_group_symop_operation_xyz
x,y,z
-x,1/2+y,-z
-x,-y,-z
x,1/2-y,z
loop_
_atom_site_type_symbol
_atom_site_label
_atom_site_fract_x
_atom_site_fract_y
_atom_site_fract_z
Si Si1 0.485375 0.950038 0.348194
Si Si2 0.876687 0.954265 0.794361
Si Si3 0.714304 0.458236 0.213397
Si Si4 0.755578 0.457501 0.955102
Si Si5 0.259954 0.545558 0.560581
Si Si6 0.726040 0.543761 0.728508
Si Si7 0.125289 0.956676 0.703588
Si Si8 0.514999 0.454190 0.198618
O O1 0.483583 0.750000 0.370760
O O2 0.368940 0.025345 0.208761
O O3 0.600557 0.026417 0.548853
O O4 0.491663 0.961305 0.255504
O O5 0.866955 0.750000 0.780365
O O6 0.791527 0.023497 0.741828
O O7 0.840479 0.014460 0.648951
O O8 0.000000 0.000000 0.000000
O O9 0.717836 0.250000 0.217014
O O10 0.751556 0.519928 0.360358
O O11 0.792639 0.520529 0.251028
O O12 0.589058 0.512116 0.012771
O O13 0.753026 0.250000 0.956120
O O14 0.786231 0.505856 0.904164
O O15 0.833946 0.519172 0.145006
O O16 0.274861 0.750000 0.589571
O O17 0.371774 0.478793 0.678265
O O18 0.718187 0.750000 0.708055
O O19 0.134567 0.750000 0.718149
O O20 0.000000 0.000000 0.500000
O O21 0.525329 0.250000 0.228045
#
# Coordination Sequence:
#
# PCOD9160744 Si02
#       8
#     4   4   4   4   4   4   4   4
#     4  10  19  37  60  84 119 157 190 229 290 359
#     4  11  24  42  63  85 116 157 199 246 294 345
#     4  10  21  40  62  83 118 160 193 234 292 357
#     4  10  21  37  60  87 117 153 191 237 290 343
#     4  10  22  39  61  90 120 153 194 240 293 349
#     4  10  22  38  60  88 116 153 193 233 291 351
#     4  10  22  40  60  82 111 152 196 239 289 339
#     4  11  21  33  57  93 123 150 190 241 290 343
#
# _framework density 21.530830000000002
#
# number of rings (size 3 to 8) (size 9 to 14) (size 15 to 20)
#    0.000    1.750    2.500    1.500    0.000    5.000 
#    0.000    3.750    0.000    0.000    0.000    0.000 
#    0.000    0.000    0.000    0.000    0.000    0.000 
#
# Total GULP energy -178829.964276 kJ/mol
# GULP energy per Si atom -5588.436384 kJ/mol
# Density = 2.148183 g / cm^3
# Si number density = 21.530830 Si / 1000 Ang^3
#
#
#
# Elastic Constant Matrix: (Units=GPa)
#
#
# Indices 1 2 3 4 5 6 
#
# 1 48.0781 -1.7972 36.4095 0.0000 -36.8031 0.0000
# 2 -1.7972 25.7585 -12.6803 0.0000 4.6869 0.0000
# 3 36.4095 -12.6803 138.6182 0.0000 -22.7130 0.0000
# 4 0.0000 0.0000 0.0000 27.4153 0.0000 -5.2061
# 5 -36.8031 4.6869 -22.7130 0.0000 37.2803 0.0000
# 6 0.0000 0.0000 0.0000 -5.2061 0.0000 17.9923
#
#
#
# Elastic Compliance Matrix: (Units=1/GPa)
#
#
# Indices 1 2 3 4 5 6 
#
# 1 0.104769 -0.016882 -0.013073 0.000000 0.097586 0.000000
# 2 -0.016882 0.043711 0.005334 0.000000 -0.018912 0.000000
# 3 -0.013073 0.005334 0.009900 0.000000 -0.007545 0.000000
# 4 0.000000 0.000000 0.000000 0.038597 0.000000 0.011168
# 5 0.097586 -0.018912 -0.007545 0.000000 0.120941 0.000000
# 6 0.000000 0.000000 0.000000 0.011168 0.000000 0.058811
#
#
# Mechanical properties :
#
#
# Convention : Reuss Voigt Hill
#
# Bulk Modulus (GPa) = 9.16276 28.47987 18.82131
# Shear Modulus (GPa) = 10.81431 29.23909 20.02670
#
# Velocity S-wave (km/s) = 2.24357 3.68912 3.05313
# Velocity P-wave (km/s) = 3.31306 5.60378 4.60319
#
# Compressibility (1/GPa) = 0.10913740
#
# Stress axis : x y z
#
# Youngs Moduli (GPa) = 9.54478 22.87752 101.01505
#
# Poissons Ratio (x) = 0.38622 1.32060
# Poissons Ratio (y) = 0.16113 -0.53882
# Poissons Ratio (z) = 0.12478 -0.12203
#
# Static dielectric constant tensor:
#      x y z
#    x 1.781950 0.000000 -0.003840 
#    y 0.000000 1.794820 0.000000 
#    z -0.003840 0.000000 1.757140 
# 
# From -- ./inp_files/51737.got.cif
#   From: 2010.05.17/outbox.cif.g08.bks.cpg/sg11_26_cif.got.tgz:51737.got - 2010.06.03 12:22:45.
