data_PCOD9160003
_publ_section_title
;
Structure prediction by ZEFSAII (Michael W. Deem and Ramdas Pophale) SiO2 
 PCOD9160003
Probable space group: P 21/M
;
_chemical_formula_sum "Si O2"
_cell_formula_units_Z 32
_cell_length_a 9.138823
_cell_length_b 15.273930
_cell_length_c 11.865186
_cell_angle_alpha 90.000000
_cell_angle_beta 85.502363
_cell_angle_gamma 90.000000
_cell_volume 1651.110614
_symmetry_space_group_name_H-M "P 21/M"
_symmetry_group_IT_number 11
_symmetry_cell_setting 'monoclinic'
loop_
_space_group_symop_operation_xyz
x,y,z
-x,1/2+y,-z
-x,-y,-z
x,1/2-y,z
loop_
_atom_site_type_symbol
_atom_site_label
_atom_site_fract_x
_atom_site_fract_y
_atom_site_fract_z
Si Si1 0.610077 0.924920 0.448575
Si Si2 0.665815 0.154201 0.634411
Si Si3 0.535337 0.410588 0.065569
Si Si4 0.767795 0.151927 0.877195
Si Si5 0.944533 0.524637 0.831488
Si Si6 0.146423 0.017780 0.418831
Si Si7 0.722053 0.982839 0.203900
Si Si8 0.759438 0.649594 0.999291
O O1 0.494473 0.853256 0.411410
O O2 0.696734 0.954867 0.332323
O O3 0.500000 0.000000 0.500000
O O4 0.738070 0.914073 0.533046
O O5 0.728778 0.250000 0.605203
O O6 0.666139 0.145207 0.770766
O O7 0.767889 0.075161 0.588232
O O8 0.596984 0.447118 0.178522
O O9 0.387276 0.356128 0.068744
O O10 0.500000 0.500000 0.000000
O O11 0.664277 0.362668 0.990430
O O12 0.831890 0.250000 0.873883
O O13 0.883504 0.072930 0.863799
O O14 0.891698 0.542565 0.707072
O O15 0.878033 0.592010 0.925097
O O16 0.119037 0.524786 0.822844
O O17 0.000000 0.000000 0.500000
O O18 0.720485 0.900290 0.118210
O O19 0.801409 0.750000 0.014759
#
# Coordination Sequence:
#
# PCOD9160003 Si02
#       8
#     4   4   4   4   4   4   4   4
#     4  10  21  36  64  91 113 157 209 254 307 369
#     4   9  19  35  59  90 119 148 199 264 309 351
#     4  10  19  34  57  82 117 157 198 244 299 360
#     4  10  19  34  59  90 122 160 201 250 310 368
#     4  11  22  40  62  89 130 165 200 251 313 373
#     4  10  20  39  63  85 118 166 208 244 304 378
#     4  11  22  38  63  91 121 161 204 256 310 368
#     4  11  24  40  62  93 127 162 206 256 309 370
#
# _framework density 19.380893
#
# number of rings (size 3 to 8) (size 9 to 14) (size 15 to 20)
#    0.000    1.750    3.750    2.250    3.500    2.000 
#    0.000    2.500    0.000    0.750    0.000    0.000 
#    0.000    0.000    0.000    0.000    0.000    0.000 
#
# Total GULP energy -178501.214002 kJ/mol
# GULP energy per Si atom -5578.162938 kJ/mol
# Density = 1.933678 g / cm^3
# Si number density = 19.380893 Si / 1000 Ang^3
#
#
#
# Elastic Constant Matrix: (Units=GPa)
#
#
# Indices 1 2 3 4 5 6 
#
# 1 59.4161 4.7873 6.6461 0.0000 5.0066 0.0000
# 2 4.7873 69.7637 27.6832 0.0000 -0.9919 0.0000
# 3 6.6461 27.6832 66.6958 0.0000 -1.0130 0.0000
# 4 0.0000 0.0000 0.0000 13.2704 0.0000 -1.0583
# 5 5.0066 -0.9919 -1.0130 0.0000 37.2411 0.0000
# 6 0.0000 0.0000 0.0000 -1.0583 0.0000 -0.3598
#
#
#
# Elastic Compliance Matrix: (Units=1/GPa)
#
#
# Indices 1 2 3 4 5 6 
#
# 1 0.017248 -0.000624 -0.001496 0.000000 -0.002376 0.000000
# 2 -0.000624 0.017186 -0.007066 0.000000 0.000349 0.000000
# 3 -0.001496 -0.007066 0.018083 0.000000 0.000505 0.000000
# 4 0.000000 0.000000 0.000000 0.061037 0.000000 -0.179544
# 5 -0.002376 0.000349 0.000505 0.000000 0.027195 0.000000
# 6 0.000000 0.000000 0.000000 -0.179544 0.000000 -2.251344
#
#
# Mechanical properties :
#
#
# Convention : Reuss Voigt Hill
#
# Bulk Modulus (GPa) = 29.28604 30.45654 29.87129
# Shear Modulus (GPa) = -2.40287 20.48095 9.03904
#
# Velocity S-wave (km/s) = -1.11468 3.25431 2.16195
# Velocity P-wave (km/s) = 3.67245 5.46530 4.65599
#
# Compressibility (1/GPa) = 0.03414596
#
# Stress axis : x y z
#
# Youngs Moduli (GPa) = 57.97681 58.18814 55.30085
#
# Poissons Ratio (x) = 0.03630 0.08273
# Poissons Ratio (y) = 0.03617 0.39074
# Poissons Ratio (z) = 0.08673 0.41114
#
# Static dielectric constant tensor:
#      x y z
#    x 1.710240 0.000000 0.040540 
#    y 0.000000 1.670400 0.000000 
#    z 0.040540 0.000000 1.687730 
# 
# From -- ./inp_files/31868.got.cif
#   From: 2010.05.17/outbox.cif.g08.bks.cpg/sg11_16_cif.got.tgz:31868.got - 2010.06.03 12:22:45.
