data_PCOD9160004
_publ_section_title
;
Structure prediction by ZEFSAII (Michael W. Deem and Ramdas Pophale) SiO2 
 PCOD9160004
Probable space group: P 21/M
;
_chemical_formula_sum "Si O2"
_cell_formula_units_Z 32
_cell_length_a 10.704967
_cell_length_b 9.145503
_cell_length_c 23.185815
_cell_angle_alpha 90.000000
_cell_angle_beta 37.516049
_cell_angle_gamma 90.000000
_cell_volume 1382.359222
_symmetry_space_group_name_H-M "P 21/M"
_symmetry_group_IT_number 11
_symmetry_cell_setting 'monoclinic'
loop_
_space_group_symop_operation_xyz
x,y,z
-x,1/2+y,-z
-x,-y,-z
x,1/2-y,z
loop_
_atom_site_type_symbol
_atom_site_label
_atom_site_fract_x
_atom_site_fract_y
_atom_site_fract_z
Si Si1 0.193347 0.919811 0.140475
Si Si2 0.727926 0.414502 0.187821
Si Si3 0.865618 0.079987 0.975961
Si Si4 0.217899 0.581778 0.692315
Si Si5 0.672372 0.083646 0.647841
Si Si6 0.413392 0.425187 0.153476
Si Si7 0.367370 0.578867 0.475499
Si Si8 0.043684 0.577489 0.356569
O O1 0.231386 0.750000 0.141262
O O2 0.172927 0.930304 0.079178
O O3 0.360983 0.025498 0.107280
O O4 0.975267 0.975793 0.245579
O O5 0.725466 0.250000 0.168030
O O6 0.755560 0.415251 0.247572
O O7 0.505441 0.483200 0.261493
O O8 0.925752 0.493806 0.089488
O O9 0.899218 0.250000 0.976709
O O10 0.647556 0.032019 0.082009
O O11 0.180164 0.750000 0.687944
O O12 0.427631 0.515845 0.590258
O O13 0.608855 0.250000 0.683730
O O14 0.674280 0.068883 0.578389
O O15 0.885978 0.061163 0.602212
O O16 0.394472 0.250000 0.166097
O O17 0.238769 0.510214 0.252383
O O18 0.397671 0.750000 0.478398
O O19 0.164158 0.511120 0.577916
O O20 0.016736 0.750000 0.354662
#
# Coordination Sequence:
#
# PCOD9160004 Si02
#       8
#     4   4   4   4   4   4   4   4
#     4  10  19  34  57  83 108 138 175 218 265 315
#     4   9  17  29  52  83 110 135 171 218 265 311
#     4   9  19  35  56  80 108 140 176 217 264 315
#     4   9  17  31  52  81 112 139 170 214 262 313
#     4   9  19  35  56  80 108 140 176 217 264 315
#     4  11  23  38  54  76 107 144 181 220 264 313
#     4  10  19  34  57  83 108 138 175 218 265 315
#     4  11  23  38  54  76 107 144 181 220 264 313
#
# _framework density 23.148831000000001
#
# number of rings (size 3 to 8) (size 9 to 14) (size 15 to 20)
#    0.000    2.250    0.000    3.000    0.000    6.000 
#    0.000    1.250    0.000    0.000    0.000    0.000 
#    0.000    0.000    0.000    0.000    0.000    0.000 
#
# Total GULP energy -179027.121953 kJ/mol
# GULP energy per Si atom -5594.597561 kJ/mol
# Density = 2.309614 g / cm^3
# Si number density = 23.148831 Si / 1000 Ang^3
#
#
#
# Elastic Constant Matrix: (Units=GPa)
#
#
# Indices 1 2 3 4 5 6 
#
# 1 60.9429 13.2251 2.8371 0.0000 -4.7216 0.0000
# 2 13.2251 116.2264 77.1430 0.0000 -24.1159 0.0000
# 3 2.8371 77.1430 158.8977 0.0000 -16.2695 0.0000
# 4 0.0000 0.0000 0.0000 34.7732 0.0000 -7.7996
# 5 -4.7216 -24.1159 -16.2695 0.0000 46.5713 0.0000
# 6 0.0000 0.0000 0.0000 -7.7996 0.0000 22.1007
#
#
#
# Elastic Compliance Matrix: (Units=1/GPa)
#
#
# Indices 1 2 3 4 5 6 
#
# 1 0.016945 -0.002381 0.000937 0.000000 0.000812 0.000000
# 2 -0.002381 0.014049 -0.006283 0.000000 0.004839 0.000000
# 3 0.000937 -0.006283 0.009337 0.000000 0.000104 0.000000
# 4 0.000000 0.000000 0.000000 0.031230 0.000000 0.011021
# 5 0.000812 0.004839 0.000104 0.000000 0.024097 0.000000
# 6 0.000000 0.000000 0.000000 0.011021 0.000000 0.049137
#
#
# Mechanical properties :
#
#
# Convention : Reuss Voigt Hill
#
# Bulk Modulus (GPa) = 40.19844 58.05306 49.12575
# Shear Modulus (GPa) = 29.66638 36.87983 33.27311
#
# Velocity S-wave (km/s) = 3.58376 3.99577 3.79536
# Velocity P-wave (km/s) = 5.87600 6.81329 6.36193
#
# Compressibility (1/GPa) = 0.02487659
#
# Stress axis : x y z
#
# Youngs Moduli (GPa) = 59.01492 71.18062 107.09671
#
# Poissons Ratio (x) = 0.16951 -0.10032
# Poissons Ratio (y) = 0.14053 0.67284
# Poissons Ratio (z) = -0.05528 0.44720
#
# Static dielectric constant tensor:
#      x y z
#    x 1.977070 0.000000 0.064270 
#    y 0.000000 1.771390 0.000000 
#    z 0.064270 0.000000 1.847850 
# 
# From -- ./inp_files/73118.got.cif
#   From: 2010.05.17/outbox.cif.g08.bks.cpg/sg11_37_cif.got.tgz:73118.got - 2010.06.03 12:22:45.
