data_PCOD9160972
_publ_section_title
;
Structure prediction by ZEFSAII (Michael W. Deem and Ramdas Pophale) SiO2 
 PCOD9160972
Probable space group: P 21/M
;
_chemical_formula_sum "Si O2"
_cell_formula_units_Z 32
_cell_length_a 12.977628
_cell_length_b 9.782561
_cell_length_c 15.155462
_cell_angle_alpha 90.000000
_cell_angle_beta 73.143704
_cell_angle_gamma 90.000000
_cell_volume 1841.386301
_symmetry_space_group_name_H-M "P 21/M"
_symmetry_group_IT_number 11
_symmetry_cell_setting 'monoclinic'
loop_
_space_group_symop_operation_xyz
x,y,z
-x,1/2+y,-z
-x,-y,-z
x,1/2-y,z
loop_
_atom_site_type_symbol
_atom_site_label
_atom_site_fract_x
_atom_site_fract_y
_atom_site_fract_z
Si Si1 0.111606 0.416309 0.989509
Si Si2 0.226715 0.592437 0.819985
Si Si3 0.404568 0.912179 0.629553
Si Si4 0.181214 0.097123 0.171251
Si Si5 0.240194 0.903073 0.303885
Si Si6 0.063710 0.602720 0.701467
Si Si7 0.379097 0.586426 0.437852
Si Si8 0.008753 0.401005 0.579741
O O1 0.096678 0.250000 0.984376
O O2 0.197584 0.481066 0.900317
O O3 0.156003 0.444139 0.077031
O O4 0.000000 0.500000 0.000000
O O5 0.236219 0.750000 0.851490
O O6 0.328310 0.561262 0.732074
O O7 0.127257 0.592628 0.776283
O O8 0.430811 0.750000 0.624257
O O9 0.347897 0.938720 0.548278
O O10 0.511146 0.003437 0.605028
O O11 0.227173 0.250000 0.159087
O O12 0.062542 0.104910 0.244682
O O13 0.250879 0.999169 0.216157
O O14 0.280719 0.750000 0.274741
O O15 0.295654 0.951509 0.381127
O O16 0.112769 0.891848 0.353751
O O17 0.092949 0.750000 0.652155
O O18 0.081714 0.475257 0.634045
O O19 0.396546 0.750000 0.426760
O O20 0.046868 0.250000 0.546951
O O21 0.000000 0.500000 0.500000
#
# Coordination Sequence:
#
# PCOD9160972 Si02
#       8
#     4   4   4   4   4   4   4   4
#     4  11  21  34  53  77 107 143 179 215 260 307
#     4  10  20  34  53  77 105 140 174 212 264 312
#     4   9  19  34  55  79 105 136 171 213 262 315
#     4   9  18  33  50  72 102 135 170 207 250 299
#     4   9  19  33  52  74  97 132 172 211 256 306
#     4   9  17  31  48  66  98 136 168 203 248 298
#     4   9  18  35  56  77 103 135 172 215 263 311
#     4  10  20  31  44  67  98 133 172 207 249 301
#
# _framework density 17.378211
#
# number of rings (size 3 to 8) (size 9 to 14) (size 15 to 20)
#    0.000    2.500    1.250    0.750    1.750    3.000 
#    0.000    0.000    0.000    0.750    0.000    0.000 
#    0.000    0.000    0.000    0.000    0.000    0.000 
#
# Total GULP energy -178183.257995 kJ/mol
# GULP energy per Si atom -5568.226812 kJ/mol
# Density = 1.733866 g / cm^3
# Si number density = 17.378211 Si / 1000 Ang^3
#
#
#
# Elastic Constant Matrix: (Units=GPa)
#
#
# Indices 1 2 3 4 5 6 
#
# 1 32.3579 16.5727 8.8320 0.0000 4.9016 0.0000
# 2 16.5727 93.1192 61.9980 0.0000 9.1511 0.0000
# 3 8.8320 61.9980 80.3248 0.0000 6.2711 0.0000
# 4 0.0000 0.0000 0.0000 31.4139 0.0000 2.2981
# 5 4.9016 9.1511 6.2711 0.0000 25.0382 0.0000
# 6 0.0000 0.0000 0.0000 2.2981 0.0000 21.4495
#
#
#
# Elastic Compliance Matrix: (Units=1/GPa)
#
#
# Indices 1 2 3 4 5 6 
#
# 1 0.034677 -0.007024 0.001977 0.000000 -0.004716 0.000000
# 2 -0.007024 0.023890 -0.017433 0.000000 -0.002990 0.000000
# 3 0.001977 -0.017433 0.025724 0.000000 -0.000458 0.000000
# 4 0.000000 0.000000 0.000000 0.032085 0.000000 -0.003438
# 5 -0.004716 -0.002990 -0.000458 0.000000 0.042070 0.000000
# 6 0.000000 0.000000 0.000000 -0.003438 0.000000 0.046989
#
#
# Mechanical properties :
#
#
# Convention : Reuss Voigt Hill
#
# Bulk Modulus (GPa) = 25.42658 42.28969 33.85813
# Shear Modulus (GPa) = 18.97495 23.47360 21.22427
#
# Velocity S-wave (km/s) = 3.30795 3.67924 3.49852
# Velocity P-wave (km/s) = 5.40861 6.51435 5.98706
#
# Compressibility (1/GPa) = 0.03932892
#
# Stress axis : x y z
#
# Youngs Moduli (GPa) = 28.83773 41.85858 38.87463
#
# Poissons Ratio (x) = 0.29403 -0.07686
# Poissons Ratio (y) = 0.20257 0.67772
# Poissons Ratio (z) = -0.05701 0.72974
#
# Static dielectric constant tensor:
#      x y z
#    x 1.580490 0.000000 -0.003230 
#    y 0.000000 1.672020 0.000000 
#    z -0.003230 0.000000 1.615640 
# 
# From -- ./inp_files/51231.got.cif
#   From: 2010.05.17/outbox.cif.g08.bks.cpg/sg11_26_cif.got.tgz:51231.got - 2010.06.03 12:22:45.
