data_PCOD9160298
_publ_section_title
;
Structure prediction by ZEFSAII (Michael W. Deem and Ramdas Pophale) SiO2 
 PCOD9160298
Probable space group: P 21/M
;
_chemical_formula_sum "Si O2"
_cell_formula_units_Z 24
_cell_length_a 6.535691
_cell_length_b 14.043419
_cell_length_c 13.854210
_cell_angle_alpha 90.000000
_cell_angle_beta 103.010988
_cell_angle_gamma 90.000000
_cell_volume 1238.941576
_symmetry_space_group_name_H-M "P 21/M"
_symmetry_group_IT_number 11
_symmetry_cell_setting 'monoclinic'
loop_
_space_group_symop_operation_xyz
x,y,z
-x,1/2+y,-z
-x,-y,-z
x,1/2-y,z
loop_
_atom_site_type_symbol
_atom_site_label
_atom_site_fract_x
_atom_site_fract_y
_atom_site_fract_z
Si Si1 0.497247 0.146485 0.945311
Si Si2 0.732343 0.857782 0.279038
Si Si3 0.705637 0.542449 0.923629
Si Si4 0.045018 0.484933 0.237527
Si Si5 0.503211 0.507582 0.614624
Si Si6 0.342543 0.637577 0.751496
O O1 0.578980 0.250000 0.982864
O O2 0.429760 0.148481 0.827112
O O3 0.656006 0.058821 0.967686
O O4 0.297268 0.118976 0.990646
O O5 0.790042 0.750000 0.313171
O O6 0.620317 0.918423 0.350753
O O7 0.921956 0.919694 0.255161
O O8 0.890694 0.526941 0.867574
O O9 0.507033 0.580208 0.837676
O O10 0.259650 0.486829 0.320783
O O11 0.888940 0.398728 0.246611
O O12 0.500000 0.500000 0.500000
O O13 0.391436 0.600319 0.648864
O O14 0.369629 0.750000 0.764513
#
# Coordination Sequence:
#
# PCOD9160298 Si02
#       6
#     4   4   4   4   4   4
#     4  10  19  35  57  84 118 154 190 229 275 332
#     4  10  21  38  57  86 117 146 187 234 279 334
#     4  10  20  37  58  81 120 155 188 229 279 327
#     4  10  20  38  58  83 109 152 183 234 280 335
#     4  10  22  41  60  81 112 149 186 234 291 340
#     4  10  21  38  57  85 115 147 191 235 278 335
#
# _framework density 19.371372000000001
#
# number of rings (size 3 to 8) (size 9 to 14) (size 15 to 20)
#    0.000    2.000    5.000    0.500    0.000    8.667 
#    0.000    1.667    0.000    0.000    0.000    0.000 
#    0.000    0.000    0.000    0.000    0.000    0.000 
#
# Total GULP energy -133831.550472 kJ/mol
# GULP energy per Si atom -5576.314603 kJ/mol
# Density = 1.932728 g / cm^3
# Si number density = 19.371372 Si / 1000 Ang^3
#
#
#
# Elastic Constant Matrix: (Units=GPa)
#
#
# Indices 1 2 3 4 5 6 
#
# 1 83.9120 40.5257 26.4969 0.0000 -23.5021 0.0000
# 2 40.5257 166.3188 34.9072 0.0000 -18.8986 0.0000
# 3 26.4969 34.9072 116.1505 0.0000 -35.3658 0.0000
# 4 0.0000 0.0000 0.0000 12.3380 0.0000 1.3395
# 5 -23.5021 -18.8986 -35.3658 0.0000 27.0310 0.0000
# 6 0.0000 0.0000 0.0000 1.3395 0.0000 7.8197
#
#
#
# Elastic Compliance Matrix: (Units=1/GPa)
#
#
# Indices 1 2 3 4 5 6 
#
# 1 0.016894 -0.002754 0.001429 0.000000 0.014633 0.000000
# 2 -0.002754 0.007044 -0.001194 0.000000 0.000969 0.000000
# 3 0.001429 -0.001194 0.014571 0.000000 0.019472 0.000000
# 4 0.000000 0.000000 0.000000 0.082586 0.000000 -0.014147
# 5 0.014633 0.000969 0.019472 0.000000 0.075871 0.000000
# 6 0.000000 0.000000 0.000000 -0.014147 0.000000 0.130306
#
#
# Mechanical properties :
#
#
# Convention : Reuss Voigt Hill
#
# Bulk Modulus (GPa) = 29.87493 63.36011 46.61752
# Shear Modulus (GPa) = 14.55741 27.06782 20.81262
#
# Velocity S-wave (km/s) = 2.74431 3.74212 3.28136
# Velocity P-wave (km/s) = 5.04949 7.17289 6.20273
#
# Compressibility (1/GPa) = 0.03347288
#
# Stress axis : x y z
#
# Youngs Moduli (GPa) = 59.19112 141.96134 68.62872
#
# Poissons Ratio (x) = 0.39092 -0.09808
# Poissons Ratio (y) = 0.16300 0.08193
# Poissons Ratio (z) = -0.08459 0.16948
#
# Static dielectric constant tensor:
#      x y z
#    x 1.701360 0.000000 0.001760 
#    y 0.000000 1.697020 0.000000 
#    z 0.001760 0.000000 1.701960 
# 
# From -- ./inp_files/6434.got.cif
#   From: 2010.05.17/outbox.cif.g08.bks.cpg/sg11_4_cif.got.tgz:6434.got - 2010.06.03 12:22:45.
