data_PCOD9160965
_publ_section_title
;
Structure prediction by ZEFSAII (Michael W. Deem and Ramdas Pophale) SiO2 
 PCOD9160965
Probable space group: P 21/M
;
_chemical_formula_sum "Si O2"
_cell_formula_units_Z 32
_cell_length_a 31.365213
_cell_length_b 9.097506
_cell_length_c 16.411996
_cell_angle_alpha 90.000000
_cell_angle_beta 29.515813
_cell_angle_gamma 90.000000
_cell_volume 2307.185972
_symmetry_space_group_name_H-M "P 21/M"
_symmetry_group_IT_number 11
_symmetry_cell_setting 'monoclinic'
loop_
_space_group_symop_operation_xyz
x,y,z
-x,1/2+y,-z
-x,-y,-z
x,1/2-y,z
loop_
_atom_site_type_symbol
_atom_site_label
_atom_site_fract_x
_atom_site_fract_y
_atom_site_fract_z
Si Si1 0.167716 0.573904 0.831620
Si Si2 0.530795 0.425071 0.074149
Si Si3 0.486210 0.425388 0.724520
Si Si4 0.587503 0.574483 0.321048
Si Si5 0.996054 0.425517 0.095395
Si Si6 0.196940 0.574612 0.592329
Si Si7 0.667052 0.073904 0.333613
Si Si8 0.635739 0.574929 0.759318
O O1 0.153920 0.750000 0.856605
O O2 0.191752 0.536972 0.697604
O O3 0.247590 0.537057 0.757230
O O4 0.078739 0.493004 0.002972
O O5 0.542412 0.250000 0.055141
O O6 0.530994 0.488930 0.164332
O O7 0.438108 0.457733 0.185677
O O8 0.602178 0.500000 0.897822
O O9 0.486458 0.250000 0.739633
O O10 0.416467 0.455847 0.768916
O O11 0.581108 0.463028 0.529537
O O12 0.500000 0.500000 0.500000
O O13 0.583002 0.750000 0.338821
O O14 0.660451 0.506996 0.257838
O O15 0.004825 0.250000 0.073351
O O16 0.898151 0.455848 0.287232
O O17 0.000000 0.500000 0.000000
O O18 0.212548 0.750000 0.561362
O O19 0.273680 0.488931 0.421646
O O20 0.664445 0.250000 0.325030
O O21 0.639966 0.750000 0.762481
#
# Coordination Sequence:
#
# PCOD9160965 Si02
#       8
#     4   4   4   4   4   4   4   4
#     4   9  17  28  42  61  85 112 140 171 207 244
#     4  10  20  31  43  60  81 106 137 172 207 242
#     4   9  17  29  43  58  80 110 140 170 205 242
#     4   9  17  28  41  58  81 109 139 171 206 243
#     4   9  17  28  41  58  81 109 139 171 206 243
#     4   9  17  29  43  58  80 110 140 170 205 242
#     4   9  17  28  42  61  85 112 140 171 207 244
#     4  10  20  31  43  60  81 106 137 172 207 242
#
# _framework density 13.86971
#
# number of rings (size 3 to 8) (size 9 to 14) (size 15 to 20)
#    0.000    2.750    0.000    3.750    0.000    8.000 
#    0.000    0.000    0.000    0.000    0.000    0.000 
#    0.000    1.000    0.000    3.250    0.000    4.750 
#
# Total GULP energy -178211.832937 kJ/mol
# GULP energy per Si atom -5569.119779 kJ/mol
# Density = 1.383814 g / cm^3
# Si number density = 13.869710 Si / 1000 Ang^3
#
#
#
# Elastic Constant Matrix: (Units=GPa)
#
#
# Indices 1 2 3 4 5 6 
#
# 1 112.5899 50.5060 56.8847 0.0000 -2.9040 0.0000
# 2 50.5060 45.7624 49.6329 0.0000 -0.4463 0.0000
# 3 56.8847 49.6329 91.4230 0.0000 -7.9115 0.0000
# 4 0.0000 0.0000 0.0000 25.0204 0.0000 -0.2265
# 5 -2.9040 -0.4463 -7.9115 0.0000 22.4523 0.0000
# 6 0.0000 0.0000 0.0000 -0.2265 0.0000 25.4638
#
#
#
# Elastic Compliance Matrix: (Units=1/GPa)
#
#
# Indices 1 2 3 4 5 6 
#
# 1 0.017686 -0.018789 -0.000659 0.000000 0.001682 0.000000
# 2 -0.018789 0.075097 -0.030077 0.000000 -0.011536 0.000000
# 3 -0.000659 -0.030077 0.028486 0.000000 0.009355 0.000000
# 4 0.000000 0.000000 0.000000 0.039971 0.000000 0.000356
# 5 0.001682 -0.011536 0.009355 0.000000 0.047823 0.000000
# 6 0.000000 0.000000 0.000000 0.000356 0.000000 0.039275
#
#
# Mechanical properties :
#
#
# Convention : Reuss Voigt Hill
#
# Bulk Modulus (GPa) = 45.00451 62.64694 53.82572
# Shear Modulus (GPa) = 14.09266 20.77074 17.43170
#
# Velocity S-wave (km/s) = 3.19105 3.87403 3.54901
# Velocity P-wave (km/s) = 6.78937 8.07942 7.46233
#
# Compressibility (1/GPa) = 0.02221999
#
# Stress axis : x y z
#
# Youngs Moduli (GPa) = 56.54074 13.31614 35.10439
#
# Poissons Ratio (x) = 0.25019 0.02313
# Poissons Ratio (y) = 1.06232 1.05584
# Poissons Ratio (z) = 0.03726 0.40051
#
# Static dielectric constant tensor:
#      x y z
#    x 1.474080 0.000000 -0.019140 
#    y 0.000000 1.459290 0.000000 
#    z -0.019140 0.000000 1.436620 
# 
# From -- ./inp_files/51390.got.cif
#   From: 2010.05.17/outbox.cif.g08.bks.cpg/sg11_26_cif.got.tgz:51390.got - 2010.06.03 12:22:45.
