data_PCOD9160552
_publ_section_title
;
Structure prediction by ZEFSAII (Michael W. Deem and Ramdas Pophale) SiO2 
 PCOD9160552
Probable space group: P 21/M
;
_chemical_formula_sum "Si O2"
_cell_formula_units_Z 32
_cell_length_a 10.307065
_cell_length_b 16.222899
_cell_length_c 16.684611
_cell_angle_alpha 90.000000
_cell_angle_beta 143.364853
_cell_angle_gamma 90.000000
_cell_volume 1664.746641
_symmetry_space_group_name_H-M "P 21/M"
_symmetry_group_IT_number 11
_symmetry_cell_setting 'monoclinic'
loop_
_space_group_symop_operation_xyz
x,y,z
-x,1/2+y,-z
-x,-y,-z
x,1/2-y,z
loop_
_atom_site_type_symbol
_atom_site_label
_atom_site_fract_x
_atom_site_fract_y
_atom_site_fract_z
Si Si1 0.990208 0.611272 0.248350
Si Si2 0.544691 0.150660 0.582763
Si Si3 0.243194 0.150983 0.284506
Si Si4 0.099922 0.887345 0.482004
Si Si5 0.452063 0.155130 0.050023
Si Si6 0.882777 0.418670 0.210273
Si Si7 0.175957 0.416372 0.507090
Si Si8 0.558918 0.844386 0.777192
O O1 0.207212 0.623200 0.303672
O O2 0.042749 0.641461 0.364511
O O3 0.928442 0.515225 0.224511
O O4 0.781858 0.653727 0.106784
O O5 0.535415 0.250000 0.582752
O O6 0.418033 0.123342 0.438473
O O7 0.407170 0.112788 0.587711
O O8 0.260302 0.250000 0.289801
O O9 0.009809 0.125804 0.201782
O O10 0.302099 0.117310 0.226162
O O11 0.312412 0.844733 0.623217
O O12 0.902594 0.880493 0.447090
O O13 0.162459 0.984601 0.507375
O O14 0.530521 0.250000 0.094591
O O15 0.433563 0.118365 0.130690
O O16 0.631952 0.104156 0.091255
O O17 0.999568 0.391370 0.351460
O O18 0.634850 0.750000 0.825080
#
# Coordination Sequence:
#
# PCOD9160552 Si02
#       8
#     4   4   4   4   4   4   4   4
#     4  11  23  36  58  86 116 151 185 233 288 343
#     4  10  20  35  55  84 118 150 186 229 286 342
#     4   9  18  33  56  85 110 142 191 239 275 326
#     4  10  19  36  58  87 117 142 190 236 281 330
#     4  11  23  40  57  78 114 154 190 231 284 341
#     4  10  20  36  58  84 112 149 191 234 280 339
#     4   9  20  34  58  88 115 149 180 240 285 330
#     4  10  20  34  57  82 109 146 191 233 272 332
#
# _framework density 19.222142999999999
#
# number of rings (size 3 to 8) (size 9 to 14) (size 15 to 20)
#    0.000    2.000    2.500    1.125    1.750    3.000 
#    0.000    1.875    0.000    0.000    0.000    0.000 
#    0.000    0.000    0.000    0.000    0.000    0.000 
#
# Total GULP energy -178603.551811 kJ/mol
# GULP energy per Si atom -5581.360994 kJ/mol
# Density = 1.917839 g / cm^3
# Si number density = 19.222143 Si / 1000 Ang^3
#
#
#
# Elastic Constant Matrix: (Units=GPa)
#
#
# Indices 1 2 3 4 5 6 
#
# 1 172.5211 33.4780 52.8497 0.0000 20.6119 0.0000
# 2 33.4780 27.5775 7.4516 0.0000 4.4159 0.0000
# 3 52.8497 7.4516 79.2955 0.0000 10.4671 0.0000
# 4 0.0000 0.0000 0.0000 23.1795 0.0000 5.7748
# 5 20.6119 4.4159 10.4671 0.0000 25.5126 0.0000
# 6 0.0000 0.0000 0.0000 5.7748 0.0000 14.1089
#
#
#
# Elastic Compliance Matrix: (Units=1/GPa)
#
#
# Indices 1 2 3 4 5 6 
#
# 1 0.009724 -0.009792 -0.005019 0.000000 -0.004102 0.000000
# 2 -0.009792 0.047754 0.002205 0.000000 -0.001259 0.000000
# 3 -0.005019 0.002205 0.016138 0.000000 -0.002947 0.000000
# 4 0.000000 0.000000 0.000000 0.048040 0.000000 -0.019663
# 5 -0.004102 -0.001259 -0.002947 0.000000 0.043938 0.000000
# 6 0.000000 0.000000 0.000000 -0.019663 0.000000 0.078926
#
#
# Mechanical properties :
#
#
# Convention : Reuss Voigt Hill
#
# Bulk Modulus (GPa) = 20.65951 51.88364 36.27158
# Shear Modulus (GPa) = 17.49060 24.93452 21.21256
#
# Velocity S-wave (km/s) = 3.01976 3.60554 3.32557
# Velocity P-wave (km/s) = 4.78850 6.66209 5.80143
#
# Compressibility (1/GPa) = 0.04840385
#
# Stress axis : x y z
#
# Youngs Moduli (GPa) = 102.83582 20.94058 61.96416
#
# Poissons Ratio (x) = 0.20504 0.31103
# Poissons Ratio (y) = 1.00694 -0.13661
# Poissons Ratio (z) = 0.51618 -0.04617
#
# Static dielectric constant tensor:
#      x y z
#    x 1.684320 0.000000 -0.018690 
#    y 0.000000 1.677480 0.000000 
#    z -0.018690 0.000000 1.652620 
# 
# From -- ./inp_files/48281.got.cif
#   From: 2010.05.17/outbox.cif.g08.bks.cpg/sg11_25_cif.got.tgz:48281.got - 2010.06.03 12:22:45.
