data_PCOD9160999
_publ_section_title
;
Structure prediction by ZEFSAII (Michael W. Deem and Ramdas Pophale) SiO2 
 PCOD9160999
Probable space group: P 21/M
;
_chemical_formula_sum "Si O2"
_cell_formula_units_Z 28
_cell_length_a 11.621669
_cell_length_b 7.464739
_cell_length_c 22.150797
_cell_angle_alpha 90.000000
_cell_angle_beta 50.753701
_cell_angle_gamma 90.000000
_cell_volume 1488.183977
_symmetry_space_group_name_H-M "P 21/M"
_symmetry_group_IT_number 11
_symmetry_cell_setting 'monoclinic'
loop_
_space_group_symop_operation_xyz
x,y,z
-x,1/2+y,-z
-x,-y,-z
x,1/2-y,z
loop_
_atom_site_type_symbol
_atom_site_label
_atom_site_fract_x
_atom_site_fract_y
_atom_site_fract_z
Si Si1 0.723845 0.969445 0.434719
Si Si2 0.705249 0.464568 0.880451
Si Si3 0.627258 0.035240 0.039669
Si Si4 0.834343 0.464418 0.077863
Si Si5 0.498957 0.543817 0.601351
Si Si6 0.988979 0.540076 0.270858
Si Si7 0.765923 0.031856 0.235198
O O1 0.718901 0.750000 0.435208
O O2 0.651085 0.030279 0.522036
O O3 0.886983 0.029860 0.359608
O O4 0.614755 0.035623 0.417721
O O5 0.723367 0.250000 0.878981
O O6 0.548096 0.498359 0.900777
O O7 0.849603 0.536702 0.798105
O O8 0.688985 0.533295 0.954720
O O9 0.645019 0.250000 0.032714
O O10 0.718634 0.966113 0.066401
O O11 0.815350 0.250000 0.087301
O O12 0.807208 0.530874 0.154716
O O13 0.000000 0.500000 0.000000
O O14 0.529488 0.750000 0.607035
O O15 0.397030 0.467359 0.688566
O O16 0.009591 0.750000 0.277080
O O17 0.888076 0.524379 0.244048
O O18 0.763932 0.250000 0.237157
#
# Coordination Sequence:
#
# PCOD9160999 Si02
#       7
#     4   4   4   4   4   4   4
#     4   8  13  21  35  55  79 106 132 159 194 235
#     4   9  17  29  44  60  78 101 131 168 204 237
#     4   9  18  31  44  58  78 104 133 165 201 238
#     4  10  20  32  45  62  84 109 136 166 200 239
#     4   8  13  22  35  53  79 107 133 160 191 231
#     4   9  16  26  41  62  86 109 134 165 202 241
#     4   9  17  27  40  60  85 111 137 164 196 238
#
# _framework density 18.814876999999999
#
# number of rings (size 3 to 8) (size 9 to 14) (size 15 to 20)
#    0.000    3.143    0.000    0.857    0.000    2.857 
#    0.000    2.857    0.000    0.000    0.000    1.000 
#    0.000    0.000    0.000    0.000    0.000    0.000 
#
# Total GULP energy -155911.563496 kJ/mol
# GULP energy per Si atom -5568.270125 kJ/mol
# Density = 1.877205 g / cm^3
# Si number density = 18.814877 Si / 1000 Ang^3
#
#
#
# Elastic Constant Matrix: (Units=GPa)
#
#
# Indices 1 2 3 4 5 6 
#
# 1 53.3133 -10.7707 59.0670 0.0000 -16.9197 0.0000
# 2 -10.7707 56.5801 -4.3362 0.0000 -1.3143 0.0000
# 3 59.0670 -4.3362 197.2460 0.0000 -31.6353 0.0000
# 4 0.0000 0.0000 0.0000 2.1360 0.0000 2.4231
# 5 -16.9197 -1.3143 -31.6353 0.0000 27.5320 0.0000
# 6 0.0000 0.0000 0.0000 2.4231 0.0000 8.8666
#
#
#
# Elastic Compliance Matrix: (Units=1/GPa)
#
#
# Indices 1 2 3 4 5 6 
#
# 1 0.031918 0.005747 -0.007652 0.000000 0.011097 0.000000
# 2 0.005747 0.018795 -0.000732 0.000000 0.003588 0.000000
# 3 -0.007652 -0.000732 0.008073 0.000000 0.004539 0.000000
# 4 0.000000 0.000000 0.000000 0.678510 0.000000 -0.185422
# 5 0.011097 0.003588 0.004539 0.000000 0.048528 0.000000
# 6 0.000000 0.000000 0.000000 -0.185422 0.000000 0.163454
#
#
# Mechanical properties :
#
#
# Convention : Reuss Voigt Hill
#
# Bulk Modulus (GPa) = 18.68746 43.89552 31.29149
# Shear Modulus (GPa) = 5.14197 25.25221 15.19709
#
# Velocity S-wave (km/s) = 1.65495 3.66750 2.84512
# Velocity P-wave (km/s) = 3.68858 6.42767 5.24026
#
# Compressibility (1/GPa) = 0.05351182
#
# Stress axis : x y z
#
# Youngs Moduli (GPa) = 31.33067 53.20472 123.86826
#
# Poissons Ratio (x) = -0.30578 0.94782
# Poissons Ratio (y) = -0.18007 0.09073
# Poissons Ratio (z) = 0.23974 0.03897
#
# Static dielectric constant tensor:
#      x y z
#    x 1.605370 0.000000 -0.024270 
#    y 0.000000 1.722330 0.000000 
#    z -0.024270 0.000000 1.724500 
# 
# From -- ./inp_files/26428.got.cif
#   From: 2010.05.17/outbox.cif.g08.bks.cpg/sg11_14_cif.got.tgz:26428.got - 2010.06.03 12:22:45.
