data_PCOD9160734
_publ_section_title
;
Structure prediction by ZEFSAII (Michael W. Deem and Ramdas Pophale) SiO2 
 PCOD9160734
Probable space group: P 21/M
;
_chemical_formula_sum "Si O2"
_cell_formula_units_Z 32
_cell_length_a 12.093607
_cell_length_b 8.097797
_cell_length_c 15.704130
_cell_angle_alpha 90.000000
_cell_angle_beta 94.825700
_cell_angle_gamma 90.000000
_cell_volume 1532.478561
_symmetry_space_group_name_H-M "P 21/M"
_symmetry_group_IT_number 11
_symmetry_cell_setting 'monoclinic'
loop_
_space_group_symop_operation_xyz
x,y,z
-x,1/2+y,-z
-x,-y,-z
x,1/2-y,z
loop_
_atom_site_type_symbol
_atom_site_label
_atom_site_fract_x
_atom_site_fract_y
_atom_site_fract_z
Si Si1 0.931284 0.554079 0.881477
Si Si2 0.828662 0.054664 0.041225
Si Si3 0.579669 0.446679 0.582384
Si Si4 0.439629 0.949056 0.732153
Si Si5 0.585547 0.449901 0.078571
Si Si6 0.821908 0.451943 0.540736
Si Si7 0.198343 0.550704 0.653467
Si Si8 0.027655 0.946743 0.297120
O O1 0.929378 0.750000 0.896658
O O2 0.845507 0.473737 0.941568
O O3 0.912305 0.518384 0.781613
O O4 0.055993 0.488454 0.911366
O O5 0.828409 0.250000 0.059520
O O6 0.711073 0.989129 0.066910
O O7 0.500000 0.500000 0.500000
O O8 0.583380 0.250000 0.581832
O O9 0.531261 0.501487 0.669556
O O10 0.703600 0.506280 0.570604
O O11 0.436535 0.750000 0.733214
O O12 0.452840 0.006376 0.830145
O O13 0.319527 0.006988 0.689988
O O14 0.589840 0.250000 0.080038
O O15 0.500000 0.500000 0.000000
O O16 0.823919 0.250000 0.538916
O O17 0.829298 0.508666 0.443810
O O18 0.917044 0.507448 0.611452
O O19 0.200914 0.750000 0.652715
O O20 0.100787 0.496780 0.709468
O O21 0.036982 0.750000 0.294653
#
# Coordination Sequence:
#
# PCOD9160734 Si02
#       8
#     4   4   4   4   4   4   4   4
#     4  10  20  36  59  85 111 145 185 230 283 339
#     4   9  19  38  61  82 108 146 189 233 282 335
#     4  11  21  38  61  85 113 149 193 239 285 336
#     4  10  21  39  62  86 114 152 193 237 288 342
#     4  10  22  39  59  84 117 154 192 236 290 344
#     4   9  20  37  56  78 111 152 186 228 284 333
#     4  10  19  37  60  79 109 150 190 234 283 334
#     4  11  22  35  53  83 118 148 185 229 277 339
#
# _framework density 20.881204
#
# number of rings (size 3 to 8) (size 9 to 14) (size 15 to 20)
#    0.000    2.000    1.250    2.250    0.000    5.000 
#    0.000    8.125    0.000    0.000    0.000    0.000 
#    0.000    0.000    0.000    0.000    0.000    0.000 
#
# Total GULP energy -178745.974805 kJ/mol
# GULP energy per Si atom -5585.811713 kJ/mol
# Density = 2.083368 g / cm^3
# Si number density = 20.881204 Si / 1000 Ang^3
#
#
#
# Elastic Constant Matrix: (Units=GPa)
#
#
# Indices 1 2 3 4 5 6 
#
# 1 62.5899 0.8940 16.2320 0.0000 -20.6420 0.0000
# 2 0.8940 10.5892 -2.4688 0.0000 1.4315 0.0000
# 3 16.2320 -2.4688 124.4535 0.0000 -18.1556 0.0000
# 4 0.0000 0.0000 0.0000 28.7037 0.0000 -5.0089
# 5 -20.6420 1.4315 -18.1556 0.0000 33.2016 0.0000
# 6 0.0000 0.0000 0.0000 -5.0089 0.0000 23.4203
#
#
#
# Elastic Compliance Matrix: (Units=1/GPa)
#
#
# Indices 1 2 3 4 5 6 
#
# 1 0.020319 -0.003592 -0.000930 0.000000 0.012279 0.000000
# 2 -0.003592 0.095849 0.001566 0.000000 -0.005510 0.000000
# 3 -0.000930 0.001566 0.008795 0.000000 0.004163 0.000000
# 4 0.000000 0.000000 0.000000 0.036189 0.000000 0.007740
# 5 0.012279 -0.005510 0.004163 0.000000 0.040267 0.000000
# 6 0.000000 0.000000 0.000000 0.007740 0.000000 0.044353
#
#
# Mechanical properties :
#
#
# Convention : Reuss Voigt Hill
#
# Bulk Modulus (GPa) = 8.39980 25.21634 16.80807
# Shear Modulus (GPa) = 17.16038 29.26348 23.21193
#
# Velocity S-wave (km/s) = 2.86983 3.74762 3.33771
# Velocity P-wave (km/s) = 3.87462 5.55235 4.78755
#
# Compressibility (1/GPa) = 0.11905049
#
# Stress axis : x y z
#
# Youngs Moduli (GPa) = 49.21469 10.43309 113.70246
#
# Poissons Ratio (x) = 0.03748 0.10576
# Poissons Ratio (y) = 0.17679 -0.17807
# Poissons Ratio (z) = 0.04578 -0.01634
#
# Static dielectric constant tensor:
#      x y z
#    x 1.731120 0.000000 0.004990 
#    y 0.000000 1.746310 0.000000 
#    z 0.004990 0.000000 1.741920 
# 
# From -- ./inp_files/49408.got.cif
#   From: 2010.05.17/outbox.cif.g08.bks.cpg/sg11_25_cif.got.tgz:49408.got - 2010.06.03 12:22:45.
