data_PCOD9160178
_publ_section_title
;
Structure prediction by ZEFSAII (Michael W. Deem and Ramdas Pophale) SiO2 
 PCOD9160178
Probable space group: P 21/M
;
_chemical_formula_sum "Si O2"
_cell_formula_units_Z 32
_cell_length_a 17.240216
_cell_length_b 8.426423
_cell_length_c 26.544845
_cell_angle_alpha 90.000000
_cell_angle_beta 153.328374
_cell_angle_gamma 90.000000
_cell_volume 1730.983986
_symmetry_space_group_name_H-M "P 21/M"
_symmetry_group_IT_number 11
_symmetry_cell_setting 'monoclinic'
loop_
_space_group_symop_operation_xyz
x,y,z
-x,1/2+y,-z
-x,-y,-z
x,1/2-y,z
loop_
_atom_site_type_symbol
_atom_site_label
_atom_site_fract_x
_atom_site_fract_y
_atom_site_fract_z
Si Si1 0.269779 0.441835 0.670999
Si Si2 0.467869 0.058937 0.537928
Si Si3 0.177066 0.433789 0.227618
Si Si4 0.091249 0.442040 0.361421
Si Si5 0.648003 0.440194 0.921548
Si Si6 0.066458 0.939938 0.460925
Si Si7 0.918399 0.569815 0.002761
Si Si8 0.091714 0.938265 0.841738
O O1 0.273485 0.250000 0.672474
O O2 0.453708 0.498826 0.799324
O O3 0.220767 0.498409 0.586396
O O4 0.111586 0.493014 0.615160
O O5 0.482314 0.250000 0.547843
O O6 0.281013 0.013757 0.450821
O O7 0.500000 0.000000 0.500000
O O8 0.623782 0.977398 0.658227
O O9 0.147650 0.250000 0.195315
O O10 0.071759 0.552465 0.131887
O O11 0.087079 0.450036 0.230198
O O12 0.083276 0.250000 0.357036
O O13 0.070647 0.501443 0.406159
O O14 0.949900 0.501225 0.238220
O O15 0.640829 0.250000 0.922905
O O16 0.761259 0.477674 0.937829
O O17 0.756001 0.502124 0.033168
O O18 0.070776 0.750000 0.463823
O O19 0.865414 0.750000 0.964013
O O20 0.000000 0.500000 0.000000
O O21 0.126449 0.750000 0.856495
#
# Coordination Sequence:
#
# PCOD9160178 Si02
#       8
#     4   4   4   4   4   4   4   4
#     4   9  19  38  61  82 107 140 180 224 280 339
#     4  11  21  33  51  77 108 145 186 228 270 322
#     4  10  19  35  54  74 103 142 184 225 270 322
#     4  10  20  35  53  77 111 148 183 220 273 335
#     4   9  18  35  60  82 104 140 181 224 274 329
#     4  10  21  36  56  83 110 140 179 229 279 324
#     4  11  22  36  53  78 109 143 181 224 270 321
#     4   8  15  31  53  76 103 139 176 211 260 324
#
# _framework density 18.486594
#
# number of rings (size 3 to 8) (size 9 to 14) (size 15 to 20)
#    0.000    2.250    1.250    3.000    0.000    3.000 
#    0.000    2.500    0.000    0.000    0.000    0.000 
#    0.000    0.000    0.000    0.000    0.000    0.000 
#
# Total GULP energy -178352.247073 kJ/mol
# GULP energy per Si atom -5573.507721 kJ/mol
# Density = 1.844452 g / cm^3
# Si number density = 18.486594 Si / 1000 Ang^3
#
#
#
# Elastic Constant Matrix: (Units=GPa)
#
#
# Indices 1 2 3 4 5 6 
#
# 1 105.7234 11.2250 59.6255 0.0000 -19.4584 0.0000
# 2 11.2250 18.7058 15.0155 0.0000 -2.7294 0.0000
# 3 59.6255 15.0155 141.8480 0.0000 0.9380 0.0000
# 4 0.0000 0.0000 0.0000 21.4887 0.0000 -0.9500
# 5 -19.4584 -2.7294 0.9380 0.0000 20.4547 0.0000
# 6 0.0000 0.0000 0.0000 -0.9500 0.0000 25.7267
#
#
#
# Elastic Compliance Matrix: (Units=1/GPa)
#
#
# Indices 1 2 3 4 5 6 
#
# 1 0.016365 -0.002120 -0.006758 0.000000 0.015595 0.000000
# 2 -0.002120 0.060066 -0.005508 0.000000 0.006250 0.000000
# 3 -0.006758 -0.005508 0.010524 0.000000 -0.007646 0.000000
# 4 0.000000 0.000000 0.000000 0.046612 0.000000 0.001721
# 5 0.015595 0.006250 -0.007646 0.000000 0.064909 0.000000
# 6 0.000000 0.000000 0.000000 0.001721 0.000000 0.038934
#
#
# Mechanical properties :
#
#
# Convention : Reuss Voigt Hill
#
# Bulk Modulus (GPa) = 17.18750 48.66769 32.92760
# Shear Modulus (GPa) = 17.50843 25.56143 21.53493
#
# Velocity S-wave (km/s) = 3.08082 3.72250 3.41676
# Velocity P-wave (km/s) = 4.68751 6.69770 5.78065
#
# Compressibility (1/GPa) = 0.05818183
#
# Stress axis : x y z
#
# Youngs Moduli (GPa) = 61.10489 16.64848 95.02026
#
# Poissons Ratio (x) = 0.03530 0.64213
# Poissons Ratio (y) = 0.12957 0.52340
# Poissons Ratio (z) = 0.41293 0.09171
#
# Static dielectric constant tensor:
#      x y z
#    x 1.615660 0.000000 0.000450 
#    y 0.000000 1.637160 0.000000 
#    z 0.000450 0.000000 1.651660 
# 
# From -- ./inp_files/69135.got.cif
#   From: 2010.05.17/outbox.cif.g08.bks.cpg/sg11_35_cif.got.tgz:69135.got - 2010.06.03 12:22:45.
