data_PCOD9160064
_publ_section_title
;
Structure prediction by ZEFSAII (Michael W. Deem and Ramdas Pophale) SiO2 
 PCOD9160064
Probable space group: P 21/M
;
_chemical_formula_sum "Si O2"
_cell_formula_units_Z 32
_cell_length_a 19.300868
_cell_length_b 16.016436
_cell_length_c 14.344807
_cell_angle_alpha 90.000000
_cell_angle_beta 18.121550
_cell_angle_gamma 90.000000
_cell_volume 1379.256942
_symmetry_space_group_name_H-M "P 21/M"
_symmetry_group_IT_number 11
_symmetry_cell_setting 'monoclinic'
loop_
_space_group_symop_operation_xyz
x,y,z
-x,1/2+y,-z
-x,-y,-z
x,1/2-y,z
loop_
_atom_site_type_symbol
_atom_site_label
_atom_site_fract_x
_atom_site_fract_y
_atom_site_fract_z
Si Si1 0.397900 0.155918 0.374666
Si Si2 0.677952 0.005621 0.406450
Si Si3 0.284977 0.917349 0.176049
Si Si4 0.643430 0.603612 0.882676
Si Si5 0.057759 0.343525 0.246496
Si Si6 0.971832 0.660176 0.316815
Si Si7 0.174453 0.494183 0.981464
Si Si8 0.431996 0.659538 0.337832
O O1 0.415778 0.250000 0.389651
O O2 0.330501 0.084133 0.533053
O O3 0.213587 0.158754 0.528302
O O4 0.623493 0.126486 0.033617
O O5 0.841590 0.007110 0.108833
O O6 0.431857 0.020500 0.677686
O O7 0.699753 0.081796 0.450812
O O8 0.076562 0.872981 0.490547
O O9 0.265521 0.017069 0.190016
O O10 0.479711 0.911327 0.004889
O O11 0.846966 0.652013 0.575282
O O12 0.492896 0.647775 0.151963
O O13 0.986830 0.250000 0.309845
O O14 0.034285 0.416094 0.199693
O O15 0.319485 0.339921 0.935501
O O16 0.088299 0.750000 0.161874
O O17 0.109006 0.577526 0.120296
O O18 0.327290 0.750000 0.490142
#
# Coordination Sequence:
#
# PCOD9160064 Si02
#       8
#     4   4   4   4   4   4   4   4
#     4  10  21  37  57  83 114 145 180 225 274 326
#     4  10  22  39  58  80 108 146 189 231 273 320
#     4  10  19  34  58  84 111 144 179 220 273 331
#     4  10  19  34  58  84 111 144 179 220 273 331
#     4  10  21  36  55  81 112 144 181 227 275 325
#     4  10  21  37  57  83 114 145 180 225 274 326
#     4  10  22  39  58  80 108 146 189 231 273 320
#     4  10  21  36  55  81 112 144 181 227 275 325
#
# _framework density 23.200897999999999
#
# number of rings (size 3 to 8) (size 9 to 14) (size 15 to 20)
#    0.000    2.000    2.500    0.750    0.000    5.000 
#    0.000    2.500    0.000    0.000    0.000    0.000 
#    0.000    0.000    0.000    0.000    0.000    0.000 
#
# Total GULP energy -178954.594053 kJ/mol
# GULP energy per Si atom -5592.331064 kJ/mol
# Density = 2.314809 g / cm^3
# Si number density = 23.200898 Si / 1000 Ang^3
#
#
#
# Elastic Constant Matrix: (Units=GPa)
#
#
# Indices 1 2 3 4 5 6 
#
# 1 63.5568 31.1682 21.5493 0.0000 21.9969 0.0000
# 2 31.1682 205.2134 51.2218 0.0000 36.1424 0.0000
# 3 21.5493 51.2218 78.3633 0.0000 18.3737 0.0000
# 4 0.0000 0.0000 0.0000 -7.3238 0.0000 -7.3812
# 5 21.9969 36.1424 18.3737 0.0000 42.3140 0.0000
# 6 0.0000 0.0000 0.0000 -7.3812 0.0000 20.5576
#
#
#
# Elastic Compliance Matrix: (Units=1/GPa)
#
#
# Indices 1 2 3 4 5 6 
#
# 1 0.020072 -0.000812 -0.003012 0.000000 -0.008433 0.000000
# 2 -0.000812 0.006426 -0.003105 0.000000 -0.003719 0.000000
# 3 -0.003012 -0.003105 0.016288 0.000000 -0.002855 0.000000
# 4 0.000000 0.000000 0.000000 -0.100260 0.000000 -0.035999
# 5 -0.008433 -0.003719 -0.002855 0.000000 0.032433 0.000000
# 6 0.000000 0.000000 0.000000 -0.035999 0.000000 0.035718
#
#
# Mechanical properties :
#
#
# Convention : Reuss Voigt Hill
#
# Bulk Modulus (GPa) = 34.56724 61.66800 48.11762
# Shear Modulus (GPa) = 146.29356 27.32253 86.80804
#
# Velocity S-wave (km/s) = 7.94934 3.43541 6.12348
# Velocity P-wave (km/s) = 9.95929 6.50952 8.41312
#
# Compressibility (1/GPa) = 0.02892913
#
# Stress axis : x y z
#
# Youngs Moduli (GPa) = 49.82102 155.61074 61.39307
#
# Poissons Ratio (x) = 0.12628 0.18490
# Poissons Ratio (y) = 0.04043 0.19065
# Poissons Ratio (z) = 0.15005 0.48324
#
# Static dielectric constant tensor:
#      x y z
#    x 1.920460 0.000000 -0.064740 
#    y 0.000000 1.853850 0.000000 
#    z -0.064740 0.000000 1.867040 
# 
# From -- ./inp_files/18660.got.cif
#   From: 2010.05.17/outbox.cif.g08.bks.cpg/sg11_10_cif.got.tgz:18660.got - 2010.06.03 12:22:45.
