data_PCOD9160254
_publ_section_title
;
Structure prediction by ZEFSAII (Michael W. Deem and Ramdas Pophale) SiO2 
 PCOD9160254
Probable space group: P 21/M
;
_chemical_formula_sum "Si O2"
_cell_formula_units_Z 28
_cell_length_a 32.990633
_cell_length_b 9.354909
_cell_length_c 5.315094
_cell_angle_alpha 90.000000
_cell_angle_beta 120.788669
_cell_angle_gamma 90.000000
_cell_volume 1409.176010
_symmetry_space_group_name_H-M "P 21/M"
_symmetry_group_IT_number 11
_symmetry_cell_setting 'monoclinic'
loop_
_space_group_symop_operation_xyz
x,y,z
-x,1/2+y,-z
-x,-y,-z
x,1/2-y,z
loop_
_atom_site_type_symbol
_atom_site_label
_atom_site_fract_x
_atom_site_fract_y
_atom_site_fract_z
Si Si1 0.426702 0.406821 0.811822
Si Si2 0.188530 0.924089 0.833294
Si Si3 0.344060 0.078123 0.894073
Si Si4 0.474384 0.903720 0.618493
Si Si5 0.288571 0.423441 0.210867
Si Si6 0.132641 0.577850 0.156315
Si Si7 0.978523 0.074544 0.181706
O O1 0.408091 0.250000 0.670003
O O2 0.396136 0.456820 0.952217
O O3 0.429876 0.523142 0.606223
O O4 0.481557 0.385755 0.050485
O O5 0.193384 0.750000 0.848537
O O6 0.161660 0.969308 0.493478
O O7 0.239019 0.998973 0.012609
O O8 0.157380 0.967410 0.976194
O O9 0.344326 0.250000 0.913000
O O10 0.323645 0.029706 0.095950
O O11 0.310002 0.039216 0.551971
O O12 0.462092 0.750000 0.472397
O O13 0.500000 0.000000 0.500000
O O14 0.283221 0.250000 0.184645
O O15 0.134731 0.750000 0.164520
O O16 0.077524 0.542690 0.994886
O O17 0.984864 0.250000 0.201809
O O18 0.000000 0.000000 0.500000
O O19 0.000000 0.000000 0.000000
#
# Coordination Sequence:
#
# PCOD9160254 Si02
#       7
#     4   4   4   4   4   4   4
#     4   9  19  35  54  75  99 137 180 217 257 320
#     4  10  19  35  57  79 104 142 189 230 273 333
#     4   9  19  34  56  78 103 139 179 213 264 333
#     4  10  20  33  53  78 105 135 173 218 266 314
#     4  10  20  35  54  80 108 137 173 225 279 325
#     4   9  19  35  57  80 108 151 194 229 277 345
#     4  11  22  39  61  88 123 162 205 250 300 356
#
# _framework density 19.869768000000001
#
# number of rings (size 3 to 8) (size 9 to 14) (size 15 to 20)
#    0.000    2.286    0.000    2.571    2.000    2.857 
#    0.000    5.714    0.000    0.000    0.000    0.000 
#    0.000    0.000    0.000    0.000    0.000    0.000 
#
# Total GULP energy -156067.143072 kJ/mol
# GULP energy per Si atom -5573.826538 kJ/mol
# Density = 1.982454 g / cm^3
# Si number density = 19.869768 Si / 1000 Ang^3
#
#
#
# Elastic Constant Matrix: (Units=GPa)
#
#
# Indices 1 2 3 4 5 6 
#
# 1 132.4766 33.1319 35.4808 0.0000 -4.4852 0.0000
# 2 33.1319 72.3643 17.9215 0.0000 -8.8658 0.0000
# 3 35.4808 17.9215 97.9695 0.0000 -5.0235 0.0000
# 4 0.0000 0.0000 0.0000 17.8505 0.0000 4.1258
# 5 -4.4852 -8.8658 -5.0235 0.0000 38.8336 0.0000
# 6 0.0000 0.0000 0.0000 4.1258 0.0000 29.1294
#
#
#
# Elastic Compliance Matrix: (Units=1/GPa)
#
#
# Indices 1 2 3 4 5 6 
#
# 1 0.009145 -0.003538 -0.002670 0.000000 -0.000097 0.000000
# 2 -0.003538 0.016195 -0.001523 0.000000 0.003092 0.000000
# 3 -0.002670 -0.001523 0.011495 0.000000 0.000831 0.000000
# 4 0.000000 0.000000 0.000000 0.057917 0.000000 -0.008203
# 5 -0.000097 0.003092 0.000831 0.000000 0.026553 0.000000
# 6 0.000000 0.000000 0.000000 -0.008203 0.000000 0.035491
#
#
# Mechanical properties :
#
#
# Convention : Reuss Voigt Hill
#
# Bulk Modulus (GPa) = 46.78471 52.87544 49.83007
# Shear Modulus (GPa) = 27.87354 31.58111 29.72732
#
# Velocity S-wave (km/s) = 3.74948 3.99106 3.87215
# Velocity P-wave (km/s) = 6.50704 6.92148 6.71745
#
# Compressibility (1/GPa) = 0.02137451
#
# Stress axis : x y z
#
# Youngs Moduli (GPa) = 109.34893 61.74898 86.99192
#
# Poissons Ratio (x) = 0.21845 0.23225
# Poissons Ratio (y) = 0.38684 0.13246
# Poissons Ratio (z) = 0.29194 0.09403
#
# Static dielectric constant tensor:
#      x y z
#    x 1.682000 0.000000 -0.005710 
#    y 0.000000 1.412490 0.000000 
#    z -0.005710 0.000000 1.766280 
# 
# From -- ./inp_files/9702.got.cif
#   From: 2010.05.17/outbox.cif.g08.bks.cpg/sg11_5_cif.got.tgz:9702.got - 2010.06.03 12:22:45.
