data_PCOD9160904
_publ_section_title
;
Structure prediction by ZEFSAII (Michael W. Deem and Ramdas Pophale) SiO2 
 PCOD9160904
Probable space group: P 21/M
;
_chemical_formula_sum "Si O2"
_cell_formula_units_Z 22
_cell_length_a 8.942102
_cell_length_b 10.550289
_cell_length_c 11.034314
_cell_angle_alpha 90.000000
_cell_angle_beta 67.728908
_cell_angle_gamma 90.000000
_cell_volume 963.339355
_symmetry_space_group_name_H-M "P 21/M"
_symmetry_group_IT_number 11
_symmetry_cell_setting 'monoclinic'
loop_
_space_group_symop_operation_xyz
x,y,z
-x,1/2+y,-z
-x,-y,-z
x,1/2-y,z
loop_
_atom_site_type_symbol
_atom_site_label
_atom_site_fract_x
_atom_site_fract_y
_atom_site_fract_z
Si Si1 0.344717 0.008591 0.244895
Si Si2 0.740236 0.250000 0.069572
Si Si3 0.605062 0.750000 0.938381
Si Si4 0.130190 0.250000 0.925332
Si Si5 0.327291 0.482851 0.780365
Si Si6 0.670830 0.890787 0.473599
Si Si7 0.033353 0.886241 0.398857
O O1 0.354992 0.123340 0.150006
O O2 0.334857 0.066748 0.384703
O O3 0.513859 0.935048 0.195067
O O4 0.187810 0.923831 0.273260
O O5 0.597191 0.250000 0.008752
O O6 0.708752 0.377541 0.158306
O O7 0.934117 0.250000 0.986389
O O8 0.750176 0.750000 0.993408
O O9 0.188486 0.381261 0.846595
O O10 0.374589 0.482315 0.623289
O O11 0.595818 0.750000 0.483156
O O12 0.862407 0.876655 0.388565
O O13 0.066510 0.750000 0.449406
O O14 0.000000 0.000000 0.500000
#
# Coordination Sequence:
#
# PCOD9160904 Si02
#       7
#     4   2   2   2   4   4   4
#     4  10  21  40  66  94 137 168 219 271 341 405
#     4  10  26  48  66  96 138 176 224 282 338 388
#     4  10  24  45  71  96 129 183 223 280 340 393
#     4  12  26  47  73  96 129 173 241 282 326 395
#     4  11  24  44  65 100 128 175 223 273 340 399
#     4  10  19  39  64  96 135 174 208 267 340 404
#     4   9  20  35  57  93 133 173 211 262 324 397
#
# _framework density 22.837229000000001
#
# number of rings (size 3 to 8) (size 9 to 14) (size 15 to 20)
#    0.000    1.818    1.818    1.091    5.091    2.909 
#    9.818    0.000    0.000    0.000    0.000    0.000 
#    0.000    0.000    0.000    0.000    0.000    0.000 
#
# Total GULP energy -122509.191521 kJ/mol
# GULP energy per Si atom -5568.599615 kJ/mol
# Density = 2.278525 g / cm^3
# Si number density = 22.837229 Si / 1000 Ang^3
#
#
#
# Elastic Constant Matrix: (Units=GPa)
#
#
# Indices 1 2 3 4 5 6 
#
# 1 107.2589 11.5126 43.9198 0.0000 -8.7703 0.0000
# 2 11.5126 81.9570 7.8572 0.0000 -3.5291 0.0000
# 3 43.9198 7.8572 63.9998 0.0000 3.4412 0.0000
# 4 0.0000 0.0000 0.0000 29.0521 0.0000 -13.2585
# 5 -8.7703 -3.5291 3.4412 0.0000 43.6385 0.0000
# 6 0.0000 0.0000 0.0000 -13.2585 0.0000 20.8886
#
#
#
# Elastic Compliance Matrix: (Units=1/GPa)
#
#
# Indices 1 2 3 4 5 6 
#
# 1 0.013524 -0.000857 -0.009358 0.000000 0.003387 0.000000
# 2 -0.000857 0.012456 -0.000990 0.000000 0.000913 0.000000
# 3 -0.009358 -0.000990 0.022369 0.000000 -0.003725 0.000000
# 4 0.000000 0.000000 0.000000 0.048458 0.000000 0.030757
# 5 0.003387 0.000913 -0.003725 0.000000 0.023964 0.000000
# 6 0.000000 0.000000 0.000000 0.030757 0.000000 0.067395
#
#
# Mechanical properties :
#
#
# Convention : Reuss Voigt Hill
#
# Bulk Modulus (GPa) = 38.55202 42.19946 40.37574
# Shear Modulus (GPa) = 22.80803 31.37758 27.09280
#
# Velocity S-wave (km/s) = 3.16368 3.71073 3.44807
# Velocity P-wave (km/s) = 5.50119 6.07271 5.79400
#
# Compressibility (1/GPa) = 0.02593898
#
# Stress axis : x y z
#
# Youngs Moduli (GPa) = 73.94370 80.28170 44.70565
#
# Poissons Ratio (x) = 0.06878 0.41834
# Poissons Ratio (y) = 0.06335 0.04428
# Poissons Ratio (z) = 0.69194 0.07951
#
# Static dielectric constant tensor:
#      x y z
#    x 1.910340 0.000000 -0.032410 
#    y 0.000000 1.826950 0.000000 
#    z -0.032410 0.000000 1.900030 
# 
# From -- ./inp_files/16866.got.cif
#   From: 2010.05.17/outbox.cif.g08.bks.cpg/sg11_9_cif.got.tgz:16866.got - 2010.06.03 12:22:45.
