data_PCOD9160014
_publ_section_title
;
Structure prediction by ZEFSAII (Michael W. Deem and Ramdas Pophale) SiO2 
 PCOD9160014
Probable space group: P 21/M
;
_chemical_formula_sum "Si O2"
_cell_formula_units_Z 28
_cell_length_a 12.033915
_cell_length_b 14.513261
_cell_length_c 7.960622
_cell_angle_alpha 90.000000
_cell_angle_beta 66.229012
_cell_angle_gamma 90.000000
_cell_volume 1272.382895
_symmetry_space_group_name_H-M "P 21/M"
_symmetry_group_IT_number 11
_symmetry_cell_setting 'monoclinic'
loop_
_space_group_symop_operation_xyz
x,y,z
-x,1/2+y,-z
-x,-y,-z
x,1/2-y,z
loop_
_atom_site_type_symbol
_atom_site_label
_atom_site_fract_x
_atom_site_fract_y
_atom_site_fract_z
Si Si1 0.408157 0.975570 0.206035
Si Si2 0.390123 0.143368 0.784413
Si Si3 0.800771 0.151823 0.800677
Si Si4 0.156848 0.444280 0.775167
Si Si5 0.071907 0.640247 0.913024
Si Si6 0.958439 0.896496 0.498274
Si Si7 0.286091 0.149642 0.228051
O O1 0.481551 0.910160 0.286792
O O2 0.292872 0.924716 0.196408
O O3 0.352758 0.072229 0.297499
O O4 0.500000 0.000000 0.000000
O O5 0.399353 0.250000 0.723053
O O6 0.291181 0.083993 0.745105
O O7 0.340230 0.146209 0.007487
O O8 0.735747 0.250000 0.838340
O O9 0.915369 0.154306 0.605909
O O10 0.857283 0.137186 0.950661
O O11 0.134532 0.555214 0.773168
O O12 0.115624 0.394788 0.630073
O O13 0.062859 0.399651 0.967897
O O14 0.071870 0.750000 0.861364
O O15 0.859122 0.865382 0.692017
O O16 0.000000 0.000000 0.500000
O O17 0.308743 0.250000 0.286270
#
# Coordination Sequence:
#
# PCOD9160014 Si02
#       7
#     4   4   4   4   4   4   4
#     4  10  19  34  57  83 117 148 193 242 282 332
#     4  10  21  37  60  88 116 154 198 241 287 342
#     4  10  19  34  58  85 114 147 188 235 287 341
#     4  10  21  35  56  81 114 152 189 238 294 343
#     4   9  18  32  54  82 111 146 189 238 289 342
#     4  11  22  38  59  83 116 152 189 238 292 351
#     4  10  21  37  59  87 117 154 196 238 290 348
#
# _framework density 22.005955
#
# number of rings (size 3 to 8) (size 9 to 14) (size 15 to 20)
#    0.000    2.000    1.429    3.000    4.000    2.286 
#    0.000    2.143    0.000    0.000    0.000    0.000 
#    0.000    0.000    0.000    0.000    0.000    0.000 
#
# Total GULP energy -156257.147652 kJ/mol
# GULP energy per Si atom -5580.612416 kJ/mol
# Density = 2.195587 g / cm^3
# Si number density = 22.005955 Si / 1000 Ang^3
#
#
#
# Elastic Constant Matrix: (Units=GPa)
#
#
# Indices 1 2 3 4 5 6 
#
# 1 99.1439 45.3565 17.2404 0.0000 -15.1785 0.0000
# 2 45.3565 161.0689 16.3564 0.0000 -13.0510 0.0000
# 3 17.2404 16.3564 32.3932 0.0000 -11.6795 0.0000
# 4 0.0000 0.0000 0.0000 11.7691 0.0000 -8.2654
# 5 -15.1785 -13.0510 -11.6795 0.0000 27.0838 0.0000
# 6 0.0000 0.0000 0.0000 -8.2654 0.0000 -3.9675
#
#
#
# Elastic Compliance Matrix: (Units=1/GPa)
#
#
# Indices 1 2 3 4 5 6 
#
# 1 0.012683 -0.002851 -0.003840 0.000000 0.004078 0.000000
# 2 -0.002851 0.007282 -0.001741 0.000000 0.001160 0.000000
# 3 -0.003840 -0.001741 0.038738 0.000000 0.013714 0.000000
# 4 0.000000 0.000000 0.000000 0.034497 0.000000 -0.071867
# 5 0.004078 0.001160 0.013714 0.000000 0.045681 0.000000
# 6 0.000000 0.000000 0.000000 -0.071867 0.000000 -0.102331
#
#
# Mechanical properties :
#
#
# Convention : Reuss Voigt Hill
#
# Bulk Modulus (GPa) = 23.90142 50.05696 36.97919
# Shear Modulus (GPa) = 74.22697 21.22059 47.72378
#
# Velocity S-wave (km/s) = 5.81409 3.10871 4.66196
# Velocity P-wave (km/s) = 7.48040 5.97342 6.76898
#
# Compressibility (1/GPa) = 0.04183852
#
# Stress axis : x y z
#
# Youngs Moduli (GPa) = 78.84731 137.32087 25.81414
#
# Poissons Ratio (x) = 0.39151 0.09913
# Poissons Ratio (y) = 0.22480 0.04495
# Poissons Ratio (z) = 0.30279 0.23911
#
# Static dielectric constant tensor:
#      x y z
#    x 1.804010 0.000000 0.036200 
#    y 0.000000 1.846670 0.000000 
#    z 0.036200 0.000000 1.868720 
# 
# From -- ./inp_files/17810.got.cif
#   From: 2010.05.17/outbox.cif.g08.bks.cpg/sg11_9_cif.got.tgz:17810.got - 2010.06.03 12:22:45.
