data_PCOD9160977
_publ_section_title
;
Structure prediction by ZEFSAII (Michael W. Deem and Ramdas Pophale) SiO2 
 PCOD9160977
Probable space group: P 21/M
;
_chemical_formula_sum "Si O2"
_cell_formula_units_Z 32
_cell_length_a 28.817132
_cell_length_b 7.685806
_cell_length_c 22.500510
_cell_angle_alpha 90.000000
_cell_angle_beta 17.394201
_cell_angle_gamma 90.000000
_cell_volume 1489.781864
_symmetry_space_group_name_H-M "P 21/M"
_symmetry_group_IT_number 11
_symmetry_cell_setting 'monoclinic'
loop_
_space_group_symop_operation_xyz
x,y,z
-x,1/2+y,-z
-x,-y,-z
x,1/2-y,z
loop_
_atom_site_type_symbol
_atom_site_label
_atom_site_fract_x
_atom_site_fract_y
_atom_site_fract_z
Si Si1 0.901886 0.459605 0.934792
Si Si2 0.785864 0.037051 0.750056
Si Si3 0.614833 0.541564 0.586309
Si Si4 0.057184 0.041080 0.864510
Si Si5 0.775026 0.961911 0.510591
Si Si6 0.457367 0.457583 0.118229
Si Si7 0.977468 0.549070 0.632319
Si Si8 0.734708 0.953751 0.025077
O O1 0.899256 0.250000 0.940088
O O2 0.937301 0.519688 0.959103
O O3 0.055077 0.524152 0.712837
O O4 0.763468 0.509318 0.059752
O O5 0.797536 0.250000 0.737567
O O6 0.864675 0.975913 0.591333
O O7 0.870218 0.961951 0.704389
O O8 0.607376 0.984910 0.971565
O O9 0.622064 0.750000 0.575811
O O10 0.766121 0.477408 0.364137
O O11 0.657545 0.489410 0.601337
O O12 0.440918 0.498564 0.779104
O O13 0.062909 0.250000 0.851822
O O14 0.000000 0.000000 0.000000
O O15 0.786295 0.750000 0.496991
O O16 0.702378 0.026570 0.660291
O O17 0.450237 0.250000 0.132424
O O18 0.500000 0.500000 0.000000
O O19 0.010472 0.750000 0.606791
O O20 0.873229 0.468613 0.813271
O O21 0.748304 0.750000 0.999227
#
# Coordination Sequence:
#
# PCOD9160977 Si02
#       8
#     4   4   4   4   4   4   4   4
#     4   9  19  36  56  79 108 143 182 218 257 316
#     4   9  18  33  49  66  91 129 175 217 266 323
#     4   9  18  36  60  82 105 140 182 217 255 313
#     4   9  19  37  63  90 114 141 176 216 257 311
#     4   8  16  33  54  74  97 132 183 228 259 310
#     4  10  20  31  46  68  95 128 169 217 266 312
#     4   9  19  33  48  68  98 131 168 218 268 316
#     4  11  22  33  50  80 114 141 174 224 275 315
#
# _framework density 21.479654
#
# number of rings (size 3 to 8) (size 9 to 14) (size 15 to 20)
#    0.000    2.750    0.000    2.625    1.750    3.500 
#    0.000    3.125    0.000    0.000    0.000    0.000 
#    0.000    0.000    0.000    0.000    0.000    0.000 
#
# Total GULP energy -178309.263419 kJ/mol
# GULP energy per Si atom -5572.164482 kJ/mol
# Density = 2.143077 g / cm^3
# Si number density = 21.479654 Si / 1000 Ang^3
#
#
#
# Elastic Constant Matrix: (Units=GPa)
#
#
# Indices 1 2 3 4 5 6 
#
# 1 109.7189 -5.6824 35.2223 0.0000 5.0236 0.0000
# 2 -5.6824 35.6064 3.0806 0.0000 -1.4801 0.0000
# 3 35.2223 3.0806 45.6506 0.0000 16.3156 0.0000
# 4 0.0000 0.0000 0.0000 13.7073 0.0000 4.2335
# 5 5.0236 -1.4801 16.3156 0.0000 37.8279 0.0000
# 6 0.0000 0.0000 0.0000 4.2335 0.0000 12.4587
#
#
#
# Elastic Compliance Matrix: (Units=1/GPa)
#
#
# Indices 1 2 3 4 5 6 
#
# 1 0.012720 0.003134 -0.011191 0.000000 0.003260 0.000000
# 2 0.003134 0.029189 -0.005494 0.000000 0.003095 0.000000
# 3 -0.011191 -0.005494 0.036007 0.000000 -0.014259 0.000000
# 4 0.000000 0.000000 0.000000 0.081508 0.000000 -0.027697
# 5 0.003260 0.003095 -0.014259 0.000000 0.032274 0.000000
# 6 0.000000 0.000000 0.000000 -0.027697 0.000000 0.089677
#
#
# Mechanical properties :
#
#
# Convention : Reuss Voigt Hill
#
# Bulk Modulus (GPa) = 19.67975 28.46853 24.07414
# Shear Modulus (GPa) = 15.36506 23.35580 19.36043
#
# Velocity S-wave (km/s) = 2.67747 3.30107 3.00549
# Velocity P-wave (km/s) = 4.32902 5.27370 4.82454
#
# Compressibility (1/GPa) = 0.05081365
#
# Stress axis : x y z
#
# Youngs Moduli (GPa) = 78.61821 34.25958 27.77253
#
# Poissons Ratio (x) = -0.10736 0.31079
# Poissons Ratio (y) = -0.24636 0.15258
# Poissons Ratio (z) = 0.87979 0.18822
#
# Static dielectric constant tensor:
#      x y z
#    x 1.805370 0.000000 0.004480 
#    y 0.000000 1.804620 0.000000 
#    z 0.004480 0.000000 1.828840 
# 
# From -- ./inp_files/67077.got.cif
#   From: 2010.05.17/outbox.cif.g08.bks.cpg/sg11_34_cif.got.tgz:67077.got - 2010.06.03 12:22:45.
