data_PCOD9160195
_publ_section_title
;
Structure prediction by ZEFSAII (Michael W. Deem and Ramdas Pophale) SiO2 
 PCOD9160195
Probable space group: P 21/M
;
_chemical_formula_sum "Si O2"
_cell_formula_units_Z 28
_cell_length_a 12.096074
_cell_length_b 12.062063
_cell_length_c 21.574071
_cell_angle_alpha 90.000000
_cell_angle_beta 28.829149
_cell_angle_gamma 90.000000
_cell_volume 1517.835909
_symmetry_space_group_name_H-M "P 21/M"
_symmetry_group_IT_number 11
_symmetry_cell_setting 'monoclinic'
loop_
_space_group_symop_operation_xyz
x,y,z
-x,1/2+y,-z
-x,-y,-z
x,1/2-y,z
loop_
_atom_site_type_symbol
_atom_site_label
_atom_site_fract_x
_atom_site_fract_y
_atom_site_fract_z
Si Si1 0.367815 0.369937 0.200380
Si Si2 0.966244 0.469897 0.704926
Si Si3 0.094091 0.618271 0.758273
Si Si4 0.892116 0.623285 0.987517
Si Si5 0.409150 0.872602 0.033961
Si Si6 0.374581 0.557976 0.807543
Si Si7 0.422537 0.382545 0.417016
O O1 0.249341 0.250000 0.252676
O O2 0.476982 0.380990 0.213792
O O3 0.197001 0.468013 0.264504
O O4 0.573486 0.369745 0.048829
O O5 0.028863 0.559099 0.727167
O O6 0.189579 0.420527 0.563253
O O7 0.824220 0.378386 0.813028
O O8 0.067929 0.750000 0.765553
O O9 0.357909 0.596444 0.646928
O O10 0.940653 0.582483 0.893271
O O11 0.818217 0.750000 0.020095
O O12 0.139407 0.616506 0.900303
O O13 0.714410 0.552147 0.114254
O O14 0.517724 0.750000 0.998485
O O15 0.500000 0.000000 0.000000
O O16 0.525769 0.550958 0.671503
O O17 0.419763 0.250000 0.404805
#
# Coordination Sequence:
#
# PCOD9160195 Si02
#       7
#     4   4   4   4   4   4   4
#     4  10  20  34  53  77 105 137 173 218 271 322
#     4  11  20  33  53  78 108 140 177 217 265 321
#     4   9  18  34  55  79 105 137 177 221 271 318
#     4   9  18  34  58  81 102 134 177 223 262 305
#     4   9  19  34  52  76 105 137 177 223 270 321
#     4  10  19  35  55  77 106 140 175 213 263 317
#     4  10  21  36  54  74 103 143 182 220 261 314
#
# _framework density 18.447317000000002
#
# number of rings (size 3 to 8) (size 9 to 14) (size 15 to 20)
#    0.000    2.286    0.000    4.286    0.000    1.143 
#    0.000    7.857    0.000    5.143    0.000    0.000 
#    0.000    0.000    0.000    0.000    0.000    0.000 
#
# Total GULP energy -155883.827451 kJ/mol
# GULP energy per Si atom -5567.279552 kJ/mol
# Density = 1.840533 g / cm^3
# Si number density = 18.447317 Si / 1000 Ang^3
#
#
#
# Elastic Constant Matrix: (Units=GPa)
#
#
# Indices 1 2 3 4 5 6 
#
# 1 75.4917 13.2465 24.4085 0.0000 6.8918 0.0000
# 2 13.2465 75.5078 36.9488 0.0000 -1.1250 0.0000
# 3 24.4085 36.9488 119.4835 0.0000 7.8522 0.0000
# 4 0.0000 0.0000 0.0000 23.5542 0.0000 2.3849
# 5 6.8918 -1.1250 7.8522 0.0000 16.0849 0.0000
# 6 0.0000 0.0000 0.0000 2.3849 0.0000 17.8799
#
#
#
# Elastic Compliance Matrix: (Units=1/GPa)
#
#
# Indices 1 2 3 4 5 6 
#
# 1 0.014715 -0.001606 -0.002157 0.000000 -0.005364 0.000000
# 2 -0.001606 0.015980 -0.004889 0.000000 0.004193 0.000000
# 3 -0.002157 -0.004889 0.010624 0.000000 -0.004604 0.000000
# 4 0.000000 0.000000 0.000000 0.043036 0.000000 -0.005740
# 5 -0.005364 0.004193 -0.004604 0.000000 0.067010 0.000000
# 6 0.000000 0.000000 0.000000 -0.005740 0.000000 0.056694
#
#
# Mechanical properties :
#
#
# Convention : Reuss Voigt Hill
#
# Bulk Modulus (GPa) = 41.63889 46.63228 44.13558
# Shear Modulus (GPa) = 21.42519 24.56242 22.99381
#
# Velocity S-wave (km/s) = 3.41167 3.65292 3.53435
# Velocity P-wave (km/s) = 6.17577 6.56698 6.37438
#
# Compressibility (1/GPa) = 0.02401601
#
# Stress axis : x y z
#
# Youngs Moduli (GPa) = 67.95593 62.57696 94.12215
#
# Poissons Ratio (x) = 0.10050 0.20302
# Poissons Ratio (y) = 0.10914 0.46018
# Poissons Ratio (z) = 0.14658 0.30595
#
# Static dielectric constant tensor:
#      x y z
#    x 1.632410 0.000000 -0.017350 
#    y 0.000000 1.666310 0.000000 
#    z -0.017350 0.000000 1.640240 
# 
# From -- ./inp_files/43189.got.cif
#   From: 2010.05.17/outbox.cif.g08.bks.cpg/sg11_22_cif.got.tgz:43189.got - 2010.06.03 12:22:45.
