data_PCOD9160647
_publ_section_title
;
Structure prediction by ZEFSAII (Michael W. Deem and Ramdas Pophale) SiO2 
 PCOD9160647
Probable space group: P 21/M
;
_chemical_formula_sum "Si O2"
_cell_formula_units_Z 28
_cell_length_a 28.193377
_cell_length_b 8.735117
_cell_length_c 9.935403
_cell_angle_alpha 90.000000
_cell_angle_beta 38.415184
_cell_angle_gamma 90.000000
_cell_volume 1520.342450
_symmetry_space_group_name_H-M "P 21/M"
_symmetry_group_IT_number 11
_symmetry_cell_setting 'monoclinic'
loop_
_space_group_symop_operation_xyz
x,y,z
-x,1/2+y,-z
-x,-y,-z
x,1/2-y,z
loop_
_atom_site_type_symbol
_atom_site_label
_atom_site_fract_x
_atom_site_fract_y
_atom_site_fract_z
Si Si1 0.195266 0.066817 0.320875
Si Si2 0.052249 0.572558 0.770113
Si Si3 0.369660 0.435134 0.938212
Si Si4 0.049360 0.072459 0.271273
Si Si5 0.366531 0.065904 0.635993
Si Si6 0.497085 0.565499 0.157144
Si Si7 0.799862 0.068272 0.984679
O O1 0.192664 0.250000 0.307436
O O2 0.282139 0.023543 0.166044
O O3 0.131252 0.014949 0.567527
O O4 0.179908 0.985445 0.212191
O O5 0.068457 0.750000 0.763072
O O6 0.001982 0.563831 0.746676
O O7 0.000000 0.500000 0.000000
O O8 0.372981 0.250000 0.929239
O O9 0.385761 0.483818 0.747782
O O10 0.430612 0.487427 0.912665
O O11 0.065452 0.250000 0.266179
O O12 0.129439 0.985032 0.082064
O O13 0.000000 0.000000 0.500000
O O14 0.371314 0.250000 0.619118
O O15 0.423240 0.991728 0.402964
O O16 0.279721 0.013323 0.803900
O O17 0.497458 0.750000 0.150147
O O18 0.500000 0.500000 0.000000
O O19 0.790705 0.250000 0.008603
#
# Coordination Sequence:
#
# PCOD9160647 Si02
#       7
#     4   4   4   4   4   4   4
#     4  10  19  36  61  86 115 151 193 243 293 344
#     4  11  24  40  58  84 117 156 198 242 292 346
#     4   8  18  36  61  88 113 147 191 236 286 341
#     4  11  22  37  60  87 117 155 197 239 288 343
#     4  10  20  38  62  88 115 149 192 241 291 343
#     4  11  22  39  59  85 120 156 191 233 286 348
#     4  11  21  35  58  90 120 150 192 242 292 343
#
# _framework density 18.416903000000001
#
# number of rings (size 3 to 8) (size 9 to 14) (size 15 to 20)
#    0.000    1.714    1.429    4.714    0.000    1.714 
#    2.571    7.857    0.000    0.000    0.000    0.000 
#    0.000    0.000    0.000    0.000    0.000    0.000 
#
# Total GULP energy -156375.717842 kJ/mol
# GULP energy per Si atom -5584.847066 kJ/mol
# Density = 1.837499 g / cm^3
# Si number density = 18.416903 Si / 1000 Ang^3
#
#
#
# Elastic Constant Matrix: (Units=GPa)
#
#
# Indices 1 2 3 4 5 6 
#
# 1 73.1581 32.3933 56.5100 0.0000 -10.4011 0.0000
# 2 32.3933 85.7077 37.8582 0.0000 5.1947 0.0000
# 3 56.5100 37.8582 148.2601 0.0000 -2.7033 0.0000
# 4 0.0000 0.0000 0.0000 34.9446 0.0000 -1.8192
# 5 -10.4011 5.1947 -2.7033 0.0000 22.1344 0.0000
# 6 0.0000 0.0000 0.0000 -1.8192 0.0000 25.2067
#
#
#
# Elastic Compliance Matrix: (Units=1/GPa)
#
#
# Indices 1 2 3 4 5 6 
#
# 1 0.023797 -0.006538 -0.007185 0.000000 0.011839 0.000000
# 2 -0.006538 0.015224 -0.001520 0.000000 -0.006831 0.000000
# 3 -0.007185 -0.001520 0.009838 0.000000 -0.001818 0.000000
# 4 0.000000 0.000000 0.000000 0.028725 0.000000 0.002073
# 5 0.011839 -0.006831 -0.001818 0.000000 0.052123 0.000000
# 6 0.000000 0.000000 0.000000 0.002073 0.000000 0.039822
#
#
# Mechanical properties :
#
#
# Convention : Reuss Voigt Hill
#
# Bulk Modulus (GPa) = 54.42600 62.29432 58.36016
# Shear Modulus (GPa) = 24.25538 28.48143 26.36841
#
# Velocity S-wave (km/s) = 3.63301 3.93680 3.78795
# Velocity P-wave (km/s) = 6.87130 7.38664 7.13363
#
# Compressibility (1/GPa) = 0.01837357
#
# Stress axis : x y z
#
# Youngs Moduli (GPa) = 42.02177 65.68555 101.64152
#
# Poissons Ratio (x) = 0.42945 0.73030
# Poissons Ratio (y) = 0.27474 0.15450
# Poissons Ratio (z) = 0.30193 0.09984
#
# Static dielectric constant tensor:
#      x y z
#    x 1.639700 0.000000 -0.013340 
#    y 0.000000 1.624720 0.000000 
#    z -0.013340 0.000000 1.608370 
# 
# From -- ./inp_files/28387.got.cif
#   From: 2010.05.17/outbox.cif.g08.bks.cpg/sg11_15_cif.got.tgz:28387.got - 2010.06.03 12:22:45.
