data_PCOD9160153
_publ_section_title
;
Structure prediction by ZEFSAII (Michael W. Deem and Ramdas Pophale) SiO2 
 PCOD9160153
Probable space group: P 21/M
;
_chemical_formula_sum "Si O2"
_cell_formula_units_Z 28
_cell_length_a 10.978173
_cell_length_b 19.397864
_cell_length_c 5.576355
_cell_angle_alpha 90.000000
_cell_angle_beta 74.844926
_cell_angle_gamma 90.000000
_cell_volume 1146.202914
_symmetry_space_group_name_H-M "P 21/M"
_symmetry_group_IT_number 11
_symmetry_cell_setting 'monoclinic'
loop_
_space_group_symop_operation_xyz
x,y,z
-x,1/2+y,-z
-x,-y,-z
x,1/2-y,z
loop_
_atom_site_type_symbol
_atom_site_label
_atom_site_fract_x
_atom_site_fract_y
_atom_site_fract_z
Si Si1 0.660575 0.977151 0.526272
Si Si2 0.155243 0.357311 0.596887
Si Si3 0.629063 0.750000 0.420973
Si Si4 0.731016 0.138388 0.951200
Si Si5 0.918938 0.885841 0.865130
Si Si6 0.813306 0.113175 0.409109
Si Si7 0.335104 0.476596 0.976426
Si Si8 0.521072 0.250000 0.002464
O O1 0.792976 0.935106 0.458783
O O2 0.597367 0.957808 0.809810
O O3 0.704307 0.055979 0.492254
O O4 0.596351 0.959418 0.307585
O O5 0.278959 0.314885 0.602168
O O6 0.107917 0.338257 0.354922
O O7 0.068687 0.352493 0.877106
O O8 0.563068 0.750000 0.195376
O O9 0.546030 0.750000 0.704168
O O10 0.818431 0.146878 0.669954
O O11 0.608622 0.182686 0.954267
O O12 0.702568 0.056712 0.992221
O O13 0.780357 0.158419 0.191710
O O14 0.796944 0.934669 0.954442
O O15 0.051637 0.920231 0.727144
#
# Coordination Sequence:
#
# PCOD9160153 Si02
#       8
#     4   4   2   4   4   4   4   2
#     4   8  16  29  52  81 117 148 179 220 270 331
#     4  10  21  37  57  86 116 148 199 244 274 336
#     4  12  26  46  67  78 101 154 210 256 302 334
#     4  10  21  37  57  86 116 148 199 244 274 336
#     4  10  19  34  60  91 126 159 179 212 282 360
#     4  10  19  34  60  91 126 159 179 212 282 360
#     4   8  16  29  52  81 117 148 179 220 270 331
#     4  12  26  46  67  78 101 154 210 256 302 334
#
# _framework density 24.428485999999999
#
# number of rings (size 3 to 8) (size 9 to 14) (size 15 to 20)
#    0.000    2.286    0.000    2.571    0.000   10.286 
#    0.000    4.286    0.000   46.286    0.000    0.000 
#    0.000    0.000    0.000    0.000    0.000    0.000 
#
# Total GULP energy -156168.392797 kJ/mol
# GULP energy per Si atom -5577.442600 kJ/mol
# Density = 2.437289 g / cm^3
# Si number density = 24.428486 Si / 1000 Ang^3
#
#
#
# Elastic Constant Matrix: (Units=GPa)
#
#
# Indices 1 2 3 4 5 6 
#
# 1 74.6106 14.9337 40.4735 0.0000 12.3610 0.0000
# 2 14.9337 41.6934 19.5156 0.0000 -0.5094 0.0000
# 3 40.4735 19.5156 274.7837 0.0000 39.8615 0.0000
# 4 0.0000 0.0000 0.0000 9.6149 0.0000 7.8332
# 5 12.3610 -0.5094 39.8615 0.0000 58.5818 0.0000
# 6 0.0000 0.0000 0.0000 7.8332 0.0000 25.9703
#
#
#
# Elastic Compliance Matrix: (Units=1/GPa)
#
#
# Indices 1 2 3 4 5 6 
#
# 1 0.015631 -0.004861 -0.001634 0.000000 -0.002229 0.000000
# 2 -0.004861 0.026452 -0.001492 0.000000 0.002271 0.000000
# 3 -0.001634 -0.001492 0.004369 0.000000 -0.002641 0.000000
# 4 0.000000 0.000000 0.000000 0.137888 0.000000 -0.041590
# 5 -0.002229 0.002271 -0.002641 0.000000 0.019357 0.000000
# 6 0.000000 0.000000 0.000000 -0.041590 0.000000 0.051050
#
#
# Mechanical properties :
#
#
# Convention : Reuss Voigt Hill
#
# Bulk Modulus (GPa) = 32.81056 60.10369 46.45713
# Shear Modulus (GPa) = 17.80112 39.91107 28.85610
#
# Velocity S-wave (km/s) = 2.70238 4.04640 3.44066
# Velocity P-wave (km/s) = 4.81639 6.81825 5.90280
#
# Compressibility (1/GPa) = 0.03047799
#
# Stress axis : x y z
#
# Youngs Moduli (GPa) = 63.97339 37.80428 228.88698
#
# Poissons Ratio (x) = 0.18378 0.37396
# Poissons Ratio (y) = 0.31100 0.34152
# Poissons Ratio (z) = 0.10452 0.05641
#
# Static dielectric constant tensor:
#      x y z
#    x 1.960960 0.000000 0.057330 
#    y 0.000000 1.692720 0.000000 
#    z 0.057330 0.000000 2.097530 
# 
# From -- ./inp_files/5046.got.cif
#   From: 2010.05.17/outbox.cif.g08.bks.cpg/sg11_3_cif.got.tgz:5046.got - 2010.06.03 12:22:45.
