data_PCOD9160176
_publ_section_title
;
Structure prediction by ZEFSAII (Michael W. Deem and Ramdas Pophale) SiO2 
 PCOD9160176
Probable space group: P 21/M
;
_chemical_formula_sum "Si O2"
_cell_formula_units_Z 28
_cell_length_a 9.265354
_cell_length_b 14.114652
_cell_length_c 11.711023
_cell_angle_alpha 90.000000
_cell_angle_beta 128.226859
_cell_angle_gamma 90.000000
_cell_volume 1203.123495
_symmetry_space_group_name_H-M "P 21/M"
_symmetry_group_IT_number 11
_symmetry_cell_setting 'monoclinic'
loop_
_space_group_symop_operation_xyz
x,y,z
-x,1/2+y,-z
-x,-y,-z
x,1/2-y,z
loop_
_atom_site_type_symbol
_atom_site_label
_atom_site_fract_x
_atom_site_fract_y
_atom_site_fract_z
Si Si1 0.548341 0.353705 0.313159
Si Si2 0.275498 0.851619 0.376445
Si Si3 0.729494 0.563656 0.648077
Si Si4 0.990675 0.647591 0.050479
Si Si5 0.875110 0.636123 0.484774
Si Si6 0.147891 0.539371 0.942545
Si Si7 0.242228 0.523073 0.738329
O O1 0.535373 0.250000 0.253359
O O2 0.722859 0.353946 0.486110
O O3 0.386676 0.371496 0.324384
O O4 0.581281 0.435794 0.239785
O O5 0.364868 0.750000 0.387545
O O6 0.079567 0.848253 0.219492
O O7 0.345672 0.955841 0.379048
O O8 0.744116 0.603927 0.526931
O O9 0.939976 0.557454 0.793921
O O10 0.915748 0.750000 0.983087
O O11 0.852884 0.560454 0.991855
O O12 0.155752 0.619604 0.043874
O O13 0.879450 0.750000 0.476436
O O14 0.809148 0.579248 0.339494
O O15 0.072447 0.592223 0.618946
O O16 0.263919 0.532002 0.884879
#
# Coordination Sequence:
#
# PCOD9160176 Si02
#       7
#     4   4   4   4   4   4   4
#     4  11  21  33  53  82 113 145 176 212 271 329
#     4   9  18  32  53  78 106 140 179 220 261 312
#     4  10  19  35  53  80 113 140 179 220 264 319
#     4   9  18  34  57  79 100 138 187 226 258 304
#     4  10  20  33  50  75 108 144 177 214 266 318
#     4   9  20  36  56  80 106 137 179 226 266 307
#     4  10  21  35  50  78 113 140 172 220 270 324
#
# _framework density 23.272756000000001
#
# number of rings (size 3 to 8) (size 9 to 14) (size 15 to 20)
#    0.000    2.286    1.429    1.286    2.000    4.000 
#    0.000    0.000    0.000    7.714    0.000    4.000 
#    0.000    0.000    0.000    0.000    0.000    0.000 
#
# Total GULP energy -156161.862896 kJ/mol
# GULP energy per Si atom -5577.209389 kJ/mol
# Density = 2.321979 g / cm^3
# Si number density = 23.272756 Si / 1000 Ang^3
#
#
#
# Elastic Constant Matrix: (Units=GPa)
#
#
# Indices 1 2 3 4 5 6 
#
# 1 89.2614 18.3784 22.5765 0.0000 -22.0565 0.0000
# 2 18.3784 153.7564 8.0143 0.0000 -2.4328 0.0000
# 3 22.5765 8.0143 65.7441 0.0000 -20.9682 0.0000
# 4 0.0000 0.0000 0.0000 14.9620 0.0000 -3.1907
# 5 -22.0565 -2.4328 -20.9682 0.0000 31.9542 0.0000
# 6 0.0000 0.0000 0.0000 -3.1907 0.0000 18.2843
#
#
#
# Elastic Compliance Matrix: (Units=1/GPa)
#
#
# Indices 1 2 3 4 5 6 
#
# 1 0.014053 -0.001444 -0.002012 0.000000 0.008270 0.000000
# 2 -0.001444 0.006694 -0.000601 0.000000 -0.000882 0.000000
# 3 -0.002012 -0.000601 0.019624 0.000000 0.011443 0.000000
# 4 0.000000 0.000000 0.000000 0.069419 0.000000 0.012114
# 5 0.008270 -0.000882 0.011443 0.000000 0.044444 0.000000
# 6 0.000000 0.000000 0.000000 0.012114 0.000000 0.056806
#
#
# Mechanical properties :
#
#
# Convention : Reuss Voigt Hill
#
# Bulk Modulus (GPa) = 31.00220 45.18892 38.09556
# Shear Modulus (GPa) = 21.74791 30.35961 26.05376
#
# Velocity S-wave (km/s) = 3.06024 3.61572 3.34952
# Velocity P-wave (km/s) = 5.08300 6.07376 5.60033
#
# Compressibility (1/GPa) = 0.03225578
#
# Stress axis : x y z
#
# Youngs Moduli (GPa) = 71.16060 149.39228 50.95733
#
# Poissons Ratio (x) = 0.21572 0.10254
# Poissons Ratio (y) = 0.10276 0.03064
# Poissons Ratio (z) = 0.14319 0.08983
#
# Static dielectric constant tensor:
#      x y z
#    x 1.917670 0.000000 0.060100 
#    y 0.000000 1.922320 0.000000 
#    z 0.060100 0.000000 1.964170 
# 
# From -- ./inp_files/31730.got.cif
#   From: 2010.05.17/outbox.cif.g08.bks.cpg/sg11_16_cif.got.tgz:31730.got - 2010.06.03 12:22:45.
