data_PCOD9160296
_publ_section_title
;
Structure prediction by ZEFSAII (Michael W. Deem and Ramdas Pophale) SiO2 
 PCOD9160296
Probable space group: P 21/M
;
_chemical_formula_sum "Si O2"
_cell_formula_units_Z 28
_cell_length_a 8.138624
_cell_length_b 10.279396
_cell_length_c 21.886304
_cell_angle_alpha 90.000000
_cell_angle_beta 134.173987
_cell_angle_gamma 90.000000
_cell_volume 1313.250796
_symmetry_space_group_name_H-M "P 21/M"
_symmetry_group_IT_number 11
_symmetry_cell_setting 'monoclinic'
loop_
_space_group_symop_operation_xyz
x,y,z
-x,1/2+y,-z
-x,-y,-z
x,1/2-y,z
loop_
_atom_site_type_symbol
_atom_site_label
_atom_site_fract_x
_atom_site_fract_y
_atom_site_fract_z
Si Si1 0.292568 0.025964 0.631608
Si Si2 0.430311 0.101776 0.067681
Si Si3 0.900258 0.398831 0.669651
Si Si4 0.145830 0.596209 0.917141
Si Si5 0.222639 0.892603 0.221437
Si Si6 0.720817 0.108605 0.254010
Si Si7 0.233071 0.898113 0.492306
O O1 0.288685 0.901367 0.675414
O O2 0.330644 0.986694 0.571365
O O3 0.504614 0.101627 0.715892
O O4 0.044743 0.093078 0.570912
O O5 0.345944 0.250000 0.033666
O O6 0.669080 0.089590 0.090942
O O7 0.490907 0.092518 0.154987
O O8 0.267885 0.986505 0.002608
O O9 0.969425 0.250000 0.674574
O O10 0.805059 0.400770 0.712641
O O11 0.737125 0.436750 0.570755
O O12 0.112835 0.494383 0.722580
O O13 0.106762 0.750000 0.919592
O O14 0.920063 0.513197 0.842103
O O15 0.135207 0.750000 0.178626
O O16 0.814325 0.250000 0.260537
O O17 0.311096 0.750000 0.520908
#
# Coordination Sequence:
#
# PCOD9160296 Si02
#       7
#     4   4   4   4   4   4   4
#     4  10  21  34  56  81 111 150 189 227 278 334
#     4   9  18  34  56  82 113 146 183 228 276 331
#     4   9  19  34  56  82 112 147 188 232 278 329
#     4  10  20  34  56  85 114 144 184 231 280 331
#     4  11  22  37  56  83 117 151 185 231 285 333
#     4  10  19  35  57  84 112 147 189 230 275 331
#     4   9  18  36  55  77 107 146 192 234 273 327
#
# _framework density 21.321137
#
# number of rings (size 3 to 8) (size 9 to 14) (size 15 to 20)
#    0.000    2.286    1.429    1.286    0.000    3.429 
#    0.000    1.429    0.000    0.000    0.000    0.000 
#    0.000    0.000    0.000    0.000    0.000    0.000 
#
# Total GULP energy -156053.443528 kJ/mol
# GULP energy per Si atom -5573.337269 kJ/mol
# Density = 2.127261 g / cm^3
# Si number density = 21.321137 Si / 1000 Ang^3
#
#
#
# Elastic Constant Matrix: (Units=GPa)
#
#
# Indices 1 2 3 4 5 6 
#
# 1 15.0293 14.4507 6.4319 0.0000 0.8036 0.0000
# 2 14.4507 137.9711 70.8656 0.0000 7.7706 0.0000
# 3 6.4319 70.8656 101.7571 0.0000 3.5750 0.0000
# 4 0.0000 0.0000 0.0000 28.6114 0.0000 -9.2924
# 5 0.8036 7.7706 3.5750 0.0000 26.1587 0.0000
# 6 0.0000 0.0000 0.0000 -9.2924 0.0000 10.9296
#
#
#
# Elastic Compliance Matrix: (Units=1/GPa)
#
#
# Indices 1 2 3 4 5 6 
#
# 1 0.074070 -0.008337 0.001123 0.000000 0.000048 0.000000
# 2 -0.008337 0.012361 -0.008000 0.000000 -0.002322 0.000000
# 3 0.001123 -0.008000 0.015319 0.000000 0.000248 0.000000
# 4 0.000000 0.000000 0.000000 0.048284 0.000000 0.041051
# 5 0.000048 -0.002322 0.000248 0.000000 0.038883 0.000000
# 6 0.000000 0.000000 0.000000 0.041051 0.000000 0.126396
#
#
# Mechanical properties :
#
#
# Convention : Reuss Voigt Hill
#
# Bulk Modulus (GPa) = 14.02108 48.69489 31.35798
# Shear Modulus (GPa) = 13.53126 24.00723 18.76924
#
# Velocity S-wave (km/s) = 2.52194 3.35921 2.97022
# Velocity P-wave (km/s) = 3.88210 6.15906 5.14804
#
# Compressibility (1/GPa) = 0.07132118
#
# Stress axis : x y z
#
# Youngs Moduli (GPa) = 13.50071 80.90099 65.27924
#
# Poissons Ratio (x) = 0.67449 -0.07329
# Poissons Ratio (y) = 0.11256 0.52222
# Poissons Ratio (z) = -0.01516 0.64719
#
# Static dielectric constant tensor:
#      x y z
#    x 1.812300 0.000000 -0.012900 
#    y 0.000000 1.764440 0.000000 
#    z -0.012900 0.000000 1.770280 
# 
# From -- ./inp_files/70917.got.cif
#   From: 2010.05.17/outbox.cif.g08.bks.cpg/sg11_36_cif.got.tgz:70917.got - 2010.06.03 12:22:45.
