data_PCOD9160620
_publ_section_title
;
Structure prediction by ZEFSAII (Michael W. Deem and Ramdas Pophale) SiO2 
 PCOD9160620
Probable space group: P 21/M
;
_chemical_formula_sum "Si O2"
_cell_formula_units_Z 28
_cell_length_a 32.120375
_cell_length_b 8.566527
_cell_length_c 32.120374
_cell_angle_alpha 90.000000
_cell_angle_beta 9.425821
_cell_angle_gamma 90.000000
_cell_volume 1447.444136
_symmetry_space_group_name_H-M "P 21/M"
_symmetry_group_IT_number 11
_symmetry_cell_setting 'monoclinic'
loop_
_space_group_symop_operation_xyz
x,y,z
-x,1/2+y,-z
-x,-y,-z
x,1/2-y,z
loop_
_atom_site_type_symbol
_atom_site_label
_atom_site_fract_x
_atom_site_fract_y
_atom_site_fract_z
Si Si1 0.022662 0.936898 0.024522
Si Si2 0.545678 0.438480 0.547562
Si Si3 0.738661 0.062730 0.738664
Si Si4 0.691191 0.062331 0.688725
Si Si5 0.595023 0.060208 0.595004
Si Si6 0.879940 0.939518 0.879898
Si Si7 0.168379 0.936106 0.165944
O O1 0.022420 0.750000 0.024338
O O2 0.784248 0.998783 0.286230
O O3 0.283747 0.998771 0.786948
O O4 0.000000 0.000000 0.000000
O O5 0.544802 0.250000 0.546780
O O6 0.570774 0.488534 0.571024
O O7 0.739617 0.250000 0.739508
O O8 0.714451 0.015974 0.714170
O O9 0.000000 0.000000 0.500000
O O10 0.500000 0.000000 0.000000
O O11 0.686617 0.250000 0.690983
O O12 0.932545 0.001301 0.425098
O O13 0.431581 0.997815 0.925468
O O14 0.594931 0.250000 0.594807
O O15 0.858077 0.010880 0.356671
O O16 0.356665 0.010925 0.858084
O O17 0.878720 0.750000 0.878601
O O18 0.856544 0.005608 0.856802
O O19 0.165417 0.750000 0.170038
#
# Coordination Sequence:
#
# PCOD9160620 Si02
#       7
#     4   4   4   4   4   4   4
#     4  12  25  42  62  90 124 162 203 248 303 361
#     4  11  22  41  66  93 122 157 202 253 300 355
#     4  11  24  41  64  92 123 158 201 248 301 359
#     4  11  24  43  64  88 120 164 207 244 293 366
#     4   9  19  35  60  88 115 153 202 243 288 354
#     4  10  19  36  60  86 117 159 202 241 289 359
#     4  12  25  40  61  93 125 157 200 257 310 350
#
# _framework density 19.344443999999999
#
# number of rings (size 3 to 8) (size 9 to 14) (size 15 to 20)
#    0.000    1.143    0.000    6.857    0.000    9.143 
#    0.000    4.286    0.000    0.000    0.000    0.000 
#    0.000    0.000    0.000    0.000    0.000    0.000 
#
# Total GULP energy -156692.498419 kJ/mol
# GULP energy per Si atom -5596.160658 kJ/mol
# Density = 1.930042 g / cm^3
# Si number density = 19.344444 Si / 1000 Ang^3
#
#
#
# Elastic Constant Matrix: (Units=GPa)
#
#
# Indices 1 2 3 4 5 6 
#
# 1 213.3713 47.7214 108.7916 0.0000 1.8102 0.0000
# 2 47.7214 78.0850 36.0802 0.0000 1.1896 0.0000
# 3 108.7916 36.0802 194.6089 0.0000 1.8179 0.0000
# 4 0.0000 0.0000 0.0000 33.7331 0.0000 -0.1985
# 5 1.8102 1.1896 1.8179 0.0000 47.5944 0.0000
# 6 0.0000 0.0000 0.0000 -0.1985 0.0000 31.3100
#
#
#
# Elastic Compliance Matrix: (Units=1/GPa)
#
#
# Indices 1 2 3 4 5 6 
#
# 1 0.007046 -0.002718 -0.003434 0.000000 -0.000069 0.000000
# 2 -0.002718 0.015058 -0.001270 0.000000 -0.000224 0.000000
# 3 -0.003434 -0.001270 0.007295 0.000000 -0.000116 0.000000
# 4 0.000000 0.000000 0.000000 0.029646 0.000000 0.000188
# 5 -0.000069 -0.000224 -0.000116 0.000000 0.021024 0.000000
# 6 0.000000 0.000000 0.000000 0.000188 0.000000 0.031940
#
#
# Mechanical properties :
#
#
# Convention : Reuss Voigt Hill
#
# Bulk Modulus (GPa) = 68.71065 96.80573 82.75819
# Shear Modulus (GPa) = 37.96350 42.09230 40.02790
#
# Velocity S-wave (km/s) = 4.43482 4.66976 4.55380
# Velocity P-wave (km/s) = 7.86258 8.90097 8.39784
#
# Compressibility (1/GPa) = 0.01455378
#
# Stress axis : x y z
#
# Youngs Moduli (GPa) = 141.91721 66.40929 137.07972
#
# Poissons Ratio (x) = 0.18052 0.47080
# Poissons Ratio (y) = 0.38578 0.17409
# Poissons Ratio (z) = 0.48741 0.08434
#
# Static dielectric constant tensor:
#      x y z
#    x 1.642470 0.000000 0.001120 
#    y 0.000000 1.657080 0.000000 
#    z 0.001120 0.000000 1.630270 
# 
# From -- ./inp_files/73864.got.cif
#   From: 2010.05.17/outbox.cif.g08.bks.cpg/sg11_37_cif.got.tgz:73864.got - 2010.06.03 12:22:45.
