data_PCOD9160352
_publ_section_title
;
Structure prediction by ZEFSAII (Michael W. Deem and Ramdas Pophale) SiO2 
 PCOD9160352
Probable space group: P 21/M
;
_chemical_formula_sum "Si O2"
_cell_formula_units_Z 32
_cell_length_a 5.662330
_cell_length_b 13.355935
_cell_length_c 23.614358
_cell_angle_alpha 90.000000
_cell_angle_beta 114.217246
_cell_angle_gamma 90.000000
_cell_volume 1628.691678
_symmetry_space_group_name_H-M "P 21/M"
_symmetry_group_IT_number 11
_symmetry_cell_setting 'monoclinic'
loop_
_space_group_symop_operation_xyz
x,y,z
-x,1/2+y,-z
-x,-y,-z
x,1/2-y,z
loop_
_atom_site_type_symbol
_atom_site_label
_atom_site_fract_x
_atom_site_fract_y
_atom_site_fract_z
Si Si1 0.832372 0.861538 0.212550
Si Si2 0.651582 0.138886 0.661256
Si Si3 0.365272 0.033368 0.428901
Si Si4 0.916206 0.486294 0.851705
Si Si5 0.203761 0.868831 0.613929
Si Si6 0.444625 0.997221 0.729742
Si Si7 0.276999 0.967775 0.051155
Si Si8 0.669113 0.367191 0.057977
O O1 0.711543 0.750000 0.201177
O O2 0.694563 0.951447 0.231545
O O3 0.098728 0.852287 0.274147
O O4 0.896586 0.902845 0.156722
O O5 0.569829 0.250000 0.635704
O O6 0.447682 0.083034 0.681598
O O7 0.704845 0.065132 0.614708
O O8 0.584691 0.090793 0.411938
O O9 0.092877 0.089051 0.416416
O O10 0.500000 0.000000 0.500000
O O11 0.730167 0.522543 0.782672
O O12 0.760872 0.435469 0.888175
O O13 0.070594 0.579450 0.893446
O O14 0.193580 0.750000 0.607943
O O15 0.315419 0.904061 0.686055
O O16 0.450045 0.067225 0.066806
O O17 0.371359 0.889680 0.013075
O O18 0.000000 0.000000 0.000000
O O19 0.662438 0.250000 0.068540
#
# Coordination Sequence:
#
# PCOD9160352 Si02
#       8
#     4   4   4   4   4   4   4   4
#     4  10  19  35  58  84 116 156 200 251 311 370
#     4   9  19  35  58  86 118 160 206 260 321 374
#     4  11  23  43  66  96 131 171 221 278 323 387
#     4  10  21  37  58  88 122 153 201 255 310 369
#     4  11  24  43  66  94 135 180 220 268 332 394
#     4  10  20  37  60  88 126 165 205 259 312 380
#     4   9  20  39  58  82 117 150 192 248 302 361
#     4  10  21  39  62  84 114 157 201 249 304 371
#
# _framework density 19.647673000000001
#
# number of rings (size 3 to 8) (size 9 to 14) (size 15 to 20)
#    0.000    2.000    1.250    1.875    0.000    4.500 
#    0.000   10.625    0.000    0.000    0.000    0.000 
#    0.000    0.000    0.000    0.000    0.000    0.000 
#
# Total GULP energy -178284.028041 kJ/mol
# GULP energy per Si atom -5571.375876 kJ/mol
# Density = 1.960295 g / cm^3
# Si number density = 19.647673 Si / 1000 Ang^3
#
#
#
# Elastic Constant Matrix: (Units=GPa)
#
#
# Indices 1 2 3 4 5 6 
#
# 1 90.9934 38.2605 30.6646 0.0000 -7.9613 0.0000
# 2 38.2605 129.7056 49.1956 0.0000 -4.7679 0.0000
# 3 30.6646 49.1956 94.9584 0.0000 -5.7027 0.0000
# 4 0.0000 0.0000 0.0000 12.9607 0.0000 6.5760
# 5 -7.9613 -4.7679 -5.7027 0.0000 35.0592 0.0000
# 6 0.0000 0.0000 0.0000 6.5760 0.0000 15.2422
#
#
#
# Elastic Compliance Matrix: (Units=1/GPa)
#
#
# Indices 1 2 3 4 5 6 
#
# 1 0.013273 -0.002811 -0.002698 0.000000 0.002193 0.000000
# 2 -0.002811 0.010199 -0.004374 0.000000 0.000037 0.000000
# 3 -0.002698 -0.004374 0.013730 0.000000 0.001026 0.000000
# 4 0.000000 0.000000 0.000000 0.098779 0.000000 -0.042617
# 5 0.002193 0.000037 0.001026 0.000000 0.029193 0.000000
# 6 0.000000 0.000000 0.000000 -0.042617 0.000000 0.083994
#
#
# Mechanical properties :
#
#
# Convention : Reuss Voigt Hill
#
# Bulk Modulus (GPa) = 57.35397 61.32208 59.33802
# Shear Modulus (GPa) = 18.19859 25.82153 22.01006
#
# Velocity S-wave (km/s) = 3.04673 3.62916 3.35063
# Velocity P-wave (km/s) = 6.45224 6.98854 6.72574
#
# Compressibility (1/GPa) = 0.01743558
#
# Stress axis : x y z
#
# Youngs Moduli (GPa) = 75.34094 98.04493 72.83399
#
# Poissons Ratio (x) = 0.27564 0.19651
# Poissons Ratio (y) = 0.21181 0.31857
# Poissons Ratio (z) = 0.20327 0.42885
#
# Static dielectric constant tensor:
#      x y z
#    x 1.777580 0.000000 0.003200 
#    y 0.000000 1.681470 0.000000 
#    z 0.003200 0.000000 1.695530 
# 
# From -- ./inp_files/67635.got.cif
#   From: 2010.05.17/outbox.cif.g08.bks.cpg/sg11_34_cif.got.tgz:67635.got - 2010.06.03 12:22:45.
