data_PCOD9160223
_publ_section_title
;
Structure prediction by ZEFSAII (Michael W. Deem and Ramdas Pophale) SiO2 
 PCOD9160223
Probable space group: P 21/M
;
_chemical_formula_sum "Si O2"
_cell_formula_units_Z 32
_cell_length_a 17.456753
_cell_length_b 14.266552
_cell_length_c 11.898468
_cell_angle_alpha 90.000000
_cell_angle_beta 146.061225
_cell_angle_gamma 90.000000
_cell_volume 1654.422287
_symmetry_space_group_name_H-M "P 21/M"
_symmetry_group_IT_number 11
_symmetry_cell_setting 'monoclinic'
loop_
_space_group_symop_operation_xyz
x,y,z
-x,1/2+y,-z
-x,-y,-z
x,1/2-y,z
loop_
_atom_site_type_symbol
_atom_site_label
_atom_site_fract_x
_atom_site_fract_y
_atom_site_fract_z
Si Si1 0.068999 0.861268 0.800717
Si Si2 0.546965 0.910788 0.630892
Si Si3 0.957998 0.359119 0.967815
Si Si4 0.294146 0.499562 0.975180
Si Si5 0.218330 0.141215 0.678898
Si Si6 0.705060 0.056697 0.539625
Si Si7 0.274676 0.149173 0.347153
Si Si8 0.569553 0.964825 0.197232
O O1 0.103400 0.750000 0.838862
O O2 0.926982 0.873599 0.560262
O O3 0.182536 0.926067 0.880822
O O4 0.052280 0.887091 0.912863
O O5 0.406984 0.884876 0.525453
O O6 0.624056 0.847639 0.635152
O O7 0.500000 0.000000 0.500000
O O8 0.657067 0.938251 0.859189
O O9 0.918781 0.250000 0.914578
O O10 0.853997 0.414541 0.761911
O O11 0.115473 0.365661 0.120988
O O12 0.241674 0.431188 0.811008
O O13 0.435947 0.551089 0.111968
O O14 0.227226 0.250000 0.726154
O O15 0.332581 0.118477 0.723536
O O16 0.688076 0.944911 0.541872
O O17 0.659740 0.052310 0.355706
O O18 0.280066 0.250000 0.414110
O O19 0.500000 0.000000 0.000000
#
# Coordination Sequence:
#
# PCOD9160223 Si02
#       8
#     4   4   4   4   4   4   4   4
#     4  10  20  35  56  82 112 146 185 228 273 322
#     4   9  19  34  52  77 108 141 180 223 271 323
#     4  10  21  36  55  82 113 146 184 226 274 325
#     4  10  20  37  57  80 110 144 184 227 272 324
#     4  10  21  37  58  83 110 144 185 227 273 326
#     4  10  19  35  56  79 108 142 181 224 270 325
#     4  10  20  33  52  80 111 143 180 222 270 324
#     4   9  20  37  56  77 104 138 180 225 272 321
#
# _framework density 19.342099999999999
#
# number of rings (size 3 to 8) (size 9 to 14) (size 15 to 20)
#    0.000    2.250    0.000    3.000    0.000    4.000 
#    0.000   12.500    0.000    3.750    0.000    0.000 
#    0.000    0.000    0.000    0.000    0.000    0.000 
#
# Total GULP energy -178237.994725 kJ/mol
# GULP energy per Si atom -5569.937335 kJ/mol
# Density = 1.929808 g / cm^3
# Si number density = 19.342100 Si / 1000 Ang^3
#
#
#
# Elastic Constant Matrix: (Units=GPa)
#
#
# Indices 1 2 3 4 5 6 
#
# 1 45.6568 31.8765 27.7970 0.0000 5.8018 0.0000
# 2 31.8765 63.6950 39.0729 0.0000 13.5070 0.0000
# 3 27.7970 39.0729 107.3167 0.0000 0.0272 0.0000
# 4 0.0000 0.0000 0.0000 -26.1604 0.0000 4.0762
# 5 5.8018 13.5070 0.0272 0.0000 36.9527 0.0000
# 6 0.0000 0.0000 0.0000 4.0762 0.0000 28.3523
#
#
#
# Elastic Compliance Matrix: (Units=1/GPa)
#
#
# Indices 1 2 3 4 5 6 
#
# 1 0.034616 -0.015264 -0.003409 0.000000 0.000147 0.000000
# 2 -0.015264 0.029183 -0.006669 0.000000 -0.008266 0.000000
# 3 -0.003409 -0.006669 0.012629 0.000000 0.002964 0.000000
# 4 0.000000 0.000000 0.000000 -0.037388 0.000000 0.005375
# 5 0.000147 -0.008266 0.002964 0.000000 0.030058 0.000000
# 6 0.000000 0.000000 0.000000 0.005375 0.000000 0.034498
#
#
# Mechanical properties :
#
#
# Convention : Reuss Voigt Hill
#
# Bulk Modulus (GPa) = 38.84502 46.01793 42.43148
# Shear Modulus (GPa) = 30.70117 15.69038 23.19578
#
# Velocity S-wave (km/s) = 3.98838 2.85125 3.46676
# Velocity P-wave (km/s) = 6.42933 5.88921 6.16519
#
# Compressibility (1/GPa) = 0.02574333
#
# Stress axis : x y z
#
# Youngs Moduli (GPa) = 28.88823 34.26681 79.18478
#
# Poissons Ratio (x) = 0.52304 0.26993
# Poissons Ratio (y) = 0.44095 0.52812
# Poissons Ratio (z) = 0.09848 0.22854
#
# Static dielectric constant tensor:
#      x y z
#    x 1.754380 0.000000 -0.035430 
#    y 0.000000 1.623590 0.000000 
#    z -0.035430 0.000000 1.713900 
# 
# From -- ./inp_files/41699.got.cif
#   From: 2010.05.17/outbox.cif.g08.bks.cpg/sg11_21_cif.got.tgz:41699.got - 2010.06.03 12:22:45.
