data_PCOD9160619
_publ_section_title
;
Structure prediction by ZEFSAII (Michael W. Deem and Ramdas Pophale) SiO2 
 PCOD9160619
Probable space group: P 21/M
;
_chemical_formula_sum "Si O2"
_cell_formula_units_Z 24
_cell_length_a 10.431270
_cell_length_b 8.578278
_cell_length_c 15.284437
_cell_angle_alpha 90.000000
_cell_angle_beta 80.334657
_cell_angle_gamma 90.000000
_cell_volume 1348.273057
_symmetry_space_group_name_H-M "P 21/M"
_symmetry_group_IT_number 11
_symmetry_cell_setting 'monoclinic'
loop_
_space_group_symop_operation_xyz
x,y,z
-x,1/2+y,-z
-x,-y,-z
x,1/2-y,z
loop_
_atom_site_type_symbol
_atom_site_label
_atom_site_fract_x
_atom_site_fract_y
_atom_site_fract_z
Si Si1 0.466836 0.063163 0.236823
Si Si2 0.876837 0.937927 0.567163
Si Si3 0.829610 0.938661 0.768013
Si Si4 0.605325 0.936930 0.056605
Si Si5 0.589509 0.063927 0.567579
Si Si6 0.887152 0.561770 0.951777
O O1 0.474110 0.250000 0.243000
O O2 0.323728 0.022520 0.214979
O O3 0.571307 0.001478 0.156192
O O4 0.470423 0.990587 0.332752
O O5 0.874883 0.750000 0.565112
O O6 0.885314 0.990110 0.668159
O O7 0.737199 0.997847 0.548326
O O8 0.000000 0.000000 0.500000
O O9 0.836953 0.750000 0.767505
O O10 0.894029 0.994596 0.850252
O O11 0.598654 0.750000 0.058227
O O12 0.747657 0.984126 0.007224
O O13 0.500000 0.000000 0.000000
O O14 0.594900 0.250000 0.563295
O O15 0.500000 0.000000 0.500000
O O16 0.891773 0.750000 0.950024
O O17 0.000000 0.500000 0.000000
#
# Coordination Sequence:
#
# PCOD9160619 Si02
#       6
#     4   4   4   4   4   4
#     4  10  19  36  60  86 114 149 190 235 287 344
#     4  10  20  37  61  86 114 152 196 241 288 345
#     4   8  16  34  57  78 108 147 186 230 281 334
#     4  11  21  35  58  85 114 147 191 240 283 339
#     4  11  22  39  61  88 119 152 190 238 295 348
#     4  10  21  38  55  79 113 150 187 232 283 334
#
# _framework density 17.800549
#
# number of rings (size 3 to 8) (size 9 to 14) (size 15 to 20)
#    0.000    2.000    1.667    4.000    0.000    1.333 
#    3.000    1.667    0.000    0.000    0.000    0.000 
#    0.000    0.000    0.000    0.000    0.000    0.000 
#
# Total GULP energy -133949.262629 kJ/mol
# GULP energy per Si atom -5581.219276 kJ/mol
# Density = 1.776003 g / cm^3
# Si number density = 17.800549 Si / 1000 Ang^3
#
#
#
# Elastic Constant Matrix: (Units=GPa)
#
#
# Indices 1 2 3 4 5 6 
#
# 1 129.8014 43.7622 106.8583 0.0000 2.9128 0.0000
# 2 43.7622 72.1554 48.1043 0.0000 -1.3503 0.0000
# 3 106.8583 48.1043 175.5253 0.0000 7.1888 0.0000
# 4 0.0000 0.0000 0.0000 31.0905 0.0000 0.4084
# 5 2.9128 -1.3503 7.1888 0.0000 36.8930 0.0000
# 6 0.0000 0.0000 0.0000 0.4084 0.0000 30.6109
#
#
#
# Elastic Compliance Matrix: (Units=1/GPa)
#
#
# Indices 1 2 3 4 5 6 
#
# 1 0.016345 -0.003996 -0.008867 0.000000 0.000291 0.000000
# 2 -0.003996 0.018021 -0.002567 0.000000 0.001475 0.000000
# 3 -0.008867 -0.002567 0.011869 0.000000 -0.001707 0.000000
# 4 0.000000 0.000000 0.000000 0.032170 0.000000 -0.000429
# 5 0.000291 0.001475 -0.001707 0.000000 0.027469 0.000000
# 6 0.000000 0.000000 0.000000 -0.000429 0.000000 0.032674
#
#
# Mechanical properties :
#
#
# Convention : Reuss Voigt Hill
#
# Bulk Modulus (GPa) = 65.04059 86.10351 75.57205
# Shear Modulus (GPa) = 28.64801 31.63603 30.14202
#
# Velocity S-wave (km/s) = 4.01607 4.22032 4.11946
# Velocity P-wave (km/s) = 7.62384 8.49849 8.07302
#
# Compressibility (1/GPa) = 0.01537501
#
# Stress axis : x y z
#
# Youngs Moduli (GPa) = 61.18170 55.49012 84.25431
#
# Poissons Ratio (x) = 0.22174 0.74711
# Poissons Ratio (y) = 0.24448 0.21625
# Poissons Ratio (z) = 0.54252 0.14242
#
# Static dielectric constant tensor:
#      x y z
#    x 1.576370 0.000000 -0.004380 
#    y 0.000000 1.605970 0.000000 
#    z -0.004380 0.000000 1.617160 
# 
# From -- ./inp_files/28932.got.cif
#   From: 2010.05.17/outbox.cif.g08.bks.cpg/sg11_15_cif.got.tgz:28932.got - 2010.06.03 12:22:45.
