data_PCOD9160173
_publ_section_title
;
Structure prediction by ZEFSAII (Michael W. Deem and Ramdas Pophale) SiO2 
 PCOD9160173
Probable space group: P 21/M
;
_chemical_formula_sum "Si O2"
_cell_formula_units_Z 20
_cell_length_a 9.689676
_cell_length_b 14.915239
_cell_length_c 7.149922
_cell_angle_alpha 90.000000
_cell_angle_beta 132.023161
_cell_angle_gamma 90.000000
_cell_volume 767.637350
_symmetry_space_group_name_H-M "P 21/M"
_symmetry_group_IT_number 11
_symmetry_cell_setting 'monoclinic'
loop_
_space_group_symop_operation_xyz
x,y,z
-x,1/2+y,-z
-x,-y,-z
x,1/2-y,z
loop_
_atom_site_type_symbol
_atom_site_label
_atom_site_fract_x
_atom_site_fract_y
_atom_site_fract_z
Si Si1 0.809329 0.647817 0.622525
Si Si2 0.519106 0.150590 0.193529
Si Si3 0.829031 0.537296 0.020106
Si Si4 0.926062 0.144342 0.491451
Si Si5 0.575523 0.094201 0.650969
O O1 0.829652 0.750000 0.706701
O O2 0.846324 0.584500 0.833214
O O3 0.941243 0.634864 0.566502
O O4 0.591245 0.632216 0.375228
O O5 0.453574 0.250000 0.083032
O O6 0.347753 0.083011 0.034406
O O7 0.587426 0.151926 0.473945
O O8 0.708113 0.127681 0.258649
O O9 0.763867 0.435791 0.920471
O O10 0.003561 0.570638 0.296771
O O11 0.941575 0.250000 0.566445
O O12 0.500000 0.000000 0.500000
#
# Coordination Sequence:
#
# PCOD9160173 Si02
#       5
#     4   4   4   4   4
#     4   9  17  32  52  73  99 129 164 204 241 287
#     4   9  17  32  52  73  99 129 164 204 241 287
#     4  10  19  35  53  71 102 133 159 201 250 287
#     4  10  20  32  51  76  97 128 169 200 241 294
#     4   8  16  31  50  73  98 129 164 197 243 295
#
# _framework density 26.053968999999999
#
# number of rings (size 3 to 8) (size 9 to 14) (size 15 to 20)
#    0.000    3.200    0.000    3.600    0.000    1.600 
#    0.000   13.000    0.000    9.600    0.000    0.000 
#    0.000    0.000    0.000    0.000    0.000    0.000 
#
# Total GULP energy -111893.244515 kJ/mol
# GULP energy per Si atom -5594.662226 kJ/mol
# Density = 2.599467 g / cm^3
# Si number density = 26.053969 Si / 1000 Ang^3
#
#
#
# Elastic Constant Matrix: (Units=GPa)
#
#
# Indices 1 2 3 4 5 6 
#
# 1 166.3797 10.4277 3.3566 0.0000 12.9130 0.0000
# 2 10.4277 62.1646 19.6517 0.0000 -8.1803 0.0000
# 3 3.3566 19.6517 54.7407 0.0000 8.1872 0.0000
# 4 0.0000 0.0000 0.0000 17.7095 0.0000 -2.0646
# 5 12.9130 -8.1803 8.1872 0.0000 37.1425 0.0000
# 6 0.0000 0.0000 0.0000 -2.0646 0.0000 4.7170
#
#
#
# Elastic Compliance Matrix: (Units=1/GPa)
#
#
# Indices 1 2 3 4 5 6 
#
# 1 0.006306 -0.001595 0.000585 0.000000 -0.002673 0.000000
# 2 -0.001595 0.019758 -0.007992 0.000000 0.006668 0.000000
# 3 0.000585 -0.007992 0.022124 0.000000 -0.006841 0.000000
# 4 0.000000 0.000000 0.000000 0.059503 0.000000 0.026044
# 5 -0.002673 0.006668 -0.006841 0.000000 0.030829 0.000000
# 6 0.000000 0.000000 0.000000 0.026044 0.000000 0.223399
#
#
# Mechanical properties :
#
#
# Convention : Reuss Voigt Hill
#
# Bulk Modulus (GPa) = 33.12890 38.90634 36.01762
# Shear Modulus (GPa) = 12.82105 28.57038 20.69571
#
# Velocity S-wave (km/s) = 2.22073 3.31506 2.82146
# Velocity P-wave (km/s) = 4.39529 5.44227 4.94656
#
# Compressibility (1/GPa) = 0.03018512
#
# Stress axis : x y z
#
# Youngs Moduli (GPa) = 158.58175 50.61295 45.19895
#
# Poissons Ratio (x) = 0.08070 -0.02646
# Poissons Ratio (y) = 0.25287 0.36125
# Poissons Ratio (z) = -0.09285 0.40452
#
# Static dielectric constant tensor:
#      x y z
#    x 2.054270 0.000000 0.018820 
#    y 0.000000 2.037860 0.000000 
#    z 0.018820 0.000000 2.126000 
# 
# From -- ./inp_files/12991.got.cif
#   From: 2010.05.17/outbox.cif.g08.bks.cpg/sg11_7_cif.got.tgz:12991.got - 2010.06.03 12:22:45.
