data_PCOD9160483
_publ_section_title
;
Structure prediction by ZEFSAII (Michael W. Deem and Ramdas Pophale) SiO2 
 PCOD9160483
Probable space group: P 21/M
;
_chemical_formula_sum "Si O2"
_cell_formula_units_Z 26
_cell_length_a 7.369989
_cell_length_b 23.389382
_cell_length_c 10.482811
_cell_angle_alpha 90.000000
_cell_angle_beta 136.489294
_cell_angle_gamma 90.000000
_cell_volume 1244.116484
_symmetry_space_group_name_H-M "P 21/M"
_symmetry_group_IT_number 11
_symmetry_cell_setting 'monoclinic'
loop_
_space_group_symop_operation_xyz
x,y,z
-x,1/2+y,-z
-x,-y,-z
x,1/2-y,z
loop_
_atom_site_type_symbol
_atom_site_label
_atom_site_fract_x
_atom_site_fract_y
_atom_site_fract_z
Si Si1 0.007212 0.347593 0.492769
Si Si2 0.713880 0.553486 0.221111
Si Si3 0.789075 0.430884 0.202866
Si Si4 0.738626 0.552608 0.743811
Si Si5 0.631594 0.348525 0.525824
Si Si6 0.095428 0.570533 0.171341
Si Si7 0.708463 0.750000 0.527837
O O1 0.792001 0.373430 0.285125
O O2 0.857783 0.328161 0.544378
O O3 0.187844 0.401840 0.625170
O O4 0.169431 0.299621 0.504733
O O5 0.727758 0.486194 0.259288
O O6 0.908852 0.559739 0.198728
O O7 0.426281 0.567593 0.019357
O O8 0.071457 0.437074 0.280317
O O9 0.492618 0.593769 0.598595
O O10 0.708645 0.483989 0.739828
O O11 0.907069 0.570790 0.953455
O O12 0.757186 0.370834 0.722671
O O13 0.420106 0.300394 0.445972
#
# Coordination Sequence:
#
# PCOD9160483 Si02
#       7
#     4   4   4   4   4   4   2
#     4  11  23  42  63  86 123 164 207 259 304 356
#     4   9  20  36  60  94 126 159 199 251 316 374
#     4  10  19  35  62  95 127 158 198 252 315 375
#     4  10  19  35  62  95 127 158 198 252 315 375
#     4  11  23  42  63  86 123 164 207 259 304 356
#     4   9  20  36  60  94 126 159 199 251 316 374
#     4  12  26  44  62  90 120 170 226 246 294 370
#
# _framework density 20.898365999999999
#
# number of rings (size 3 to 8) (size 9 to 14) (size 15 to 20)
#    0.000    1.846    1.538    2.308    2.154    1.231 
#    0.000    3.077    0.000    3.692    0.000    0.000 
#    0.000    0.000    0.000    0.000    0.000    0.000 
#
# Total GULP energy -144781.438294 kJ/mol
# GULP energy per Si atom -5568.516857 kJ/mol
# Density = 2.085080 g / cm^3
# Si number density = 20.898366 Si / 1000 Ang^3
#
#
#
# Elastic Constant Matrix: (Units=GPa)
#
#
# Indices 1 2 3 4 5 6 
#
# 1 78.5183 18.4393 3.7837 0.0000 -5.5411 0.0000
# 2 18.4393 82.9620 29.3838 0.0000 -13.4361 0.0000
# 3 3.7837 29.3838 48.9973 0.0000 -7.8059 0.0000
# 4 0.0000 0.0000 0.0000 -3.3932 0.0000 -6.9376
# 5 -5.5411 -13.4361 -7.8059 0.0000 25.2023 0.0000
# 6 0.0000 0.0000 0.0000 -6.9376 0.0000 38.9717
#
#
#
# Elastic Compliance Matrix: (Units=1/GPa)
#
#
# Indices 1 2 3 4 5 6 
#
# 1 0.013534 -0.003129 0.001093 0.000000 0.001646 0.000000
# 2 -0.003129 0.016816 -0.008967 0.000000 0.005500 0.000000
# 3 0.001093 -0.008967 0.026275 0.000000 0.003598 0.000000
# 4 0.000000 0.000000 0.000000 -0.216066 0.000000 -0.038463
# 5 0.001646 0.005500 0.003598 0.000000 0.044088 0.000000
# 6 0.000000 0.000000 0.000000 -0.038463 0.000000 0.018813
#
#
# Mechanical properties :
#
#
# Convention : Reuss Voigt Hill
#
# Bulk Modulus (GPa) = 28.88385 34.85457 31.86921
# Shear Modulus (GPa) = -79.36936 22.74754 -28.31091
#
# Velocity S-wave (km/s) = -6.16937 3.30280 -3.68461
# Velocity P-wave (km/s) = 6.07430 5.59097 1.67901
#
# Compressibility (1/GPa) = 0.03462142
#
# Stress axis : x y z
#
# Youngs Moduli (GPa) = 73.88720 59.46844 38.05844
#
# Poissons Ratio (x) = 0.18606 -0.04162
# Poissons Ratio (y) = 0.23118 0.34125
# Poissons Ratio (z) = -0.08079 0.53323
#
# Static dielectric constant tensor:
#      x y z
#    x 1.783910 0.000000 0.015830 
#    y 0.000000 1.716940 0.000000 
#    z 0.015830 0.000000 1.770570 
# 
# From -- ./inp_files/32880.got.cif
#   From: 2010.05.17/outbox.cif.g08.bks.cpg/sg11_17_cif.got.tgz:32880.got - 2010.06.03 12:22:45.
