data_PCOD9160355
_publ_section_title
;
Structure prediction by ZEFSAII (Michael W. Deem and Ramdas Pophale) SiO2 
 PCOD9160355
Probable space group: P 21/M
;
_chemical_formula_sum "Si O2"
_cell_formula_units_Z 28
_cell_length_a 26.812508
_cell_length_b 8.220194
_cell_length_c 8.023593
_cell_angle_alpha 90.000000
_cell_angle_beta 38.866907
_cell_angle_gamma 90.000000
_cell_volume 1109.714954
_symmetry_space_group_name_H-M "P 21/M"
_symmetry_group_IT_number 11
_symmetry_cell_setting 'monoclinic'
loop_
_space_group_symop_operation_xyz
x,y,z
-x,1/2+y,-z
-x,-y,-z
x,1/2-y,z
loop_
_atom_site_type_symbol
_atom_site_label
_atom_site_fract_x
_atom_site_fract_y
_atom_site_fract_z
Si Si1 0.318160 0.939322 0.418637
Si Si2 0.876101 0.945224 0.393736
Si Si3 0.544719 0.054692 0.714993
Si Si4 0.969508 0.055567 0.820430
Si Si5 0.826475 0.565197 0.032261
Si Si6 0.595642 0.939812 0.129381
Si Si7 0.260760 0.565285 0.052486
O O1 0.335941 0.750000 0.336245
O O2 0.365839 0.988142 0.464706
O O3 0.226956 0.961038 0.702053
O O4 0.352633 0.042335 0.176442
O O5 0.863221 0.750000 0.430044
O O6 0.919012 0.994235 0.111738
O O7 0.794705 0.038795 0.641104
O O8 0.940619 0.991913 0.368427
O O9 0.541120 0.250000 0.708832
O O10 0.490439 0.990442 0.704410
O O11 0.500000 0.000000 0.000000
O O12 0.967883 0.250000 0.815328
O O13 0.918499 0.984161 0.801471
O O14 0.819858 0.750000 0.104224
O O15 0.784160 0.545018 0.964828
O O16 0.590063 0.750000 0.186871
O O17 0.649120 0.027496 0.128542
O O18 0.256361 0.750000 0.003870
#
# Coordination Sequence:
#
# PCOD9160355 Si02
#       7
#     4   4   4   4   4   4   4
#     4  10  19  35  58  85 114 146 186 230 277 328
#     4  10  21  39  63  89 115 145 183 227 274 325
#     4   8  16  30  53  82 111 142 180 228 276 324
#     4  10  21  39  63  89 115 145 183 227 274 325
#     4  12  25  40  57  80 112 150 189 230 278 331
#     4  10  19  35  58  85 114 146 186 230 277 328
#     4  12  25  40  57  80 112 150 189 230 278 331
#
# _framework density 25.231703
#
# number of rings (size 3 to 8) (size 9 to 14) (size 15 to 20)
#    0.000    1.714    0.000    5.143    0.000    3.429 
#    0.000    0.714    0.000    0.000    0.000    0.000 
#    0.000    0.000    0.000    0.000    0.000    0.000 
#
# Total GULP energy -156674.346064 kJ/mol
# GULP energy per Si atom -5595.512359 kJ/mol
# Density = 2.517427 g / cm^3
# Si number density = 25.231703 Si / 1000 Ang^3
#
#
#
# Elastic Constant Matrix: (Units=GPa)
#
#
# Indices 1 2 3 4 5 6 
#
# 1 165.7477 2.8668 13.7376 0.0000 -24.2720 0.0000
# 2 2.8668 48.1855 -14.8492 0.0000 -10.2812 0.0000
# 3 13.7376 -14.8492 69.1958 0.0000 -23.9636 0.0000
# 4 0.0000 0.0000 0.0000 20.9970 0.0000 0.4438
# 5 -24.2720 -10.2812 -23.9636 0.0000 56.3021 0.0000
# 6 0.0000 0.0000 0.0000 0.4438 0.0000 36.5614
#
#
#
# Elastic Compliance Matrix: (Units=1/GPa)
#
#
# Indices 1 2 3 4 5 6 
#
# 1 0.006448 0.000073 -0.000348 0.000000 0.002645 0.000000
# 2 0.000073 0.024974 0.008134 0.000000 0.008054 0.000000
# 3 -0.000348 0.008134 0.019621 0.000000 0.009686 0.000000
# 4 0.000000 0.000000 0.000000 0.047638 0.000000 -0.000578
# 5 0.002645 0.008054 0.009686 0.000000 0.024495 0.000000
# 6 0.000000 0.000000 0.000000 -0.000578 0.000000 0.027358
#
#
# Mechanical properties :
#
#
# Convention : Reuss Voigt Hill
#
# Bulk Modulus (GPa) = 14.97886 31.84884 23.41385
# Shear Modulus (GPa) = 31.83286 41.53034 36.68160
#
# Velocity S-wave (km/s) = 3.55578 4.06144 3.81700
# Velocity P-wave (km/s) = 4.77572 5.88589 5.35963
#
# Compressibility (1/GPa) = 0.06676077
#
# Stress axis : x y z
#
# Youngs Moduli (GPa) = 155.08208 40.04182 50.96588
#
# Poissons Ratio (x) = -0.00294 0.01776
# Poissons Ratio (y) = -0.01137 -0.41456
# Poissons Ratio (z) = 0.05404 -0.32570
#
# Static dielectric constant tensor:
#      x y z
#    x 2.291630 0.000000 0.036330 
#    y 0.000000 1.919110 0.000000 
#    z 0.036330 0.000000 2.011760 
# 
# From -- ./inp_files/28336.got.cif
#   From: 2010.05.17/outbox.cif.g08.bks.cpg/sg11_15_cif.got.tgz:28336.got - 2010.06.03 12:22:45.
