data_PCOD9160015
_publ_section_title
;
Structure prediction by ZEFSAII (Michael W. Deem and Ramdas Pophale) SiO2 
 PCOD9160015
Probable space group: P 21/M
;
_chemical_formula_sum "Si O2"
_cell_formula_units_Z 24
_cell_length_a 19.850289
_cell_length_b 8.509519
_cell_length_c 10.415184
_cell_angle_alpha 90.000000
_cell_angle_beta 49.373617
_cell_angle_gamma 90.000000
_cell_volume 1335.255262
_symmetry_space_group_name_H-M "P 21/M"
_symmetry_group_IT_number 11
_symmetry_cell_setting 'monoclinic'
loop_
_space_group_symop_operation_xyz
x,y,z
-x,1/2+y,-z
-x,-y,-z
x,1/2-y,z
loop_
_atom_site_type_symbol
_atom_site_label
_atom_site_fract_x
_atom_site_fract_y
_atom_site_fract_z
Si Si1 0.232521 0.559453 0.228202
Si Si2 0.569444 0.937502 0.309274
Si Si3 0.233401 0.938537 0.931300
Si Si4 0.433207 0.560918 0.975326
Si Si5 0.948679 0.440082 0.439172
Si Si6 0.946918 0.561434 0.943856
O O1 0.233008 0.750000 0.230140
O O2 0.332468 0.508233 0.133936
O O3 0.153423 0.506426 0.418525
O O4 0.212938 0.513608 0.104804
O O5 0.567538 0.750000 0.309351
O O6 0.500000 0.000000 0.500000
O O7 0.669075 0.995252 0.219096
O O8 0.548356 0.000526 0.191887
O O9 0.237269 0.750000 0.921670
O O10 0.153404 0.999030 0.943261
O O11 0.435080 0.750000 0.969944
O O12 0.500000 0.500000 0.000000
O O13 0.949461 0.250000 0.438750
O O14 0.000000 0.500000 0.500000
O O15 0.999048 0.493206 0.249417
O O16 0.944843 0.750000 0.947518
O O17 0.000000 0.500000 0.000000
#
# Coordination Sequence:
#
# PCOD9160015 Si02
#       6
#     4   4   4   4   4   4
#     4   8  16  32  56  82 109 142 184 230 281 337
#     4  11  22  39  62  88 116 150 194 239 286 347
#     4  10  19  36  61  84 112 150 188 234 290 346
#     4  10  20  37  59  85 118 154 190 237 294 345
#     4  10  19  34  57  84 108 142 188 234 278 332
#     4  11  23  37  55  81 117 155 192 236 288 342
#
# _framework density 17.974091999999999
#
# number of rings (size 3 to 8) (size 9 to 14) (size 15 to 20)
#    0.000    2.000    1.667    4.000    0.000    0.667 
#    3.000    0.833    0.000    0.000    0.000    0.000 
#    0.000    0.000    0.000    0.000    0.000    0.000 
#
# Total GULP energy -133941.554026 kJ/mol
# GULP energy per Si atom -5580.898084 kJ/mol
# Density = 1.793318 g / cm^3
# Si number density = 17.974092 Si / 1000 Ang^3
#
#
#
# Elastic Constant Matrix: (Units=GPa)
#
#
# Indices 1 2 3 4 5 6 
#
# 1 178.9638 45.7825 85.4302 0.0000 -2.8249 0.0000
# 2 45.7825 74.6122 38.9192 0.0000 -1.8548 0.0000
# 3 85.4302 38.9192 141.2914 0.0000 -12.9492 0.0000
# 4 0.0000 0.0000 0.0000 22.2828 0.0000 1.4236
# 5 -2.8249 -1.8548 -12.9492 0.0000 24.6030 0.0000
# 6 0.0000 0.0000 0.0000 1.4236 0.0000 33.4935
#
#
#
# Elastic Compliance Matrix: (Units=1/GPa)
#
#
# Indices 1 2 3 4 5 6 
#
# 1 0.008423 -0.002891 -0.004442 0.000000 -0.001589 0.000000
# 2 -0.002891 0.016674 -0.002900 0.000000 -0.000601 0.000000
# 3 -0.004442 -0.002900 0.011027 0.000000 0.005075 0.000000
# 4 0.000000 0.000000 0.000000 0.045000 0.000000 -0.001913
# 5 -0.001589 -0.000601 0.005075 0.000000 0.043089 0.000000
# 6 0.000000 0.000000 0.000000 -0.001913 0.000000 0.029938
#
#
# Mechanical properties :
#
#
# Convention : Reuss Voigt Hill
#
# Bulk Modulus (GPa) = 63.86346 81.68124 72.77235
# Shear Modulus (GPa) = 27.80307 31.05821 29.43064
#
# Velocity S-wave (km/s) = 3.93726 4.16136 4.05086
# Velocity P-wave (km/s) = 7.50182 8.28443 7.90282
#
# Compressibility (1/GPa) = 0.01565841
#
# Stress axis : x y z
#
# Youngs Moduli (GPa) = 118.72902 59.97273 90.68308
#
# Poissons Ratio (x) = 0.17336 0.40281
# Poissons Ratio (y) = 0.34320 0.26301
# Poissons Ratio (z) = 0.52739 0.17394
#
# Static dielectric constant tensor:
#      x y z
#    x 1.597790 0.000000 -0.022120 
#    y 0.000000 1.616860 0.000000 
#    z -0.022120 0.000000 1.615150 
# 
# From -- ./inp_files/25717.got.cif
#   From: 2010.05.17/outbox.cif.g08.bks.cpg/sg11_13_cif.got.tgz:25717.got - 2010.06.03 12:22:45.
