data_PCOD9160115
_publ_section_title
;
Structure prediction by ZEFSAII (Michael W. Deem and Ramdas Pophale) SiO2 
 PCOD9160115
Probable space group: P 21/M
;
_chemical_formula_sum "Si O2"
_cell_formula_units_Z 24
_cell_length_a 11.726707
_cell_length_b 9.661996
_cell_length_c 11.492484
_cell_angle_alpha 90.000000
_cell_angle_beta 114.683336
_cell_angle_gamma 90.000000
_cell_volume 1183.160740
_symmetry_space_group_name_H-M "P 21/M"
_symmetry_group_IT_number 11
_symmetry_cell_setting 'monoclinic'
loop_
_space_group_symop_operation_xyz
x,y,z
-x,1/2+y,-z
-x,-y,-z
x,1/2-y,z
loop_
_atom_site_type_symbol
_atom_site_label
_atom_site_fract_x
_atom_site_fract_y
_atom_site_fract_z
Si Si1 0.819393 0.598954 0.961618
Si Si2 0.957782 0.995935 0.791057
Si Si3 0.086754 0.908051 0.621629
Si Si4 0.602664 0.087100 0.793105
Si Si5 0.317039 0.415917 0.657136
Si Si6 0.297564 0.908342 0.415505
O O1 0.763204 0.750000 0.948226
O O2 0.707101 0.490035 0.912364
O O3 0.891538 0.583712 0.869006
O O4 0.926040 0.576628 0.102950
O O5 0.015718 0.904982 0.713807
O O6 0.847365 0.087119 0.687889
O O7 0.106124 0.750000 0.588127
O O8 0.215313 0.994908 0.684002
O O9 0.000000 0.000000 0.500000
O O10 0.628027 0.250000 0.810371
O O11 0.458350 0.062951 0.762825
O O12 0.623839 0.049546 0.665685
O O13 0.290549 0.250000 0.643374
O O14 0.311990 0.482844 0.525638
O O15 0.330954 0.750000 0.462884
#
# Coordination Sequence:
#
# PCOD9160115 Si02
#       6
#     4   4   4   4   4   4
#     4  10  21  38  65  93 118 154 200 250 299 358
#     4  10  22  38  60  91 125 154 195 247 306 350
#     4  12  25  40  61  88 123 161 200 243 295 358
#     4   9  21  39  57  84 120 158 199 250 301 349
#     4  11  23  38  57  84 121 160 201 245 297 355
#     4  10  19  34  59  86 117 155 198 248 303 355
#
# _framework density 20.284649999999999
#
# number of rings (size 3 to 8) (size 9 to 14) (size 15 to 20)
#    0.000    1.667    1.667    2.500    0.000   10.667 
#    0.000    0.833    0.000    0.000    0.000    0.000 
#    0.000    0.000    0.000    0.000    0.000    0.000 
#
# Total GULP energy -133988.580010 kJ/mol
# GULP energy per Si atom -5582.857500 kJ/mol
# Density = 2.023848 g / cm^3
# Si number density = 20.284650 Si / 1000 Ang^3
#
#
#
# Elastic Constant Matrix: (Units=GPa)
#
#
# Indices 1 2 3 4 5 6 
#
# 1 95.7346 38.2854 17.4817 0.0000 19.8350 0.0000
# 2 38.2854 94.7277 18.8881 0.0000 12.3734 0.0000
# 3 17.4817 18.8881 50.4469 0.0000 17.6571 0.0000
# 4 0.0000 0.0000 0.0000 6.1753 0.0000 0.2374
# 5 19.8350 12.3734 17.6571 0.0000 24.5525 0.0000
# 6 0.0000 0.0000 0.0000 0.2374 0.0000 19.0643
#
#
#
# Elastic Compliance Matrix: (Units=1/GPa)
#
#
# Indices 1 2 3 4 5 6 
#
# 1 0.014151 -0.004523 -0.000009 0.000000 -0.009146 0.000000
# 2 -0.004523 0.013094 -0.003080 0.000000 -0.000730 0.000000
# 3 -0.000009 -0.003080 0.027307 0.000000 -0.018079 0.000000
# 4 0.000000 0.000000 0.000000 0.162012 0.000000 -0.002018
# 5 -0.009146 -0.000730 -0.018079 0.000000 0.061487 0.000000
# 6 0.000000 0.000000 0.000000 -0.002018 0.000000 0.052479
#
#
# Mechanical properties :
#
#
# Convention : Reuss Voigt Hill
#
# Bulk Modulus (GPa) = 25.42686 43.35773 34.39230
# Shear Modulus (GPa) = 13.93291 21.04202 17.48746
#
# Velocity S-wave (km/s) = 2.62366 3.22427 2.93934
# Velocity P-wave (km/s) = 4.66266 5.93989 5.33960
#
# Compressibility (1/GPa) = 0.03932848
#
# Stress axis : x y z
#
# Youngs Moduli (GPa) = 70.66708 76.37104 36.62086
#
# Poissons Ratio (x) = 0.34541 0.00033
# Poissons Ratio (y) = 0.31961 0.11278
# Poissons Ratio (z) = 0.00065 0.23520
#
# Static dielectric constant tensor:
#      x y z
#    x 1.741120 0.000000 -0.018850 
#    y 0.000000 1.708510 0.000000 
#    z -0.018850 0.000000 1.716800 
# 
# From -- ./inp_files/48829.got.cif
#   From: 2010.05.17/outbox.cif.g08.bks.cpg/sg11_25_cif.got.tgz:48829.got - 2010.06.03 12:22:45.
