data_PCOD9160050
_publ_section_title
;
Structure prediction by ZEFSAII (Michael W. Deem and Ramdas Pophale) SiO2 
 PCOD9160050
Probable space group: P 21/M
;
_chemical_formula_sum "Si O2"
_cell_formula_units_Z 32
_cell_length_a 15.143602
_cell_length_b 7.676152
_cell_length_c 11.326188
_cell_angle_alpha 90.000000
_cell_angle_beta 101.293844
_cell_angle_gamma 90.000000
_cell_volume 1291.112903
_symmetry_space_group_name_H-M "P 21/M"
_symmetry_group_IT_number 11
_symmetry_cell_setting 'monoclinic'
loop_
_space_group_symop_operation_xyz
x,y,z
-x,1/2+y,-z
-x,-y,-z
x,1/2-y,z
loop_
_atom_site_type_symbol
_atom_site_label
_atom_site_fract_x
_atom_site_fract_y
_atom_site_fract_z
Si Si1 0.711180 0.545039 0.291530
Si Si2 0.118331 0.954558 0.792832
Si Si3 0.449621 0.544033 0.607651
Si Si4 0.106190 0.958316 0.043719
Si Si5 0.788147 0.950558 0.694631
Si Si6 0.046841 0.460533 0.389431
Si Si7 0.394670 0.458759 0.963661
Si Si8 0.620726 0.964298 0.784359
O O1 0.722404 0.750000 0.280822
O O2 0.810042 0.472808 0.293426
O O3 0.650914 0.519413 0.391882
O O4 0.652377 0.471376 0.166122
O O5 0.103839 0.750000 0.807940
O O6 0.023253 0.029885 0.726409
O O7 0.148124 0.021370 0.928970
O O8 0.500000 0.500000 0.500000
O O9 0.445129 0.750000 0.615648
O O10 0.520319 0.477459 0.724765
O O11 0.117510 0.750000 0.061734
O O12 0.152385 0.045026 0.169098
O O13 0.000000 0.000000 0.000000
O O14 0.769810 0.750000 0.657145
O O15 0.853220 0.028133 0.611961
O O16 0.692704 0.028519 0.707380
O O17 0.052149 0.250000 0.381033
O O18 0.000000 0.500000 0.500000
O O19 0.385966 0.250000 0.957579
O O20 0.354280 0.521493 0.077559
O O21 0.500000 0.500000 0.000000
O O22 0.621678 0.750000 0.783074
#
# Coordination Sequence:
#
# PCOD9160050 Si02
#       8
#     4   4   4   4   4   4   4   4
#     4  11  23  38  61  92 119 153 201 247 296 354
#     4  10  22  40  59  86 123 159 193 239 300 354
#     4  11  23  41  62  86 120 160 202 249 297 351
#     4  11  21  36  60  90 123 157 192 235 295 358
#     4  10  20  39  62  86 118 153 194 244 292 349
#     4  10  22  40  60  84 116 155 198 245 295 346
#     4  10  19  34  57  87 118 150 188 233 291 355
#     4   9  19  36  61  87 116 155 192 234 296 352
#
# _framework density 24.78482
#
# number of rings (size 3 to 8) (size 9 to 14) (size 15 to 20)
#    0.000    1.750    2.500    1.875    0.000    4.500 
#    0.000    3.125    0.000    0.000    0.000    0.000 
#    0.000    0.000    0.000    0.000    0.000    0.000 
#
# Total GULP energy -178872.976813 kJ/mol
# GULP energy per Si atom -5589.780525 kJ/mol
# Density = 2.472841 g / cm^3
# Si number density = 24.784820 Si / 1000 Ang^3
#
#
#
# Elastic Constant Matrix: (Units=GPa)
#
#
# Indices 1 2 3 4 5 6 
#
# 1 118.8270 -11.1231 4.6144 0.0000 -34.3767 0.0000
# 2 -11.1231 58.7127 -6.5432 0.0000 1.7926 0.0000
# 3 4.6144 -6.5432 71.5669 0.0000 -31.4447 0.0000
# 4 0.0000 0.0000 0.0000 19.9328 0.0000 -6.1226
# 5 -34.3767 1.7926 -31.4447 0.0000 45.6057 0.0000
# 6 0.0000 0.0000 0.0000 -6.1226 0.0000 17.2278
#
#
#
# Elastic Compliance Matrix: (Units=1/GPa)
#
#
# Indices 1 2 3 4 5 6 
#
# 1 0.012017 0.002442 0.004858 0.000000 0.012312 0.000000
# 2 0.002442 0.017715 0.002819 0.000000 0.003088 0.000000
# 3 0.004858 0.002819 0.022205 0.000000 0.018861 0.000000
# 4 0.000000 0.000000 0.000000 0.056316 0.000000 0.020014
# 5 0.012312 0.003088 0.018861 0.000000 0.044091 0.000000
# 6 0.000000 0.000000 0.000000 0.020014 0.000000 0.065158
#
#
# Mechanical properties :
#
#
# Convention : Reuss Voigt Hill
#
# Bulk Modulus (GPa) = 13.85513 24.77807 19.31660
# Shear Modulus (GPa) = 22.59157 34.03050 28.31103
#
# Velocity S-wave (km/s) = 3.02239 3.70947 3.38342
# Velocity P-wave (km/s) = 4.21689 5.32596 4.80354
#
# Compressibility (1/GPa) = 0.07217543
#
# Stress axis : x y z
#
# Youngs Moduli (GPa) = 83.21224 56.45043 45.03591
#
# Poissons Ratio (x) = -0.13786 -0.21879
# Poissons Ratio (y) = -0.20322 -0.12696
# Poissons Ratio (z) = -0.40425 -0.15914
#
# Static dielectric constant tensor:
#      x y z
#    x 1.956810 0.000000 -0.009340 
#    y 0.000000 1.909170 0.000000 
#    z -0.009340 0.000000 2.013310 
# 
# From -- ./inp_files/38213.got.cif
#   From: 2010.05.17/outbox.cif.g08.bks.cpg/sg11_20_cif.got.tgz:38213.got - 2010.06.03 12:22:45.
