data_PCOD9160547
_publ_section_title
;
Structure prediction by ZEFSAII (Michael W. Deem and Ramdas Pophale) SiO2 
 PCOD9160547
Probable space group: P 21/M
;
_chemical_formula_sum "Si O2"
_cell_formula_units_Z 24
_cell_length_a 8.704530
_cell_length_b 19.623608
_cell_length_c 7.738355
_cell_angle_alpha 90.000000
_cell_angle_beta 50.717103
_cell_angle_gamma 90.000000
_cell_volume 1023.128550
_symmetry_space_group_name_H-M "P 21/M"
_symmetry_group_IT_number 11
_symmetry_cell_setting 'monoclinic'
loop_
_space_group_symop_operation_xyz
x,y,z
-x,1/2+y,-z
-x,-y,-z
x,1/2-y,z
loop_
_atom_site_type_symbol
_atom_site_label
_atom_site_fract_x
_atom_site_fract_y
_atom_site_fract_z
Si Si1 0.374823 0.675060 0.842567
Si Si2 0.982241 0.389805 0.028821
Si Si3 0.848536 0.170592 0.627448
Si Si4 0.769887 0.511682 0.969690
Si Si5 0.225073 0.394578 0.536028
Si Si6 0.681727 0.463378 0.643826
O O1 0.461851 0.750000 0.762723
O O2 0.553849 0.624085 0.678728
O O3 0.188644 0.665925 0.846395
O O4 0.281630 0.668607 0.101213
O O5 0.863698 0.451181 0.015853
O O6 0.156817 0.368934 0.772027
O O7 0.092363 0.422038 0.112127
O O8 0.859264 0.250000 0.566373
O O9 0.746583 0.114572 0.577055
O O10 0.064086 0.140076 0.524445
O O11 0.743321 0.486001 0.794189
O O12 0.554619 0.530607 0.197238
O O13 0.220189 0.477126 0.540001
#
# Coordination Sequence:
#
# PCOD9160547 Si02
#       6
#     4   4   4   4   4   4
#     4  10  19  36  58  83 120 156 195 239 286 344
#     4  10  21  38  56  88 117 149 189 245 289 340
#     4  10  21  36  55  84 120 155 190 238 295 349
#     4  10  20  37  59  84 117 147 190 237 292 340
#     4  11  20  35  61  92 111 151 201 243 285 338
#     4  11  19  37  61  89 115 151 195 246 283 342
#
# _framework density 23.457460000000001
#
# number of rings (size 3 to 8) (size 9 to 14) (size 15 to 20)
#    0.000    1.667    5.000    2.000    0.000    1.333 
#    0.000    0.833    0.000    4.000    0.000    1.167 
#    0.000    0.000    0.000    0.000    0.000    0.000 
#
# Total GULP energy -134208.261204 kJ/mol
# GULP energy per Si atom -5592.010884 kJ/mol
# Density = 2.340407 g / cm^3
# Si number density = 23.457460 Si / 1000 Ang^3
#
#
#
# Elastic Constant Matrix: (Units=GPa)
#
#
# Indices 1 2 3 4 5 6 
#
# 1 48.5176 12.7902 30.3182 0.0000 -19.0004 0.0000
# 2 12.7902 130.9405 34.3021 0.0000 -12.7075 0.0000
# 3 30.3182 34.3021 89.5117 0.0000 -28.8386 0.0000
# 4 0.0000 0.0000 0.0000 23.8088 0.0000 -6.3713
# 5 -19.0004 -12.7075 -28.8386 0.0000 35.1254 0.0000
# 6 0.0000 0.0000 0.0000 -6.3713 0.0000 28.1614
#
#
#
# Elastic Compliance Matrix: (Units=1/GPa)
#
#
# Indices 1 2 3 4 5 6 
#
# 1 0.028615 -0.000141 -0.006346 0.000000 0.010217 0.000000
# 2 -0.000141 0.008498 -0.003049 0.000000 0.000494 0.000000
# 3 -0.006346 -0.003049 0.017714 0.000000 0.010007 0.000000
# 4 0.000000 0.000000 0.000000 0.044708 0.000000 0.010115
# 5 0.010217 0.000494 0.010007 0.000000 0.042392 0.000000
# 6 0.000000 0.000000 0.000000 0.010115 0.000000 0.037798
#
#
# Mechanical properties :
#
#
# Convention : Reuss Voigt Hill
#
# Bulk Modulus (GPa) = 27.96929 47.08786 37.52858
# Shear Modulus (GPa) = 23.72865 30.18975 26.95920
#
# Velocity S-wave (km/s) = 3.18396 3.59137 3.39378
# Velocity P-wave (km/s) = 5.04639 6.10856 5.60271
#
# Compressibility (1/GPa) = 0.03575350
#
# Stress axis : x y z
#
# Youngs Moduli (GPa) = 34.94631 117.67964 56.45255
#
# Poissons Ratio (x) = 0.01659 0.35827
# Poissons Ratio (y) = 0.00493 0.17215
# Poissons Ratio (z) = 0.22178 0.35885
#
# Static dielectric constant tensor:
#      x y z
#    x 1.891100 0.000000 0.039940 
#    y 0.000000 1.936660 0.000000 
#    z 0.039940 0.000000 1.913870 
# 
# From -- ./inp_files/14241.got.cif
#   From: 2010.05.17/outbox.cif.g08.bks.cpg/sg11_8_cif.got.tgz:14241.got - 2010.06.03 12:22:45.
