data_PCOD9160836
_publ_section_title
;
Structure prediction by ZEFSAII (Michael W. Deem and Ramdas Pophale) SiO2 
 PCOD9160836
Probable space group: P 21/M
;
_chemical_formula_sum "Si O2"
_cell_formula_units_Z 32
_cell_length_a 17.653100
_cell_length_b 16.126604
_cell_length_c 11.415266
_cell_angle_alpha 90.000000
_cell_angle_beta 145.673696
_cell_angle_gamma 90.000000
_cell_volume 1832.551011
_symmetry_space_group_name_H-M "P 21/M"
_symmetry_group_IT_number 11
_symmetry_cell_setting 'monoclinic'
loop_
_space_group_symop_operation_xyz
x,y,z
-x,1/2+y,-z
-x,-y,-z
x,1/2-y,z
loop_
_atom_site_type_symbol
_atom_site_label
_atom_site_fract_x
_atom_site_fract_y
_atom_site_fract_z
Si Si1 0.905389 0.846263 0.629267
Si Si2 0.294449 0.572786 0.387828
Si Si3 0.991863 0.346715 0.979330
Si Si4 0.913553 0.462695 0.284217
Si Si5 0.415402 0.149921 0.198461
Si Si6 0.199479 0.059012 0.078538
Si Si7 0.656534 0.958287 0.328135
Si Si8 0.362947 0.992679 0.963539
O O1 0.900530 0.750000 0.602958
O O2 0.756097 0.882210 0.442751
O O3 0.999421 0.887776 0.653164
O O4 0.970116 0.863861 0.837941
O O5 0.163369 0.629583 0.231372
O O6 0.434173 0.623707 0.568378
O O7 0.274664 0.513597 0.248569
O O8 0.293636 0.515786 0.502797
O O9 0.011890 0.250000 0.980402
O O10 0.093216 0.398505 0.028950
O O11 0.763940 0.448266 0.140987
O O12 0.000000 0.500000 0.500000
O O13 0.886371 0.522584 0.139124
O O14 0.407578 0.250000 0.164903
O O15 0.308652 0.121833 0.161917
O O16 0.382164 0.085038 0.047693
O O17 0.658877 0.000393 0.203244
O O18 0.500829 0.943224 0.158485
#
# Coordination Sequence:
#
# PCOD9160836 Si02
#       8
#     4   4   4   4   4   4   4   4
#     4  11  22  37  58  85 117 149 188 238 293 341
#     4  11  20  36  62  82 112 150 194 231 285 342
#     4  11  22  36  56  88 117 144 186 243 292 332
#     4  11  21  38  60  85 114 153 192 233 284 347
#     4  10  22  38  56  84 117 149 185 235 288 341
#     4  11  21  37  59  84 112 150 193 234 277 346
#     4  10  19  38  59  85 108 149 195 234 278 337
#     4   9  21  36  61  83 113 148 193 236 275 342
#
# _framework density 17.461997
#
# number of rings (size 3 to 8) (size 9 to 14) (size 15 to 20)
#    0.000    1.500    3.750    2.250    0.000    0.500 
#    0.000    1.250    0.000    0.750    0.000    0.000 
#    0.000    0.000    0.000    0.000    0.000    0.000 
#
# Total GULP energy -178420.497087 kJ/mol
# GULP energy per Si atom -5575.640534 kJ/mol
# Density = 1.742225 g / cm^3
# Si number density = 17.461997 Si / 1000 Ang^3
#
#
#
# Elastic Constant Matrix: (Units=GPa)
#
#
# Indices 1 2 3 4 5 6 
#
# 1 104.3834 5.4839 41.9364 0.0000 4.2124 0.0000
# 2 5.4839 146.5100 40.8694 0.0000 29.0156 0.0000
# 3 41.9364 40.8694 101.7090 0.0000 1.1632 0.0000
# 4 0.0000 0.0000 0.0000 12.7625 0.0000 8.5952
# 5 4.2124 29.0156 1.1632 0.0000 43.5675 0.0000
# 6 0.0000 0.0000 0.0000 8.5952 0.0000 18.6799
#
#
#
# Elastic Compliance Matrix: (Units=1/GPa)
#
#
# Indices 1 2 3 4 5 6 
#
# 1 0.011757 0.001458 -0.005411 0.000000 -0.001963 0.000000
# 2 0.001458 0.009160 -0.004212 0.000000 -0.006129 0.000000
# 3 -0.005411 -0.004212 0.013721 0.000000 0.002962 0.000000
# 4 0.000000 0.000000 0.000000 0.113539 0.000000 -0.052242
# 5 -0.001963 -0.006129 0.002962 0.000000 0.027145 0.000000
# 6 0.000000 0.000000 0.000000 -0.052242 0.000000 0.077572
#
#
# Mechanical properties :
#
#
# Convention : Reuss Voigt Hill
#
# Bulk Modulus (GPa) = 54.61882 58.79798 56.70840
# Shear Modulus (GPa) = 18.16036 32.62283 25.39159
#
# Velocity S-wave (km/s) = 3.22839 4.32698 3.81741
# Velocity P-wave (km/s) = 6.72631 7.66216 7.20944
#
# Compressibility (1/GPa) = 0.01830871
#
# Stress axis : x y z
#
# Youngs Moduli (GPa) = 85.05897 109.17609 72.87843
#
# Poissons Ratio (x) = -0.15920 0.39434
# Poissons Ratio (y) = -0.12403 0.30694
# Poissons Ratio (z) = 0.46025 0.45982
#
# Static dielectric constant tensor:
#      x y z
#    x 1.596030 0.000000 0.019760 
#    y 0.000000 1.566500 0.000000 
#    z 0.019760 0.000000 1.676710 
# 
# From -- ./inp_files/41696.got.cif
#   From: 2010.05.17/outbox.cif.g08.bks.cpg/sg11_21_cif.got.tgz:41696.got - 2010.06.03 12:22:45.
