data_PCOD9160106
_publ_section_title
;
Structure prediction by ZEFSAII (Michael W. Deem and Ramdas Pophale) SiO2 
 PCOD9160106
Probable space group: P 21/M
;
_chemical_formula_sum "Si O2"
_cell_formula_units_Z 28
_cell_length_a 13.564245
_cell_length_b 17.820781
_cell_length_c 8.472907
_cell_angle_alpha 90.000000
_cell_angle_beta 133.738967
_cell_angle_gamma 90.000000
_cell_volume 1479.758731
_symmetry_space_group_name_H-M "P 21/M"
_symmetry_group_IT_number 11
_symmetry_cell_setting 'monoclinic'
loop_
_space_group_symop_operation_xyz
x,y,z
-x,1/2+y,-z
-x,-y,-z
x,1/2-y,z
loop_
_atom_site_type_symbol
_atom_site_label
_atom_site_fract_x
_atom_site_fract_y
_atom_site_fract_z
Si Si1 0.184255 0.577172 0.761099
Si Si2 0.276467 0.168720 0.852393
Si Si3 0.507835 0.416575 0.936763
Si Si4 0.378714 0.465450 0.471442
Si Si5 0.051111 0.334861 0.340654
Si Si6 0.834197 0.559011 0.019825
Si Si7 0.120663 0.995054 0.352241
O O1 0.196447 0.519042 0.921302
O O2 0.135287 0.529429 0.552926
O O3 0.078687 0.641432 0.695284
O O4 0.335308 0.606986 0.895709
O O5 0.303383 0.250000 0.949689
O O6 0.415779 0.131251 0.951877
O O7 0.183892 0.173185 0.595308
O O8 0.188227 0.121312 0.875063
O O9 0.443915 0.420332 0.689826
O O10 0.500000 0.500000 0.000000
O O11 0.500000 0.500000 0.500000
O O12 0.265928 0.519938 0.430021
O O13 0.278120 0.425232 0.236857
O O14 0.029265 0.250000 0.244842
O O15 0.084749 0.415859 0.295328
O O16 0.991484 0.550823 0.143850
#
# Coordination Sequence:
#
# PCOD9160106 Si02
#       7
#     4   4   4   4   4   4   4
#     4  11  19  35  61  83 116 144 194 236 285 333
#     4  11  21  37  60  87 112 147 193 236 284 342
#     4  12  20  37  59  86 116 152 192 237 279 341
#     4  12  22  34  56  90 115 149 189 233 292 331
#     4  10  19  34  59  85 110 144 192 240 282 332
#     4  11  20  36  56  88 115 143 183 243 284 336
#     4  11  20  37  57  89 111 150 195 236 279 337
#
# _framework density 18.922004999999999
#
# number of rings (size 3 to 8) (size 9 to 14) (size 15 to 20)
#    0.000    0.857    8.571    1.286    0.000    0.571 
#    0.000    1.429    0.000    0.000    0.000    0.000 
#    0.000    0.000    0.000    0.000    0.000    0.000 
#
# Total GULP energy -155935.385160 kJ/mol
# GULP energy per Si atom -5569.120899 kJ/mol
# Density = 1.887894 g / cm^3
# Si number density = 18.922005 Si / 1000 Ang^3
#
#
#
# Elastic Constant Matrix: (Units=GPa)
#
#
# Indices 1 2 3 4 5 6 
#
# 1 119.5756 24.5404 19.1134 0.0000 34.1760 0.0000
# 2 24.5404 78.5311 15.5659 0.0000 11.7598 0.0000
# 3 19.1134 15.5659 76.0454 0.0000 10.6275 0.0000
# 4 0.0000 0.0000 0.0000 11.0052 0.0000 2.8127
# 5 34.1760 11.7598 10.6275 0.0000 44.3116 0.0000
# 6 0.0000 0.0000 0.0000 2.8127 0.0000 -1.7729
#
#
#
# Elastic Compliance Matrix: (Units=1/GPa)
#
#
# Indices 1 2 3 4 5 6 
#
# 1 0.011226 -0.002082 -0.001306 0.000000 -0.007792 0.000000
# 2 -0.002082 0.014047 -0.002127 0.000000 -0.001612 0.000000
# 3 -0.001306 -0.002127 0.014169 0.000000 -0.001826 0.000000
# 4 0.000000 0.000000 0.000000 0.064652 0.000000 0.102568
# 5 -0.007792 -0.001612 -0.001826 0.000000 0.029443 0.000000
# 6 0.000000 0.000000 0.000000 0.102568 0.000000 -0.401322
#
#
# Mechanical properties :
#
#
# Convention : Reuss Voigt Hill
#
# Bulk Modulus (GPa) = 35.19668 43.62128 39.40898
# Shear Modulus (GPa) = -20.21979 25.03760 2.40890
#
# Velocity S-wave (km/s) = -3.27247 3.64153 1.12953
# Velocity P-wave (km/s) = 2.08867 6.38625 4.75115
#
# Compressibility (1/GPa) = 0.02841177
#
# Stress axis : x y z
#
# Youngs Moduli (GPa) = 89.07695 71.18734 70.57688
#
# Poissons Ratio (x) = 0.14823 0.09220
# Poissons Ratio (y) = 0.18548 0.15010
# Poissons Ratio (z) = 0.11637 0.15140
#
# Static dielectric constant tensor:
#      x y z
#    x 1.702590 0.000000 -0.017970 
#    y 0.000000 1.705650 0.000000 
#    z -0.017970 0.000000 1.697730 
# 
# From -- ./inp_files/22773.got.cif
#   From: 2010.05.17/outbox.cif.g08.bks.cpg/sg11_12_cif.got.tgz:22773.got - 2010.06.03 12:22:45.
