data_PCOD9160846
_publ_section_title
;
Structure prediction by ZEFSAII (Michael W. Deem and Ramdas Pophale) SiO2 
 PCOD9160846
Probable space group: P 21/M
;
_chemical_formula_sum "Si O2"
_cell_formula_units_Z 20
_cell_length_a 9.057022
_cell_length_b 13.980637
_cell_length_c 8.663603
_cell_angle_alpha 90.000000
_cell_angle_beta 72.895591
_cell_angle_gamma 90.000000
_cell_volume 1048.490488
_symmetry_space_group_name_H-M "P 21/M"
_symmetry_group_IT_number 11
_symmetry_cell_setting 'monoclinic'
loop_
_space_group_symop_operation_xyz
x,y,z
-x,1/2+y,-z
-x,-y,-z
x,1/2-y,z
loop_
_atom_site_type_symbol
_atom_site_label
_atom_site_fract_x
_atom_site_fract_y
_atom_site_fract_z
Si Si1 0.380133 0.950342 0.423622
Si Si2 0.859869 0.140276 0.266284
Si Si3 0.744251 0.044969 0.994637
Si Si4 0.461251 0.360924 0.918827
Si Si5 0.883710 0.969107 0.670273
O O1 0.259895 0.890263 0.563011
O O2 0.464536 0.885147 0.271090
O O3 0.500000 0.000000 0.500000
O O4 0.283440 0.031163 0.358999
O O5 0.839637 0.250000 0.231347
O O6 0.031815 0.119916 0.276933
O O7 0.821990 0.076066 0.128985
O O8 0.595915 0.110425 0.999269
O O9 0.861371 0.046415 0.814240
O O10 0.677249 0.936872 0.020297
O O11 0.419456 0.250000 0.944914
O O12 0.000000 0.000000 0.500000
#
# Coordination Sequence:
#
# PCOD9160846 Si02
#       5
#     4   4   4   4   4
#     4  10  19  38  61  83 116 155 194 241 295 344
#     4  11  21  36  59  87 118 156 195 237 295 355
#     4  10  20  36  58  84 118 154 192 247 295 343
#     4  10  20  35  57  86 116 151 195 243 295 351
#     4   9  21  38  59  79 112 156 194 238 291 346
#
# _framework density 19.075043000000001
#
# number of rings (size 3 to 8) (size 9 to 14) (size 15 to 20)
#    0.000    2.000    2.000    1.800    0.000    0.800 
#    0.000    3.000    0.000    1.200    0.000    0.000 
#    0.000    0.000    0.000    0.000    0.000    0.000 
#
# Total GULP energy -111509.979621 kJ/mol
# GULP energy per Si atom -5575.498981 kJ/mol
# Density = 1.903163 g / cm^3
# Si number density = 19.075043 Si / 1000 Ang^3
#
#
#
# Elastic Constant Matrix: (Units=GPa)
#
#
# Indices 1 2 3 4 5 6 
#
# 1 75.2994 45.9659 29.1929 0.0000 19.3571 0.0000
# 2 45.9659 114.1847 19.3334 0.0000 11.6840 0.0000
# 3 29.1929 19.3334 107.3619 0.0000 1.3345 0.0000
# 4 0.0000 0.0000 0.0000 15.9820 0.0000 -0.0628
# 5 19.3571 11.6840 1.3345 0.0000 34.8756 0.0000
# 6 0.0000 0.0000 0.0000 -0.0628 0.0000 18.7595
#
#
#
# Elastic Compliance Matrix: (Units=1/GPa)
#
#
# Indices 1 2 3 4 5 6 
#
# 1 0.021787 -0.007023 -0.004540 0.000000 -0.009566 0.000000
# 2 -0.007023 0.011614 -0.000182 0.000000 0.000014 0.000000
# 3 -0.004540 -0.000182 0.010555 0.000000 0.002177 0.000000
# 4 0.000000 0.000000 0.000000 0.062571 0.000000 0.000210
# 5 -0.009566 0.000014 0.002177 0.000000 0.033895 0.000000
# 6 0.000000 0.000000 0.000000 0.000210 0.000000 0.053307
#
#
# Mechanical properties :
#
#
# Convention : Reuss Voigt Hill
#
# Bulk Modulus (GPa) = 48.86425 53.98115 51.42270
# Shear Modulus (GPa) = 22.31739 27.41370 24.86555
#
# Velocity S-wave (km/s) = 3.42421 3.79509 3.61441
# Velocity P-wave (km/s) = 6.42698 6.89669 6.66597
#
# Compressibility (1/GPa) = 0.02046486
#
# Stress axis : x y z
#
# Youngs Moduli (GPa) = 45.89963 86.10138 94.74522
#
# Poissons Ratio (x) = 0.60467 0.43019
# Poissons Ratio (y) = 0.32234 0.01725
# Poissons Ratio (z) = 0.20841 0.01567
#
# Static dielectric constant tensor:
#      x y z
#    x 1.689940 0.000000 -0.022920 
#    y 0.000000 1.636270 0.000000 
#    z -0.022920 0.000000 1.698250 
# 
# From -- ./inp_files/11735.got.cif
#   From: 2010.05.17/outbox.cif.g08.bks.cpg/sg11_6_cif.got.tgz:11735.got - 2010.06.03 12:22:45.
