data_PCOD9160920
_publ_section_title
;
Structure prediction by ZEFSAII (Michael W. Deem and Ramdas Pophale) SiO2 
 PCOD9160920
Probable space group: P 21/M
;
_chemical_formula_sum "Si O2"
_cell_formula_units_Z 32
_cell_length_a 21.797799
_cell_length_b 13.181636
_cell_length_c 10.953423
_cell_angle_alpha 90.000000
_cell_angle_beta 31.262171
_cell_angle_gamma 90.000000
_cell_volume 1633.282818
_symmetry_space_group_name_H-M "P 21/M"
_symmetry_group_IT_number 11
_symmetry_cell_setting 'monoclinic'
loop_
_space_group_symop_operation_xyz
x,y,z
-x,1/2+y,-z
-x,-y,-z
x,1/2-y,z
loop_
_atom_site_type_symbol
_atom_site_label
_atom_site_fract_x
_atom_site_fract_y
_atom_site_fract_z
Si Si1 0.345898 0.367614 0.615360
Si Si2 0.995037 0.447726 0.810869
Si Si3 0.794744 0.497443 0.961437
Si Si4 0.171575 0.364747 0.315088
Si Si5 0.338439 0.512435 0.401401
Si Si6 0.097326 0.868045 0.777700
Si Si7 0.600113 0.553432 0.967489
Si Si8 0.622084 0.134142 0.098968
O O1 0.310386 0.250000 0.664196
O O2 0.310450 0.434663 0.558079
O O3 0.488552 0.371211 0.377563
O O4 0.288305 0.420979 0.829453
O O5 0.885348 0.453990 0.905517
O O6 0.101590 0.397765 0.554963
O O7 0.030721 0.560608 0.793823
O O8 0.963591 0.386987 0.987058
O O9 0.856702 0.557375 0.745289
O O10 0.713909 0.410586 0.039626
O O11 0.142538 0.250000 0.331016
O O12 0.310682 0.376374 0.109767
O O13 0.229362 0.586585 0.564783
O O14 0.367929 0.448783 0.229207
O O15 0.460856 0.571150 0.222396
O O16 0.096550 0.750000 0.747782
O O17 0.624028 0.440212 0.979351
O O18 0.648188 0.250000 0.022589
#
# Coordination Sequence:
#
# PCOD9160920 Si02
#       8
#     4   4   4   4   4   4   4   4
#     4  10  20  37  61  90 123 160 200 247 304 361
#     4  11  24  45  60  88 124 159 203 251 299 356
#     4  11  22  40  62  86 120 156 209 252 291 355
#     4  11  23  40  61  88 121 160 201 246 301 358
#     4  10  19  40  61  92 122 156 198 249 302 361
#     4  11  24  42  66  91 120 159 202 253 304 356
#     4   9  20  37  63  89 127 154 194 250 301 364
#     4   9  20  37  61  90 123 162 197 244 308 360
#
# _framework density 19.592442999999999
#
# number of rings (size 3 to 8) (size 9 to 14) (size 15 to 20)
#    0.000    1.750    2.500    1.500    0.000    3.500 
#    0.000    2.500    0.000    0.000    0.000    0.000 
#    0.000    0.000    0.000    0.000    0.000    0.000 
#
# Total GULP energy -178755.652995 kJ/mol
# GULP energy per Si atom -5586.114156 kJ/mol
# Density = 1.954785 g / cm^3
# Si number density = 19.592443 Si / 1000 Ang^3
#
#
#
# Elastic Constant Matrix: (Units=GPa)
#
#
# Indices 1 2 3 4 5 6 
#
# 1 59.2930 -13.8532 -3.5204 0.0000 -10.7993 0.0000
# 2 -13.8532 56.4536 1.7057 0.0000 -8.9256 0.0000
# 3 -3.5204 1.7057 40.6248 0.0000 13.2538 0.0000
# 4 0.0000 0.0000 0.0000 8.4369 0.0000 0.2912
# 5 -10.7993 -8.9256 13.2538 0.0000 24.1902 0.0000
# 6 0.0000 0.0000 0.0000 0.2912 0.0000 11.7054
#
#
#
# Elastic Compliance Matrix: (Units=1/GPa)
#
#
# Indices 1 2 3 4 5 6 
#
# 1 0.020906 0.007382 -0.002961 0.000000 0.013680 0.000000
# 2 0.007382 0.021891 -0.004858 0.000000 0.014035 0.000000
# 3 -0.002961 -0.004858 0.031146 0.000000 -0.020180 0.000000
# 4 0.000000 0.000000 0.000000 0.118629 0.000000 -0.002951
# 5 0.013680 0.014035 -0.020180 0.000000 0.063681 0.000000
# 6 0.000000 0.000000 0.000000 -0.002951 0.000000 0.085504
#
#
# Mechanical properties :
#
#
# Convention : Reuss Voigt Hill
#
# Bulk Modulus (GPa) = 13.68566 13.89284 13.78925
# Shear Modulus (GPa) = 13.62443 20.33579 16.98011
#
# Velocity S-wave (km/s) = 2.63989 3.22520 2.94711
# Velocity P-wave (km/s) = 4.03638 4.57991 4.31671
#
# Compressibility (1/GPa) = 0.07306920
#
# Stress axis : x y z
#
# Youngs Moduli (GPa) = 47.83333 45.68086 32.10642
#
# Poissons Ratio (x) = -0.33723 0.09508
# Poissons Ratio (y) = -0.35312 0.15598
# Poissons Ratio (z) = 0.14165 0.22193
#
# Static dielectric constant tensor:
#      x y z
#    x 1.674370 0.000000 -0.016220 
#    y 0.000000 1.650440 0.000000 
#    z -0.016220 0.000000 1.696750 
# 
# From -- ./inp_files/44194.got.cif
#   From: 2010.05.17/outbox.cif.g08.bks.cpg/sg11_23_cif.got.tgz:44194.got - 2010.06.03 12:22:45.
