data_PCOD9160356
_publ_section_title
;
Structure prediction by ZEFSAII (Michael W. Deem and Ramdas Pophale) SiO2 
 PCOD9160356
Probable space group: P 21/M
;
_chemical_formula_sum "Si O2"
_cell_formula_units_Z 32
_cell_length_a 12.500277
_cell_length_b 16.914622
_cell_length_c 16.767570
_cell_angle_alpha 90.000000
_cell_angle_beta 150.903954
_cell_angle_gamma 90.000000
_cell_volume 1723.987354
_symmetry_space_group_name_H-M "P 21/M"
_symmetry_group_IT_number 11
_symmetry_cell_setting 'monoclinic'
loop_
_space_group_symop_operation_xyz
x,y,z
-x,1/2+y,-z
-x,-y,-z
x,1/2-y,z
loop_
_atom_site_type_symbol
_atom_site_label
_atom_site_fract_x
_atom_site_fract_y
_atom_site_fract_z
Si Si1 0.500874 0.488738 0.906059
Si Si2 0.002271 0.540895 0.779648
Si Si3 0.189306 0.996556 0.188499
Si Si4 0.647222 0.160256 0.623397
Si Si5 0.224192 0.159575 0.459988
Si Si6 0.658172 0.073095 0.468891
Si Si7 0.153952 0.921797 0.584716
Si Si8 0.718736 0.842057 0.326259
O O1 0.358174 0.559041 0.774727
O O2 0.398570 0.404957 0.808739
O O3 0.500000 0.500000 0.000000
O O4 0.754843 0.489423 0.046568
O O5 0.885740 0.553050 0.788132
O O6 0.988347 0.615902 0.712706
O O7 0.847738 0.480832 0.631056
O O8 0.427895 0.025765 0.315116
O O9 0.213097 0.909042 0.242814
O O10 0.000000 0.000000 0.000000
O O11 0.728748 0.250000 0.687943
O O12 0.412715 0.154434 0.515719
O O13 0.628783 0.140672 0.517227
O O14 0.170582 0.250000 0.439877
O O15 0.319439 0.130253 0.606749
O O16 0.747091 0.090103 0.438865
O O17 0.982005 0.851946 0.488551
O O18 0.000000 0.000000 0.500000
O O19 0.652900 0.750000 0.272670
#
# Coordination Sequence:
#
# PCOD9160356 Si02
#       8
#     4   4   4   4   4   4   4   4
#     4  11  22  36  58  91 121 155 202 250 300 360
#     4  11  19  34  57  83 118 152 195 244 293 353
#     4  11  22  35  58  88 119 158 201 249 298 354
#     4  10  21  38  60  85 118 161 199 245 303 360
#     4  10  19  35  58  85 117 155 197 246 300 359
#     4  11  20  39  59  86 117 156 207 246 294 364
#     4  10  21  37  61  85 117 155 200 249 296 358
#     4  10  22  39  61  87 119 158 200 250 311 363
#
# _framework density 18.561620000000001
#
# number of rings (size 3 to 8) (size 9 to 14) (size 15 to 20)
#    0.000    1.500    2.500    5.250    1.750    1.000 
#    0.000    1.875    0.000    6.000    0.000    0.000 
#    0.000    0.000    0.000    0.000    0.000    0.000 
#
# Total GULP energy -178319.223295 kJ/mol
# GULP energy per Si atom -5572.475728 kJ/mol
# Density = 1.851937 g / cm^3
# Si number density = 18.561620 Si / 1000 Ang^3
#
#
#
# Elastic Constant Matrix: (Units=GPa)
#
#
# Indices 1 2 3 4 5 6 
#
# 1 124.9236 18.8410 30.9611 0.0000 -12.4918 0.0000
# 2 18.8410 55.8833 30.0188 0.0000 -7.1850 0.0000
# 3 30.9611 30.0188 119.6181 0.0000 -2.0100 0.0000
# 4 0.0000 0.0000 0.0000 21.8543 0.0000 -2.7635
# 5 -12.4918 -7.1850 -2.0100 0.0000 40.6104 0.0000
# 6 0.0000 0.0000 0.0000 -2.7635 0.0000 20.2956
#
#
#
# Elastic Compliance Matrix: (Units=1/GPa)
#
#
# Indices 1 2 3 4 5 6 
#
# 1 0.008959 -0.001725 -0.001846 0.000000 0.002359 0.000000
# 2 -0.001725 0.021496 -0.004897 0.000000 0.003030 0.000000
# 3 -0.001846 -0.004897 0.010051 0.000000 -0.000937 0.000000
# 4 0.000000 0.000000 0.000000 0.046559 0.000000 0.006340
# 5 0.002359 0.003030 -0.000937 0.000000 0.025840 0.000000
# 6 0.000000 0.000000 0.000000 0.006340 0.000000 0.050135
#
#
# Mechanical properties :
#
#
# Convention : Reuss Voigt Hill
#
# Bulk Modulus (GPa) = 42.42930 51.11851 46.77390
# Shear Modulus (GPa) = 26.61939 31.25902 28.93920
#
# Velocity S-wave (km/s) = 3.79107 4.10819 3.95281
# Velocity P-wave (km/s) = 6.48623 7.07832 6.78874
#
# Compressibility (1/GPa) = 0.02356862
#
# Stress axis : x y z
#
# Youngs Moduli (GPa) = 111.62518 46.51961 99.49272
#
# Poissons Ratio (x) = 0.08026 0.18368
# Poissons Ratio (y) = 0.19260 0.48723
# Poissons Ratio (z) = 0.20607 0.22781
#
# Static dielectric constant tensor:
#      x y z
#    x 1.704000 0.000000 -0.007750 
#    y 0.000000 1.801910 0.000000 
#    z -0.007750 0.000000 1.692940 
# 
# From -- ./inp_files/50687.got.cif
#   From: 2010.05.17/outbox.cif.g08.bks.cpg/sg11_26_cif.got.tgz:50687.got - 2010.06.03 12:22:45.
