data_PCOD9160542
_publ_section_title
;
Structure prediction by ZEFSAII (Michael W. Deem and Ramdas Pophale) SiO2 
 PCOD9160542
Probable space group: P 21/M
;
_chemical_formula_sum "Si O2"
_cell_formula_units_Z 32
_cell_length_a 15.738505
_cell_length_b 24.858400
_cell_length_c 10.249994
_cell_angle_alpha 90.000000
_cell_angle_beta 21.746657
_cell_angle_gamma 90.000000
_cell_volume 1485.772359
_symmetry_space_group_name_H-M "P 21/M"
_symmetry_group_IT_number 11
_symmetry_cell_setting 'monoclinic'
loop_
_space_group_symop_operation_xyz
x,y,z
-x,1/2+y,-z
-x,-y,-z
x,1/2-y,z
loop_
_atom_site_type_symbol
_atom_site_label
_atom_site_fract_x
_atom_site_fract_y
_atom_site_fract_z
Si Si1 0.078025 0.687212 0.141222
Si Si2 0.128820 0.521683 0.188518
Si Si3 0.942655 0.862745 0.064833
Si Si4 0.547374 0.937079 0.751040
Si Si5 0.405669 0.310581 0.610467
Si Si6 0.741745 0.899045 0.716023
Si Si7 0.616939 0.581058 0.195588
Si Si8 0.204035 0.538663 0.664766
O O1 0.025211 0.750000 0.211766
O O2 0.070710 0.662547 0.005817
O O3 0.879292 0.656442 0.502991
O O4 0.341340 0.681749 0.814101
O O5 0.000000 0.500000 0.500000
O O6 0.939606 0.558161 0.390309
O O7 0.334325 0.556994 0.956769
O O8 0.222071 0.467947 0.985826
O O9 0.739394 0.901465 0.406092
O O10 0.810294 0.816445 0.177115
O O11 0.106763 0.904353 0.753629
O O12 0.534282 0.908604 0.910533
O O13 0.631311 0.998830 0.650651
O O14 0.409467 0.250000 0.662709
O O15 0.370444 0.362226 0.752541
O O16 0.672189 0.908551 0.964003
O O17 0.361474 0.556559 0.562905
O O18 0.000000 0.500000 0.000000
#
# Coordination Sequence:
#
# PCOD9160542 Si02
#       8
#     4   4   4   4   4   4   4   4
#     4  10  21  39  61  83 109 147 197 242 285 338
#     4   9  19  34  52  82 117 150 181 220 286 344
#     4  10  19  36  58  82 112 147 190 236 290 332
#     4   9  19  34  54  83 115 146 190 230 274 352
#     4  11  23  38  59  83 111 150 197 243 283 337
#     4  10  21  37  59  84 115 154 186 234 290 341
#     4  10  21  38  55  87 119 151 190 235 287 344
#     4   9  18  34  55  86 117 149 186 230 283 342
#
# _framework density 21.53762
#
# number of rings (size 3 to 8) (size 9 to 14) (size 15 to 20)
#    0.000    2.250    1.250    1.125    1.750    5.000 
#    2.250    2.500    0.000    0.000    0.000    0.000 
#    0.000    0.000    0.000    0.000    0.000    0.000 
#
# Total GULP energy -178460.088392 kJ/mol
# GULP energy per Si atom -5576.877762 kJ/mol
# Density = 2.148860 g / cm^3
# Si number density = 21.537620 Si / 1000 Ang^3
#
#
#
# Elastic Constant Matrix: (Units=GPa)
#
#
# Indices 1 2 3 4 5 6 
#
# 1 39.6539 10.8675 5.0627 0.0000 -6.8171 0.0000
# 2 10.8675 143.7655 23.8324 0.0000 0.1060 0.0000
# 3 5.0627 23.8324 35.1635 0.0000 -6.4030 0.0000
# 4 0.0000 0.0000 0.0000 33.3678 0.0000 -8.7662
# 5 -6.8171 0.1060 -6.4030 0.0000 28.5082 0.0000
# 6 0.0000 0.0000 0.0000 -8.7662 0.0000 31.2480
#
#
#
# Elastic Compliance Matrix: (Units=1/GPa)
#
#
# Indices 1 2 3 4 5 6 
#
# 1 0.026955 -0.001783 -0.001561 0.000000 0.006102 0.000000
# 2 -0.001783 0.007999 -0.005471 0.000000 -0.001685 0.000000
# 3 -0.001561 -0.005471 0.033685 0.000000 0.007213 0.000000
# 4 0.000000 0.000000 0.000000 0.032354 0.000000 0.009076
# 5 0.006102 -0.001685 0.007213 0.000000 0.038163 0.000000
# 6 0.000000 0.000000 0.000000 0.009076 0.000000 0.034548
#
#
# Mechanical properties :
#
#
# Convention : Reuss Voigt Hill
#
# Bulk Modulus (GPa) = 19.60497 33.12311 26.36404
# Shear Modulus (GPa) = 23.99945 30.54615 27.27280
#
# Velocity S-wave (km/s) = 3.34174 3.77008 3.56235
# Velocity P-wave (km/s) = 4.90021 5.86207 5.40259
#
# Compressibility (1/GPa) = 0.05100748
#
# Stress axis : x y z
#
# Youngs Moduli (GPa) = 37.09853 125.01836 29.68679
#
# Poissons Ratio (x) = 0.22295 0.04634
# Poissons Ratio (y) = 0.06616 0.16243
# Poissons Ratio (z) = 0.05792 0.68402
#
# Static dielectric constant tensor:
#      x y z
#    x 1.889270 0.000000 -0.075840 
#    y 0.000000 1.778710 0.000000 
#    z -0.075840 0.000000 1.913310 
# 
# From -- ./inp_files/42027.got.cif
#   From: 2010.05.17/outbox.cif.g08.bks.cpg/sg11_22_cif.got.tgz:42027.got - 2010.06.03 12:22:45.
