data_PCOD9160699
_publ_section_title
;
Structure prediction by ZEFSAII (Michael W. Deem and Ramdas Pophale) SiO2 
 PCOD9160699
Probable space group: P 21/M
;
_chemical_formula_sum "Si O2"
_cell_formula_units_Z 26
_cell_length_a 13.197792
_cell_length_b 20.671325
_cell_length_c 8.639892
_cell_angle_alpha 90.000000
_cell_angle_beta 29.597970
_cell_angle_gamma 90.000000
_cell_volume 1164.197493
_symmetry_space_group_name_H-M "P 21/M"
_symmetry_group_IT_number 11
_symmetry_cell_setting 'monoclinic'
loop_
_space_group_symop_operation_xyz
x,y,z
-x,1/2+y,-z
-x,-y,-z
x,1/2-y,z
loop_
_atom_site_type_symbol
_atom_site_label
_atom_site_fract_x
_atom_site_fract_y
_atom_site_fract_z
Si Si1 0.647749 0.639303 0.831766
Si Si2 0.261636 0.250000 0.543548
Si Si3 0.594133 0.642301 0.409510
Si Si4 0.299857 0.820117 0.538873
Si Si5 0.534609 0.040681 0.169527
Si Si6 0.142641 0.437171 0.192753
Si Si7 0.138907 0.955490 0.704558
O O1 0.727603 0.692879 0.606957
O O2 0.535498 0.581033 0.887742
O O3 0.470011 0.668767 0.178657
O O4 0.830421 0.609827 0.695262
O O5 0.286165 0.193225 0.644919
O O6 0.424309 0.677915 0.532627
O O7 0.483637 0.591609 0.668221
O O8 0.730101 0.600608 0.110353
O O9 0.198641 0.750000 0.654195
O O10 0.149857 0.880978 0.740121
O O11 0.746847 0.003342 0.905359
O O12 0.364233 0.985163 0.417644
O O13 0.939285 0.454303 0.367838
O O14 0.000000 0.000000 0.000000
#
# Coordination Sequence:
#
# PCOD9160699 Si02
#       7
#     4   2   4   4   4   4   4
#     4  10  22  39  64  94 125 173 209 268 324 390
#     4  10  20  36  64  90 122 164 220 262 320 380
#     4  10  19  36  65  91 119 167 210 262 317 379
#     4  11  22  42  65  93 132 168 222 266 330 393
#     4  11  21  40  65  97 130 158 219 265 323 382
#     4  11  22  38  64  94 123 170 211 263 326 381
#     4  12  24  40  66  99 133 168 218 273 315 390
#
# _framework density 22.332982999999999
#
# number of rings (size 3 to 8) (size 9 to 14) (size 15 to 20)
#    0.000    1.231    6.154    1.846    0.000    0.615 
#    2.769    0.000    0.000    1.846    0.000    0.000 
#    0.000    0.000    0.000    0.000    0.000    0.000 
#
# Total GULP energy -144863.208169 kJ/mol
# GULP energy per Si atom -5571.661853 kJ/mol
# Density = 2.228215 g / cm^3
# Si number density = 22.332983 Si / 1000 Ang^3
#
#
#
# Elastic Constant Matrix: (Units=GPa)
#
#
# Indices 1 2 3 4 5 6 
#
# 1 131.4680 45.3676 26.4241 0.0000 24.2651 0.0000
# 2 45.3676 169.7731 25.0936 0.0000 16.9367 0.0000
# 3 26.4241 25.0936 19.6540 0.0000 10.3442 0.0000
# 4 0.0000 0.0000 0.0000 25.1186 0.0000 7.9493
# 5 24.2651 16.9367 10.3442 0.0000 35.2809 0.0000
# 6 0.0000 0.0000 0.0000 7.9493 0.0000 20.9545
#
#
#
# Elastic Compliance Matrix: (Units=1/GPa)
#
#
# Indices 1 2 3 4 5 6 
#
# 1 0.010921 -0.000822 -0.011692 0.000000 -0.003688 0.000000
# 2 -0.000822 0.007347 -0.007942 0.000000 -0.000633 0.000000
# 3 -0.011692 -0.007942 0.083365 0.000000 -0.012588 0.000000
# 4 0.000000 0.000000 0.000000 0.045243 0.000000 -0.017163
# 5 -0.003688 -0.000633 -0.012588 0.000000 0.034875 0.000000
# 6 0.000000 0.000000 0.000000 -0.017163 0.000000 0.054233
#
#
# Mechanical properties :
#
#
# Convention : Reuss Voigt Hill
#
# Bulk Modulus (GPa) = 16.46873 57.18505 36.82689
# Shear Modulus (GPa) = 16.82734 31.20480 24.01607
#
# Velocity S-wave (km/s) = 2.74793 3.74204 3.28283
# Velocity P-wave (km/s) = 4.17832 6.65821 5.55833
#
# Compressibility (1/GPa) = 0.06072112
#
# Stress axis : x y z
#
# Youngs Moduli (GPa) = 91.56792 136.11148 11.99551
#
# Poissons Ratio (x) = 0.11192 0.14025
# Poissons Ratio (y) = 0.07529 0.09526
# Poissons Ratio (z) = 1.07058 1.08096
#
# Static dielectric constant tensor:
#      x y z
#    x 1.818150 0.000000 -0.016920 
#    y 0.000000 1.808000 0.000000 
#    z -0.016920 0.000000 1.879950 
# 
# From -- ./inp_files/19297.got.cif
#   From: 2010.05.17/outbox.cif.g08.bks.cpg/sg11_10_cif.got.tgz:19297.got - 2010.06.03 12:22:45.
