data_PCOD9160492
_publ_section_title
;
Structure prediction by ZEFSAII (Michael W. Deem and Ramdas Pophale) SiO2 
 PCOD9160492
Probable space group: P 21/M
;
_chemical_formula_sum "Si O2"
_cell_formula_units_Z 30
_cell_length_a 9.949717
_cell_length_b 14.659673
_cell_length_c 22.597563
_cell_angle_alpha 90.000000
_cell_angle_beta 24.702582
_cell_angle_gamma 90.000000
_cell_volume 1377.454675
_symmetry_space_group_name_H-M "P 21/M"
_symmetry_group_IT_number 11
_symmetry_cell_setting 'monoclinic'
loop_
_space_group_symop_operation_xyz
x,y,z
-x,1/2+y,-z
-x,-y,-z
x,1/2-y,z
loop_
_atom_site_type_symbol
_atom_site_label
_atom_site_fract_x
_atom_site_fract_y
_atom_site_fract_z
Si Si1 0.826888 0.352563 0.310118
Si Si2 0.463585 0.350488 0.284678
Si Si3 0.379704 0.750000 0.137137
Si Si4 0.954048 0.145194 0.395977
Si Si5 0.811238 0.884388 0.038311
Si Si6 0.488246 0.496935 0.366890
Si Si7 0.064400 0.578987 0.060000
Si Si8 0.526541 0.109793 0.997741
O O1 0.690310 0.250000 0.361345
O O2 0.920819 0.373114 0.339978
O O3 0.598553 0.428686 0.374625
O O4 0.160888 0.354420 0.140468
O O5 0.372946 0.250000 0.343451
O O6 0.848548 0.355786 0.127380
O O7 0.343552 0.430762 0.374619
O O8 0.310061 0.360455 0.281298
O O9 0.288102 0.668195 0.125531
O O10 0.524972 0.828361 0.124679
O O11 0.846706 0.250000 0.448295
O O12 0.740594 0.074295 0.517155
O O13 0.776700 0.990845 0.035448
O O14 0.875117 0.871965 0.082596
O O15 0.800940 0.542240 0.212039
O O16 0.322874 0.628226 0.997921
O O17 0.500000 0.000000 0.000000
#
# Coordination Sequence:
#
# PCOD9160492 Si02
#       8
#     4   4   2   4   4   4   4   4
#     4  11  22  38  65  89 116 155 208 256 296 352
#     4  10  19  35  64  87 116 149 204 260 300 350
#     4  12  22  36  62  88 128 160 200 254 302 364
#     4  10  23  40  56  88 120 157 204 256 299 358
#     4  10  20  37  60  91 121 157 204 253 306 357
#     4  11  21  39  62  87 120 162 200 250 306 360
#     4  10  22  37  58  89 126 162 196 248 305 378
#     4  12  21  38  61  96 127 155 202 253 310 364
#
# _framework density 21.779299999999999
#
# number of rings (size 3 to 8) (size 9 to 14) (size 15 to 20)
#    0.000    1.333    4.000    2.800    0.000    0.533 
#    2.400    0.000    0.000    0.000    0.000    0.000 
#    0.000    0.000    0.000    0.000    0.000    0.000 
#
# Total GULP energy -167110.263150 kJ/mol
# GULP energy per Si atom -5570.342105 kJ/mol
# Density = 2.172973 g / cm^3
# Si number density = 21.779300 Si / 1000 Ang^3
#
#
#
# Elastic Constant Matrix: (Units=GPa)
#
#
# Indices 1 2 3 4 5 6 
#
# 1 162.8281 35.1737 -4.0568 0.0000 -13.7564 0.0000
# 2 35.1737 94.1194 11.2671 0.0000 3.0493 0.0000
# 3 -4.0568 11.2671 14.9895 0.0000 3.5487 0.0000
# 4 0.0000 0.0000 0.0000 22.7051 0.0000 -7.5773
# 5 -13.7564 3.0493 3.5487 0.0000 21.0102 0.0000
# 6 0.0000 0.0000 0.0000 -7.5773 0.0000 43.3030
#
#
#
# Elastic Compliance Matrix: (Units=1/GPa)
#
#
# Indices 1 2 3 4 5 6 
#
# 1 0.007335 -0.003294 0.003345 0.000000 0.004716 0.000000
# 2 -0.003294 0.013156 -0.010227 0.000000 -0.002339 0.000000
# 3 0.003345 -0.010227 0.077537 0.000000 -0.009422 0.000000
# 4 0.000000 0.000000 0.000000 0.046774 0.000000 0.008185
# 5 0.004716 -0.002339 -0.009422 0.000000 0.052614 0.000000
# 6 0.000000 0.000000 0.000000 0.008185 0.000000 0.024525
#
#
# Mechanical properties :
#
#
# Convention : Reuss Voigt Hill
#
# Bulk Modulus (GPa) = 12.87414 39.63387 26.25401
# Shear Modulus (GPa) = 18.64383 32.70719 25.67551
#
# Velocity S-wave (km/s) = 2.92898 3.87945 3.43723
# Velocity P-wave (km/s) = 4.16684 6.18905 5.27574
#
# Compressibility (1/GPa) = 0.07767507
#
# Stress axis : x y z
#
# Youngs Moduli (GPa) = 136.33615 76.01115 12.89715
#
# Poissons Ratio (x) = 0.25041 -0.04314
# Poissons Ratio (y) = 0.44914 0.13190
# Poissons Ratio (z) = -0.45604 0.77735
#
# Static dielectric constant tensor:
#      x y z
#    x 1.820220 0.000000 0.001520 
#    y 0.000000 1.817890 0.000000 
#    z 0.001520 0.000000 1.791420 
# 
# From -- ./inp_files/68099.got.cif
#   From: 2010.05.17/outbox.cif.g08.bks.cpg/sg11_35_cif.got.tgz:68099.got - 2010.06.03 12:22:45.
