data_PCOD9160873
_publ_section_title
;
Structure prediction by ZEFSAII (Michael W. Deem and Ramdas Pophale) SiO2 
 PCOD9160873
Probable space group: P 21/M
;
_chemical_formula_sum "Si O2"
_cell_formula_units_Z 26
_cell_length_a 20.409045
_cell_length_b 8.482740
_cell_length_c 7.744728
_cell_angle_alpha 90.000000
_cell_angle_beta 64.679999
_cell_angle_gamma 90.000000
_cell_volume 1211.996595
_symmetry_space_group_name_H-M "P 21/M"
_symmetry_group_IT_number 11
_symmetry_cell_setting 'monoclinic'
loop_
_space_group_symop_operation_xyz
x,y,z
-x,1/2+y,-z
-x,-y,-z
x,1/2-y,z
loop_
_atom_site_type_symbol
_atom_site_label
_atom_site_fract_x
_atom_site_fract_y
_atom_site_fract_z
Si Si1 0.343522 0.487340 0.407326
Si Si2 0.807368 0.441614 0.996785
Si Si3 0.821657 0.437088 0.371244
Si Si4 0.450668 0.750000 0.721276
Si Si5 0.918717 0.059253 0.572544
Si Si6 0.650280 0.932029 0.195475
Si Si7 0.537257 0.250000 0.680645
Si Si8 0.427917 0.250000 0.115588
O O1 0.261231 0.540662 0.472482
O O2 0.343390 0.419882 0.602481
O O3 0.407874 0.609314 0.355139
O O4 0.372974 0.391754 0.211575
O O5 0.800161 0.250000 0.006753
O O6 0.868269 0.486022 0.791064
O O7 0.827198 0.495973 0.168665
O O8 0.728868 0.511401 0.042171
O O9 0.833604 0.250000 0.348261
O O10 0.878834 0.501188 0.444241
O O11 0.404182 0.583469 0.782062
O O12 0.487670 0.750000 0.489664
O O13 0.513293 0.750000 0.793013
O O14 0.919675 0.250000 0.566494
O O15 0.000000 0.000000 0.500000
O O16 0.638047 0.750000 0.151864
O O17 0.478640 0.250000 0.894565
#
# Coordination Sequence:
#
# PCOD9160873 Si02
#       8
#     4   4   4   2   4   4   2   2
#     4  10  20  40  60  88 121 157 214 261 305 377
#     4   9  18  36  64  89 119 163 210 248 304 373
#     4   9  18  38  66  84 113 167 203 248 314 361
#     4  10  24  42  64  88 127 170 206 266 337 372
#     4  10  22  39  60  92 130 159 198 250 303 372
#     4  10  19  38  64  93 124 163 218 270 311 374
#     4  10  22  40  66  84 123 167 203 263 324 378
#     4  12  24  40  60  90 126 161 209 265 323 384
#
# _framework density 21.452206
#
# number of rings (size 3 to 8) (size 9 to 14) (size 15 to 20)
#    0.000    2.154    2.308    0.462    0.000    4.923 
#    2.769    3.077    3.385    0.000    0.000    0.000 
#    0.000    0.000    0.000    0.000    0.000    0.000 
#
# Total GULP energy -145035.554754 kJ/mol
# GULP energy per Si atom -5578.290567 kJ/mol
# Density = 2.140338 g / cm^3
# Si number density = 21.452206 Si / 1000 Ang^3
#
#
#
# Elastic Constant Matrix: (Units=GPa)
#
#
# Indices 1 2 3 4 5 6 
#
# 1 116.8937 3.2336 37.7555 0.0000 11.9462 0.0000
# 2 3.2336 45.7845 31.1682 0.0000 6.4927 0.0000
# 3 37.7555 31.1682 111.4418 0.0000 -3.2411 0.0000
# 4 0.0000 0.0000 0.0000 45.9244 0.0000 -1.1087
# 5 11.9462 6.4927 -3.2411 0.0000 18.7044 0.0000
# 6 0.0000 0.0000 0.0000 -1.1087 0.0000 28.7439
#
#
#
# Elastic Compliance Matrix: (Units=1/GPa)
#
#
# Indices 1 2 3 4 5 6 
#
# 1 0.011065 0.004057 -0.005156 0.000000 -0.009369 0.000000
# 2 0.004057 0.030791 -0.010425 0.000000 -0.015086 0.000000
# 3 -0.005156 -0.010425 0.013907 0.000000 0.009322 0.000000
# 4 0.000000 0.000000 0.000000 0.021795 0.000000 0.000841
# 5 -0.009369 -0.015086 0.009322 0.000000 0.066299 0.000000
# 6 0.000000 0.000000 0.000000 0.000841 0.000000 0.034822
#
#
# Mechanical properties :
#
#
# Convention : Reuss Voigt Hill
#
# Bulk Modulus (GPa) = 30.56639 46.49273 38.52956
# Shear Modulus (GPa) = 23.51465 32.13871 27.82668
#
# Velocity S-wave (km/s) = 3.31439 3.87480 3.60550
# Velocity P-wave (km/s) = 5.37833 6.46053 5.94411
#
# Compressibility (1/GPa) = 0.03271567
#
# Stress axis : x y z
#
# Youngs Moduli (GPa) = 90.37190 32.47684 71.90681
#
# Poissons Ratio (x) = -0.13176 0.37075
# Poissons Ratio (y) = -0.36665 0.74963
# Poissons Ratio (z) = 0.46596 0.33857
#
# Static dielectric constant tensor:
#      x y z
#    x 1.774710 0.000000 0.056280 
#    y 0.000000 1.820560 0.000000 
#    z 0.056280 0.000000 1.752520 
# 
# From -- ./inp_files/26136.got.cif
#   From: 2010.05.17/outbox.cif.g08.bks.cpg/sg11_14_cif.got.tgz:26136.got - 2010.06.03 12:22:45.
