data_PCOD9160344
_publ_section_title
;
Structure prediction by ZEFSAII (Michael W. Deem and Ramdas Pophale) SiO2 
 PCOD9160344
Probable space group: P 21/M
;
_chemical_formula_sum "Si O2"
_cell_formula_units_Z 24
_cell_length_a 16.408710
_cell_length_b 8.550618
_cell_length_c 10.024867
_cell_angle_alpha 90.000000
_cell_angle_beta 44.658449
_cell_angle_gamma 90.000000
_cell_volume 988.624023
_symmetry_space_group_name_H-M "P 21/M"
_symmetry_group_IT_number 11
_symmetry_cell_setting 'monoclinic'
loop_
_space_group_symop_operation_xyz
x,y,z
-x,1/2+y,-z
-x,-y,-z
x,1/2-y,z
loop_
_atom_site_type_symbol
_atom_site_label
_atom_site_fract_x
_atom_site_fract_y
_atom_site_fract_z
Si Si1 0.087480 0.437358 0.286206
Si Si2 0.758521 0.429762 0.258120
Si Si3 0.683038 0.568554 0.608257
Si Si4 0.348145 0.058962 0.065929
Si Si5 0.421126 0.067307 0.707669
Si Si6 0.060657 0.429164 0.770738
O O1 0.082647 0.250000 0.287265
O O2 0.217419 0.484035 0.175541
O O3 0.000000 0.500000 0.500000
O O4 0.041829 0.502959 0.198366
O O5 0.752114 0.250000 0.227041
O O6 0.676932 0.462906 0.483612
O O7 0.707992 0.536697 0.200689
O O8 0.884265 0.475914 0.169251
O O9 0.649345 0.750000 0.620190
O O10 0.631432 0.506322 0.806388
O O11 0.824192 0.573156 0.460458
O O12 0.354000 0.250000 0.063856
O O13 0.426352 0.000797 0.851669
O O14 0.441444 0.250000 0.691883
O O15 0.500000 0.000000 0.500000
O O16 0.040429 0.250000 0.831968
#
# Coordination Sequence:
#
# PCOD9160344 Si02
#       6
#     4   4   4   4   4   4
#     4  11  18  29  51  83 118 153 186 224 274 331
#     4  10  19  35  58  84 112 148 187 228 278 336
#     4   8  15  32  56  81 111 146 183 224 274 326
#     4   9  19  35  57  84 115 148 188 232 279 330
#     4  11  23  42  63  82 108 146 187 236 288 336
#     4   9  17  30  51  79 113 148 182 219 269 323
#
# _framework density 24.276164999999999
#
# number of rings (size 3 to 8) (size 9 to 14) (size 15 to 20)
#    1.000    1.333    1.667    2.500    0.000    0.000 
#    0.000    6.667    0.000    0.000    0.000    0.000 
#    0.000    0.000    0.000    0.000    0.000    0.000 
#
# Total GULP energy -134101.881768 kJ/mol
# GULP energy per Si atom -5587.578407 kJ/mol
# Density = 2.422091 g / cm^3
# Si number density = 24.276165 Si / 1000 Ang^3
#
#
#
# Elastic Constant Matrix: (Units=GPa)
#
#
# Indices 1 2 3 4 5 6 
#
# 1 118.2452 7.1194 23.9447 0.0000 20.1929 0.0000
# 2 7.1194 62.7260 2.7653 0.0000 3.5575 0.0000
# 3 23.9447 2.7653 120.4407 0.0000 17.9373 0.0000
# 4 0.0000 0.0000 0.0000 23.2252 0.0000 1.8851
# 5 20.1929 3.5575 17.9373 0.0000 44.0007 0.0000
# 6 0.0000 0.0000 0.0000 1.8851 0.0000 34.1667
#
#
#
# Elastic Compliance Matrix: (Units=1/GPa)
#
#
# Indices 1 2 3 4 5 6 
#
# 1 0.009403 -0.000799 -0.001297 0.000000 -0.003722 0.000000
# 2 -0.000799 0.016088 -0.000076 0.000000 -0.000903 0.000000
# 3 -0.001297 -0.000076 0.009021 0.000000 -0.003076 0.000000
# 4 0.000000 0.000000 0.000000 0.043250 0.000000 -0.002386
# 5 -0.003722 -0.000903 -0.003076 0.000000 0.025762 0.000000
# 6 0.000000 0.000000 0.000000 -0.002386 0.000000 0.029400
#
#
# Mechanical properties :
#
#
# Convention : Reuss Voigt Hill
#
# Bulk Modulus (GPa) = 33.14792 41.00787 37.07790
# Shear Modulus (GPa) = 33.93894 38.11735 36.02814
#
# Velocity S-wave (km/s) = 3.74309 3.96682 3.85658
# Velocity P-wave (km/s) = 5.68903 6.15709 5.92768
#
# Compressibility (1/GPa) = 0.03016781
#
# Stress axis : x y z
#
# Youngs Moduli (GPa) = 106.34511 62.15967 110.85840
#
# Poissons Ratio (x) = 0.04967 0.14376
# Poissons Ratio (y) = 0.08497 0.00843
# Poissons Ratio (z) = 0.13791 0.00473
#
# Static dielectric constant tensor:
#      x y z
#    x 1.977850 0.000000 -0.037610 
#    y 0.000000 1.811960 0.000000 
#    z -0.037610 0.000000 2.112770 
# 
# From -- ./inp_files/42251.got.cif
#   From: 2010.05.17/outbox.cif.g08.bks.cpg/sg11_22_cif.got.tgz:42251.got - 2010.06.03 12:22:45.
