data_PCOD9160608
_publ_section_title
;
Structure prediction by ZEFSAII (Michael W. Deem and Ramdas Pophale) SiO2 
 PCOD9160608
Probable space group: P 21/M
;
_chemical_formula_sum "Si O2"
_cell_formula_units_Z 24
_cell_length_a 11.896249
_cell_length_b 15.401898
_cell_length_c 14.355792
_cell_angle_alpha 90.000000
_cell_angle_beta 28.576681
_cell_angle_gamma 90.000000
_cell_volume 1258.181045
_symmetry_space_group_name_H-M "P 21/M"
_symmetry_group_IT_number 11
_symmetry_cell_setting 'monoclinic'
loop_
_space_group_symop_operation_xyz
x,y,z
-x,1/2+y,-z
-x,-y,-z
x,1/2-y,z
loop_
_atom_site_type_symbol
_atom_site_label
_atom_site_fract_x
_atom_site_fract_y
_atom_site_fract_z
Si Si1 0.465106 0.843568 0.955228
Si Si2 0.923210 0.648244 0.000964
Si Si3 0.352617 0.392248 0.980016
Si Si4 0.251003 0.013266 0.729556
Si Si5 0.750851 0.985206 0.631230
Si Si6 0.980662 0.052077 0.742906
O O1 0.500990 0.750000 0.886569
O O2 0.608647 0.912309 0.790358
O O3 0.556898 0.844312 0.994319
O O4 0.190783 0.868537 0.154205
O O5 0.960354 0.750000 0.002904
O O6 0.808008 0.651165 0.981770
O O7 0.751590 0.588027 0.189715
O O8 0.148127 0.581684 0.834952
O O9 0.582676 0.431627 0.762258
O O10 0.191926 0.469423 0.138551
O O11 0.075147 0.049875 0.778579
O O12 0.500000 0.000000 0.500000
O O13 0.811053 0.958334 0.482421
O O14 0.000000 0.000000 0.500000
#
# Coordination Sequence:
#
# PCOD9160608 Si02
#       6
#     4   4   4   4   4   4
#     4  11  22  34  52  85 119 148 185 234 289 345
#     4  10  22  40  62  89 118 153 198 248 298 351
#     4  10  19  36  60  83 112 149 187 235 289 346
#     4  10  22  41  63  87 116 156 200 248 298 350
#     4  11  18  35  58  81 110 156 192 225 279 349
#     4  10  20  37  58  79 112 151 192 230 286 347
#
# _framework density 19.075156
#
# number of rings (size 3 to 8) (size 9 to 14) (size 15 to 20)
#    0.000    1.667    3.333    2.500    0.000    3.333 
#    0.000    0.000    0.000    0.000    0.000    0.000 
#    0.000    0.000    0.000    0.000    0.000    0.000 
#
# Total GULP energy -133752.556814 kJ/mol
# GULP energy per Si atom -5573.023201 kJ/mol
# Density = 1.903174 g / cm^3
# Si number density = 19.075156 Si / 1000 Ang^3
#
#
#
# Elastic Constant Matrix: (Units=GPa)
#
#
# Indices 1 2 3 4 5 6 
#
# 1 47.9089 20.9026 -3.3484 0.0000 5.7002 0.0000
# 2 20.9026 111.5998 31.1413 0.0000 0.5373 0.0000
# 3 -3.3484 31.1413 106.5242 0.0000 11.2950 0.0000
# 4 0.0000 0.0000 0.0000 9.4001 0.0000 3.3796
# 5 5.7002 0.5373 11.2950 0.0000 28.9344 0.0000
# 6 0.0000 0.0000 0.0000 3.3796 0.0000 10.6407
#
#
#
# Elastic Compliance Matrix: (Units=1/GPa)
#
#
# Indices 1 2 3 4 5 6 
#
# 1 0.024076 -0.005296 0.002918 0.000000 -0.005784 0.000000
# 2 -0.005296 0.010948 -0.003605 0.000000 0.002247 0.000000
# 3 0.002918 -0.003605 0.011044 0.000000 -0.004819 0.000000
# 4 0.000000 0.000000 0.000000 0.120096 0.000000 -0.038144
# 5 -0.005784 0.002247 -0.004819 0.000000 0.037540 0.000000
# 6 0.000000 0.000000 0.000000 -0.038144 0.000000 0.106094
#
#
# Mechanical properties :
#
#
# Convention : Reuss Voigt Hill
#
# Bulk Modulus (GPa) = 29.32385 40.38044 34.85215
# Shear Modulus (GPa) = 15.00917 24.28420 19.64668
#
# Velocity S-wave (km/s) = 2.80812 3.57190 3.21278
# Velocity P-wave (km/s) = 5.09119 6.18274 5.66333
#
# Compressibility (1/GPa) = 0.03410193
#
# Stress axis : x y z
#
# Youngs Moduli (GPa) = 41.53576 91.34340 90.54514
#
# Poissons Ratio (x) = 0.48374 -0.26423
# Poissons Ratio (y) = 0.21997 0.32643
# Poissons Ratio (z) = -0.12121 0.32931
#
# Static dielectric constant tensor:
#      x y z
#    x 1.701990 0.000000 0.000070 
#    y 0.000000 1.681710 0.000000 
#    z 0.000070 0.000000 1.651970 
# 
# From -- ./inp_files/39710.got.cif
#   From: 2010.05.17/outbox.cif.g08.bks.cpg/sg11_20_cif.got.tgz:39710.got - 2010.06.03 12:22:45.
