data_PCOD9160907
_publ_section_title
;
Structure prediction by ZEFSAII (Michael W. Deem and Ramdas Pophale) SiO2 
 PCOD9160907
Probable space group: P 21/M
;
_chemical_formula_sum "Si O2"
_cell_formula_units_Z 28
_cell_length_a 11.689831
_cell_length_b 14.291009
_cell_length_c 8.916664
_cell_angle_alpha 90.000000
_cell_angle_beta 123.248485
_cell_angle_gamma 90.000000
_cell_volume 1245.764535
_symmetry_space_group_name_H-M "P 21/M"
_symmetry_group_IT_number 11
_symmetry_cell_setting 'monoclinic'
loop_
_space_group_symop_operation_xyz
x,y,z
-x,1/2+y,-z
-x,-y,-z
x,1/2-y,z
loop_
_atom_site_type_symbol
_atom_site_label
_atom_site_fract_x
_atom_site_fract_y
_atom_site_fract_z
Si Si1 0.675044 0.357640 0.003818
Si Si2 0.925305 0.466138 0.094502
Si Si3 0.025665 0.152281 0.707399
Si Si4 0.612758 0.643388 0.570794
Si Si5 0.462762 0.003144 0.269144
Si Si6 0.143749 0.108532 0.478536
Si Si7 0.255160 0.907102 0.612238
O O1 0.634764 0.250000 0.939996
O O2 0.795472 0.398763 0.984662
O O3 0.726940 0.360809 0.212668
O O4 0.567015 0.442195 0.901041
O O5 0.903504 0.563488 0.166501
O O6 0.027474 0.408265 0.273042
O O7 0.000000 0.500000 0.000000
O O8 0.057415 0.250000 0.809549
O O9 0.860373 0.141065 0.574096
O O10 0.080992 0.157052 0.577464
O O11 0.579422 0.750000 0.589160
O O12 0.647324 0.574558 0.736160
O O13 0.493781 0.582430 0.405930
O O14 0.729540 0.646305 0.526847
O O15 0.594576 0.070349 0.343391
O O16 0.190425 0.009519 0.579310
#
# Coordination Sequence:
#
# PCOD9160907 Si02
#       7
#     4   4   4   4   4   4   4
#     4  12  23  39  63  91 124 169 217 259 317 382
#     4  11  23  40  60  93 134 164 202 261 324 372
#     4  11  21  39  67  96 123 162 214 259 314 382
#     4  10  21  39  63  88 119 167 212 256 319 378
#     4  10  23  40  59  90 130 163 207 269 312 372
#     4  10  19  39  65  90 123 163 209 260 308 377
#     4  10  20  39  64  89 124 164 207 260 314 370
#
# _framework density 22.476158000000002
#
# number of rings (size 3 to 8) (size 9 to 14) (size 15 to 20)
#    0.000    1.429    2.857    3.429    0.000    3.429 
#    0.000    2.143    0.000    0.000    0.000    0.000 
#    0.000    0.000    0.000    0.000    0.000    0.000 
#
# Total GULP energy -156046.861017 kJ/mol
# GULP energy per Si atom -5573.102179 kJ/mol
# Density = 2.242500 g / cm^3
# Si number density = 22.476158 Si / 1000 Ang^3
#
#
#
# Elastic Constant Matrix: (Units=GPa)
#
#
# Indices 1 2 3 4 5 6 
#
# 1 87.1802 27.5628 6.1037 0.0000 -7.5016 0.0000
# 2 27.5628 154.2643 12.8870 0.0000 -5.1038 0.0000
# 3 6.1037 12.8870 35.7514 0.0000 -5.9766 0.0000
# 4 0.0000 0.0000 0.0000 2.6258 0.0000 -7.0909
# 5 -7.5016 -5.1038 -5.9766 0.0000 26.0341 0.0000
# 6 0.0000 0.0000 0.0000 -7.0909 0.0000 -4.1331
#
#
#
# Elastic Compliance Matrix: (Units=1/GPa)
#
#
# Indices 1 2 3 4 5 6 
#
# 1 0.012437 -0.002050 -0.000887 0.000000 0.002978 0.000000
# 2 -0.002050 0.007037 -0.002137 0.000000 0.000298 0.000000
# 3 -0.000887 -0.002137 0.029928 0.000000 0.006196 0.000000
# 4 0.000000 0.000000 0.000000 0.067607 0.000000 -0.115991
# 5 0.002978 0.000298 0.006196 0.000000 0.040750 0.000000
# 6 0.000000 0.000000 0.000000 -0.115991 0.000000 -0.042951
#
#
# Mechanical properties :
#
#
# Convention : Reuss Voigt Hill
#
# Bulk Modulus (GPa) = 25.47362 41.14476 33.30919
# Shear Modulus (GPa) = 36.22145 20.28152 28.25148
#
# Velocity S-wave (km/s) = 4.01877 3.00718 3.54920
# Velocity P-wave (km/s) = 5.73517 5.51391 5.62563
#
# Compressibility (1/GPa) = 0.03925630
#
# Stress axis : x y z
#
# Youngs Moduli (GPa) = 80.40644 142.10709 33.41319
#
# Poissons Ratio (x) = 0.29125 0.02962
# Poissons Ratio (y) = 0.16479 0.07140
# Poissons Ratio (z) = 0.07129 0.30365
#
# Static dielectric constant tensor:
#      x y z
#    x 1.932410 0.000000 0.043200 
#    y 0.000000 2.023760 0.000000 
#    z 0.043200 0.000000 1.945060 
# 
# From -- ./inp_files/18166.got.cif
#   From: 2010.05.17/outbox.cif.g08.bks.cpg/sg11_10_cif.got.tgz:18166.got - 2010.06.03 12:22:45.
