data_PCOD9160361
_publ_section_title
;
Structure prediction by ZEFSAII (Michael W. Deem and Ramdas Pophale) SiO2 
 PCOD9160361
Probable space group: P 21/M
;
_chemical_formula_sum "Si O2"
_cell_formula_units_Z 32
_cell_length_a 10.187248
_cell_length_b 18.124694
_cell_length_c 11.745173
_cell_angle_alpha 90.000000
_cell_angle_beta 54.194654
_cell_angle_gamma 90.000000
_cell_volume 1758.785109
_symmetry_space_group_name_H-M "P 21/M"
_symmetry_group_IT_number 11
_symmetry_cell_setting 'monoclinic'
loop_
_space_group_symop_operation_xyz
x,y,z
-x,1/2+y,-z
-x,-y,-z
x,1/2-y,z
loop_
_atom_site_type_symbol
_atom_site_label
_atom_site_fract_x
_atom_site_fract_y
_atom_site_fract_z
Si Si1 0.182326 0.093800 0.428401
Si Si2 0.280427 0.930612 0.101735
Si Si3 0.229755 0.162733 0.649636
Si Si4 0.990573 0.079836 0.944504
Si Si5 0.640556 0.898591 0.887673
Si Si6 0.175353 0.918859 0.412866
Si Si7 0.207870 0.334503 0.984091
Si Si8 0.495440 0.836784 0.320188
O O1 0.213377 0.136405 0.529058
O O2 0.316310 0.109165 0.265701
O O3 0.003177 0.111366 0.470738
O O4 0.180840 0.004929 0.445604
O O5 0.195241 0.912315 0.265149
O O6 0.174261 0.915632 0.043678
O O7 0.315166 0.018244 0.094061
O O8 0.451073 0.889047 0.006931
O O9 0.183012 0.250000 0.685616
O O10 0.120466 0.108308 0.783408
O O11 0.411735 0.156442 0.606820
O O12 0.041736 0.131445 0.023851
O O13 0.000000 0.000000 0.000000
O O14 0.753483 0.846191 0.904655
O O15 0.327676 0.878694 0.391584
O O16 0.205061 0.250000 0.952587
O O17 0.368398 0.366218 0.838404
O O18 0.467672 0.750000 0.311364
#
# Coordination Sequence:
#
# PCOD9160361 Si02
#       8
#     4   4   4   4   4   4   4   4
#     4  10  22  35  57  85 119 155 191 244 297 353
#     4  10  19  35  58  86 115 148 201 249 290 342
#     4  10  22  40  59  86 124 159 195 242 303 365
#     4  11  20  34  61  88 115 155 200 248 296 350
#     4  10  20  35  57  84 116 155 191 248 302 353
#     4  10  19  36  57  84 116 147 203 248 285 347
#     4  10  20  36  56  85 119 154 198 250 307 357
#     4   9  19  36  59  84 112 153 200 245 291 355
#
# _framework density 18.194376999999999
#
# number of rings (size 3 to 8) (size 9 to 14) (size 15 to 20)
#    0.000    2.000    3.750    1.125    0.000    1.500 
#    0.000    2.500    0.000    1.500    0.000    0.000 
#    0.000    0.000    0.000    0.000    0.000    0.000 
#
# Total GULP energy -178208.955806 kJ/mol
# GULP energy per Si atom -5569.029869 kJ/mol
# Density = 1.815297 g / cm^3
# Si number density = 18.194377 Si / 1000 Ang^3
#
#
#
# Elastic Constant Matrix: (Units=GPa)
#
#
# Indices 1 2 3 4 5 6 
#
# 1 120.5936 36.8857 17.6841 0.0000 8.4566 0.0000
# 2 36.8857 53.7367 27.5321 0.0000 5.5190 0.0000
# 3 17.6841 27.5321 43.2770 0.0000 4.3920 0.0000
# 4 0.0000 0.0000 0.0000 19.4504 0.0000 -2.2351
# 5 8.4566 5.5190 4.3920 0.0000 25.5781 0.0000
# 6 0.0000 0.0000 0.0000 -2.2351 0.0000 26.6533
#
#
#
# Elastic Compliance Matrix: (Units=1/GPa)
#
#
# Indices 1 2 3 4 5 6 
#
# 1 0.010602 -0.007352 0.000549 0.000000 -0.002013 0.000000
# 2 -0.007352 0.032933 -0.017783 0.000000 -0.001622 0.000000
# 3 0.000549 -0.017783 0.034425 0.000000 -0.002256 0.000000
# 4 0.000000 0.000000 0.000000 0.051913 0.000000 0.004353
# 5 -0.002013 -0.001622 -0.002256 0.000000 0.040499 0.000000
# 6 0.000000 0.000000 0.000000 0.004353 0.000000 0.037884
#
#
# Mechanical properties :
#
#
# Convention : Reuss Voigt Hill
#
# Bulk Modulus (GPa) = 34.73576 42.42346 38.57961
# Shear Modulus (GPa) = 18.72505 23.37007 21.04756
#
# Velocity S-wave (km/s) = 3.21154 3.58783 3.40489
# Velocity P-wave (km/s) = 5.73454 6.36638 6.05870
#
# Compressibility (1/GPa) = 0.02878877
#
# Stress axis : x y z
#
# Youngs Moduli (GPa) = 94.32542 30.36445 29.04898
#
# Poissons Ratio (x) = 0.22323 -0.01596
# Poissons Ratio (y) = 0.69346 0.51657
# Poissons Ratio (z) = -0.05181 0.53997
#
# Static dielectric constant tensor:
#      x y z
#    x 1.628250 0.000000 0.004310 
#    y 0.000000 1.631860 0.000000 
#    z 0.004310 0.000000 1.641960 
# 
# From -- ./inp_files/32658.got.cif
#   From: 2010.05.17/outbox.cif.g08.bks.cpg/sg11_17_cif.got.tgz:32658.got - 2010.06.03 12:22:45.
