data_PCOD9160736
_publ_section_title
;
Structure prediction by ZEFSAII (Michael W. Deem and Ramdas Pophale) SiO2 
 PCOD9160736
Probable space group: P 21/M
;
_chemical_formula_sum "Si O2"
_cell_formula_units_Z 32
_cell_length_a 12.281596
_cell_length_b 11.043296
_cell_length_c 12.369650
_cell_angle_alpha 90.000000
_cell_angle_beta 103.750470
_cell_angle_gamma 90.000000
_cell_volume 1629.604663
_symmetry_space_group_name_H-M "P 21/M"
_symmetry_group_IT_number 11
_symmetry_cell_setting 'monoclinic'
loop_
_space_group_symop_operation_xyz
x,y,z
-x,1/2+y,-z
-x,-y,-z
x,1/2-y,z
loop_
_atom_site_type_symbol
_atom_site_label
_atom_site_fract_x
_atom_site_fract_y
_atom_site_fract_z
Si Si1 0.217557 0.890424 0.967251
Si Si2 0.996218 0.885668 0.766029
Si Si3 0.542345 0.557508 0.690776
Si Si4 0.225019 0.390016 0.138948
Si Si5 0.193851 0.499118 0.558601
Si Si6 0.588787 0.881712 0.464088
Si Si7 0.992848 0.381353 0.609221
Si Si8 0.329399 0.887994 0.779346
O O1 0.229156 0.750000 0.011066
O O2 0.315556 0.915003 0.902319
O O3 0.102716 0.893561 0.870903
O O4 0.215793 0.000157 0.051388
O O5 0.999585 0.750000 0.715599
O O6 0.883623 0.892339 0.810303
O O7 0.996294 0.000822 0.687006
O O8 0.664461 0.581244 0.765036
O O9 0.501275 0.423971 0.646096
O O10 0.535123 0.617851 0.570300
O O11 0.452245 0.601232 0.757089
O O12 0.233707 0.250000 0.098491
O O13 0.301169 0.465711 0.511849
O O14 0.101592 0.395894 0.558333
O O15 0.248091 0.532433 0.686252
O O16 0.120072 0.603888 0.487290
O O17 0.630959 0.750000 0.445989
O O18 0.995173 0.250000 0.664253
O O19 0.291150 0.750000 0.757599
#
# Coordination Sequence:
#
# PCOD9160736 Si02
#       8
#     4   4   4   4   4   4   4   4
#     4  10  22  40  61  85 112 153 200 247 299 348
#     4  10  22  41  62  84 118 159 194 238 303 360
#     4  10  22  37  58  88 116 152 194 237 289 346
#     4  11  23  40  62  88 118 154 196 243 295 353
#     4  10  21  35  54  84 122 159 194 237 291 347
#     4  10  20  38  60  84 117 156 196 236 284 345
#     4  11  22  34  56  91 123 155 199 244 290 349
#     4  10  19  37  60  80 114 156 194 235 289 348
#
# _framework density 19.636665000000001
#
# number of rings (size 3 to 8) (size 9 to 14) (size 15 to 20)
#    0.000    1.750    1.250    3.000    0.000    5.500 
#    0.000    5.000    0.000    0.000    0.000    0.000 
#    0.000    0.000    0.000    0.000    0.000    0.000 
#
# Total GULP energy -178362.023247 kJ/mol
# GULP energy per Si atom -5573.813226 kJ/mol
# Density = 1.959197 g / cm^3
# Si number density = 19.636665 Si / 1000 Ang^3
#
#
#
# Elastic Constant Matrix: (Units=GPa)
#
#
# Indices 1 2 3 4 5 6 
#
# 1 108.6579 34.3299 24.3180 0.0000 -14.9623 0.0000
# 2 34.3299 127.1912 50.9149 0.0000 -6.8646 0.0000
# 3 24.3180 50.9149 49.1752 0.0000 -1.0877 0.0000
# 4 0.0000 0.0000 0.0000 -6.0854 0.0000 7.7662
# 5 -14.9623 -6.8646 -1.0877 0.0000 17.2480 0.0000
# 6 0.0000 0.0000 0.0000 7.7662 0.0000 5.8579
#
#
#
# Elastic Compliance Matrix: (Units=1/GPa)
#
#
# Indices 1 2 3 4 5 6 
#
# 1 0.011864 -0.000711 -0.004917 0.000000 0.009699 0.000000
# 2 -0.000711 0.013824 -0.013873 0.000000 0.004010 0.000000
# 3 -0.004917 -0.013873 0.036965 0.000000 -0.007455 0.000000
# 4 0.000000 0.000000 0.000000 -0.061044 0.000000 0.080930
# 5 0.009699 0.004010 -0.007455 0.000000 0.067517 0.000000
# 6 0.000000 0.000000 0.000000 0.080930 0.000000 0.063415
#
#
# Mechanical properties :
#
#
# Convention : Reuss Voigt Hill
#
# Bulk Modulus (GPa) = 42.27781 56.01666 49.14724
# Shear Modulus (GPa) = 27.86703 15.10154 21.48429
#
# Velocity S-wave (km/s) = 3.77122 2.77618 3.31129
# Velocity P-wave (km/s) = 6.36707 6.23416 6.30097
#
# Compressibility (1/GPa) = 0.02365307
#
# Stress axis : x y z
#
# Youngs Moduli (GPa) = 84.29200 72.33996 27.05247
#
# Poissons Ratio (x) = 0.05140 0.13300
# Poissons Ratio (y) = 0.05989 0.37529
# Poissons Ratio (z) = 0.41442 1.00354
#
# Static dielectric constant tensor:
#      x y z
#    x 1.700380 0.000000 -0.029610 
#    y 0.000000 1.742990 0.000000 
#    z -0.029610 0.000000 1.685440 
# 
# From -- ./inp_files/35118.got.cif
#   From: 2010.05.17/outbox.cif.g08.bks.cpg/sg11_18_cif.got.tgz:35118.got - 2010.06.03 12:22:45.
