data_PCOD9160625
_publ_section_title
;
Structure prediction by ZEFSAII (Michael W. Deem and Ramdas Pophale) SiO2 
 PCOD9160625
Probable space group: P 21/M
;
_chemical_formula_sum "Si O2"
_cell_formula_units_Z 28
_cell_length_a 27.527971
_cell_length_b 8.702657
_cell_length_c 9.790638
_cell_angle_alpha 90.000000
_cell_angle_beta 39.703802
_cell_angle_gamma 90.000000
_cell_volume 1498.355269
_symmetry_space_group_name_H-M "P 21/M"
_symmetry_group_IT_number 11
_symmetry_cell_setting 'monoclinic'
loop_
_space_group_symop_operation_xyz
x,y,z
-x,1/2+y,-z
-x,-y,-z
x,1/2-y,z
loop_
_atom_site_type_symbol
_atom_site_label
_atom_site_fract_x
_atom_site_fract_y
_atom_site_fract_z
Si Si1 0.797729 0.436254 0.183177
Si Si2 0.199766 0.933373 0.505720
Si Si3 0.635420 0.933646 0.861885
Si Si4 0.505841 0.434329 0.334071
Si Si5 0.952867 0.926185 0.224243
Si Si6 0.624288 0.064270 0.581387
Si Si7 0.944788 0.425717 0.727844
O O1 0.801520 0.250000 0.169015
O O2 0.815888 0.475940 0.301347
O O3 0.710140 0.478692 0.349512
O O4 0.862213 0.496632 0.941451
O O5 0.211110 0.750000 0.474841
O O6 0.277664 0.016762 0.297961
O O7 0.125566 0.983495 0.583881
O O8 0.627909 0.750000 0.874550
O O9 0.614678 0.001758 0.756765
O O10 0.580672 0.004284 0.094580
O O11 0.500000 0.500000 0.500000
O O12 0.493823 0.750000 0.662619
O O13 0.436322 0.494512 0.391098
O O14 0.933716 0.750000 0.232811
O O15 0.008155 0.927243 0.233628
O O16 0.000000 0.000000 0.000000
O O17 0.618293 0.250000 0.597584
O O18 0.932078 0.250000 0.712233
O O19 0.000000 0.500000 0.500000
#
# Coordination Sequence:
#
# PCOD9160625 Si02
#       7
#     4   4   4   4   4   4   4
#     4   8  16  34  58  82 114 150 191 239 288 341
#     4  10  19  36  60  88 118 152 195 245 299 351
#     4  11  22  39  63  93 123 154 197 247 295 352
#     4  12  25  43  63  88 122 160 198 242 298 357
#     4  11  21  35  58  85 117 153 197 247 296 349
#     4  10  20  38  65  92 118 156 200 246 296 352
#     4  10  21  38  55  80 115 156 197 241 289 345
#
# _framework density 18.687156999999999
#
# number of rings (size 3 to 8) (size 9 to 14) (size 15 to 20)
#    0.000    1.714    1.429    5.143    0.000    1.143 
#    2.571    1.429    0.000    0.000    0.000    0.000 
#    0.000    0.000    0.000    0.000    0.000    0.000 
#
# Total GULP energy -156321.764970 kJ/mol
# GULP energy per Si atom -5582.920178 kJ/mol
# Density = 1.864462 g / cm^3
# Si number density = 18.687157 Si / 1000 Ang^3
#
#
#
# Elastic Constant Matrix: (Units=GPa)
#
#
# Indices 1 2 3 4 5 6 
#
# 1 52.2941 33.9014 48.2186 0.0000 -12.7425 0.0000
# 2 33.9014 117.7239 59.2175 0.0000 0.0814 0.0000
# 3 48.2186 59.2175 179.1683 0.0000 -8.2714 0.0000
# 4 0.0000 0.0000 0.0000 32.0055 0.0000 -1.5384
# 5 -12.7425 0.0814 -8.2714 0.0000 24.6833 0.0000
# 6 0.0000 0.0000 0.0000 -1.5384 0.0000 29.0666
#
#
#
# Elastic Compliance Matrix: (Units=1/GPa)
#
#
# Indices 1 2 3 4 5 6 
#
# 1 0.032253 -0.006325 -0.005912 0.000000 0.014690 0.000000
# 2 -0.006325 0.011462 -0.002274 0.000000 -0.004065 0.000000
# 3 -0.005912 -0.002274 0.007906 0.000000 -0.000395 0.000000
# 4 0.000000 0.000000 0.000000 0.031324 0.000000 0.001658
# 5 0.014690 -0.004065 -0.000395 0.000000 0.047978 0.000000
# 6 0.000000 0.000000 0.000000 0.001658 0.000000 0.034491
#
#
# Mechanical properties :
#
#
# Convention : Reuss Voigt Hill
#
# Bulk Modulus (GPa) = 44.24607 70.20681 57.22644
# Shear Modulus (GPa) = 24.75626 31.00767 27.88197
#
# Velocity S-wave (km/s) = 3.64369 4.07787 3.86688
# Velocity P-wave (km/s) = 6.43667 7.73455 7.11526
#
# Compressibility (1/GPa) = 0.02260088
#
# Stress axis : x y z
#
# Youngs Moduli (GPa) = 31.00468 87.24127 126.49153
#
# Poissons Ratio (x) = 0.55176 0.74777
# Poissons Ratio (y) = 0.19609 0.28765
# Poissons Ratio (z) = 0.18329 0.19839
#
# Static dielectric constant tensor:
#      x y z
#    x 1.630820 0.000000 -0.013750 
#    y 0.000000 1.649970 0.000000 
#    z -0.013750 0.000000 1.648430 
# 
# From -- ./inp_files/28438.got.cif
#   From: 2010.05.17/outbox.cif.g08.bks.cpg/sg11_15_cif.got.tgz:28438.got - 2010.06.03 12:22:45.
