data_PCOD9160519
_publ_section_title
;
Structure prediction by ZEFSAII (Michael W. Deem and Ramdas Pophale) SiO2 
 PCOD9160519
Probable space group: P 21/M
;
_chemical_formula_sum "Si O2"
_cell_formula_units_Z 32
_cell_length_a 13.962818
_cell_length_b 30.789544
_cell_length_c 8.672903
_cell_angle_alpha 90.000000
_cell_angle_beta 28.453975
_cell_angle_gamma 90.000000
_cell_volume 1776.481063
_symmetry_space_group_name_H-M "P 21/M"
_symmetry_group_IT_number 11
_symmetry_cell_setting 'monoclinic'
loop_
_space_group_symop_operation_xyz
x,y,z
-x,1/2+y,-z
-x,-y,-z
x,1/2-y,z
loop_
_atom_site_type_symbol
_atom_site_label
_atom_site_fract_x
_atom_site_fract_y
_atom_site_fract_z
Si Si1 0.288378 0.923251 0.371171
Si Si2 0.186662 0.485017 0.631258
Si Si3 0.075289 0.118898 0.274426
Si Si4 0.022726 0.299567 0.169819
Si Si5 0.478945 0.918619 0.773692
Si Si6 0.414463 0.154682 0.599737
Si Si7 0.955529 0.082236 0.762618
Si Si8 0.791166 0.143650 0.254224
O O1 0.063504 0.914492 0.623438
O O2 0.309155 0.889286 0.480464
O O3 0.300835 0.972166 0.412376
O O4 0.430003 0.915631 0.024267
O O5 0.344711 0.453729 0.493473
O O6 0.086056 0.458303 0.633639
O O7 0.000000 0.500000 0.000000
O O8 0.063124 0.106459 0.468728
O O9 0.984523 0.167025 0.365975
O O10 0.291558 0.122316 0.888970
O O11 0.969101 0.250000 0.273103
O O12 0.910974 0.321195 0.183376
O O13 0.260580 0.305859 0.800827
O O14 0.547454 0.872576 0.607908
O O15 0.269556 0.929507 0.980656
O O16 0.622595 0.165152 0.386284
O O17 0.926826 0.113896 0.950053
#
# Coordination Sequence:
#
# PCOD9160519 Si02
#       8
#     4   4   4   4   4   4   4   4
#     4  10  20  37  52  81 113 150 194 226 277 319
#     4  12  22  35  54  80 115 149 195 245 267 313
#     4   8  19  37  57  80 107 148 179 222 275 334
#     4   9  19  37  60  85 111 136 174 227 280 335
#     4  10  22  36  53  78 111 149 189 231 275 321
#     4   9  19  36  56  82 106 148 181 221 275 336
#     4  10  21  38  56  80 110 149 190 225 278 327
#     4  10  19  36  57  81 108 146 180 221 276 332
#
# _framework density 18.013138999999999
#
# number of rings (size 3 to 8) (size 9 to 14) (size 15 to 20)
#    0.750    1.500    1.250    1.875    1.750    3.000 
#    2.250    0.625    0.000    9.750    0.000    0.000 
#    0.000    0.000    0.000    0.000    0.000    0.000 
#
# Total GULP energy -178266.804520 kJ/mol
# GULP energy per Si atom -5570.837641 kJ/mol
# Density = 1.797214 g / cm^3
# Si number density = 18.013139 Si / 1000 Ang^3
#
#
#
# Elastic Constant Matrix: (Units=GPa)
#
#
# Indices 1 2 3 4 5 6 
#
# 1 61.0234 33.2344 12.0108 0.0000 15.0755 0.0000
# 2 33.2344 65.9082 -6.1419 0.0000 7.7565 0.0000
# 3 12.0108 -6.1419 48.8389 0.0000 16.8699 0.0000
# 4 0.0000 0.0000 0.0000 16.4961 0.0000 1.5580
# 5 15.0755 7.7565 16.8699 0.0000 29.2683 0.0000
# 6 0.0000 0.0000 0.0000 1.5580 0.0000 9.8680
#
#
#
# Elastic Compliance Matrix: (Units=1/GPa)
#
#
# Indices 1 2 3 4 5 6 
#
# 1 0.026262 -0.012982 -0.005752 0.000000 -0.006771 0.000000
# 2 -0.012982 0.022818 0.007293 0.000000 -0.003564 0.000000
# 3 -0.005752 0.007293 0.028033 0.000000 -0.015128 0.000000
# 4 0.000000 0.000000 0.000000 0.061538 0.000000 -0.009716
# 5 -0.006771 -0.003564 -0.015128 0.000000 0.047318 0.000000
# 6 0.000000 0.000000 0.000000 -0.009716 0.000000 0.102872
#
#
# Mechanical properties :
#
#
# Convention : Reuss Voigt Hill
#
# Bulk Modulus (GPa) = 18.43971 28.21969 23.32970
# Shear Modulus (GPa) = 15.16068 20.23763 17.69915
#
# Velocity S-wave (km/s) = 2.90426 3.35549 3.13800
# Velocity P-wave (km/s) = 4.63738 5.54190 5.10969
#
# Compressibility (1/GPa) = 0.05423079
#
# Stress axis : x y z
#
# Youngs Moduli (GPa) = 38.07735 43.82523 35.67261
#
# Poissons Ratio (x) = 0.56894 0.20520
# Poissons Ratio (y) = 0.49432 -0.26017
# Poissons Ratio (z) = 0.21903 -0.31963
#
# Static dielectric constant tensor:
#      x y z
#    x 1.623150 0.000000 -0.017100 
#    y 0.000000 1.596470 0.000000 
#    z -0.017100 0.000000 1.642000 
# 
# From -- ./inp_files/23432.got.cif
#   From: 2010.05.17/outbox.cif.g08.bks.cpg/sg11_12_cif.got.tgz:23432.got - 2010.06.03 12:22:45.
