data_PCOD9160445
_publ_section_title
;
Structure prediction by ZEFSAII (Michael W. Deem and Ramdas Pophale) SiO2 
 PCOD9160445
Probable space group: P 21/M
;
_chemical_formula_sum "Si O2"
_cell_formula_units_Z 16
_cell_length_a 27.739080
_cell_length_b 5.232458
_cell_length_c 16.815310
_cell_angle_alpha 90.000000
_cell_angle_beta 161.185093
_cell_angle_gamma 90.000000
_cell_volume 787.133749
_symmetry_space_group_name_H-M "P 21/M"
_symmetry_group_IT_number 11
_symmetry_cell_setting 'monoclinic'
loop_
_space_group_symop_operation_xyz
x,y,z
-x,1/2+y,-z
-x,-y,-z
x,1/2-y,z
loop_
_atom_site_type_symbol
_atom_site_label
_atom_site_fract_x
_atom_site_fract_y
_atom_site_fract_z
Si Si1 0.401857 0.750000 0.333146
Si Si2 0.455360 0.750000 0.242688
Si Si3 0.070181 0.750000 0.843122
Si Si4 0.614213 0.750000 0.966420
Si Si5 0.036304 0.250000 0.502239
Si Si6 0.036155 0.750000 0.231971
Si Si7 0.776829 0.750000 0.698062
Si Si8 0.293078 0.750000 0.516834
O O1 0.500000 0.500000 0.500000
O O2 0.367880 0.750000 0.187139
O O3 0.247407 0.750000 0.139010
O O4 0.415253 0.500642 0.131315
O O5 0.634012 0.750000 0.534075
O O6 0.998850 0.499324 0.770876
O O7 0.049235 0.750000 0.715405
O O8 0.473839 0.750000 0.808369
O O9 0.790485 0.750000 0.257121
O O10 0.000000 0.500000 0.500000
O O11 0.202980 0.750000 0.457959
O O12 0.926225 0.750000 0.983236
O O13 0.757145 0.499618 0.612204
#
# Coordination Sequence:
#
# PCOD9160445 Si02
#       8
#     2   2   2   2   2   2   2   2
#     4  12  23  37  56  83 119 157 187 228 292 360
#     4  10  20  35  58  86 114 147 191 243 288 342
#     4  12  26  40  60  90 121 158 199 242 301 356
#     4  10  21  39  62  86 110 145 200 247 287 340
#     4  12  25  45  67  88 115 152 197 253 304 354
#     4  12  23  40  57  88 129 160 194 244 290 348
#     4  10  19  35  60  90 121 160 199 235 285 348
#     4  10  21  37  62  89 119 161 203 238 283 344
#
# _framework density 20.326915
#
# number of rings (size 3 to 8) (size 9 to 14) (size 15 to 20)
#    0.000    1.000    0.000    8.250    0.000    2.000 
#    0.000    1.250    0.000    0.000    0.000    0.000 
#    0.000    0.000    0.000    0.000    0.000    0.000 
#
# Total GULP energy -89405.684535 kJ/mol
# GULP energy per Si atom -5587.855283 kJ/mol
# Density = 2.028065 g / cm^3
# Si number density = 20.326915 Si / 1000 Ang^3
#
#
#
# Elastic Constant Matrix: (Units=GPa)
#
#
# Indices 1 2 3 4 5 6 
#
# 1 116.3679 62.5357 52.3655 0.0000 34.2075 0.0000
# 2 62.5357 196.7844 37.8837 0.0000 12.1487 0.0000
# 3 52.3655 37.8837 129.7233 0.0000 35.8655 0.0000
# 4 0.0000 0.0000 0.0000 11.0502 0.0000 -0.7083
# 5 34.2075 12.1487 35.8655 0.0000 34.9802 0.0000
# 6 0.0000 0.0000 0.0000 -0.7083 0.0000 25.6704
#
#
#
# Elastic Compliance Matrix: (Units=1/GPa)
#
#
# Indices 1 2 3 4 5 6 
#
# 1 0.014634 -0.003621 -0.001732 0.000000 -0.011277 0.000000
# 2 -0.003621 0.006284 -0.001045 0.000000 0.002430 0.000000
# 3 -0.001732 -0.001045 0.011367 0.000000 -0.009598 0.000000
# 4 0.000000 0.000000 0.000000 0.090656 0.000000 0.002501
# 5 -0.011277 0.002430 -0.009598 0.000000 0.048612 0.000000
# 6 0.000000 0.000000 0.000000 0.002501 0.000000 0.039024
#
#
# Mechanical properties :
#
#
# Convention : Reuss Voigt Hill
#
# Bulk Modulus (GPa) = 51.31424 83.16061 67.23742
# Shear Modulus (GPa) = 21.75158 33.67953 27.71556
#
# Velocity S-wave (km/s) = 3.27477 4.07491 3.69655
# Velocity P-wave (km/s) = 6.29270 7.94608 7.16723
#
# Compressibility (1/GPa) = 0.01948777
#
# Stress axis : x y z
#
# Youngs Moduli (GPa) = 68.33598 159.14601 87.97676
#
# Poissons Ratio (x) = 0.57623 0.15237
# Poissons Ratio (y) = 0.24743 0.09197
# Poissons Ratio (z) = 0.11835 0.16636
#
# Static dielectric constant tensor:
#      x y z
#    x 1.707420 0.000000 0.033280 
#    y 0.000000 1.680480 0.000000 
#    z 0.033280 0.000000 1.832890 
# 
# From -- ./inp_files/48566.got.cif
#   From: 2010.05.17/outbox.cif.g08.bks.cpg/sg11_25_cif.got.tgz:48566.got - 2010.06.03 12:22:45.
