data_PCOD9160455
_publ_section_title
;
Structure prediction by ZEFSAII (Michael W. Deem and Ramdas Pophale) SiO2 
 PCOD9160455
Probable space group: P 21/M
;
_chemical_formula_sum "Si O2"
_cell_formula_units_Z 32
_cell_length_a 14.873433
_cell_length_b 16.459409
_cell_length_c 6.952747
_cell_angle_alpha 90.000000
_cell_angle_beta 91.676142
_cell_angle_gamma 90.000000
_cell_volume 1701.359232
_symmetry_space_group_name_H-M "P 21/M"
_symmetry_group_IT_number 11
_symmetry_cell_setting 'monoclinic'
loop_
_space_group_symop_operation_xyz
x,y,z
-x,1/2+y,-z
-x,-y,-z
x,1/2-y,z
loop_
_atom_site_type_symbol
_atom_site_label
_atom_site_fract_x
_atom_site_fract_y
_atom_site_fract_z
Si Si1 0.345153 0.536081 0.087227
Si Si2 0.399659 0.840183 0.768506
Si Si3 0.166314 0.444910 0.108811
Si Si4 0.093749 0.569723 0.420576
Si Si5 0.257179 0.346652 0.450328
Si Si6 0.273842 0.659455 0.399554
Si Si7 0.442783 0.431068 0.383811
Si Si8 0.896776 0.576830 0.305183
O O1 0.251833 0.492991 0.025847
O O2 0.319848 0.594273 0.264269
O O3 0.411801 0.469986 0.179813
O O4 0.385645 0.590155 0.922984
O O5 0.401547 0.750000 0.854277
O O6 0.319367 0.845150 0.610269
O O7 0.490179 0.857647 0.655747
O O8 0.113029 0.505466 0.248343
O O9 0.209553 0.375754 0.247984
O O10 0.107750 0.417733 0.924633
O O11 0.169810 0.636989 0.410686
O O12 0.107501 0.515921 0.613929
O O13 0.993677 0.603757 0.392804
O O14 0.272678 0.250000 0.454142
O O15 0.350569 0.397711 0.473336
O O16 0.186422 0.374411 0.608648
O O17 0.286620 0.750000 0.323439
O O18 0.500000 0.500000 0.500000
#
# Coordination Sequence:
#
# PCOD9160455 Si02
#       8
#     4   4   4   4   4   4   4   4
#     4  10  20  36  58  82 109 141 188 230 272 337
#     4  11  22  36  57  83 114 147 182 231 289 335
#     4   9  19  34  60  82 113 151 189 233 279 333
#     4   9  19  34  55  88 114 145 190 236 267 333
#     4  10  23  40  55  82 118 148 189 243 289 339
#     4  10  20  35  53  79 115 145 175 224 280 328
#     4  11  22  39  62  80 109 149 193 233 283 339
#     4  10  19  35  61  83 111 150 192 228 282 332
#
# _framework density 18.808491
#
# number of rings (size 3 to 8) (size 9 to 14) (size 15 to 20)
#    0.000    2.000    1.250    3.000    1.750    1.000 
#    0.000    0.000    0.000    0.000    0.000    0.000 
#    0.000    0.000    0.000    0.000    0.000    0.000 
#
# Total GULP energy -178524.808014 kJ/mol
# GULP energy per Si atom -5578.900250 kJ/mol
# Density = 1.876568 g / cm^3
# Si number density = 18.808491 Si / 1000 Ang^3
#
#
#
# Elastic Constant Matrix: (Units=GPa)
#
#
# Indices 1 2 3 4 5 6 
#
# 1 102.3546 30.0065 17.2447 0.0000 -3.5919 0.0000
# 2 30.0065 67.6306 3.4752 0.0000 4.8037 0.0000
# 3 17.2447 3.4752 38.8752 0.0000 5.1767 0.0000
# 4 0.0000 0.0000 0.0000 10.5170 0.0000 24.9415
# 5 -3.5919 4.8037 5.1767 0.0000 21.7579 0.0000
# 6 0.0000 0.0000 0.0000 24.9415 0.0000 -104.2330
#
#
#
# Elastic Compliance Matrix: (Units=1/GPa)
#
#
# Indices 1 2 3 4 5 6 
#
# 1 0.012531 -0.005599 -0.005678 0.000000 0.004656 0.000000
# 2 -0.005599 0.017556 0.001604 0.000000 -0.005182 0.000000
# 3 -0.005678 0.001604 0.029196 0.000000 -0.008238 0.000000
# 4 0.000000 0.000000 0.000000 0.060661 0.000000 0.014515
# 5 0.004656 -0.005182 -0.008238 0.000000 0.049833 0.000000
# 6 0.000000 0.000000 0.000000 0.014515 0.000000 -0.006121
#
#
# Mechanical properties :
#
#
# Convention : Reuss Voigt Hill
#
# Bulk Modulus (GPa) = 25.03929 34.47925 29.75927
# Shear Modulus (GPa) = 25.46933 -3.84937 10.80998
#
# Velocity S-wave (km/s) = 3.68386 -1.43215 2.39997
# Velocity P-wave (km/s) = 5.60679 3.95434 4.85144
#
# Compressibility (1/GPa) = 0.03993724
#
# Stress axis : x y z
#
# Youngs Moduli (GPa) = 79.79953 56.96069 34.25160
#
# Poissons Ratio (x) = 0.31892 0.19449
# Poissons Ratio (y) = 0.44679 -0.05495
# Poissons Ratio (z) = 0.45313 -0.09138
#
# Static dielectric constant tensor:
#      x y z
#    x 1.662450 0.000000 -0.002150 
#    y 0.000000 1.588210 0.000000 
#    z -0.002150 0.000000 1.640850 
# 
# From -- ./inp_files/6852.got.cif
#   From: 2010.05.17/outbox.cif.g08.bks.cpg/sg11_4_cif.got.tgz:6852.got - 2010.06.03 12:22:45.
