data_PCOD9160437
_publ_section_title
;
Structure prediction by ZEFSAII (Michael W. Deem and Ramdas Pophale) SiO2 
 PCOD9160437
Probable space group: P 21/M
;
_chemical_formula_sum "Si O2"
_cell_formula_units_Z 24
_cell_length_a 14.219520
_cell_length_b 13.211240
_cell_length_c 7.318245
_cell_angle_alpha 90.000000
_cell_angle_beta 139.402300
_cell_angle_gamma 90.000000
_cell_volume 894.634127
_symmetry_space_group_name_H-M "P 21/M"
_symmetry_group_IT_number 11
_symmetry_cell_setting 'monoclinic'
loop_
_space_group_symop_operation_xyz
x,y,z
-x,1/2+y,-z
-x,-y,-z
x,1/2-y,z
loop_
_atom_site_type_symbol
_atom_site_label
_atom_site_fract_x
_atom_site_fract_y
_atom_site_fract_z
Si Si1 0.683068 0.906569 0.404353
Si Si2 0.968638 0.135509 0.495658
Si Si3 0.424276 0.858205 0.281189
Si Si4 0.673020 0.142815 0.468520
Si Si5 0.990587 0.392745 0.087619
Si Si6 0.245954 0.036042 0.858502
O O1 0.566027 0.862522 0.367694
O O2 0.840986 0.863713 0.688479
O O3 0.658843 0.028947 0.375605
O O4 0.675109 0.894155 0.173071
O O5 0.940037 0.250000 0.507828
O O6 0.969427 0.124063 0.275062
O O7 0.856542 0.050016 0.392880
O O8 0.128902 0.102340 0.793531
O O9 0.348734 0.750000 0.122826
O O10 0.431702 0.855773 0.509413
O O11 0.342297 0.962407 0.118947
O O12 0.646303 0.250000 0.325922
O O13 0.840568 0.148082 0.784205
O O14 0.000000 0.500000 0.000000
#
# Coordination Sequence:
#
# PCOD9160437 Si02
#       6
#     4   4   4   4   4   4
#     4  10  22  37  55  85 119 149 187 244 293 333
#     4  10  19  35  60  87 117 155 196 237 292 350
#     4  11  22  38  60  83 112 155 199 235 291 355
#     4  10  20  36  59  82 110 153 194 236 290 347
#     4   9  18  34  57  85 111 142 192 240 282 334
#     4  10  21  36  58  87 116 152 196 241 288 340
#
# _framework density 26.826609999999999
#
# number of rings (size 3 to 8) (size 9 to 14) (size 15 to 20)
#    0.000    2.000    1.667    2.000    0.000    4.667 
#    0.000    0.833    0.000    2.000    0.000    0.000 
#    0.000    0.000    0.000    0.000    0.000    0.000 
#
# Total GULP energy -133947.648718 kJ/mol
# GULP energy per Si atom -5581.152030 kJ/mol
# Density = 2.676555 g / cm^3
# Si number density = 26.826610 Si / 1000 Ang^3
#
#
#
# Elastic Constant Matrix: (Units=GPa)
#
#
# Indices 1 2 3 4 5 6 
#
# 1 146.2751 20.4406 11.1221 0.0000 12.0594 0.0000
# 2 20.4406 139.7719 1.2973 0.0000 4.9628 0.0000
# 3 11.1221 1.2973 55.7983 0.0000 1.8955 0.0000
# 4 0.0000 0.0000 0.0000 2.5956 0.0000 -21.4355
# 5 12.0594 4.9628 1.8955 0.0000 30.5035 0.0000
# 6 0.0000 0.0000 0.0000 -21.4355 0.0000 -28.1082
#
#
#
# Elastic Compliance Matrix: (Units=1/GPa)
#
#
# Indices 1 2 3 4 5 6 
#
# 1 0.007290 -0.000960 -0.001341 0.000000 -0.002643 0.000000
# 2 -0.000960 0.007323 0.000049 0.000000 -0.000815 0.000000
# 3 -0.001341 0.000049 0.018209 0.000000 -0.000609 0.000000
# 4 0.000000 0.000000 0.000000 0.052791 0.000000 -0.040259
# 5 -0.002643 -0.000815 -0.000609 0.000000 0.033998 0.000000
# 6 0.000000 0.000000 0.000000 -0.040259 0.000000 -0.004875
#
#
# Mechanical properties :
#
#
# Convention : Reuss Voigt Hill
#
# Bulk Modulus (GPa) = 35.31332 45.28504 40.29918
# Shear Modulus (GPa) = 38.85580 21.59721 30.22650
#
# Velocity S-wave (km/s) = 3.80992 2.84045 3.36033
# Velocity P-wave (km/s) = 5.70492 5.26069 5.48730
#
# Compressibility (1/GPa) = 0.02831793
#
# Stress axis : x y z
#
# Youngs Moduli (GPa) = 137.16644 136.54907 54.91917
#
# Poissons Ratio (x) = 0.13107 0.07365
# Poissons Ratio (y) = 0.13166 -0.00268
# Poissons Ratio (z) = 0.18395 -0.00666
#
# Static dielectric constant tensor:
#      x y z
#    x 2.048530 0.000000 0.026320 
#    y 0.000000 2.037980 0.000000 
#    z 0.026320 0.000000 2.167850 
# 
# From -- ./inp_files/22300.got.cif
#   From: 2010.05.17/outbox.cif.g08.bks.cpg/sg11_12_cif.got.tgz:22300.got - 2010.06.03 12:22:45.
