data_PCOD9160463
_publ_section_title
;
Structure prediction by ZEFSAII (Michael W. Deem and Ramdas Pophale) SiO2 
 PCOD9160463
Probable space group: P 21/M
;
_chemical_formula_sum "Si O2"
_cell_formula_units_Z 24
_cell_length_a 7.098006
_cell_length_b 21.623253
_cell_length_c 8.109193
_cell_angle_alpha 90.000000
_cell_angle_beta 128.360431
_cell_angle_gamma 90.000000
_cell_volume 975.930298
_symmetry_space_group_name_H-M "P 21/M"
_symmetry_group_IT_number 11
_symmetry_cell_setting 'monoclinic'
loop_
_space_group_symop_operation_xyz
x,y,z
-x,1/2+y,-z
-x,-y,-z
x,1/2-y,z
loop_
_atom_site_type_symbol
_atom_site_label
_atom_site_fract_x
_atom_site_fract_y
_atom_site_fract_z
Si Si1 0.473971 0.816079 0.869751
Si Si2 0.771005 0.569731 0.738458
Si Si3 0.509237 0.816434 0.494952
Si Si4 0.006842 0.853847 0.144027
Si Si5 0.420970 0.544638 0.847829
Si Si6 0.030403 0.029977 0.660689
O O1 0.377322 0.750000 0.880456
O O2 0.443827 0.817293 0.654584
O O3 0.388879 0.883072 0.888335
O O4 0.763698 0.816275 0.042547
O O5 0.660289 0.620734 0.553778
O O6 0.573584 0.545554 0.760441
O O7 0.886825 0.512217 0.713756
O O8 0.958498 0.606484 0.953449
O O9 0.630383 0.750000 0.526606
O O10 0.257971 0.820098 0.265450
O O11 0.016110 0.900562 0.301611
O O12 0.142971 0.532938 0.606256
O O13 0.667710 0.525157 0.113097
#
# Coordination Sequence:
#
# PCOD9160463 Si02
#       6
#     4   4   4   4   4   4
#     4   9  18  34  57  87 123 160 202 253 308 368
#     4  10  23  40  59  92 125 161 202 255 311 365
#     4   9  18  35  59  89 122 160 204 251 308 371
#     4  10  19  35  61  88 118 160 203 248 307 370
#     4  10  19  37  60  88 122 158 202 254 302 364
#     4  12  23  38  61  92 121 160 206 257 311 359
#
# _framework density 24.591919999999998
#
# number of rings (size 3 to 8) (size 9 to 14) (size 15 to 20)
#    0.000    2.333    3.333    3.000    0.000    3.333 
#    0.000    0.833    0.000    4.000    0.000    0.000 
#    0.000    0.000    0.000    0.000    0.000    0.000 
#
# Total GULP energy -133924.070893 kJ/mol
# GULP energy per Si atom -5580.169621 kJ/mol
# Density = 2.453595 g / cm^3
# Si number density = 24.591920 Si / 1000 Ang^3
#
#
#
# Elastic Constant Matrix: (Units=GPa)
#
#
# Indices 1 2 3 4 5 6 
#
# 1 54.1201 23.5764 -3.2085 0.0000 -0.3037 0.0000
# 2 23.5764 189.8276 47.6406 0.0000 13.7491 0.0000
# 3 -3.2085 47.6406 115.3585 0.0000 21.3692 0.0000
# 4 0.0000 0.0000 0.0000 231.5787 0.0000 87.0836
# 5 -0.3037 13.7491 21.3692 0.0000 16.3316 0.0000
# 6 0.0000 0.0000 0.0000 87.0836 0.0000 37.6629
#
#
#
# Elastic Compliance Matrix: (Units=1/GPa)
#
#
# Indices 1 2 3 4 5 6 
#
# 1 0.019852 -0.002926 0.001631 0.000000 0.000698 0.000000
# 2 -0.002926 0.006377 -0.002257 0.000000 -0.002469 0.000000
# 3 0.001631 -0.002257 0.012260 0.000000 -0.014111 0.000000
# 4 0.000000 0.000000 0.000000 0.033085 0.000000 -0.076499
# 5 0.000698 -0.002469 -0.014111 0.000000 0.081786 0.000000
# 6 0.000000 0.000000 0.000000 -0.076499 0.000000 0.203430
#
#
# Mechanical properties :
#
#
# Convention : Reuss Voigt Hill
#
# Bulk Modulus (GPa) = 31.86179 55.03591 43.44885
# Shear Modulus (GPa) = 13.35624 76.53449 44.94536
#
# Velocity S-wave (km/s) = 2.33301 5.58474 4.27974
# Velocity P-wave (km/s) = 4.49906 8.00088 6.49060
#
# Compressibility (1/GPa) = 0.03138555
#
# Stress axis : x y z
#
# Youngs Moduli (GPa) = 50.37153 156.82192 81.56434
#
# Poissons Ratio (x) = 0.45879 -0.13304
# Poissons Ratio (y) = 0.14736 0.18413
# Poissons Ratio (z) = -0.08216 0.35402
#
# Static dielectric constant tensor:
#      x y z
#    x 1.856760 0.000000 0.044060 
#    y 0.000000 2.060480 0.000000 
#    z 0.044060 0.000000 2.120520 
# 
# From -- ./inp_files/36501.got.cif
#   From: 2010.05.17/outbox.cif.g08.bks.cpg/sg11_19_cif.got.tgz:36501.got - 2010.06.03 12:22:45.
