data_PCOD9160000
_publ_section_title
;
Structure prediction by ZEFSAII (Michael W. Deem and Ramdas Pophale) SiO2 
 PCOD9160000
Probable space group: P 21/M
;
_chemical_formula_sum "Si O2"
_cell_formula_units_Z 32
_cell_length_a 13.159473
_cell_length_b 8.119922
_cell_length_c 21.886460
_cell_angle_alpha 90.000000
_cell_angle_beta 42.358435
_cell_angle_gamma 90.000000
_cell_volume 1575.706374
_symmetry_space_group_name_H-M "P 21/M"
_symmetry_group_IT_number 11
_symmetry_cell_setting 'monoclinic'
loop_
_space_group_symop_operation_xyz
x,y,z
-x,1/2+y,-z
-x,-y,-z
x,1/2-y,z
loop_
_atom_site_type_symbol
_atom_site_label
_atom_site_fract_x
_atom_site_fract_y
_atom_site_fract_z
Si Si1 0.046782 0.560803 0.169825
Si Si2 0.624592 0.049183 0.290240
Si Si3 0.778792 0.553791 0.718755
Si Si4 0.696106 0.547989 0.620774
Si Si5 0.747659 0.060975 0.361172
Si Si6 0.944244 0.052622 0.091034
Si Si7 0.116431 0.444338 0.578012
Si Si8 0.348260 0.052338 0.100503
O O1 0.006261 0.750000 0.201029
O O2 0.205827 0.519011 0.127944
O O3 0.914689 0.449607 0.256941
O O4 0.046418 0.528378 0.097936
O O5 0.624303 0.250000 0.293327
O O6 0.470732 0.996994 0.326469
O O7 0.644057 0.991899 0.352169
O O8 0.772765 0.002304 0.185365
O O9 0.759518 0.750000 0.723645
O O10 0.741646 0.488270 0.667806
O O11 0.670379 0.493593 0.821136
O O12 0.951688 0.520777 0.660729
O O13 0.697771 0.750000 0.620134
O O14 0.812691 0.493678 0.516797
O O15 0.705536 0.250000 0.390779
O O16 0.769131 0.975981 0.416838
O O17 0.952354 0.250000 0.092488
O O18 0.000000 0.000000 0.000000
O O19 0.093547 0.250000 0.583505
O O20 0.338165 0.250000 0.104611
O O21 0.500000 0.000000 0.000000
#
# Coordination Sequence:
#
# PCOD9160000 Si02
#       8
#     4   4   4   4   4   4   4   4
#     4  11  21  36  58  82 112 149 190 240 292 343
#     4   8  17  34  55  79 113 151 188 235 290 347
#     4  10  21  38  60  81 113 155 194 236 288 351
#     4   9  19  36  56  83 114 149 192 238 290 350
#     4  10  19  34  57  82 111 149 190 234 287 348
#     4  10  20  35  58  86 115 151 194 240 292 355
#     4  11  21  33  57  86 113 147 193 243 288 341
#     4  11  23  38  58  86 117 152 192 240 296 353
#
# _framework density 20.308351999999999
#
# number of rings (size 3 to 8) (size 9 to 14) (size 15 to 20)
#    0.000    2.000    1.250    3.750    0.000    2.000 
#    0.000    3.125    0.000   12.750    0.000    0.000 
#    0.000    0.000    0.000    0.000    0.000    0.000 
#
# Total GULP energy -178677.067570 kJ/mol
# GULP energy per Si atom -5583.658362 kJ/mol
# Density = 2.026213 g / cm^3
# Si number density = 20.308352 Si / 1000 Ang^3
#
#
#
# Elastic Constant Matrix: (Units=GPa)
#
#
# Indices 1 2 3 4 5 6 
#
# 1 94.4970 -1.4766 42.2818 0.0000 20.6346 0.0000
# 2 -1.4766 22.6250 3.5556 0.0000 3.9847 0.0000
# 3 42.2818 3.5556 110.1456 0.0000 27.4498 0.0000
# 4 0.0000 0.0000 0.0000 18.5030 0.0000 7.2004
# 5 20.6346 3.9847 27.4498 0.0000 33.9473 0.0000
# 6 0.0000 0.0000 0.0000 7.2004 0.0000 15.7986
#
#
#
# Elastic Compliance Matrix: (Units=1/GPa)
#
#
# Indices 1 2 3 4 5 6 
#
# 1 0.013553 0.002444 -0.003954 0.000000 -0.005328 0.000000
# 2 0.002444 0.045575 -0.000884 0.000000 -0.006120 0.000000
# 3 -0.003954 -0.000884 0.012524 0.000000 -0.007620 0.000000
# 4 0.000000 0.000000 0.000000 0.065697 0.000000 -0.029942
# 5 -0.005328 -0.006120 -0.007620 0.000000 0.039576 0.000000
# 6 0.000000 0.000000 0.000000 -0.029942 0.000000 0.076943
#
#
# Mechanical properties :
#
#
# Convention : Reuss Voigt Hill
#
# Bulk Modulus (GPa) = 14.95546 35.10991 25.03269
# Shear Modulus (GPa) = 17.79712 25.84358 21.82035
#
# Velocity S-wave (km/s) = 2.96352 3.57116 3.28144
# Velocity P-wave (km/s) = 4.36923 5.85920 5.16819
#
# Compressibility (1/GPa) = 0.06686519
#
# Stress axis : x y z
#
# Youngs Moduli (GPa) = 73.78419 21.94169 79.84558
#
# Poissons Ratio (x) = -0.05363 0.31569
# Poissons Ratio (y) = -0.18035 0.07060
# Poissons Ratio (z) = 0.29172 0.01940
#
# Static dielectric constant tensor:
#      x y z
#    x 1.704040 0.000000 0.018860 
#    y 0.000000 1.706220 0.000000 
#    z 0.018860 0.000000 1.709450 
# 
# From -- ./inp_files/64343.got.cif
#   From: 2010.05.17/outbox.cif.g08.bks.cpg/sg11_33_cif.got.tgz:64343.got - 2010.06.03 12:22:45.
