data_PCOD9160704
_publ_section_title
;
Structure prediction by ZEFSAII (Michael W. Deem and Ramdas Pophale) SiO2 
 PCOD9160704
Probable space group: P 21/M
;
_chemical_formula_sum "Si O2"
_cell_formula_units_Z 28
_cell_length_a 16.095664
_cell_length_b 18.759566
_cell_length_c 10.290890
_cell_angle_alpha 90.000000
_cell_angle_beta 156.252797
_cell_angle_gamma 90.000000
_cell_volume 1251.320081
_symmetry_space_group_name_H-M "P 21/M"
_symmetry_group_IT_number 11
_symmetry_cell_setting 'monoclinic'
loop_
_space_group_symop_operation_xyz
x,y,z
-x,1/2+y,-z
-x,-y,-z
x,1/2-y,z
loop_
_atom_site_type_symbol
_atom_site_label
_atom_site_fract_x
_atom_site_fract_y
_atom_site_fract_z
Si Si1 0.867748 0.054983 0.389586
Si Si2 0.806292 0.669630 0.144944
Si Si3 0.766988 0.001371 0.787100
Si Si4 0.493311 0.619509 0.501490
Si Si5 0.539579 0.833423 0.997048
Si Si6 0.244186 0.961705 0.505639
Si Si7 0.563208 0.331116 0.859855
O O1 0.746462 0.014078 0.330707
O O2 0.722442 0.103911 0.095218
O O3 0.025947 0.114992 0.668923
O O4 0.000000 0.000000 0.500000
O O5 0.883351 0.750000 0.246023
O O6 0.592515 0.663189 0.760320
O O7 0.743291 0.652490 0.203272
O O8 0.726737 0.082653 0.778918
O O9 0.671484 0.000826 0.503625
O O10 0.640808 0.948585 0.696568
O O11 0.999805 0.971799 0.125364
O O12 0.520265 0.661407 0.405291
O O13 0.487264 0.750000 0.900325
O O14 0.358044 0.885427 0.685369
O O15 0.565957 0.841848 0.191023
O O16 0.645528 0.250000 0.988736
#
# Coordination Sequence:
#
# PCOD9160704 Si02
#       7
#     4   4   4   4   4   4   4
#     4  11  23  38  61  89 117 157 202 241 295 358
#     4  11  22  40  64  88 116 156 203 243 290 357
#     4  10  21  34  58  85 122 150 193 250 292 345
#     4  11  21  38  61  88 118 154 201 245 295 351
#     4   9  20  38  60  83 115 157 200 241 293 358
#     4  10  19  37  55  85 118 154 189 245 299 340
#     4  10  22  39  59  85 121 154 190 245 302 348
#
# _framework density 22.376369
#
# number of rings (size 3 to 8) (size 9 to 14) (size 15 to 20)
#    0.000    1.714    2.857    1.714    2.000    1.714 
#    0.000    2.857    0.000    0.000    0.000    0.000 
#    0.000    0.000    0.000    0.000    0.000    0.000 
#
# Total GULP energy -155927.143048 kJ/mol
# GULP energy per Si atom -5568.826537 kJ/mol
# Density = 2.232544 g / cm^3
# Si number density = 22.376369 Si / 1000 Ang^3
#
#
#
# Elastic Constant Matrix: (Units=GPa)
#
#
# Indices 1 2 3 4 5 6 
#
# 1 84.6088 11.4714 5.2401 0.0000 -14.6235 0.0000
# 2 11.4714 63.1399 5.6655 0.0000 1.1197 0.0000
# 3 5.2401 5.6655 35.3012 0.0000 -6.6302 0.0000
# 4 0.0000 0.0000 0.0000 7.8560 0.0000 -2.7075
# 5 -14.6235 1.1197 -6.6302 0.0000 31.8592 0.0000
# 6 0.0000 0.0000 0.0000 -2.7075 0.0000 31.9363
#
#
#
# Elastic Compliance Matrix: (Units=1/GPa)
#
#
# Indices 1 2 3 4 5 6 
#
# 1 0.013230 -0.002473 -0.000427 0.000000 0.006071 0.000000
# 2 -0.002473 0.016572 -0.002721 0.000000 -0.002284 0.000000
# 3 -0.000427 -0.002721 0.029981 0.000000 0.006139 0.000000
# 4 0.000000 0.000000 0.000000 0.131123 0.000000 0.011116
# 5 0.006071 -0.002284 0.006139 0.000000 0.035533 0.000000
# 6 0.000000 0.000000 0.000000 0.011116 0.000000 0.032255
#
#
# Mechanical properties :
#
#
# Convention : Reuss Voigt Hill
#
# Bulk Modulus (GPa) = 20.60148 25.31155 22.95652
# Shear Modulus (GPa) = 17.47546 25.04181 21.25863
#
# Velocity S-wave (km/s) = 2.79763 3.34895 3.08563
# Velocity P-wave (km/s) = 4.43424 5.12740 4.79337
#
# Compressibility (1/GPa) = 0.04854019
#
# Stress axis : x y z
#
# Youngs Moduli (GPa) = 75.58539 60.34332 33.35463
#
# Poissons Ratio (x) = 0.14923 0.01423
# Poissons Ratio (y) = 0.18693 0.09077
# Poissons Ratio (z) = 0.03226 0.16422
#
# Static dielectric constant tensor:
#      x y z
#    x 1.894010 0.000000 -0.006570 
#    y 0.000000 1.838430 0.000000 
#    z -0.006570 0.000000 1.872370 
# 
# From -- ./inp_files/23042.got.cif
#   From: 2010.05.17/outbox.cif.g08.bks.cpg/sg11_12_cif.got.tgz:23042.got - 2010.06.03 12:22:45.
