data_PCOD9160013
_publ_section_title
;
Structure prediction by ZEFSAII (Michael W. Deem and Ramdas Pophale) SiO2 
 PCOD9160013
Probable space group: P 21/M
;
_chemical_formula_sum "Si O2"
_cell_formula_units_Z 28
_cell_length_a 14.465153
_cell_length_b 8.333693
_cell_length_c 12.823028
_cell_angle_alpha 90.000000
_cell_angle_beta 55.977114
_cell_angle_gamma 90.000000
_cell_volume 1281.174465
_symmetry_space_group_name_H-M "P 21/M"
_symmetry_group_IT_number 11
_symmetry_cell_setting 'monoclinic'
loop_
_space_group_symop_operation_xyz
x,y,z
-x,1/2+y,-z
-x,-y,-z
x,1/2-y,z
loop_
_atom_site_type_symbol
_atom_site_label
_atom_site_fract_x
_atom_site_fract_y
_atom_site_fract_z
Si Si1 0.539924 0.566438 0.866567
Si Si2 0.264746 0.060099 0.503748
Si Si3 0.778516 0.059431 0.691038
Si Si4 0.127589 0.944707 0.151195
Si Si5 0.742565 0.438762 0.125529
Si Si6 0.106871 0.056294 0.795671
Si Si7 0.509730 0.932095 0.319905
O O1 0.504841 0.750000 0.870201
O O2 0.672136 0.549761 0.782379
O O3 0.499962 0.453939 0.798591
O O4 0.500000 0.500000 0.000000
O O5 0.255314 0.250000 0.491874
O O6 0.198465 0.018708 0.649496
O O7 0.206326 0.974014 0.441315
O O8 0.397075 0.020107 0.429285
O O9 0.752920 0.250000 0.717928
O O10 0.862632 0.017707 0.731956
O O11 0.127736 0.750000 0.145800
O O12 0.011888 0.998954 0.173614
O O13 0.229008 0.997767 0.010500
O O14 0.723108 0.250000 0.131479
O O15 0.851886 0.475837 0.124546
O O16 0.636053 0.509074 0.254458
O O17 0.104310 0.250000 0.811435
O O18 0.500755 0.750000 0.360360
#
# Coordination Sequence:
#
# PCOD9160013 Si02
#       7
#     4   4   4   4   4   4   4
#     4  11  20  32  51  79 115 151 190 235 286 343
#     4  10  21  38  59  85 118 153 191 237 287 342
#     4  10  19  34  57  83 114 151 190 234 286 344
#     4   9  20  38  60  86 116 151 189 236 291 342
#     4  11  22  38  61  88 117 149 191 241 292 345
#     4  10  22  41  61  82 114 155 196 238 286 340
#     4  11  22  37  58  83 114 151 191 237 289 346
#
# _framework density 21.854946999999999
#
# number of rings (size 3 to 8) (size 9 to 14) (size 15 to 20)
#    0.000    1.714    0.000    6.857    0.000    3.429 
#    0.000    4.286    0.000    0.000    0.000    0.000 
#    0.000    0.000    0.000    0.000    0.000    0.000 
#
# Total GULP energy -156254.607286 kJ/mol
# GULP energy per Si atom -5580.521689 kJ/mol
# Density = 2.180520 g / cm^3
# Si number density = 21.854947 Si / 1000 Ang^3
#
#
#
# Elastic Constant Matrix: (Units=GPa)
#
#
# Indices 1 2 3 4 5 6 
#
# 1 97.6509 7.8012 -0.6084 0.0000 -13.7226 0.0000
# 2 7.8012 41.0387 8.8461 0.0000 2.1315 0.0000
# 3 -0.6084 8.8461 60.2676 0.0000 -11.1614 0.0000
# 4 0.0000 0.0000 0.0000 15.6984 0.0000 0.4200
# 5 -13.7226 2.1315 -11.1614 0.0000 14.9785 0.0000
# 6 0.0000 0.0000 0.0000 0.4200 0.0000 25.4888
#
#
#
# Elastic Compliance Matrix: (Units=1/GPa)
#
#
# Indices 1 2 3 4 5 6 
#
# 1 0.012636 -0.003902 0.003419 0.000000 0.014680 0.000000
# 2 -0.003902 0.027085 -0.006254 0.000000 -0.012089 0.000000
# 3 0.003419 -0.006254 0.021218 0.000000 0.019833 0.000000
# 4 0.000000 0.000000 0.000000 0.063729 0.000000 -0.001050
# 5 0.014680 -0.012089 0.019833 0.000000 0.096711 0.000000
# 6 0.000000 0.000000 0.000000 -0.001050 0.000000 0.039250
#
#
# Mechanical properties :
#
#
# Convention : Reuss Voigt Hill
#
# Bulk Modulus (GPa) = 21.06737 25.67054 23.36896
# Shear Modulus (GPa) = 17.24590 23.42770 20.33680
#
# Velocity S-wave (km/s) = 2.81215 3.27764 3.05378
# Velocity P-wave (km/s) = 4.49498 5.10835 4.81145
#
# Compressibility (1/GPa) = 0.04746677
#
# Stress axis : x y z
#
# Youngs Moduli (GPa) = 79.13595 36.92111 47.12942
#
# Poissons Ratio (x) = 0.14405 -0.16113
# Poissons Ratio (y) = 0.30875 0.29473
# Poissons Ratio (z) = -0.27056 0.23089
#
# Static dielectric constant tensor:
#      x y z
#    x 1.841290 0.000000 -0.042230 
#    y 0.000000 1.749300 0.000000 
#    z -0.042230 0.000000 1.767880 
# 
# From -- ./inp_files/51576.got.cif
#   From: 2010.05.17/outbox.cif.g08.bks.cpg/sg11_26_cif.got.tgz:51576.got - 2010.06.03 12:22:45.
