data_PCOD9160628
_publ_section_title
;
Structure prediction by ZEFSAII (Michael W. Deem and Ramdas Pophale) SiO2 
 PCOD9160628
Probable space group: P 21/M
;
_chemical_formula_sum "Si O2"
_cell_formula_units_Z 28
_cell_length_a 32.058013
_cell_length_b 8.537028
_cell_length_c 32.058014
_cell_angle_alpha 90.000000
_cell_angle_beta 9.429970
_cell_angle_gamma 90.000000
_cell_volume 1437.491013
_symmetry_space_group_name_H-M "P 21/M"
_symmetry_group_IT_number 11
_symmetry_cell_setting 'monoclinic'
loop_
_space_group_symop_operation_xyz
x,y,z
-x,1/2+y,-z
-x,-y,-z
x,1/2-y,z
loop_
_atom_site_type_symbol
_atom_site_label
_atom_site_fract_x
_atom_site_fract_y
_atom_site_fract_z
Si Si1 0.761632 0.937391 0.261631
Si Si2 0.046906 0.561008 0.546928
Si Si3 0.808905 0.062535 0.308953
Si Si4 0.095309 0.559645 0.595310
Si Si5 0.667888 0.062999 0.167838
Si Si6 0.379361 0.059692 0.879360
Si Si7 0.476348 0.562653 0.976326
O O1 0.761247 0.750000 0.261246
O O2 0.500000 0.000000 0.500000
O O3 0.785434 0.996815 0.285435
O O4 0.000000 0.000000 0.000000
O O5 0.046270 0.750000 0.546286
O O6 0.071191 0.509382 0.571196
O O7 0.285739 0.499090 0.285143
O O8 0.785111 0.499093 0.785773
O O9 0.808331 0.250000 0.308403
O O10 0.570841 0.003572 0.570931
O O11 0.070875 0.003583 0.070902
O O12 0.095011 0.750000 0.595011
O O13 0.358610 0.511046 0.356940
O O14 0.856940 0.511047 0.858610
O O15 0.669376 0.250000 0.169299
O O16 0.643762 0.009963 0.143760
O O17 0.377720 0.250000 0.877716
O O18 0.476553 0.750000 0.976536
O O19 0.500000 0.500000 0.000000
#
# Coordination Sequence:
#
# PCOD9160628 Si02
#       7
#     4   4   4   4   4   4   4
#     4  12  25  44  67  96 130 167 208 257 310 369
#     4  11  22  41  66  93 122 160 205 254 305 364
#     4  12  25  44  67  93 124 167 213 257 308 371
#     4   9  19  35  60  88 118 156 203 248 297 360
#     4  12  25  42  63  94 129 164 205 260 317 366
#     4  10  19  36  60  88 119 160 206 248 294 362
#     4  12  25  42  62  90 124 162 203 252 307 366
#
# _framework density 19.478382
#
# number of rings (size 3 to 8) (size 9 to 14) (size 15 to 20)
#    0.000    0.857    0.000    8.571    0.000    3.429 
#    0.000    4.286    0.000    0.000    0.000    0.000 
#    0.000    0.000    0.000    0.000    0.000    0.000 
#
# Total GULP energy -156764.305288 kJ/mol
# GULP energy per Si atom -5598.725189 kJ/mol
# Density = 1.943405 g / cm^3
# Si number density = 19.478382 Si / 1000 Ang^3
#
#
#
# Elastic Constant Matrix: (Units=GPa)
#
#
# Indices 1 2 3 4 5 6 
#
# 1 243.1152 81.1565 147.5646 0.0000 0.1815 0.0000
# 2 81.1565 161.3650 81.4952 0.0000 -0.0252 0.0000
# 3 147.5646 81.4952 247.5282 0.0000 -0.5753 0.0000
# 4 0.0000 0.0000 0.0000 33.5944 0.0000 0.2905
# 5 0.1815 -0.0252 -0.5753 0.0000 46.7929 0.0000
# 6 0.0000 0.0000 0.0000 0.2905 0.0000 36.8885
#
#
#
# Elastic Compliance Matrix: (Units=1/GPa)
#
#
# Indices 1 2 3 4 5 6 
#
# 1 0.006791 -0.001644 -0.003507 0.000000 -0.000070 0.000000
# 2 -0.001644 0.007831 -0.001598 0.000000 -0.000009 0.000000
# 3 -0.003507 -0.001598 0.006657 0.000000 0.000095 0.000000
# 4 0.000000 0.000000 0.000000 0.029769 0.000000 -0.000234
# 5 -0.000070 -0.000009 0.000095 0.000000 0.021372 0.000000
# 6 0.000000 0.000000 0.000000 -0.000234 0.000000 0.027111
#
#
# Mechanical properties :
#
#
# Convention : Reuss Voigt Hill
#
# Bulk Modulus (GPa) = 128.53230 141.38236 134.95733
# Shear Modulus (GPa) = 43.24369 46.24130 44.74249
#
# Velocity S-wave (km/s) = 4.71689 4.87764 4.79794
# Velocity P-wave (km/s) = 9.78753 10.22074 10.00648
#
# Compressibility (1/GPa) = 0.00778015
#
# Stress axis : x y z
#
# Youngs Moduli (GPa) = 147.25265 127.69503 150.21197
#
# Poissons Ratio (x) = 0.20995 0.52685
# Poissons Ratio (y) = 0.24210 0.24006
# Poissons Ratio (z) = 0.51647 0.20408
#
# Static dielectric constant tensor:
#      x y z
#    x 1.640430 0.000000 -0.000120 
#    y 0.000000 1.659910 0.000000 
#    z -0.000120 0.000000 1.641800 
# 
# From -- ./inp_files/73838.got.cif
#   From: 2010.05.17/outbox.cif.g08.bks.cpg/sg11_37_cif.got.tgz:73838.got - 2010.06.03 12:22:45.
