data_PCOD9160875
_publ_section_title
;
Structure prediction by ZEFSAII (Michael W. Deem and Ramdas Pophale) SiO2 
 PCOD9160875
Probable space group: P 21/M
;
_chemical_formula_sum "Si O2"
_cell_formula_units_Z 32
_cell_length_a 31.258627
_cell_length_b 8.514522
_cell_length_c 13.318016
_cell_angle_alpha 90.000000
_cell_angle_beta 152.240062
_cell_angle_gamma 90.000000
_cell_volume 1650.970694
_symmetry_space_group_name_H-M "P 21/M"
_symmetry_group_IT_number 11
_symmetry_cell_setting 'monoclinic'
loop_
_space_group_symop_operation_xyz
x,y,z
-x,1/2+y,-z
-x,-y,-z
x,1/2-y,z
loop_
_atom_site_type_symbol
_atom_site_label
_atom_site_fract_x
_atom_site_fract_y
_atom_site_fract_z
Si Si1 0.109581 0.937962 0.423095
Si Si2 0.776016 0.560001 0.929666
Si Si3 0.101260 0.058739 0.003909
Si Si4 0.770078 0.939709 0.143563
Si Si5 0.558157 0.939360 0.715200
Si Si6 0.595590 0.062558 0.454795
Si Si7 0.792478 0.940238 0.573021
Si Si8 0.402367 0.436385 0.762769
O O1 0.108253 0.750000 0.416861
O O2 0.004056 0.994124 0.210986
O O3 0.167018 0.992044 0.638778
O O4 0.156715 0.999821 0.419821
O O5 0.767737 0.750000 0.908436
O O6 0.677245 0.488047 0.698212
O O7 0.846389 0.509418 0.988793
O O8 0.802175 0.517422 0.097670
O O9 0.101751 0.250000 0.004641
O O10 0.155705 0.009381 0.217155
O O11 0.771447 0.750000 0.154287
O O12 0.663718 0.991920 0.933911
O O13 0.558813 0.750000 0.711098
O O14 0.501194 0.984198 0.696222
O O15 0.500000 0.000000 0.500000
O O16 0.596167 0.250000 0.442613
O O17 0.611937 0.981288 0.382691
O O18 0.793197 0.750000 0.572719
O O19 0.686546 0.994000 0.360367
O O20 0.404355 0.250000 0.776838
O O21 0.500000 0.500000 0.000000
#
# Coordination Sequence:
#
# PCOD9160875 Si02
#       8
#     4   4   4   4   4   4   4   4
#     4  11  24  39  59  88 122 154 194 251 303 349
#     4  10  19  38  65  87 114 159 205 243 292 354
#     4   9  19  39  64  89 114 149 197 250 303 352
#     4  10  22  39  59  85 120 161 201 238 290 361
#     4  10  21  36  57  84 115 153 194 235 280 338
#     4  11  22  36  57  89 123 153 193 245 293 349
#     4  10  21  41  66  86 115 157 198 240 293 358
#     4  11  24  41  62  88 120 158 195 239 294 352
#
# _framework density 19.382536000000002
#
# number of rings (size 3 to 8) (size 9 to 14) (size 15 to 20)
#    0.000    1.750    2.500    1.500    1.750    3.000 
#    0.000    1.875    0.000    0.000    0.000    0.000 
#    0.000    0.000    0.000    0.000    0.000    0.000 
#
# Total GULP energy -178758.051725 kJ/mol
# GULP energy per Si atom -5586.189116 kJ/mol
# Density = 1.933842 g / cm^3
# Si number density = 19.382536 Si / 1000 Ang^3
#
#
#
# Elastic Constant Matrix: (Units=GPa)
#
#
# Indices 1 2 3 4 5 6 
#
# 1 162.7500 25.1852 83.5365 0.0000 9.5291 0.0000
# 2 25.1852 13.1475 23.4432 0.0000 6.5630 0.0000
# 3 83.5365 23.4432 143.7542 0.0000 15.3675 0.0000
# 4 0.0000 0.0000 0.0000 27.7989 0.0000 -0.1177
# 5 9.5291 6.5630 15.3675 0.0000 24.4345 0.0000
# 6 0.0000 0.0000 0.0000 -0.1177 0.0000 17.5714
#
#
#
# Elastic Compliance Matrix: (Units=1/GPa)
#
#
# Indices 1 2 3 4 5 6 
#
# 1 0.010108 -0.013460 -0.003906 0.000000 0.002130 0.000000
# 2 -0.013460 0.134172 -0.011544 0.000000 -0.023529 0.000000
# 3 -0.003906 -0.011544 0.011380 0.000000 -0.002533 0.000000
# 4 0.000000 0.000000 0.000000 0.035974 0.000000 0.000241
# 5 0.002130 -0.023529 -0.002533 0.000000 0.048008 0.000000
# 6 0.000000 0.000000 0.000000 0.000241 0.000000 0.056912
#
#
# Mechanical properties :
#
#
# Convention : Reuss Voigt Hill
#
# Bulk Modulus (GPa) = 10.22083 64.88686 37.55384
# Shear Modulus (GPa) = 12.92035 26.46008 19.69022
#
# Velocity S-wave (km/s) = 2.58466 3.69880 3.19074
# Velocity P-wave (km/s) = 3.76722 7.19661 5.74383
#
# Compressibility (1/GPa) = 0.09783945
#
# Stress axis : x y z
#
# Youngs Moduli (GPa) = 98.93544 7.45310 87.87686
#
# Poissons Ratio (x) = 0.10032 0.34327
# Poissons Ratio (y) = 1.33169 1.01442
# Poissons Ratio (z) = 0.38647 0.08604
#
# Static dielectric constant tensor:
#      x y z
#    x 1.734160 0.000000 -0.044300 
#    y 0.000000 1.661670 0.000000 
#    z -0.044300 0.000000 1.717220 
# 
# From -- ./inp_files/45257.got.cif
#   From: 2010.05.17/outbox.cif.g08.bks.cpg/sg11_23_cif.got.tgz:45257.got - 2010.06.03 12:22:45.
