data_PCOD9160656
_publ_section_title
;
Structure prediction by ZEFSAII (Michael W. Deem and Ramdas Pophale) SiO2 
 PCOD9160656
Probable space group: P 21/M
;
_chemical_formula_sum "Si O2"
_cell_formula_units_Z 24
_cell_length_a 10.625173
_cell_length_b 25.758505
_cell_length_c 4.877493
_cell_angle_alpha 90.000000
_cell_angle_beta 57.365231
_cell_angle_gamma 90.000000
_cell_volume 1124.164928
_symmetry_space_group_name_H-M "P 21/M"
_symmetry_group_IT_number 11
_symmetry_cell_setting 'monoclinic'
loop_
_space_group_symop_operation_xyz
x,y,z
-x,1/2+y,-z
-x,-y,-z
x,1/2-y,z
loop_
_atom_site_type_symbol
_atom_site_label
_atom_site_fract_x
_atom_site_fract_y
_atom_site_fract_z
Si Si1 0.211382 0.941434 0.172281
Si Si2 0.537221 0.591997 0.892338
Si Si3 0.969059 0.090398 0.132063
Si Si4 0.922532 0.808501 0.745691
Si Si5 0.713193 0.691157 0.495788
Si Si6 0.299848 0.048379 0.780719
O O1 0.107517 0.948689 0.560269
O O2 0.359787 0.912070 0.096480
O O3 0.118061 0.911582 0.049325
O O4 0.263247 0.994123 0.965490
O O5 0.596642 0.646488 0.703554
O O6 0.603458 0.547968 0.609069
O O7 0.608263 0.581583 0.104540
O O8 0.969677 0.146620 0.275215
O O9 0.141091 0.074237 0.895155
O O10 0.983786 0.750000 0.691931
O O11 0.858507 0.817801 0.518173
O O12 0.776606 0.810450 0.114236
O O13 0.660008 0.750000 0.614753
#
# Coordination Sequence:
#
# PCOD9160656 Si02
#       6
#     4   4   4   4   4   4
#     4  12  26  38  59  92 129 158 192 254 304 352
#     4  12  22  41  61  89 119 159 203 248 299 351
#     4  12  22  41  60  89 122 156 201 247 302 349
#     4  10  20  37  63  88 112 152 203 247 290 353
#     4  10  19  36  61  88 110 148 202 250 289 347
#     4  12  23  41  64  84 120 167 213 234 286 362
#
# _framework density 21.349181999999999
#
# number of rings (size 3 to 8) (size 9 to 14) (size 15 to 20)
#    0.000    0.667    3.333    6.000    0.000    0.000 
#    0.000    1.667    0.000    0.000    0.000    0.000 
#    0.000    0.000    0.000    0.000    0.000    0.000 
#
# Total GULP energy -134345.710341 kJ/mol
# GULP energy per Si atom -5597.737931 kJ/mol
# Density = 2.130059 g / cm^3
# Si number density = 21.349182 Si / 1000 Ang^3
#
#
#
# Elastic Constant Matrix: (Units=GPa)
#
#
# Indices 1 2 3 4 5 6 
#
# 1 128.9274 19.9736 33.3334 0.0000 -8.8207 0.0000
# 2 19.9736 74.0632 -27.8329 0.0000 -7.8228 0.0000
# 3 33.3334 -27.8329 53.3619 0.0000 5.6997 0.0000
# 4 0.0000 0.0000 0.0000 22.6062 0.0000 9.4068
# 5 -8.8207 -7.8228 5.6997 0.0000 33.2025 0.0000
# 6 0.0000 0.0000 0.0000 9.4068 0.0000 17.6998
#
#
#
# Elastic Compliance Matrix: (Units=1/GPa)
#
#
# Indices 1 2 3 4 5 6 
#
# 1 0.012202 -0.007367 -0.011843 0.000000 0.003539 0.000000
# 2 -0.007367 0.021448 0.015747 0.000000 0.000393 0.000000
# 3 -0.011843 0.015747 0.034931 0.000000 -0.005433 0.000000
# 4 0.000000 0.000000 0.000000 0.056796 0.000000 -0.030185
# 5 0.003539 0.000393 -0.005433 0.000000 0.032084 0.000000
# 6 0.000000 0.000000 0.000000 -0.030185 0.000000 0.072540
#
#
# Mechanical properties :
#
#
# Convention : Reuss Voigt Hill
#
# Bulk Modulus (GPa) = 16.21906 34.14452 25.18179
# Shear Modulus (GPa) = 19.41913 30.09357 24.75635
#
# Velocity S-wave (km/s) = 3.01922 3.75852 3.40897
# Velocity P-wave (km/s) = 4.44610 5.90452 5.22643
#
# Compressibility (1/GPa) = 0.06165586
#
# Stress axis : x y z
#
# Youngs Moduli (GPa) = 81.95669 46.62421 28.62751
#
# Poissons Ratio (x) = 0.34349 0.33902
# Poissons Ratio (y) = 0.60379 -0.45080
# Poissons Ratio (z) = 0.97058 -0.73420
#
# Static dielectric constant tensor:
#      x y z
#    x 1.738110 0.000000 0.008670 
#    y 0.000000 1.832210 0.000000 
#    z 0.008670 0.000000 1.749130 
# 
# From -- ./inp_files/5557.got.cif
#   From: 2010.05.17/outbox.cif.g08.bks.cpg/sg11_3_cif.got.tgz:5557.got - 2010.06.03 12:22:45.
