data_PCOD9160439
_publ_section_title
;
Structure prediction by ZEFSAII (Michael W. Deem and Ramdas Pophale) SiO2 
 PCOD9160439
Probable space group: P 21/M
;
_chemical_formula_sum "Si O2"
_cell_formula_units_Z 28
_cell_length_a 8.838966
_cell_length_b 11.507223
_cell_length_c 15.016134
_cell_angle_alpha 90.000000
_cell_angle_beta 60.454862
_cell_angle_gamma 90.000000
_cell_volume 1328.719021
_symmetry_space_group_name_H-M "P 21/M"
_symmetry_group_IT_number 11
_symmetry_cell_setting 'monoclinic'
loop_
_space_group_symop_operation_xyz
x,y,z
-x,1/2+y,-z
-x,-y,-z
x,1/2-y,z
loop_
_atom_site_type_symbol
_atom_site_label
_atom_site_fract_x
_atom_site_fract_y
_atom_site_fract_z
Si Si1 0.790889 0.381055 0.296065
Si Si2 0.221996 0.380904 0.926639
Si Si3 0.212233 0.383085 0.389970
Si Si4 0.942064 0.036597 0.870648
Si Si5 0.546761 0.430733 0.198469
Si Si6 0.405891 0.624274 0.011728
Si Si7 0.203550 0.616591 0.506173
O O1 0.859711 0.250000 0.268930
O O2 0.650435 0.396545 0.257901
O O3 0.720650 0.394614 0.416180
O O4 0.946822 0.470297 0.234663
O O5 0.243691 0.250000 0.941749
O O6 0.399376 0.437063 0.837836
O O7 0.079708 0.394789 0.890399
O O8 0.143862 0.445211 0.035344
O O9 0.244565 0.250000 0.416618
O O10 0.346654 0.399338 0.269602
O O11 0.249982 0.499403 0.438036
O O12 0.007953 0.386034 0.426140
O O13 0.780209 0.112128 0.886755
O O14 0.620340 0.372041 0.087907
O O15 0.484615 0.750000 0.011658
O O16 0.500000 0.500000 0.000000
O O17 0.246761 0.750000 0.461093
#
# Coordination Sequence:
#
# PCOD9160439 Si02
#       7
#     4   4   4   4   4   4   4
#     4  10  19  35  60  88 114 150 198 240 283 343
#     4   9  17  32  53  81 114 149 191 236 285 334
#     4  10  20  39  62  83 115 154 190 235 293 351
#     4   9  19  32  53  78 111 153 191 233 280 337
#     4  10  22  37  59  86 115 153 194 240 291 346
#     4  11  24  39  56  83 119 157 198 240 286 341
#     4   9  21  38  60  87 114 147 194 242 288 346
#
# _framework density 21.072928999999998
#
# number of rings (size 3 to 8) (size 9 to 14) (size 15 to 20)
#    0.000    2.286    0.000    3.000    2.000    4.000 
#    0.000    3.571    0.000    0.000    0.000    0.000 
#    0.000    0.000    0.000    0.000    0.000    0.000 
#
# Total GULP energy -155943.479790 kJ/mol
# GULP energy per Si atom -5569.409993 kJ/mol
# Density = 2.102497 g / cm^3
# Si number density = 21.072929 Si / 1000 Ang^3
#
#
#
# Elastic Constant Matrix: (Units=GPa)
#
#
# Indices 1 2 3 4 5 6 
#
# 1 38.1602 24.3847 -4.3998 0.0000 3.4118 0.0000
# 2 24.3847 150.1318 16.6403 0.0000 1.3951 0.0000
# 3 -4.3998 16.6403 25.4478 0.0000 -3.8524 0.0000
# 4 0.0000 0.0000 0.0000 -21.6085 0.0000 -14.8420
# 5 3.4118 1.3951 -3.8524 0.0000 33.6578 0.0000
# 6 0.0000 0.0000 0.0000 -14.8420 0.0000 1.0435
#
#
#
# Elastic Compliance Matrix: (Units=1/GPa)
#
#
# Indices 1 2 3 4 5 6 
#
# 1 0.031305 -0.006076 0.009101 0.000000 -0.001880 0.000000
# 2 -0.006076 0.008385 -0.006607 0.000000 -0.000488 0.000000
# 3 0.009101 -0.006607 0.045887 0.000000 0.004603 0.000000
# 4 0.000000 0.000000 0.000000 -0.004297 0.000000 -0.061120
# 5 -0.001880 -0.000488 0.004603 0.000000 0.030448 0.000000
# 6 0.000000 0.000000 0.000000 -0.061120 0.000000 0.088985
#
#
# Mechanical properties :
#
#
# Convention : Reuss Voigt Hill
#
# Bulk Modulus (GPa) = 12.75302 31.88779 22.32041
# Shear Modulus (GPa) = 21.36617 14.42619 17.89618
#
# Velocity S-wave (km/s) = 3.18766 2.61929 2.91735
# Velocity P-wave (km/s) = 4.42868 4.93078 4.68646
#
# Compressibility (1/GPa) = 0.07841280
#
# Stress axis : x y z
#
# Youngs Moduli (GPa) = 31.94350 119.26747 21.79277
#
# Poissons Ratio (x) = 0.72466 -0.19834
# Poissons Ratio (y) = 0.19409 0.14398
# Poissons Ratio (z) = -0.29072 0.78800
#
# Static dielectric constant tensor:
#      x y z
#    x 1.824360 0.000000 0.022650 
#    y 0.000000 1.821140 0.000000 
#    z 0.022650 0.000000 1.722920 
# 
# From -- ./inp_files/47133.got.cif
#   From: 2010.05.17/outbox.cif.g08.bks.cpg/sg11_24_cif.got.tgz:47133.got - 2010.06.03 12:22:45.
