data_PCOD9160475
_publ_section_title
;
Structure prediction by ZEFSAII (Michael W. Deem and Ramdas Pophale) SiO2 
 PCOD9160475
Probable space group: P 21/M
;
_chemical_formula_sum "Si O2"
_cell_formula_units_Z 32
_cell_length_a 19.792254
_cell_length_b 18.057794
_cell_length_c 14.185435
_cell_angle_alpha 90.000000
_cell_angle_beta 160.916204
_cell_angle_gamma 90.000000
_cell_volume 1657.619330
_symmetry_space_group_name_H-M "P 21/M"
_symmetry_group_IT_number 11
_symmetry_cell_setting 'monoclinic'
loop_
_space_group_symop_operation_xyz
x,y,z
-x,1/2+y,-z
-x,-y,-z
x,1/2-y,z
loop_
_atom_site_type_symbol
_atom_site_label
_atom_site_fract_x
_atom_site_fract_y
_atom_site_fract_z
Si Si1 0.132186 0.076924 0.050907
Si Si2 0.465500 0.987331 0.219877
Si Si3 0.666570 0.332540 0.936866
Si Si4 0.103030 0.336833 0.618724
Si Si5 0.924662 0.936427 0.231763
Si Si6 0.688525 0.530345 0.187652
Si Si7 0.444965 0.834657 0.416031
Si Si8 0.189702 0.576252 0.224329
O O1 0.360109 0.111933 0.345945
O O2 0.136409 0.988732 0.079092
O O3 0.032550 0.091937 0.817213
O O4 0.001681 0.106601 0.967876
O O5 0.666952 0.032917 0.511229
O O6 0.489864 0.899401 0.251436
O O7 0.286572 0.015768 0.054680
O O8 0.369197 0.006015 0.993040
O O9 0.588809 0.250000 0.856381
O O10 0.698962 0.335824 0.866841
O O11 0.875458 0.344875 0.271600
O O12 0.151535 0.250000 0.688257
O O13 0.101822 0.374405 0.721369
O O14 0.258245 0.383003 0.755938
O O15 0.105271 0.990074 0.505085
O O16 0.500000 0.500000 0.000000
O O17 0.516812 0.750000 0.523315
O O18 0.320512 0.862964 0.341969
#
# Coordination Sequence:
#
# PCOD9160475 Si02
#       8
#     4   4   4   4   4   4   4   4
#     4  11  23  38  63  91 122 158 207 250 302 359
#     4  11  18  38  62  85 115 155 204 246 296 355
#     4  10  19  35  62  88 113 151 197 245 302 358
#     4  10  21  39  61  87 117 157 204 252 306 364
#     4  11  20  37  62  87 114 161 203 250 302 363
#     4  11  22  36  57  89 122 155 202 254 302 365
#     4  11  23  40  62  87 122 162 197 248 307 362
#     4  11  23  39  62  91 120 159 207 255 295 362
#
# _framework density 19.304794999999999
#
# number of rings (size 3 to 8) (size 9 to 14) (size 15 to 20)
#    0.000    1.250    5.000    2.625    0.000    1.000 
#    0.000    1.250    0.000    1.500    0.000    0.000 
#    0.000    0.000    0.000    0.000    0.000    0.000 
#
# Total GULP energy -178451.708790 kJ/mol
# GULP energy per Si atom -5576.615900 kJ/mol
# Density = 1.926086 g / cm^3
# Si number density = 19.304795 Si / 1000 Ang^3
#
#
#
# Elastic Constant Matrix: (Units=GPa)
#
#
# Indices 1 2 3 4 5 6 
#
# 1 104.6982 37.3127 27.4591 0.0000 4.9823 0.0000
# 2 37.3127 100.9081 15.5413 0.0000 0.4605 0.0000
# 3 27.4591 15.5413 57.9249 0.0000 -8.2121 0.0000
# 4 0.0000 0.0000 0.0000 16.9108 0.0000 -4.5984
# 5 4.9823 0.4605 -8.2121 0.0000 38.1185 0.0000
# 6 0.0000 0.0000 0.0000 -4.5984 0.0000 20.3994
#
#
#
# Elastic Compliance Matrix: (Units=1/GPa)
#
#
# Indices 1 2 3 4 5 6 
#
# 1 0.012399 -0.003763 -0.005251 0.000000 -0.002706 0.000000
# 2 -0.003763 0.011500 -0.001291 0.000000 0.000075 0.000000
# 3 -0.005251 -0.001291 0.020835 0.000000 0.005191 0.000000
# 4 0.000000 0.000000 0.000000 0.062995 0.000000 0.014200
# 5 -0.002706 0.000075 0.005191 0.000000 0.027705 0.000000
# 6 0.000000 0.000000 0.000000 0.014200 0.000000 0.052222
#
#
# Mechanical properties :
#
#
# Convention : Reuss Voigt Hill
#
# Bulk Modulus (GPa) = 41.45490 47.12859 44.29175
# Shear Modulus (GPa) = 23.11514 27.30028 25.20771
#
# Velocity S-wave (km/s) = 3.46407 3.76463 3.61747
# Velocity P-wave (km/s) = 6.12537 6.58502 6.35935
#
# Compressibility (1/GPa) = 0.02412260
#
# Stress axis : x y z
#
# Youngs Moduli (GPa) = 80.65426 86.95587 47.99521
#
# Poissons Ratio (x) = 0.32726 0.25205
# Poissons Ratio (y) = 0.30354 0.06195
# Poissons Ratio (z) = 0.42355 0.11224
#
# Static dielectric constant tensor:
#      x y z
#    x 1.563910 0.000000 -0.027700 
#    y 0.000000 1.781900 0.000000 
#    z -0.027700 0.000000 1.682700 
# 
# From -- ./inp_files/55117.got.cif
#   From: 2010.05.17/outbox.cif.g08.bks.cpg/sg11_28_cif.got.tgz:55117.got - 2010.06.03 12:22:45.
