data_PCOD9160702
_publ_section_title
;
Structure prediction by ZEFSAII (Michael W. Deem and Ramdas Pophale) SiO2 
 PCOD9160702
Probable space group: P 21/M
;
_chemical_formula_sum "Si O2"
_cell_formula_units_Z 20
_cell_length_a 9.643791
_cell_length_b 12.334982
_cell_length_c 6.672130
_cell_angle_alpha 90.000000
_cell_angle_beta 109.869241
_cell_angle_gamma 90.000000
_cell_volume 746.442038
_symmetry_space_group_name_H-M "P 21/M"
_symmetry_group_IT_number 11
_symmetry_cell_setting 'monoclinic'
loop_
_space_group_symop_operation_xyz
x,y,z
-x,1/2+y,-z
-x,-y,-z
x,1/2-y,z
loop_
_atom_site_type_symbol
_atom_site_label
_atom_site_fract_x
_atom_site_fract_y
_atom_site_fract_z
Si Si1 0.857144 0.973058 0.555071
Si Si2 0.227099 0.513254 0.045178
Si Si3 0.847882 0.750000 0.076764
Si Si4 0.546626 0.024857 0.291719
Si Si5 0.171858 0.750000 0.067024
Si Si6 0.762568 0.750000 0.489314
Si Si7 0.561117 0.250000 0.471611
O O1 0.828474 0.031131 0.750312
O O2 0.854008 0.849584 0.613097
O O3 0.710830 0.981479 0.345541
O O4 0.000000 0.000000 0.500000
O O5 0.191400 0.382264 0.995733
O O6 0.404287 0.517650 0.108582
O O7 0.177132 0.634748 0.944584
O O8 0.776991 0.750000 0.260590
O O9 0.021692 0.750000 0.122906
O O10 0.563171 0.151639 0.318492
O O11 0.500000 0.000000 0.500000
O O12 0.312416 0.750000 0.294658
O O13 0.597027 0.750000 0.491596
#
# Coordination Sequence:
#
# PCOD9160702 Si02
#       7
#     4   4   2   4   2   2   2
#     4  11  22  38  68 102 127 160 225 294 331 384
#     4  11  22  45  66  96 133 184 222 268 344 408
#     4  12  28  43  61  96 141 190 221 264 337 412
#     4  10  19  36  69  96 122 165 217 272 344 388
#     4  12  22  39  69  91 131 179 224 269 339 410
#     4  12  23  40  63  97 129 176 226 278 328 391
#     4  12  19  40  67 100 127 169 223 281 334 401
#
# _framework density 26.793776999999999
#
# number of rings (size 3 to 8) (size 9 to 14) (size 15 to 20)
#    0.000    0.800    8.000    3.000    0.000    0.000 
#    0.000    6.000    0.000    2.400    0.000    0.000 
#    0.000    0.000    0.000    0.000    0.000    0.000 
#
# Total GULP energy -111441.837500 kJ/mol
# GULP energy per Si atom -5572.091875 kJ/mol
# Density = 2.673279 g / cm^3
# Si number density = 26.793777 Si / 1000 Ang^3
#
#
#
# Elastic Constant Matrix: (Units=GPa)
#
#
# Indices 1 2 3 4 5 6 
#
# 1 266.2267 62.9196 34.2588 0.0000 3.8701 0.0000
# 2 62.9196 234.8231 25.8104 0.0000 5.6959 0.0000
# 3 34.2588 25.8104 65.8224 0.0000 1.2414 0.0000
# 4 0.0000 0.0000 0.0000 51.9832 0.0000 6.4037
# 5 3.8701 5.6959 1.2414 0.0000 46.9664 0.0000
# 6 0.0000 0.0000 0.0000 6.4037 0.0000 51.0503
#
#
#
# Elastic Compliance Matrix: (Units=1/GPa)
#
#
# Indices 1 2 3 4 5 6 
#
# 1 0.004212 -0.000923 -0.001827 0.000000 -0.000187 0.000000
# 2 -0.000923 0.004664 -0.001340 0.000000 -0.000454 0.000000
# 3 -0.001827 -0.001340 0.016671 0.000000 -0.000128 0.000000
# 4 0.000000 0.000000 0.000000 0.019539 0.000000 -0.002451
# 5 -0.000187 -0.000454 -0.000128 0.000000 0.021366 0.000000
# 6 0.000000 0.000000 0.000000 -0.002451 0.000000 0.019896
#
#
# Mechanical properties :
#
#
# Convention : Reuss Voigt Hill
#
# Bulk Modulus (GPa) = 57.57857 90.31666 73.94762
# Shear Modulus (GPa) = 49.84207 59.59220 54.71713
#
# Velocity S-wave (km/s) = 4.31769 4.72116 4.52393
# Velocity P-wave (km/s) = 6.81123 7.96871 7.41260
#
# Compressibility (1/GPa) = 0.01736757
#
# Stress axis : x y z
#
# Youngs Moduli (GPa) = 237.40547 214.39888 59.98462
#
# Poissons Ratio (x) = 0.19796 0.10958
# Poissons Ratio (y) = 0.21920 0.08037
# Poissons Ratio (z) = 0.43368 0.28725
#
# Static dielectric constant tensor:
#      x y z
#    x 2.067840 0.000000 0.013750 
#    y 0.000000 2.648910 0.000000 
#    z 0.013750 0.000000 2.338720 
# 
# From -- ./inp_files/11900.got.cif
#   From: 2010.05.17/outbox.cif.g08.bks.cpg/sg11_6_cif.got.tgz:11900.got - 2010.06.03 12:22:45.
