data_PCOD9160406
_publ_section_title
;
Structure prediction by ZEFSAII (Michael W. Deem and Ramdas Pophale) SiO2 
 PCOD9160406
Probable space group: P 21/M
;
_chemical_formula_sum "Si O2"
_cell_formula_units_Z 32
_cell_length_a 23.190787
_cell_length_b 8.496243
_cell_length_c 15.548418
_cell_angle_alpha 90.000000
_cell_angle_beta 31.746458
_cell_angle_gamma 90.000000
_cell_volume 1611.935153
_symmetry_space_group_name_H-M "P 21/M"
_symmetry_group_IT_number 11
_symmetry_cell_setting 'monoclinic'
loop_
_space_group_symop_operation_xyz
x,y,z
-x,1/2+y,-z
-x,-y,-z
x,1/2-y,z
loop_
_atom_site_type_symbol
_atom_site_label
_atom_site_fract_x
_atom_site_fract_y
_atom_site_fract_z
Si Si1 0.745496 0.938448 0.516482
Si Si2 0.055410 0.437334 0.343935
Si Si3 0.652273 0.942215 0.451621
Si Si4 0.624065 0.060983 0.840347
Si Si5 0.407375 0.560696 0.764118
Si Si6 0.015940 0.558991 0.752816
Si Si7 0.781413 0.939762 0.122266
Si Si8 0.707095 0.060844 0.920344
O O1 0.738698 0.750000 0.528609
O O2 0.685945 0.992407 0.504503
O O3 0.687761 0.004511 0.675108
O O4 0.871986 0.990170 0.353333
O O5 0.050408 0.250000 0.350834
O O6 0.997036 0.490819 0.330476
O O7 0.180714 0.490747 0.186570
O O8 0.000000 0.500000 0.500000
O O9 0.651353 0.750000 0.452872
O O10 0.528956 0.994050 0.585011
O O11 0.738178 0.993378 0.270124
O O12 0.623327 0.250000 0.841909
O O13 0.681312 0.006514 0.856601
O O14 0.500000 0.000000 0.000000
O O15 0.403201 0.750000 0.760887
O O16 0.309528 0.491870 0.831462
O O17 0.386053 0.523015 0.891643
O O18 0.021665 0.750000 0.748573
O O19 0.903878 0.507801 0.942220
O O20 0.783863 0.750000 0.118584
O O21 0.718216 0.250000 0.903715
#
# Coordination Sequence:
#
# PCOD9160406 Si02
#       8
#     4   4   4   4   4   4   4   4
#     4  11  23  40  61  86 117 157 204 246 291 351
#     4  11  22  36  55  81 112 148 190 236 288 347
#     4   9  20  38  60  85 116 155 195 241 300 352
#     4  11  23  40  61  87 120 159 198 241 292 347
#     4  10  19  35  59  87 118 148 187 241 295 353
#     4  10  22  39  57  82 119 155 192 246 301 348
#     4  10  20  38  61  85 117 155 193 240 298 356
#     4  10  21  36  56  82 115 151 188 233 288 345
#
# _framework density 19.851915999999999
#
# number of rings (size 3 to 8) (size 9 to 14) (size 15 to 20)
#    0.000    1.750    1.250    3.000    0.000    8.000 
#    0.000    3.750    0.000    0.000    0.000    0.000 
#    0.000    0.000    0.000    0.000    0.000    0.000 
#
# Total GULP energy -178782.728602 kJ/mol
# GULP energy per Si atom -5586.960269 kJ/mol
# Density = 1.980673 g / cm^3
# Si number density = 19.851916 Si / 1000 Ang^3
#
#
#
# Elastic Constant Matrix: (Units=GPa)
#
#
# Indices 1 2 3 4 5 6 
#
# 1 81.6959 10.2582 24.5439 0.0000 -3.9607 0.0000
# 2 10.2582 13.5160 17.2075 0.0000 2.5036 0.0000
# 3 24.5439 17.2075 119.8661 0.0000 -2.6927 0.0000
# 4 0.0000 0.0000 0.0000 28.0777 0.0000 -5.7282
# 5 -3.9607 2.5036 -2.6927 0.0000 38.6229 0.0000
# 6 0.0000 0.0000 0.0000 -5.7282 0.0000 25.5351
#
#
#
# Elastic Compliance Matrix: (Units=1/GPa)
#
#
# Indices 1 2 3 4 5 6 
#
# 1 0.013917 -0.008983 -0.001517 0.000000 0.001904 0.000000
# 2 -0.008983 0.098142 -0.012432 0.000000 -0.008150 0.000000
# 3 -0.001517 -0.012432 0.010469 0.000000 0.001380 0.000000
# 4 0.000000 0.000000 0.000000 0.037324 0.000000 0.008373
# 5 0.001904 -0.008150 0.001380 0.000000 0.026711 0.000000
# 6 0.000000 0.000000 0.000000 0.008373 0.000000 0.041040
#
#
# Mechanical properties :
#
#
# Convention : Reuss Voigt Hill
#
# Bulk Modulus (GPa) = 13.04435 35.45523 24.24979
# Shear Modulus (GPa) = 16.72119 29.31836 23.01977
#
# Velocity S-wave (km/s) = 2.90538 3.84715 3.40895
# Velocity P-wave (km/s) = 4.22375 6.13455 5.26654
#
# Compressibility (1/GPa) = 0.07666153
#
# Stress axis : x y z
#
# Youngs Moduli (GPa) = 71.85655 10.18935 95.51952
#
# Poissons Ratio (x) = 0.09153 0.14492
# Poissons Ratio (y) = 0.64550 1.18754
# Poissons Ratio (z) = 0.10902 0.12668
#
# Static dielectric constant tensor:
#      x y z
#    x 1.685720 0.000000 0.015740 
#    y 0.000000 1.682660 0.000000 
#    z 0.015740 0.000000 1.709500 
# 
# From -- ./inp_files/55557.got.cif
#   From: 2010.05.17/outbox.cif.g08.bks.cpg/sg11_28_cif.got.tgz:55557.got - 2010.06.03 12:22:45.
