data_PCOD9160779
_publ_section_title
;
Structure prediction by ZEFSAII (Michael W. Deem and Ramdas Pophale) SiO2 
 PCOD9160779
Probable space group: P 21/M
;
_chemical_formula_sum "Si O2"
_cell_formula_units_Z 24
_cell_length_a 20.027722
_cell_length_b 15.163285
_cell_length_c 10.977803
_cell_angle_alpha 90.000000
_cell_angle_beta 160.986356
_cell_angle_gamma 90.000000
_cell_volume 1086.131575
_symmetry_space_group_name_H-M "P 21/M"
_symmetry_group_IT_number 11
_symmetry_cell_setting 'monoclinic'
loop_
_space_group_symop_operation_xyz
x,y,z
-x,1/2+y,-z
-x,-y,-z
x,1/2-y,z
loop_
_atom_site_type_symbol
_atom_site_label
_atom_site_fract_x
_atom_site_fract_y
_atom_site_fract_z
Si Si1 0.201304 0.926601 0.458142
Si Si2 0.830996 0.250000 0.758004
Si Si3 0.963041 0.557325 0.272653
Si Si4 0.226101 0.250000 0.320479
Si Si5 0.686133 0.555048 0.000767
Si Si6 0.909061 0.750000 0.183291
Si Si7 0.442292 0.250000 0.239689
Si Si8 0.573621 0.568440 0.293756
O O1 0.211858 0.840079 0.392107
O O2 0.997879 0.938645 0.188864
O O3 0.247196 0.015404 0.464550
O O4 0.386250 0.920420 0.875108
O O5 0.685087 0.250000 0.625618
O O6 0.078549 0.250000 0.184956
O O7 0.744615 0.544169 0.959704
O O8 0.114737 0.482933 0.585387
O O9 0.013942 0.658395 0.403905
O O10 0.096246 0.250000 0.971716
O O11 0.361084 0.163701 0.552877
O O12 0.639754 0.656598 0.953377
O O13 0.505050 0.493698 0.734116
O O14 0.674320 0.750000 0.829811
#
# Coordination Sequence:
#
# PCOD9160779 Si02
#       8
#     4   2   4   2   4   2   2   4
#     4  10  19  37  62  87 114 150 190 243 298 341
#     4  12  21  37  61  84 116 161 194 235 298 349
#     4   9  17  34  59  92 111 153 196 233 291 340
#     4  12  25  40  56  87 119 160 201 234 286 353
#     4   9  18  34  60  86 119 149 196 249 284 337
#     4  10  20  38  58  81 123 160 190 234 292 359
#     4  10  20  37  57  88 116 157 199 239 298 341
#     4  10  22  38  58  89 117 150 195 248 288 344
#
# _framework density 22.096771
#
# number of rings (size 3 to 8) (size 9 to 14) (size 15 to 20)
#    0.000    2.000    3.333    0.500    0.000    2.667 
#    0.000    5.833    0.000    0.000    0.000    0.000 
#    0.000    0.000    0.000    0.000    0.000    0.000 
#
# Total GULP energy -133806.144356 kJ/mol
# GULP energy per Si atom -5575.256015 kJ/mol
# Density = 2.204648 g / cm^3
# Si number density = 22.096771 Si / 1000 Ang^3
#
#
#
# Elastic Constant Matrix: (Units=GPa)
#
#
# Indices 1 2 3 4 5 6 
#
# 1 88.2858 32.0365 21.5906 0.0000 43.5590 0.0000
# 2 32.0365 172.5668 37.1925 0.0000 16.5879 0.0000
# 3 21.5906 37.1925 34.1392 0.0000 9.0213 0.0000
# 4 0.0000 0.0000 0.0000 24.7187 0.0000 12.5234
# 5 43.5590 16.5879 9.0213 0.0000 43.3179 0.0000
# 6 0.0000 0.0000 0.0000 12.5234 0.0000 28.5434
#
#
#
# Elastic Compliance Matrix: (Units=1/GPa)
#
#
# Indices 1 2 3 4 5 6 
#
# 1 0.025261 -0.000437 -0.009346 0.000000 -0.023288 0.000000
# 2 -0.000437 0.007645 -0.007826 0.000000 -0.000859 0.000000
# 3 -0.009346 -0.007826 0.042809 0.000000 0.003480 0.000000
# 4 0.000000 0.000000 0.000000 0.052018 0.000000 -0.022823
# 5 -0.023288 -0.000859 0.003480 0.000000 0.046107 0.000000
# 6 0.000000 0.000000 0.000000 -0.022823 0.000000 0.045048
#
#
# Mechanical properties :
#
#
# Convention : Reuss Voigt Hill
#
# Bulk Modulus (GPa) = 24.69288 52.95899 38.82593
# Shear Modulus (GPa) = 18.68434 32.92748 25.80591
#
# Velocity S-wave (km/s) = 2.91102 3.86443 3.42110
# Velocity P-wave (km/s) = 4.74319 6.62802 5.76318
#
# Compressibility (1/GPa) = 0.04049750
#
# Stress axis : x y z
#
# Youngs Moduli (GPa) = 39.58709 130.80235 23.35971
#
# Poissons Ratio (x) = 0.05713 0.21832
# Poissons Ratio (y) = 0.01729 0.18281
# Poissons Ratio (z) = 0.36998 1.02363
#
# Static dielectric constant tensor:
#      x y z
#    x 1.855400 0.000000 0.037700 
#    y 0.000000 1.794580 0.000000 
#    z 0.037700 0.000000 1.828180 
# 
# From -- ./inp_files/43422.got.cif
#   From: 2010.05.17/outbox.cif.g08.bks.cpg/sg11_22_cif.got.tgz:43422.got - 2010.06.03 12:22:45.
