data_PCOD9160728
_publ_section_title
;
Structure prediction by ZEFSAII (Michael W. Deem and Ramdas Pophale) SiO2 
 PCOD9160728
Probable space group: P 21/M
;
_chemical_formula_sum "Si O2"
_cell_formula_units_Z 32
_cell_length_a 8.766475
_cell_length_b 11.896919
_cell_length_c 28.631179
_cell_angle_alpha 90.000000
_cell_angle_beta 147.822832
_cell_angle_gamma 90.000000
_cell_volume 1590.194252
_symmetry_space_group_name_H-M "P 21/M"
_symmetry_group_IT_number 11
_symmetry_cell_setting 'monoclinic'
loop_
_space_group_symop_operation_xyz
x,y,z
-x,1/2+y,-z
-x,-y,-z
x,1/2-y,z
loop_
_atom_site_type_symbol
_atom_site_label
_atom_site_fract_x
_atom_site_fract_y
_atom_site_fract_z
Si Si1 0.869714 0.617185 0.988797
Si Si2 0.792251 0.035365 0.297941
Si Si3 0.273337 0.874415 0.177478
Si Si4 0.416111 0.078246 0.553515
Si Si5 0.188260 0.878878 0.800023
Si Si6 0.706660 0.125293 0.534511
Si Si7 0.732209 0.044617 0.720592
Si Si8 0.231535 0.871036 0.610093
O O1 0.938955 0.750000 0.989707
O O2 0.990021 0.615970 0.072780
O O3 0.527620 0.608478 0.896786
O O4 0.000000 0.500000 0.000000
O O5 0.866463 0.090495 0.268250
O O6 0.766471 0.123601 0.333031
O O7 0.495014 0.968116 0.217683
O O8 0.027039 0.945562 0.376427
O O9 0.396424 0.750000 0.201094
O O10 0.229116 0.889840 0.221275
O O11 0.484275 0.128000 0.519977
O O12 0.656641 0.110065 0.653333
O O13 0.100327 0.110587 0.488869
O O14 0.413725 0.945439 0.540074
O O15 0.108259 0.750000 0.788566
O O16 0.000142 0.963993 0.781428
O O17 0.789786 0.250000 0.542493
O O18 0.444752 0.969505 0.651290
O O19 0.329427 0.750000 0.618343
#
# Coordination Sequence:
#
# PCOD9160728 Si02
#       8
#     4   4   4   4   4   4   4   4
#     4  10  21  41  68  98 128 164 208 261 320 380
#     4  10  19  37  59  87 118 151 205 251 304 366
#     4  10  22  40  63  89 125 163 201 254 315 379
#     4  10  21  37  53  82 115 154 204 254 297 364
#     4  11  22  38  63  91 124 162 203 259 313 372
#     4  10  20  34  55  83 116 151 197 256 309 355
#     4  11  23  40  56  87 125 159 206 248 305 377
#     4  10  21  36  56  80 114 159 200 249 302 358
#
# _framework density 20.123328000000001
#
# number of rings (size 3 to 8) (size 9 to 14) (size 15 to 20)
#    0.000    1.750    2.500    1.875    0.000    2.500 
#    0.000    1.250    0.000    0.000    0.000    0.000 
#    0.000    0.000    0.000    0.000    0.000    0.000 
#
# Total GULP energy -178502.987396 kJ/mol
# GULP energy per Si atom -5578.218356 kJ/mol
# Density = 2.007753 g / cm^3
# Si number density = 20.123328 Si / 1000 Ang^3
#
#
#
# Elastic Constant Matrix: (Units=GPa)
#
#
# Indices 1 2 3 4 5 6 
#
# 1 39.5407 4.1267 14.1023 0.0000 -4.3638 0.0000
# 2 4.1267 102.5294 26.9833 0.0000 -0.1489 0.0000
# 3 14.1023 26.9833 93.6968 0.0000 -10.4897 0.0000
# 4 0.0000 0.0000 0.0000 12.8130 0.0000 0.1868
# 5 -4.3638 -0.1489 -10.4897 0.0000 32.9709 0.0000
# 6 0.0000 0.0000 0.0000 0.1868 0.0000 2.1815
#
#
#
# Elastic Compliance Matrix: (Units=1/GPa)
#
#
# Indices 1 2 3 4 5 6 
#
# 1 0.026901 -0.000090 -0.003758 0.000000 0.002364 0.000000
# 2 -0.000090 0.010582 -0.003142 0.000000 -0.000964 0.000000
# 3 -0.003758 -0.003142 0.012532 0.000000 0.003476 0.000000
# 4 0.000000 0.000000 0.000000 0.078143 0.000000 -0.006691
# 5 0.002364 -0.000964 0.003476 0.000000 0.031744 0.000000
# 6 0.000000 0.000000 0.000000 -0.006691 0.000000 0.458971
#
#
# Mechanical properties :
#
#
# Convention : Reuss Voigt Hill
#
# Bulk Modulus (GPa) = 27.75069 36.24349 31.99709
# Shear Modulus (GPa) = 7.75354 22.29672 15.02513
#
# Velocity S-wave (km/s) = 1.96504 3.33228 2.73546
# Velocity P-wave (km/s) = 4.35531 5.73195 5.09038
#
# Compressibility (1/GPa) = 0.03603514
#
# Stress axis : x y z
#
# Youngs Moduli (GPa) = 37.17320 94.49648 79.79392
#
# Poissons Ratio (x) = 0.00853 0.29988
# Poissons Ratio (y) = 0.00336 0.25070
# Poissons Ratio (z) = 0.13970 0.29690
#
# Static dielectric constant tensor:
#      x y z
#    x 1.719750 0.000000 -0.000210 
#    y 0.000000 1.756460 0.000000 
#    z -0.000210 0.000000 1.703740 
# 
# From -- ./inp_files/26617.got.cif
#   From: 2010.05.17/outbox.cif.g08.bks.cpg/sg11_14_cif.got.tgz:26617.got - 2010.06.03 12:22:45.
