data_PCOD9160557
_publ_section_title
;
Structure prediction by ZEFSAII (Michael W. Deem and Ramdas Pophale) SiO2 
 PCOD9160557
Probable space group: P 21/M
;
_chemical_formula_sum "Si O2"
_cell_formula_units_Z 28
_cell_length_a 8.145611
_cell_length_b 15.275385
_cell_length_c 13.856846
_cell_angle_alpha 90.000000
_cell_angle_beta 135.486649
_cell_angle_gamma 90.000000
_cell_volume 1208.773634
_symmetry_space_group_name_H-M "P 21/M"
_symmetry_group_IT_number 11
_symmetry_cell_setting 'monoclinic'
loop_
_space_group_symop_operation_xyz
x,y,z
-x,1/2+y,-z
-x,-y,-z
x,1/2-y,z
loop_
_atom_site_type_symbol
_atom_site_label
_atom_site_fract_x
_atom_site_fract_y
_atom_site_fract_z
Si Si1 0.738759 0.148222 0.111396
Si Si2 0.398844 0.072751 0.136258
Si Si3 0.289494 0.153531 0.806252
Si Si4 0.070524 0.397388 0.517577
Si Si5 0.420188 0.657271 0.624154
Si Si6 0.487705 0.471713 0.630500
Si Si7 0.981553 0.522475 0.172526
O O1 0.797268 0.250000 0.154687
O O2 0.577248 0.106706 0.129104
O O3 0.947117 0.080291 0.180513
O O4 0.563363 0.144455 0.945741
O O5 0.378600 0.146819 0.210363
O O6 0.500803 0.995927 0.248164
O O7 0.162055 0.045300 0.984789
O O8 0.224538 0.250000 0.818736
O O9 0.204442 0.147614 0.662033
O O10 0.153054 0.077003 0.802827
O O11 0.274257 0.406052 0.522879
O O12 0.000000 0.500000 0.500000
O O13 0.820715 0.349985 0.414052
O O14 0.427773 0.750000 0.576914
O O15 0.431264 0.569126 0.565772
O O16 0.751555 0.448671 0.718799
#
# Coordination Sequence:
#
# PCOD9160557 Si02
#       7
#     4   4   4   4   4   4   4
#     4  10  20  33  55  86 116 154 194 232 280 345
#     4   9  18  33  57  79 112 149 192 226 276 339
#     4  10  21  37  57  82 114 154 198 236 281 340
#     4  10  19  36  59  79 102 146 200 237 277 331
#     4   9  19  33  56  79 106 144 191 239 273 327
#     4   9  20  33  55  85 111 145 188 229 292 341
#     4  11  20  35  58  85 123 151 177 235 300 346
#
# _framework density 23.163972999999999
#
# number of rings (size 3 to 8) (size 9 to 14) (size 15 to 20)
#    0.857    1.429    0.000    4.714    0.000    1.143 
#    0.000    4.286    0.000    0.000    0.000    0.000 
#    0.000    0.000    0.000    0.000    0.000    0.000 
#
# Total GULP energy -155980.772456 kJ/mol
# GULP energy per Si atom -5570.741873 kJ/mol
# Density = 2.311125 g / cm^3
# Si number density = 23.163973 Si / 1000 Ang^3
#
#
#
# Elastic Constant Matrix: (Units=GPa)
#
#
# Indices 1 2 3 4 5 6 
#
# 1 17.4597 -0.9628 13.4478 0.0000 11.7388 0.0000
# 2 -0.9628 91.0979 -1.6071 0.0000 4.0312 0.0000
# 3 13.4478 -1.6071 79.1913 0.0000 -5.2612 0.0000
# 4 0.0000 0.0000 0.0000 15.7160 0.0000 -3.1376
# 5 11.7388 4.0312 -5.2612 0.0000 34.9118 0.0000
# 6 0.0000 0.0000 0.0000 -3.1376 0.0000 10.5875
#
#
#
# Elastic Compliance Matrix: (Units=1/GPa)
#
#
# Indices 1 2 3 4 5 6 
#
# 1 0.095154 0.002231 -0.018441 0.000000 -0.035031 0.000000
# 2 0.002231 0.011087 -0.000292 0.000000 -0.002074 0.000000
# 3 -0.018441 -0.000292 0.016331 0.000000 0.008695 0.000000
# 4 0.000000 0.000000 0.000000 0.067631 0.000000 0.020042
# 5 -0.035031 -0.002074 0.008695 0.000000 0.041972 0.000000
# 6 0.000000 0.000000 0.000000 0.020042 0.000000 0.100390
#
#
# Mechanical properties :
#
#
# Convention : Reuss Voigt Hill
#
# Bulk Modulus (GPa) = 11.16458 23.27830 17.22144
# Shear Modulus (GPa) = 12.64462 24.03447 18.33955
#
# Velocity S-wave (km/s) = 2.33893 3.22464 2.81682
# Velocity P-wave (km/s) = 3.48201 4.89240 4.24617
#
# Compressibility (1/GPa) = 0.08956901
#
# Stress axis : x y z
#
# Youngs Moduli (GPa) = 10.50930 90.19234 61.23372
#
# Poissons Ratio (x) = -0.20118 1.12918
# Poissons Ratio (y) = -0.02344 0.01785
# Poissons Ratio (z) = 0.19380 0.02630
#
# Static dielectric constant tensor:
#      x y z
#    x 1.926660 0.000000 -0.036390 
#    y 0.000000 1.952970 0.000000 
#    z -0.036390 0.000000 1.915390 
# 
# From -- ./inp_files/58137.got.cif
#   From: 2010.05.17/outbox.cif.g08.bks.cpg/sg11_30_cif.got.tgz:58137.got - 2010.06.03 12:22:45.
