data_PCOD9160865
_publ_section_title
;
Structure prediction by ZEFSAII (Michael W. Deem and Ramdas Pophale) SiO2 
 PCOD9160865
Probable space group: P 21/M
;
_chemical_formula_sum "Si O2"
_cell_formula_units_Z 28
_cell_length_a 15.266428
_cell_length_b 8.049111
_cell_length_c 11.241786
_cell_angle_alpha 90.000000
_cell_angle_beta 67.245339
_cell_angle_gamma 90.000000
_cell_volume 1273.888517
_symmetry_space_group_name_H-M "P 21/M"
_symmetry_group_IT_number 11
_symmetry_cell_setting 'monoclinic'
loop_
_space_group_symop_operation_xyz
x,y,z
-x,1/2+y,-z
-x,-y,-z
x,1/2-y,z
loop_
_atom_site_type_symbol
_atom_site_label
_atom_site_fract_x
_atom_site_fract_y
_atom_site_fract_z
Si Si1 0.449099 0.057265 0.673238
Si Si2 0.418652 0.949680 0.950836
Si Si3 0.657698 0.048463 0.582899
Si Si4 0.750197 0.947082 0.311242
Si Si5 0.739302 0.452478 0.790463
Si Si6 0.953511 0.053485 0.650038
Si Si7 0.955178 0.057534 0.148896
O O1 0.450436 0.250000 0.635233
O O2 0.554113 0.985927 0.593014
O O3 0.350467 0.980310 0.680661
O O4 0.439742 0.044859 0.819494
O O5 0.420055 0.750000 0.930842
O O6 0.317783 0.999106 0.061486
O O7 0.500000 0.000000 0.000000
O O8 0.656697 0.250000 0.578834
O O9 0.678528 0.997427 0.706792
O O10 0.741820 0.981822 0.456067
O O11 0.753948 0.750000 0.286857
O O12 0.842201 0.027216 0.205941
O O13 0.741162 0.250000 0.788827
O O14 0.846419 0.515485 0.721957
O O15 0.944848 0.250000 0.644469
O O16 0.000000 0.000000 0.500000
O O17 0.008354 0.020071 0.745453
O O18 0.976373 0.250000 0.148332
O O19 0.000000 0.000000 0.000000
#
# Coordination Sequence:
#
# PCOD9160865 Si02
#       7
#     4   4   4   4   4   4   4
#     4  10  22  39  60  89 128 166 206 256 309 369
#     4  11  21  37  59  87 122 164 208 253 308 372
#     4  10  19  38  63  90 129 170 204 247 307 377
#     4  11  24  41  63  94 127 162 210 265 316 378
#     4   9  20  37  61  89 123 162 203 251 312 373
#     4  11  23  43  70 102 134 171 220 275 332 395
#     4  12  27  48  70  95 129 175 224 279 340 396
#
# _framework density 21.979944
#
# number of rings (size 3 to 8) (size 9 to 14) (size 15 to 20)
#    0.000    1.429    1.429    3.857    2.000    2.857 
#    0.000    2.857    0.000    0.000    0.000    0.000 
#    0.000    0.000    0.000    0.000    0.000    0.000 
#
# Total GULP energy -156402.936830 kJ/mol
# GULP energy per Si atom -5585.819173 kJ/mol
# Density = 2.192992 g / cm^3
# Si number density = 21.979944 Si / 1000 Ang^3
#
#
#
# Elastic Constant Matrix: (Units=GPa)
#
#
# Indices 1 2 3 4 5 6 
#
# 1 98.8550 -2.3062 44.6503 0.0000 -19.4011 0.0000
# 2 -2.3062 40.9454 4.2994 0.0000 -3.1499 0.0000
# 3 44.6503 4.2994 150.7144 0.0000 -26.1769 0.0000
# 4 0.0000 0.0000 0.0000 36.0557 0.0000 -0.2387
# 5 -19.4011 -3.1499 -26.1769 0.0000 41.4547 0.0000
# 6 0.0000 0.0000 0.0000 -0.2387 0.0000 14.8761
#
#
#
# Elastic Compliance Matrix: (Units=1/GPa)
#
#
# Indices 1 2 3 4 5 6 
#
# 1 0.012272 0.001309 -0.002986 0.000000 0.003957 0.000000
# 2 0.001309 0.024730 -0.000742 0.000000 0.002023 0.000000
# 3 -0.002986 -0.000742 0.008186 0.000000 0.003716 0.000000
# 4 0.000000 0.000000 0.000000 0.027738 0.000000 0.000445
# 5 0.003957 0.002023 0.003716 0.000000 0.028475 0.000000
# 6 0.000000 0.000000 0.000000 0.000445 0.000000 0.067229
#
#
# Mechanical properties :
#
#
# Convention : Reuss Voigt Hill
#
# Bulk Modulus (GPa) = 24.78252 42.64465 33.71358
# Shear Modulus (GPa) = 26.74995 34.73538 30.74267
#
# Velocity S-wave (km/s) = 3.49236 3.97964 3.74394
# Velocity P-wave (km/s) = 5.24992 6.36871 5.83618
#
# Compressibility (1/GPa) = 0.04035103
#
# Stress axis : x y z
#
# Youngs Moduli (GPa) = 81.48941 40.43661 122.15896
#
# Poissons Ratio (x) = -0.05294 0.36471
# Poissons Ratio (y) = -0.10668 0.09063
# Poissons Ratio (z) = 0.24329 0.03000
#
# Static dielectric constant tensor:
#      x y z
#    x 1.799220 0.000000 -0.083480 
#    y 0.000000 1.775800 0.000000 
#    z -0.083480 0.000000 1.638400 
# 
# From -- ./inp_files/37902.got.cif
#   From: 2010.05.17/outbox.cif.g08.bks.cpg/sg11_19_cif.got.tgz:37902.got - 2010.06.03 12:22:45.
