data_PCOD9160239
_publ_section_title
;
Structure prediction by ZEFSAII (Michael W. Deem and Ramdas Pophale) SiO2 
 PCOD9160239
Probable space group: P 21/M
;
_chemical_formula_sum "Si O2"
_cell_formula_units_Z 28
_cell_length_a 15.506999
_cell_length_b 19.466292
_cell_length_c 7.642872
_cell_angle_alpha 90.000000
_cell_angle_beta 36.661954
_cell_angle_gamma 90.000000
_cell_volume 1377.556047
_symmetry_space_group_name_H-M "P 21/M"
_symmetry_group_IT_number 11
_symmetry_cell_setting 'monoclinic'
loop_
_space_group_symop_operation_xyz
x,y,z
-x,1/2+y,-z
-x,-y,-z
x,1/2-y,z
loop_
_atom_site_type_symbol
_atom_site_label
_atom_site_fract_x
_atom_site_fract_y
_atom_site_fract_z
Si Si1 0.576775 0.674804 0.745378
Si Si2 0.883648 0.876231 0.222701
Si Si3 0.264770 0.505944 0.353584
Si Si4 0.598730 0.166354 0.318917
Si Si5 0.090919 0.595673 0.178301
Si Si6 0.028858 0.435181 0.279227
Si Si7 0.499034 0.578005 0.192382
O O1 0.520689 0.750000 0.878427
O O2 0.749974 0.674944 0.451127
O O3 0.501626 0.653618 0.686982
O O4 0.535460 0.625746 0.968962
O O5 0.820097 0.945068 0.413840
O O6 0.025745 0.868256 0.110307
O O7 0.915837 0.889501 0.968380
O O8 0.142079 0.553744 0.475051
O O9 0.355945 0.539594 0.360766
O O10 0.370892 0.477439 0.029110
O O11 0.605307 0.250000 0.336452
O O12 0.527430 0.123895 0.595180
O O13 0.757792 0.133419 0.031864
O O14 0.970977 0.599455 0.530065
O O15 0.101034 0.511546 0.148100
#
# Coordination Sequence:
#
# PCOD9160239 Si02
#       7
#     4   4   4   4   4   4   4
#     4  10  23  39  54  78 110 146 189 229 268 324
#     4  10  20  36  56  79 111 143 177 223 272 328
#     4   9  18  33  57  88 113 139 181 225 279 342
#     4  11  23  38  57  81 110 148 191 230 271 324
#     4  10  21  35  56  83 108 140 184 221 270 332
#     4  10  19  35  56  81 114 143 170 227 284 321
#     4  10  19  36  58  81 112 146 180 228 280 328
#
# _framework density 20.325851
#
# number of rings (size 3 to 8) (size 9 to 14) (size 15 to 20)
#    0.000    2.000    0.000    4.714    0.000    5.143 
#    0.000    8.571    0.000    0.000    0.000    0.000 
#    0.000    0.000    0.000    0.000    0.000    0.000 
#
# Total GULP energy -156144.788285 kJ/mol
# GULP energy per Si atom -5576.599582 kJ/mol
# Density = 2.027959 g / cm^3
# Si number density = 20.325851 Si / 1000 Ang^3
#
#
#
# Elastic Constant Matrix: (Units=GPa)
#
#
# Indices 1 2 3 4 5 6 
#
# 1 48.4863 11.7323 6.7385 0.0000 3.3532 0.0000
# 2 11.7323 34.8672 16.5586 0.0000 -1.5106 0.0000
# 3 6.7385 16.5586 42.8077 0.0000 5.3073 0.0000
# 4 0.0000 0.0000 0.0000 -233.1905 0.0000 423.8891
# 5 3.3532 -1.5106 5.3073 0.0000 29.6228 0.0000
# 6 0.0000 0.0000 0.0000 423.8891 0.0000 -681.4519
#
#
#
# Elastic Compliance Matrix: (Units=1/GPa)
#
#
# Indices 1 2 3 4 5 6 
#
# 1 0.022712 -0.007647 -0.000256 0.000000 -0.002915 0.000000
# 2 -0.007647 0.038259 -0.014261 0.000000 0.005372 0.000000
# 3 -0.000256 -0.014261 0.029662 0.000000 -0.006013 0.000000
# 4 0.000000 0.000000 0.000000 0.032803 0.000000 0.020405
# 5 -0.002915 0.005372 -0.006013 0.000000 0.035439 0.000000
# 6 0.000000 0.000000 0.000000 0.020405 0.000000 0.011225
#
#
# Mechanical properties :
#
#
# Convention : Reuss Voigt Hill
#
# Bulk Modulus (GPa) = 21.59594 21.80223 21.69908
# Shear Modulus (GPa) = 21.75201 -170.92847 -74.58823
#
# Velocity S-wave (km/s) = 3.27489 -9.18023 -6.06431
# Velocity P-wave (km/s) = 4.99477 10.08064 6.19159
#
# Compressibility (1/GPa) = 0.04630500
#
# Stress axis : x y z
#
# Youngs Moduli (GPa) = 44.02981 26.13781 33.71268
#
# Poissons Ratio (x) = 0.19988 0.00862
# Poissons Ratio (y) = 0.33670 0.48078
# Poissons Ratio (z) = 0.01126 0.37276
#
# Static dielectric constant tensor:
#      x y z
#    x 1.795780 0.000000 -0.007860 
#    y 0.000000 1.632280 0.000000 
#    z -0.007860 0.000000 1.740730 
# 
# From -- ./inp_files/25253.got.cif
#   From: 2010.05.17/outbox.cif.g08.bks.cpg/sg11_13_cif.got.tgz:25253.got - 2010.06.03 12:22:45.
