data_PCOD9160662
_publ_section_title
;
Structure prediction by ZEFSAII (Michael W. Deem and Ramdas Pophale) SiO2 
 PCOD9160662
Probable space group: P 21/M
;
_chemical_formula_sum "Si O2"
_cell_formula_units_Z 32
_cell_length_a 9.824197
_cell_length_b 14.003134
_cell_length_c 24.382083
_cell_angle_alpha 90.000000
_cell_angle_beta 30.002878
_cell_angle_gamma 90.000000
_cell_volume 1677.261967
_symmetry_space_group_name_H-M "P 21/M"
_symmetry_group_IT_number 11
_symmetry_cell_setting 'monoclinic'
loop_
_space_group_symop_operation_xyz
x,y,z
-x,1/2+y,-z
-x,-y,-z
x,1/2-y,z
loop_
_atom_site_type_symbol
_atom_site_label
_atom_site_fract_x
_atom_site_fract_y
_atom_site_fract_z
Si Si1 0.600544 0.636057 0.613667
Si Si2 0.636112 0.139930 0.103679
Si Si3 0.013574 0.359531 0.346133
Si Si4 0.738621 0.022236 0.959875
Si Si5 0.842026 0.134248 0.527207
Si Si6 0.772151 0.635816 0.267007
Si Si7 0.875160 0.362877 0.133249
Si Si8 0.315713 0.981812 0.616717
O O1 0.605147 0.750000 0.600883
O O2 0.399547 0.621124 0.735516
O O3 0.472537 0.580012 0.607558
O O4 0.906156 0.603536 0.522650
O O5 0.700124 0.250000 0.065487
O O6 0.337953 0.141441 0.234866
O O7 0.833064 0.109664 0.084458
O O8 0.637787 0.072882 0.050500
O O9 0.916793 0.250000 0.372818
O O10 0.895682 0.395879 0.445328
O O11 0.928903 0.420538 0.323169
O O12 0.976636 0.090915 0.853257
O O13 0.887516 0.923731 0.922755
O O14 0.500000 0.000000 0.000000
O O15 0.861479 0.250000 0.519186
O O16 0.530237 0.112268 0.652026
O O17 0.792519 0.750000 0.264494
O O18 0.772242 0.580765 0.324940
O O19 0.929457 0.250000 0.116257
O O20 0.500000 0.000000 0.500000
#
# Coordination Sequence:
#
# PCOD9160662 Si02
#       8
#     4   4   4   4   4   4   4   4
#     4  10  20  38  64  96 127 157 202 262 314 369
#     4  10  21  39  66  93 122 163 209 260 318 374
#     4  10  19  36  61  92 122 154 200 257 311 370
#     4  12  25  43  63  92 127 167 221 260 317 382
#     4   9  18  37  64  90 122 162 198 246 315 378
#     4  11  24  42  61  87 128 170 209 255 316 382
#     4  10  21  40  66  95 123 155 208 271 323 369
#     4  12  23  36  56  93 126 168 209 247 307 377
#
# _framework density 19.078713
#
# number of rings (size 3 to 8) (size 9 to 14) (size 15 to 20)
#    0.000    1.500    3.750    1.875    0.000    2.000 
#    2.250    0.000    0.000    0.000    0.000    0.000 
#    0.000    0.000    0.000    0.000    0.000    0.000 
#
# Total GULP energy -178654.684068 kJ/mol
# GULP energy per Si atom -5582.958877 kJ/mol
# Density = 1.903529 g / cm^3
# Si number density = 19.078713 Si / 1000 Ang^3
#
#
#
# Elastic Constant Matrix: (Units=GPa)
#
#
# Indices 1 2 3 4 5 6 
#
# 1 147.3834 61.3285 45.6894 0.0000 -16.0888 0.0000
# 2 61.3285 79.0992 33.0866 0.0000 -3.9790 0.0000
# 3 45.6894 33.0866 88.4686 0.0000 -3.1464 0.0000
# 4 0.0000 0.0000 0.0000 33.2134 0.0000 5.2462
# 5 -16.0888 -3.9790 -3.1464 0.0000 36.4310 0.0000
# 6 0.0000 0.0000 0.0000 5.2462 0.0000 24.9478
#
#
#
# Elastic Compliance Matrix: (Units=1/GPa)
#
#
# Indices 1 2 3 4 5 6 
#
# 1 0.011103 -0.007199 -0.002904 0.000000 0.003866 0.000000
# 2 -0.007199 0.019704 -0.003699 0.000000 -0.001347 0.000000
# 3 -0.002904 -0.003699 0.014170 0.000000 -0.000463 0.000000
# 4 0.000000 0.000000 0.000000 0.031143 0.000000 -0.006549
# 5 0.003866 -0.001347 -0.000463 0.000000 0.028970 0.000000
# 6 0.000000 0.000000 0.000000 -0.006549 0.000000 0.041461
#
#
# Mechanical properties :
#
#
# Convention : Reuss Voigt Hill
#
# Bulk Modulus (GPa) = 57.56302 66.12889 61.84596
# Shear Modulus (GPa) = 27.78612 30.57488 29.18050
#
# Velocity S-wave (km/s) = 3.82041 4.00755 3.91510
# Velocity P-wave (km/s) = 7.04965 7.49335 7.27488
#
# Compressibility (1/GPa) = 0.01737226
#
# Stress axis : x y z
#
# Youngs Moduli (GPa) = 90.06437 50.75174 70.57070
#
# Poissons Ratio (x) = 0.36538 0.20495
# Poissons Ratio (y) = 0.64841 0.26103
# Poissons Ratio (z) = 0.26156 0.18772
#
# Static dielectric constant tensor:
#      x y z
#    x 1.650470 0.000000 -0.017150 
#    y 0.000000 1.691290 0.000000 
#    z -0.017150 0.000000 1.672270 
# 
# From -- ./inp_files/68138.got.cif
#   From: 2010.05.17/outbox.cif.g08.bks.cpg/sg11_35_cif.got.tgz:68138.got - 2010.06.03 12:22:45.
