data_PCOD9160434
_publ_section_title
;
Structure prediction by ZEFSAII (Michael W. Deem and Ramdas Pophale) SiO2 
 PCOD9160434
Probable space group: P 21/M
;
_chemical_formula_sum "Si O2"
_cell_formula_units_Z 24
_cell_length_a 19.544984
_cell_length_b 15.317550
_cell_length_c 12.699476
_cell_angle_alpha 90.000000
_cell_angle_beta 160.791929
_cell_angle_gamma 90.000000
_cell_volume 1250.851906
_symmetry_space_group_name_H-M "P 21/M"
_symmetry_group_IT_number 11
_symmetry_cell_setting 'monoclinic'
loop_
_space_group_symop_operation_xyz
x,y,z
-x,1/2+y,-z
-x,-y,-z
x,1/2-y,z
loop_
_atom_site_type_symbol
_atom_site_label
_atom_site_fract_x
_atom_site_fract_y
_atom_site_fract_z
Si Si1 0.583992 0.506656 0.239939
Si Si2 0.117878 0.845789 0.304381
Si Si3 0.735872 0.647724 0.902177
Si Si4 0.219846 0.510614 0.876673
Si Si5 0.719586 0.146039 0.850121
Si Si6 0.018884 0.412878 0.100077
O O1 0.697050 0.414691 0.428022
O O2 0.764725 0.577865 0.523764
O O3 0.500000 0.500000 0.000000
O O4 0.397959 0.524112 0.049384
O O5 0.195998 0.750000 0.445892
O O6 0.940133 0.871605 0.129472
O O7 0.007868 0.843017 0.030706
O O8 0.743717 0.750000 0.946346
O O9 0.526794 0.636909 0.529819
O O10 0.731333 0.578339 0.988935
O O11 0.000000 0.500000 0.500000
O O12 0.220257 0.590425 0.960014
O O13 0.766601 0.250000 0.925826
O O14 0.840659 0.103770 0.926814
O O15 0.000000 0.500000 0.000000
#
# Coordination Sequence:
#
# PCOD9160434 Si02
#       6
#     4   4   4   4   4   4
#     4  11  23  40  59  83 116 155 197 241 298 359
#     4  10  20  37  60  88 118 150 191 242 293 349
#     4  10  21  38  63  91 120 154 198 247 299 356
#     4  12  24  40  62  85 119 160 200 250 303 361
#     4  11  23  40  62  91 123 160 204 250 299 357
#     4  10  19  35  60  86 116 151 192 238 287 344
#
# _framework density 19.186924000000001
#
# number of rings (size 3 to 8) (size 9 to 14) (size 15 to 20)
#    0.000    1.333    0.000    8.000    0.000    2.667 
#    0.000    5.000    0.000    0.000    0.000    0.000 
#    0.000    0.000    0.000    0.000    0.000    0.000 
#
# Total GULP energy -133995.570855 kJ/mol
# GULP energy per Si atom -5583.148786 kJ/mol
# Density = 1.914325 g / cm^3
# Si number density = 19.186924 Si / 1000 Ang^3
#
#
#
# Elastic Constant Matrix: (Units=GPa)
#
#
# Indices 1 2 3 4 5 6 
#
# 1 111.1968 32.5020 19.0565 0.0000 -3.4938 0.0000
# 2 32.5020 93.0862 32.0978 0.0000 -7.6191 0.0000
# 3 19.0565 32.0978 93.6794 0.0000 -11.6794 0.0000
# 4 0.0000 0.0000 0.0000 20.6874 0.0000 4.7607
# 5 -3.4938 -7.6191 -11.6794 0.0000 42.9863 0.0000
# 6 0.0000 0.0000 0.0000 4.7607 0.0000 1.6849
#
#
#
# Elastic Compliance Matrix: (Units=1/GPa)
#
#
# Indices 1 2 3 4 5 6 
#
# 1 0.010091 -0.003193 -0.000959 0.000000 -0.000006 0.000000
# 2 -0.003193 0.013239 -0.003754 0.000000 0.001067 0.000000
# 3 -0.000959 -0.003754 0.012486 0.000000 0.002649 0.000000
# 4 0.000000 0.000000 0.000000 0.138196 0.000000 -0.390470
# 5 -0.000006 0.001067 0.002649 0.000000 0.024172 0.000000
# 6 0.000000 0.000000 0.000000 -0.390470 0.000000 1.696759
#
#
# Mechanical properties :
#
#
# Convention : Reuss Voigt Hill
#
# Bulk Modulus (GPa) = 49.98987 51.69722 50.84354
# Shear Modulus (GPa) = 2.60767 27.35880 14.98323
#
# Velocity S-wave (km/s) = 1.16706 3.78022 2.79751
# Velocity P-wave (km/s) = 5.28458 6.78645 6.08205
#
# Compressibility (1/GPa) = 0.02000405
#
# Stress axis : x y z
#
# Youngs Moduli (GPa) = 99.10256 75.53296 80.08780
#
# Poissons Ratio (x) = 0.24117 0.07684
# Poissons Ratio (y) = 0.31643 0.30062
# Poissons Ratio (z) = 0.09508 0.28352
#
# Static dielectric constant tensor:
#      x y z
#    x 1.650010 0.000000 -0.003830 
#    y 0.000000 1.356490 0.000000 
#    z -0.003830 0.000000 1.653780 
# 
# From -- ./inp_files/41918.got.cif
#   From: 2010.05.17/outbox.cif.g08.bks.cpg/sg11_21_cif.got.tgz:41918.got - 2010.06.03 12:22:45.
