data_PCOD9160939
_publ_section_title
;
Structure prediction by ZEFSAII (Michael W. Deem and Ramdas Pophale) SiO2 
 PCOD9160939
Probable space group: P 21/M
;
_chemical_formula_sum "Si O2"
_cell_formula_units_Z 22
_cell_length_a 10.489410
_cell_length_b 13.831684
_cell_length_c 10.700221
_cell_angle_alpha 90.000000
_cell_angle_beta 142.199824
_cell_angle_gamma 90.000000
_cell_volume 951.514052
_symmetry_space_group_name_H-M "P 21/M"
_symmetry_group_IT_number 11
_symmetry_cell_setting 'monoclinic'
loop_
_space_group_symop_operation_xyz
x,y,z
-x,1/2+y,-z
-x,-y,-z
x,1/2-y,z
loop_
_atom_site_type_symbol
_atom_site_label
_atom_site_fract_x
_atom_site_fract_y
_atom_site_fract_z
Si Si1 0.651315 0.463013 0.442986
Si Si2 0.757642 0.918957 0.735509
Si Si3 0.249532 0.250000 0.442626
Si Si4 0.555820 0.585083 0.134318
Si Si5 0.750544 0.250000 0.010052
Si Si6 0.814826 0.750000 0.317124
Si Si7 0.794329 0.250000 0.522015
Si Si8 0.039155 0.750000 0.069494
O O1 0.415149 0.466015 0.311191
O O2 0.811263 0.496465 0.677025
O O3 0.666384 0.534351 0.337934
O O4 0.676712 0.351171 0.427901
O O5 0.663222 0.841547 0.563704
O O6 0.914440 0.848788 0.932271
O O7 0.271044 0.250000 0.607211
O O8 0.996292 0.250000 0.232933
O O9 0.716250 0.654103 0.186003
O O10 0.500000 0.500000 0.000000
O O11 0.363358 0.654126 0.026068
O O12 0.759430 0.250000 0.865655
O O13 0.055757 0.750000 0.481583
O O14 0.914179 0.250000 0.748225
#
# Coordination Sequence:
#
# PCOD9160939 Si02
#       8
#     4   4   2   4   2   2   2   2
#     4  11  24  42  68  94 127 171 217 259 320 381
#     4   9  21  42  70  94 124 165 211 266 314 382
#     4  10  19  45  66  94 127 166 205 269 319 380
#     4  11  26  44  67  93 127 177 215 260 317 386
#     4   9  24  43  69  91 127 166 221 262 314 380
#     4  11  26  44  64  90 135 166 221 257 318 386
#     4  12  29  39  62 100 134 168 206 273 319 370
#     4  10  24  43  67  99 133 160 207 273 326 368
#
# _framework density 23.121046
#
# number of rings (size 3 to 8) (size 9 to 14) (size 15 to 20)
#    0.000    1.818    1.818    1.091   10.182    5.091 
#    0.000    0.000    0.000    0.000    0.000    0.000 
#    0.000    0.000    0.000    0.000    0.000    0.000 
#
# Total GULP energy -122731.706893 kJ/mol
# GULP energy per Si atom -5578.713950 kJ/mol
# Density = 2.306842 g / cm^3
# Si number density = 23.121046 Si / 1000 Ang^3
#
#
#
# Elastic Constant Matrix: (Units=GPa)
#
#
# Indices 1 2 3 4 5 6 
#
# 1 54.6714 16.6147 -2.1628 0.0000 -5.6874 0.0000
# 2 16.6147 155.7653 25.4593 0.0000 -0.6301 0.0000
# 3 -2.1628 25.4593 58.3118 0.0000 -4.9130 0.0000
# 4 0.0000 0.0000 0.0000 25.0280 0.0000 -0.5153
# 5 -5.6874 -0.6301 -4.9130 0.0000 20.5717 0.0000
# 6 0.0000 0.0000 0.0000 -0.5153 0.0000 13.5187
#
#
#
# Elastic Compliance Matrix: (Units=1/GPa)
#
#
# Indices 1 2 3 4 5 6 
#
# 1 0.019747 -0.002459 0.002306 0.000000 0.005935 0.000000
# 2 -0.002459 0.007225 -0.003352 0.000000 -0.001259 0.000000
# 3 0.002306 -0.003352 0.019128 0.000000 0.005103 0.000000
# 4 0.000000 0.000000 0.000000 0.039987 0.000000 0.001524
# 5 0.005935 -0.001259 0.005103 0.000000 0.051432 0.000000
# 6 0.000000 0.000000 0.000000 0.001524 0.000000 0.074030
#
#
# Mechanical properties :
#
#
# Convention : Reuss Voigt Hill
#
# Bulk Modulus (GPa) = 25.58166 38.73009 32.15587
# Shear Modulus (GPa) = 21.59009 27.07950 24.33480
#
# Velocity S-wave (km/s) = 3.05910 3.42600 3.24774
# Velocity P-wave (km/s) = 4.85446 5.69538 5.29165
#
# Compressibility (1/GPa) = 0.03909050
#
# Stress axis : x y z
#
# Youngs Moduli (GPa) = 50.64034 138.40878 52.27917
#
# Poissons Ratio (x) = 0.34038 -0.12057
# Poissons Ratio (y) = 0.12454 0.17523
# Poissons Ratio (z) = -0.11679 0.46391
#
# Static dielectric constant tensor:
#      x y z
#    x 1.837870 0.000000 -0.029280 
#    y 0.000000 1.886580 0.000000 
#    z -0.029280 0.000000 1.953610 
# 
# From -- ./inp_files/34993.got.cif
#   From: 2010.05.17/outbox.cif.g08.bks.cpg/sg11_18_cif.got.tgz:34993.got - 2010.06.03 12:22:45.
