data_PCOD9160351
_publ_section_title
;
Structure prediction by ZEFSAII (Michael W. Deem and Ramdas Pophale) SiO2 
 PCOD9160351
Probable space group: P 21/M
;
_chemical_formula_sum "Si O2"
_cell_formula_units_Z 26
_cell_length_a 9.303340
_cell_length_b 14.725965
_cell_length_c 13.113498
_cell_angle_alpha 90.000000
_cell_angle_beta 148.244965
_cell_angle_gamma 90.000000
_cell_volume 945.508013
_symmetry_space_group_name_H-M "P 21/M"
_symmetry_group_IT_number 11
_symmetry_cell_setting 'monoclinic'
loop_
_space_group_symop_operation_xyz
x,y,z
-x,1/2+y,-z
-x,-y,-z
x,1/2-y,z
loop_
_atom_site_type_symbol
_atom_site_label
_atom_site_fract_x
_atom_site_fract_y
_atom_site_fract_z
Si Si1 0.353839 0.149834 0.613757
Si Si2 0.226959 0.396691 0.222281
Si Si3 0.000000 0.000000 0.500000
Si Si4 0.275666 0.855054 0.597576
Si Si5 0.789639 0.639235 0.169800
Si Si6 0.141952 0.893507 0.184279
Si Si7 0.268673 0.645582 0.954818
O O1 0.225553 0.250000 0.545415
O O2 0.137944 0.069986 0.495306
O O3 0.561633 0.151395 0.643450
O O4 0.562594 0.141142 0.836557
O O5 0.529292 0.361308 0.382996
O O6 0.225932 0.504105 0.209366
O O7 0.058481 0.356731 0.024560
O O8 0.038310 0.383277 0.206606
O O9 0.694328 0.060605 0.310309
O O10 0.282966 0.750000 0.635408
O O11 0.969066 0.889641 0.377672
O O12 0.799188 0.750000 0.176602
O O13 0.485382 0.606609 0.005929
O O14 0.959177 0.609866 0.174595
O O15 0.243540 0.750000 0.910859
#
# Coordination Sequence:
#
# PCOD9160351 Si02
#       7
#     4   4   2   4   4   4   4
#     4  10  19  35  58  84 115 160 206 245 293 367
#     4  10  21  38  60  91 120 157 204 252 302 361
#     4  12  20  36  58  90 120 158 202 258 294 370
#     4  11  23  39  62  91 124 160 203 259 310 355
#     4  10  21  38  61  88 119 162 209 248 300 366
#     4  10  21  37  62  88 120 158 205 249 299 371
#     4   9  18  35  59  83 116 163 204 239 295 367
#
# _framework density 27.498445
#
# number of rings (size 3 to 8) (size 9 to 14) (size 15 to 20)
#    0.000    1.846    3.077    1.385    0.000    3.077 
#    0.000    0.000    0.000    0.000    0.000    0.000 
#    0.000    0.000    0.000    0.000    0.000    0.000 
#
# Total GULP energy -144898.671635 kJ/mol
# GULP energy per Si atom -5573.025832 kJ/mol
# Density = 2.743586 g / cm^3
# Si number density = 27.498445 Si / 1000 Ang^3
#
#
#
# Elastic Constant Matrix: (Units=GPa)
#
#
# Indices 1 2 3 4 5 6 
#
# 1 203.8833 -4.8822 57.1695 0.0000 51.6042 0.0000
# 2 -4.8822 150.0733 -1.7654 0.0000 27.6710 0.0000
# 3 57.1695 -1.7654 80.0449 0.0000 23.1759 0.0000
# 4 0.0000 0.0000 0.0000 1.5002 0.0000 17.5614
# 5 51.6042 27.6710 23.1759 0.0000 59.9080 0.0000
# 6 0.0000 0.0000 0.0000 17.5614 0.0000 38.5510
#
#
#
# Elastic Compliance Matrix: (Units=1/GPa)
#
#
# Indices 1 2 3 4 5 6 
#
# 1 0.007336 0.001205 -0.003629 0.000000 -0.005472 0.000000
# 2 0.001205 0.007600 0.000703 0.000000 -0.004820 0.000000
# 3 -0.003629 0.000703 0.016091 0.000000 -0.003424 0.000000
# 4 0.000000 0.000000 0.000000 -0.153854 0.000000 0.070086
# 5 -0.005472 -0.004820 -0.003424 0.000000 0.024957 0.000000
# 6 0.000000 0.000000 0.000000 0.070086 0.000000 -0.005987
#
#
# Mechanical properties :
#
#
# Convention : Reuss Voigt Hill
#
# Bulk Modulus (GPa) = 36.25182 59.44949 47.85066
# Shear Modulus (GPa) = -54.81237 45.55715 -4.62761
#
# Velocity S-wave (km/s) = -4.46947 4.07470 -1.29866
# Velocity P-wave (km/s) = 3.66375 6.61843 3.89748
#
# Compressibility (1/GPa) = 0.02758482
#
# Stress axis : x y z
#
# Youngs Moduli (GPa) = 136.31188 131.58622 62.14468
#
# Poissons Ratio (x) = -0.15855 0.22550
# Poissons Ratio (y) = -0.16425 -0.04366
# Poissons Ratio (z) = 0.49463 -0.09245
#
# Static dielectric constant tensor:
#      x y z
#    x 1.983390 0.000000 0.179130 
#    y 0.000000 20.898660 0.000000 
#    z 0.179130 0.000000 1.994330 
# 
# From -- ./inp_files/47776.got.cif
#   From: 2010.05.17/outbox.cif.g08.bks.cpg/sg11_24_cif.got.tgz:47776.got - 2010.06.03 12:22:45.
