data_PCOD9160348
_publ_section_title
;
Structure prediction by ZEFSAII (Michael W. Deem and Ramdas Pophale) SiO2 
 PCOD9160348
Probable space group: P 21/M
;
_chemical_formula_sum "Si O2"
_cell_formula_units_Z 28
_cell_length_a 22.019717
_cell_length_b 13.994320
_cell_length_c 10.214750
_cell_angle_alpha 90.000000
_cell_angle_beta 26.577888
_cell_angle_gamma 90.000000
_cell_volume 1408.318297
_symmetry_space_group_name_H-M "P 21/M"
_symmetry_group_IT_number 11
_symmetry_cell_setting 'monoclinic'
loop_
_space_group_symop_operation_xyz
x,y,z
-x,1/2+y,-z
-x,-y,-z
x,1/2-y,z
loop_
_atom_site_type_symbol
_atom_site_label
_atom_site_fract_x
_atom_site_fract_y
_atom_site_fract_z
Si Si1 0.764968 0.520494 0.455602
Si Si2 0.022430 0.941556 0.119999
Si Si3 0.040734 0.641601 0.630946
Si Si4 0.117363 0.859608 0.198430
Si Si5 0.339034 0.018458 0.821116
Si Si6 0.630812 0.638971 0.481485
Si Si7 0.333520 0.938555 0.098340
O O1 0.694740 0.581408 0.478970
O O2 0.664977 0.482126 0.759907
O O3 0.885455 0.574097 0.302794
O O4 0.846985 0.434865 0.225210
O O5 0.036997 0.879467 0.220769
O O6 0.020389 0.053035 0.171713
O O7 0.997491 0.750000 0.745921
O O8 0.026419 0.622878 0.502942
O O9 0.202667 0.629785 0.341904
O O10 0.162195 0.750000 0.119531
O O11 0.246392 0.929742 0.953314
O O12 0.500000 0.000000 0.500000
O O13 0.313035 0.102069 0.766944
O O14 0.310757 0.020975 0.031407
O O15 0.655808 0.750000 0.447366
O O16 0.470193 0.616087 0.798233
#
# Coordination Sequence:
#
# PCOD9160348 Si02
#       7
#     4   4   4   4   4   4   4
#     4  10  21  37  58  79 118 156 191 231 287 340
#     4  10  20  36  56  81 117 155 191 236 285 339
#     4   9  18  33  58  87 112 145 193 240 286 343
#     4  10  19  35  58  84 114 151 196 240 283 336
#     4   9  19  36  59  84 114 147 188 241 289 332
#     4  11  21  36  60  86 117 152 192 240 293 344
#     4   9  19  37  61  82 112 154 193 240 285 340
#
# _framework density 19.881868000000001
#
# number of rings (size 3 to 8) (size 9 to 14) (size 15 to 20)
#    0.000    2.286    1.429    1.286    0.000    4.571 
#    0.000    7.143    0.000    0.000    0.000    0.000 
#    0.000    0.000    0.000    0.000    0.000    0.000 
#
# Total GULP energy -156185.149967 kJ/mol
# GULP energy per Si atom -5578.041070 kJ/mol
# Density = 1.983662 g / cm^3
# Si number density = 19.881868 Si / 1000 Ang^3
#
#
#
# Elastic Constant Matrix: (Units=GPa)
#
#
# Indices 1 2 3 4 5 6 
#
# 1 76.4413 -8.7921 2.5382 0.0000 14.9553 0.0000
# 2 -8.7921 35.5128 11.6794 0.0000 13.3943 0.0000
# 3 2.5382 11.6794 67.7592 0.0000 7.7557 0.0000
# 4 0.0000 0.0000 0.0000 18.0642 0.0000 1.3610
# 5 14.9553 13.3943 7.7557 0.0000 28.5440 0.0000
# 6 0.0000 0.0000 0.0000 1.3610 0.0000 11.9192
#
#
#
# Elastic Compliance Matrix: (Units=1/GPa)
#
#
# Indices 1 2 3 4 5 6 
#
# 1 0.016687 0.009231 -0.000743 0.000000 -0.012872 0.000000
# 2 0.009231 0.040513 -0.004747 0.000000 -0.022557 0.000000
# 3 -0.000743 -0.004747 0.015796 0.000000 -0.001675 0.000000
# 4 0.000000 0.000000 0.000000 0.055839 0.000000 -0.006376
# 5 -0.012872 -0.022557 -0.001675 0.000000 0.052818 0.000000
# 6 0.000000 0.000000 0.000000 -0.006376 0.000000 0.084626
#
#
# Mechanical properties :
#
#
# Convention : Reuss Voigt Hill
#
# Bulk Modulus (GPa) = 12.42586 21.17381 16.79983
# Shear Modulus (GPa) = 17.50559 23.32465 20.41512
#
# Velocity S-wave (km/s) = 2.97051 3.42886 3.20788
# Velocity P-wave (km/s) = 4.24601 5.13313 4.71050
#
# Compressibility (1/GPa) = 0.08047736
#
# Stress axis : x y z
#
# Youngs Moduli (GPa) = 59.92807 24.68337 63.30738
#
# Poissons Ratio (x) = -0.22784 0.04702
# Poissons Ratio (y) = -0.55317 0.30052
# Poissons Ratio (z) = 0.04451 0.11717
#
# Static dielectric constant tensor:
#      x y z
#    x 1.739630 0.000000 0.007690 
#    y 0.000000 1.680730 0.000000 
#    z 0.007690 0.000000 1.743690 
# 
# From -- ./inp_files/22089.got.cif
#   From: 2010.05.17/outbox.cif.g08.bks.cpg/sg11_12_cif.got.tgz:22089.got - 2010.06.03 12:22:45.
