data_PCOD9160226
_publ_section_title
;
Structure prediction by ZEFSAII (Michael W. Deem and Ramdas Pophale) SiO2 
 PCOD9160226
Probable space group: P 21/M
;
_chemical_formula_sum "Si O2"
_cell_formula_units_Z 32
_cell_length_a 14.525707
_cell_length_b 7.549347
_cell_length_c 20.555899
_cell_angle_alpha 90.000000
_cell_angle_beta 138.858464
_cell_angle_gamma 90.000000
_cell_volume 1483.054565
_symmetry_space_group_name_H-M "P 21/M"
_symmetry_group_IT_number 11
_symmetry_cell_setting 'monoclinic'
loop_
_space_group_symop_operation_xyz
x,y,z
-x,1/2+y,-z
-x,-y,-z
x,1/2-y,z
loop_
_atom_site_type_symbol
_atom_site_label
_atom_site_fract_x
_atom_site_fract_y
_atom_site_fract_z
Si Si1 0.905596 0.539632 0.800235
Si Si2 0.170038 0.033423 0.383690
Si Si3 0.213209 0.532995 0.007757
Si Si4 0.312772 0.536530 0.202254
Si Si5 0.870606 0.459754 0.270347
Si Si6 0.627330 0.967330 0.398407
Si Si7 0.649613 0.037685 0.048987
Si Si8 0.838250 0.540516 0.398872
O O1 0.924062 0.750000 0.800927
O O2 0.849212 0.472129 0.700767
O O3 0.795016 0.509846 0.798335
O O4 0.058457 0.472977 0.903360
O O5 0.174433 0.250000 0.385661
O O6 0.304261 0.976801 0.496669
O O7 0.029485 0.975775 0.347135
O O8 0.211168 0.750000 0.008768
O O9 0.257552 0.472337 0.102881
O O10 0.321114 0.476973 0.008804
O O11 0.318929 0.750000 0.201932
O O12 0.469194 0.473672 0.301932
O O13 0.879892 0.250000 0.264214
O O14 0.769397 0.533257 0.161028
O O15 0.810986 0.484939 0.310457
O O16 0.626739 0.750000 0.397550
O O17 0.730974 0.028936 0.395823
O O18 0.663628 0.250000 0.054586
O O19 0.500000 0.000000 0.000000
O O20 0.823870 0.750000 0.393548
O O21 0.000000 0.500000 0.500000
#
# Coordination Sequence:
#
# PCOD9160226 Si02
#       8
#     4   4   4   4   4   4   4   4
#     4  10  19  35  59  80  98 135 184 226 266 319
#     4   9  16  32  57  78 101 139 184 217 255 326
#     4   9  18  35  58  78 103 143 185 214 260 337
#     4  10  21  36  54  78 107 138 174 224 274 322
#     4  10  19  35  56  79 109 146 186 227 270 322
#     4   9  19  34  53  77 106 143 179 211 263 329
#     4  10  21  36  56  83 113 147 184 225 273 327
#     4  11  21  34  56  83 110 146 186 225 266 323
#
# _framework density 21.577089000000001
#
# number of rings (size 3 to 8) (size 9 to 14) (size 15 to 20)
#    0.000    2.250    2.500    0.750    1.750    1.000 
#    0.000    3.125    0.000    0.000    0.000    0.000 
#    0.000    0.000    0.000    0.000    0.000    0.000 
#
# Total GULP energy -178717.127756 kJ/mol
# GULP energy per Si atom -5584.910242 kJ/mol
# Density = 2.152798 g / cm^3
# Si number density = 21.577089 Si / 1000 Ang^3
#
#
#
# Elastic Constant Matrix: (Units=GPa)
#
#
# Indices 1 2 3 4 5 6 
#
# 1 171.5152 -6.1043 104.6070 0.0000 -10.7860 0.0000
# 2 -6.1043 44.7739 2.3014 0.0000 -2.4121 0.0000
# 3 104.6070 2.3014 173.4337 0.0000 -22.1187 0.0000
# 4 0.0000 0.0000 0.0000 4.1563 0.0000 -1.0587
# 5 -10.7860 -2.4121 -22.1187 0.0000 38.9432 0.0000
# 6 0.0000 0.0000 0.0000 -1.0587 0.0000 25.3680
#
#
#
# Elastic Compliance Matrix: (Units=1/GPa)
#
#
# Indices 1 2 3 4 5 6 
#
# 1 0.009343 0.001537 -0.005728 0.000000 -0.000571 0.000000
# 2 0.001537 0.022665 -0.001072 0.000000 0.001221 0.000000
# 3 -0.005728 -0.001072 0.009729 0.000000 0.003873 0.000000
# 4 0.000000 0.000000 0.000000 0.243182 0.000000 0.010149
# 5 -0.000571 0.001221 0.003873 0.000000 0.027796 0.000000
# 6 0.000000 0.000000 0.000000 0.010149 0.000000 0.039843
#
#
# Mechanical properties :
#
#
# Convention : Reuss Voigt Hill
#
# Bulk Modulus (GPa) = 32.04065 65.70345 48.87205
# Shear Modulus (GPa) = 13.38729 32.95473 23.17101
#
# Velocity S-wave (km/s) = 2.49357 3.91231 3.28055
# Velocity P-wave (km/s) = 4.81374 7.13617 6.08675
#
# Compressibility (1/GPa) = 0.03121035
#
# Stress axis : x y z
#
# Youngs Moduli (GPa) = 107.03225 44.12099 102.78375
#
# Poissons Ratio (x) = -0.06784 0.58879
# Poissons Ratio (y) = -0.16456 0.11023
# Poissons Ratio (z) = 0.61313 0.04732
#
# Static dielectric constant tensor:
#      x y z
#    x 1.747650 0.000000 -0.009200 
#    y 0.000000 1.819070 0.000000 
#    z -0.009200 0.000000 1.770100 
# 
# From -- ./inp_files/54375.got.cif
#   From: 2010.05.17/outbox.cif.g08.bks.cpg/sg11_28_cif.got.tgz:54375.got - 2010.06.03 12:22:45.
