data_PCOD9160381
_publ_section_title
;
Structure prediction by ZEFSAII (Michael W. Deem and Ramdas Pophale) SiO2 
 PCOD9160381
Probable space group: P 21/M
;
_chemical_formula_sum "Si O2"
_cell_formula_units_Z 32
_cell_length_a 12.721240
_cell_length_b 8.547582
_cell_length_c 15.197349
_cell_angle_alpha 90.000000
_cell_angle_beta 91.580775
_cell_angle_gamma 90.000000
_cell_volume 1651.867646
_symmetry_space_group_name_H-M "P 21/M"
_symmetry_group_IT_number 11
_symmetry_cell_setting 'monoclinic'
loop_
_space_group_symop_operation_xyz
x,y,z
-x,1/2+y,-z
-x,-y,-z
x,1/2-y,z
loop_
_atom_site_type_symbol
_atom_site_label
_atom_site_fract_x
_atom_site_fract_y
_atom_site_fract_z
Si Si1 0.326988 0.937014 0.511109
Si Si2 0.898804 0.562273 0.445720
Si Si3 0.508242 0.439049 0.634885
Si Si4 0.749863 0.062959 0.929948
Si Si5 0.695201 0.561045 0.115066
Si Si6 0.123085 0.438199 0.755770
Si Si7 0.030314 0.435169 0.097202
Si Si8 0.466753 0.559533 0.163135
O O1 0.317842 0.750000 0.511302
O O2 0.394994 0.983750 0.426597
O O3 0.211499 0.009176 0.514344
O O4 0.400942 0.991787 0.593240
O O5 0.902474 0.750000 0.445382
O O6 0.897497 0.505871 0.343732
O O7 0.000000 0.500000 0.500000
O O8 0.498984 0.250000 0.632396
O O9 0.529082 0.487958 0.735026
O O10 0.757946 0.250000 0.921951
O O11 0.639263 0.008150 0.886802
O O12 0.849162 0.985008 0.885962
O O13 0.748999 0.015480 0.032072
O O14 0.698150 0.750000 0.105175
O O15 0.761360 0.521359 0.203905
O O16 0.574691 0.508518 0.119745
O O17 0.116628 0.250000 0.754293
O O18 0.041427 0.498284 0.826546
O O19 0.019394 0.250000 0.094364
O O20 0.000000 0.500000 0.000000
O O21 0.467004 0.750000 0.161332
#
# Coordination Sequence:
#
# PCOD9160381 Si02
#       8
#     4   4   4   4   4   4   4   4
#     4  10  20  35  59  89 118 150 196 248 299 356
#     4  11  24  42  63  88 122 161 200 247 304 363
#     4   9  18  36  60  84 113 155 198 241 295 356
#     4  11  22  36  56  84 118 156 196 241 294 350
#     4  10  19  35  59  83 112 150 195 243 292 348
#     4  10  22  40  64  89 115 155 201 244 299 358
#     4  12  24  40  62  87 117 152 198 250 298 352
#     4   9  19  35  56  83 115 153 196 237 289 354
#
# _framework density 19.372012999999999
#
# number of rings (size 3 to 8) (size 9 to 14) (size 15 to 20)
#    0.000    1.750    1.250    3.375    0.000    4.500 
#    0.000    6.250    0.000    0.000    0.000    0.000 
#    0.000    0.000    0.000    0.000    0.000    0.000 
#
# Total GULP energy -178784.134028 kJ/mol
# GULP energy per Si atom -5587.004188 kJ/mol
# Density = 1.932792 g / cm^3
# Si number density = 19.372013 Si / 1000 Ang^3
#
#
#
# Elastic Constant Matrix: (Units=GPa)
#
#
# Indices 1 2 3 4 5 6 
#
# 1 141.8880 18.5459 18.8547 0.0000 3.7240 0.0000
# 2 18.5459 19.3420 4.1168 0.0000 5.0625 0.0000
# 3 18.8547 4.1168 29.1576 0.0000 4.7770 0.0000
# 4 0.0000 0.0000 0.0000 24.9994 0.0000 -1.7291
# 5 3.7240 5.0625 4.7770 0.0000 26.1197 0.0000
# 6 0.0000 0.0000 0.0000 -1.7291 0.0000 32.4898
#
#
#
# Elastic Compliance Matrix: (Units=1/GPa)
#
#
# Indices 1 2 3 4 5 6 
#
# 1 0.008631 -0.007564 -0.004693 0.000000 0.001094 0.000000
# 2 -0.007564 0.062181 -0.002155 0.000000 -0.010579 0.000000
# 3 -0.004693 -0.002155 0.038614 0.000000 -0.005975 0.000000
# 4 0.000000 0.000000 0.000000 0.040149 0.000000 0.002137
# 5 0.001094 -0.010579 -0.005975 0.000000 0.041273 0.000000
# 6 0.000000 0.000000 0.000000 0.002137 0.000000 0.030893
#
#
# Mechanical properties :
#
#
# Convention : Reuss Voigt Hill
#
# Bulk Modulus (GPa) = 12.40637 30.38029 21.39333
# Shear Modulus (GPa) = 18.02249 26.64646 22.33447
#
# Velocity S-wave (km/s) = 3.05345 3.71281 3.39916
# Velocity P-wave (km/s) = 4.34161 5.83923 5.14520
#
# Compressibility (1/GPa) = 0.08060374
#
# Stress axis : x y z
#
# Youngs Moduli (GPa) = 115.85728 16.08208 25.89726
#
# Poissons Ratio (x) = 0.12164 0.12153
# Poissons Ratio (y) = 0.87629 0.05581
# Poissons Ratio (z) = 0.54368 0.03466
#
# Static dielectric constant tensor:
#      x y z
#    x 1.671910 0.000000 0.004630 
#    y 0.000000 1.658990 0.000000 
#    z 0.004630 0.000000 1.670110 
# 
# From -- ./inp_files/49345.got.cif
#   From: 2010.05.17/outbox.cif.g08.bks.cpg/sg11_25_cif.got.tgz:49345.got - 2010.06.03 12:22:45.
