data_PCOD9160663
_publ_section_title
;
Structure prediction by ZEFSAII (Michael W. Deem and Ramdas Pophale) SiO2 
 PCOD9160663
Probable space group: P 21/M
;
_chemical_formula_sum "Si O2"
_cell_formula_units_Z 32
_cell_length_a 26.864628
_cell_length_b 7.969184
_cell_length_c 20.878221
_cell_angle_alpha 90.000000
_cell_angle_beta 21.067325
_cell_angle_gamma 90.000000
_cell_volume 1606.735625
_symmetry_space_group_name_H-M "P 21/M"
_symmetry_group_IT_number 11
_symmetry_cell_setting 'monoclinic'
loop_
_space_group_symop_operation_xyz
x,y,z
-x,1/2+y,-z
-x,-y,-z
x,1/2-y,z
loop_
_atom_site_type_symbol
_atom_site_label
_atom_site_fract_x
_atom_site_fract_y
_atom_site_fract_z
Si Si1 0.334832 0.048618 0.362297
Si Si2 0.638200 0.455675 0.045044
Si Si3 0.159660 0.547567 0.309465
Si Si4 0.626004 0.049285 0.204573
Si Si5 0.656106 0.450152 0.793972
Si Si6 0.864914 0.547168 0.285498
Si Si7 0.321208 0.044406 0.611489
Si Si8 0.184706 0.050497 0.906776
O O1 0.337434 0.250000 0.364836
O O2 0.487627 0.989939 0.200075
O O3 0.219542 0.986763 0.550645
O O4 0.309503 0.007201 0.318929
O O5 0.638850 0.250000 0.043977
O O6 0.656153 0.512803 0.096591
O O7 0.756345 0.511533 0.854006
O O8 0.168308 0.750000 0.299468
O O9 0.238857 0.484915 0.277900
O O10 0.000000 0.500000 0.500000
O O11 0.612646 0.250000 0.215433
O O12 0.476767 0.986944 0.408862
O O13 0.744119 0.012505 0.114014
O O14 0.662319 0.250000 0.787469
O O15 0.500000 0.500000 0.000000
O O16 0.862466 0.750000 0.288778
O O17 0.782535 0.492606 0.320773
O O18 0.023514 0.493287 0.095626
O O19 0.322027 0.250000 0.611110
O O20 0.265952 0.985262 0.746489
O O21 0.198084 0.250000 0.890332
#
# Coordination Sequence:
#
# PCOD9160663 Si02
#       8
#     4   4   4   4   4   4   4   4
#     4  10  19  36  62  87 111 142 190 245 285 327
#     4   9  17  35  61  83 106 141 187 237 277 324
#     4  10  22  39  58  83 115 147 183 226 277 329
#     4  10  19  36  62  84 105 144 197 239 277 336
#     4  11  22  37  60  88 118 151 187 231 280 335
#     4  10  20  37  61  84 107 147 197 236 279 340
#     4   9  18  35  60  84 107 145 194 240 284 335
#     4  11  23  36  51  81 124 153 178 232 294 341
#
# _framework density 19.916159
#
# number of rings (size 3 to 8) (size 9 to 14) (size 15 to 20)
#    0.000    2.000    2.500    1.500    0.000    2.500 
#    0.000    6.875    0.000    0.000    0.000    0.000 
#    0.000    0.000    0.000    0.000    0.000    0.000 
#
# Total GULP energy -178740.616808 kJ/mol
# GULP energy per Si atom -5585.644275 kJ/mol
# Density = 1.987083 g / cm^3
# Si number density = 19.916159 Si / 1000 Ang^3
#
#
#
# Elastic Constant Matrix: (Units=GPa)
#
#
# Indices 1 2 3 4 5 6 
#
# 1 131.7469 9.7894 34.6519 0.0000 8.7921 0.0000
# 2 9.7894 8.9065 7.6891 0.0000 6.3144 0.0000
# 3 34.6519 7.6891 62.7669 0.0000 4.6391 0.0000
# 4 0.0000 0.0000 0.0000 21.5163 0.0000 3.4145
# 5 8.7921 6.3144 4.6391 0.0000 41.3624 0.0000
# 6 0.0000 0.0000 0.0000 3.4145 0.0000 9.8805
#
#
#
# Elastic Compliance Matrix: (Units=1/GPa)
#
#
# Indices 1 2 3 4 5 6 
#
# 1 0.009206 -0.006007 -0.004305 0.000000 -0.000557 0.000000
# 2 -0.006007 0.143590 -0.012855 0.000000 -0.019202 0.000000
# 3 -0.004305 -0.012855 0.019835 0.000000 0.000653 0.000000
# 4 0.000000 0.000000 0.000000 0.049173 0.000000 -0.016993
# 5 -0.000557 -0.019202 0.000653 0.000000 0.027153 0.000000
# 6 0.000000 0.000000 0.000000 -0.016993 0.000000 0.107082
#
#
# Mechanical properties :
#
#
# Convention : Reuss Voigt Hill
#
# Bulk Modulus (GPa) = 7.91780 34.18679 21.05229
# Shear Modulus (GPa) = 11.24926 24.63783 17.94355
#
# Velocity S-wave (km/s) = 2.37920 3.52103 3.00485
# Velocity P-wave (km/s) = 3.39582 5.80799 4.75733
#
# Compressibility (1/GPa) = 0.12629765
#
# Stress axis : x y z
#
# Youngs Moduli (GPa) = 108.62185 6.96425 50.41492
#
# Poissons Ratio (x) = 0.04183 0.21706
# Poissons Ratio (y) = 0.65249 0.64807
# Poissons Ratio (z) = 0.46767 0.08952
#
# Static dielectric constant tensor:
#      x y z
#    x 1.687180 0.000000 0.014930 
#    y 0.000000 1.730580 0.000000 
#    z 0.014930 0.000000 1.668960 
# 
# From -- ./inp_files/66918.got.cif
#   From: 2010.05.17/outbox.cif.g08.bks.cpg/sg11_34_cif.got.tgz:66918.got - 2010.06.03 12:22:45.
