data_PCOD9160036
_publ_section_title
;
Structure prediction by ZEFSAII (Michael W. Deem and Ramdas Pophale) SiO2 
 PCOD9160036
Probable space group: P 21/M
;
_chemical_formula_sum "Si O2"
_cell_formula_units_Z 28
_cell_length_a 5.644653
_cell_length_b 13.431746
_cell_length_c 18.485992
_cell_angle_alpha 90.000000
_cell_angle_beta 124.045627
_cell_angle_gamma 90.000000
_cell_volume 1161.323507
_symmetry_space_group_name_H-M "P 21/M"
_symmetry_group_IT_number 11
_symmetry_cell_setting 'monoclinic'
loop_
_space_group_symop_operation_xyz
x,y,z
-x,1/2+y,-z
-x,-y,-z
x,1/2-y,z
loop_
_atom_site_type_symbol
_atom_site_label
_atom_site_fract_x
_atom_site_fract_y
_atom_site_fract_z
Si Si1 0.361227 0.418237 0.425021
Si Si2 0.070345 0.013009 0.902490
Si Si3 0.573889 0.860109 0.806457
Si Si4 0.471126 0.358468 0.038018
Si Si5 0.928756 0.078047 0.725447
Si Si6 0.281050 0.362258 0.645962
Si Si7 0.186890 0.906929 0.602803
O O1 0.500000 0.500000 0.500000
O O2 0.182643 0.475329 0.331443
O O3 0.624992 0.366362 0.430930
O O4 0.128294 0.366610 0.435581
O O5 0.775231 0.955706 0.846463
O O6 0.152614 0.097577 0.973605
O O7 0.299094 0.927963 0.959583
O O8 0.106211 0.058646 0.828463
O O9 0.712834 0.750000 0.818763
O O10 0.361846 0.879593 0.704836
O O11 0.439796 0.855044 0.862993
O O12 0.477169 0.250000 0.007246
O O13 0.628157 0.130121 0.697294
O O14 0.129773 0.129093 0.699402
O O15 0.206281 0.250000 0.606925
O O16 0.181656 0.470471 0.595470
#
# Coordination Sequence:
#
# PCOD9160036 Si02
#       7
#     4   4   4   4   4   4   4
#     4  10  19  36  64  91 125 164 206 255 315 374
#     4  11  21  40  61  85 130 160 212 266 315 387
#     4  11  22  40  63  87 121 167 212 265 322 377
#     4  10  23  38  60  91 122 164 212 263 326 379
#     4  10  21  36  60  90 119 163 210 246 310 370
#     4  10  19  34  57  85 119 155 200 247 298 363
#     4  10  21  38  60  92 121 163 213 251 311 372
#
# _framework density 24.110420000000001
#
# number of rings (size 3 to 8) (size 9 to 14) (size 15 to 20)
#    0.000    1.714    2.857    3.429    0.000    1.143 
#    0.000    0.000    0.000   20.571    0.000    0.000 
#    0.000    0.000    0.000    0.000    0.000    0.000 
#
# Total GULP energy -156182.695154 kJ/mol
# GULP energy per Si atom -5577.953398 kJ/mol
# Density = 2.405554 g / cm^3
# Si number density = 24.110420 Si / 1000 Ang^3
#
#
#
# Elastic Constant Matrix: (Units=GPa)
#
#
# Indices 1 2 3 4 5 6 
#
# 1 175.6232 19.7738 15.7195 0.0000 -3.6377 0.0000
# 2 19.7738 110.2583 14.2157 0.0000 -2.3775 0.0000
# 3 15.7195 14.2157 81.5412 0.0000 -4.5623 0.0000
# 4 0.0000 0.0000 0.0000 10.0885 0.0000 -3.2979
# 5 -3.6377 -2.3775 -4.5623 0.0000 30.3669 0.0000
# 6 0.0000 0.0000 0.0000 -3.2979 0.0000 10.5031
#
#
#
# Elastic Compliance Matrix: (Units=1/GPa)
#
#
# Indices 1 2 3 4 5 6 
#
# 1 0.005893 -0.000924 -0.000947 0.000000 0.000491 0.000000
# 2 -0.000924 0.009430 -0.001443 0.000000 0.000411 0.000000
# 3 -0.000947 -0.001443 0.012793 0.000000 0.001696 0.000000
# 4 0.000000 0.000000 0.000000 0.110461 0.000000 0.034684
# 5 0.000491 0.000411 0.001696 0.000000 0.033276 0.000000
# 6 0.000000 0.000000 0.000000 0.034684 0.000000 0.106101
#
#
# Mechanical properties :
#
#
# Convention : Reuss Voigt Hill
#
# Bulk Modulus (GPa) = 46.53951 51.87118 49.20535
# Shear Modulus (GPa) = 17.13823 31.37259 24.25541
#
# Velocity S-wave (km/s) = 2.66902 3.61113 3.17521
# Velocity P-wave (km/s) = 5.37055 6.24082 5.82196
#
# Compressibility (1/GPa) = 0.02148712
#
# Stress axis : x y z
#
# Youngs Moduli (GPa) = 169.69181 106.04185 78.16889
#
# Poissons Ratio (x) = 0.09799 0.07406
# Poissons Ratio (y) = 0.15681 0.11279
# Poissons Ratio (z) = 0.16078 0.15301
#
# Static dielectric constant tensor:
#      x y z
#    x 1.997300 0.000000 0.002910 
#    y 0.000000 1.968250 0.000000 
#    z 0.002910 0.000000 1.943350 
# 
# From -- ./inp_files/57127.got.cif
#   From: 2010.05.17/outbox.cif.g08.bks.cpg/sg11_29_cif.got.tgz:57127.got - 2010.06.03 12:22:45.
