data_PCOD9160525
_publ_section_title
;
Structure prediction by ZEFSAII (Michael W. Deem and Ramdas Pophale) SiO2 
 PCOD9160525
Probable space group: P 21/M
;
_chemical_formula_sum "Si O2"
_cell_formula_units_Z 32
_cell_length_a 18.706542
_cell_length_b 12.317384
_cell_length_c 8.935180
_cell_angle_alpha 90.000000
_cell_angle_beta 131.791680
_cell_angle_gamma 90.000000
_cell_volume 1534.989271
_symmetry_space_group_name_H-M "P 21/M"
_symmetry_group_IT_number 11
_symmetry_cell_setting 'monoclinic'
loop_
_space_group_symop_operation_xyz
x,y,z
-x,1/2+y,-z
-x,-y,-z
x,1/2-y,z
loop_
_atom_site_type_symbol
_atom_site_label
_atom_site_fract_x
_atom_site_fract_y
_atom_site_fract_z
Si Si1 0.546715 0.125444 0.062041
Si Si2 0.214279 0.129176 0.628447
Si Si3 0.141208 0.468614 0.102812
Si Si4 0.682325 0.021715 0.461973
Si Si5 0.727614 0.589829 0.958098
Si Si6 0.641507 0.370258 0.865333
Si Si7 0.023346 0.376323 0.215207
Si Si8 0.561668 0.873332 0.516905
O O1 0.499758 0.250000 0.006849
O O2 0.622027 0.117937 0.304207
O O3 0.598783 0.126397 0.973466
O O4 0.500000 0.000000 0.000000
O O5 0.224201 0.250000 0.576580
O O6 0.279691 0.048821 0.625104
O O7 0.102563 0.099237 0.452916
O O8 0.245064 0.131195 0.842690
O O9 0.222727 0.538066 0.304905
O O10 0.197148 0.388990 0.068343
O O11 0.081540 0.402447 0.143280
O O12 0.067623 0.545630 0.913611
O O13 0.612751 0.949375 0.467656
O O14 0.721421 0.459809 0.960919
O O15 0.622672 0.623981 0.754175
O O16 0.675740 0.250000 0.879609
O O17 0.551127 0.397125 0.631531
O O18 0.996943 0.250000 0.185287
O O19 0.566252 0.750000 0.465102
#
# Coordination Sequence:
#
# PCOD9160525 Si02
#       8
#     4   4   4   4   4   4   4   4
#     4  11  22  38  60  87 119 159 207 252 295 343
#     4  10  20  33  55  84 114 145 185 238 291 355
#     4   9  21  36  59  84 109 144 184 240 288 350
#     4  10  19  36  57  83 113 149 197 241 290 339
#     4  11  21  35  55  83 117 145 193 233 289 349
#     4  10  21  37  55  77 116 160 195 239 293 340
#     4   9  19  39  60  80 108 143 182 231 298 357
#     4  10  20  35  56  80 114 157 199 244 290 336
#
# _framework density 20.847048999999998
#
# number of rings (size 3 to 8) (size 9 to 14) (size 15 to 20)
#    0.000    2.000    2.500    1.125    0.000    5.500 
#    0.000    1.875    0.000    0.000    0.000    0.000 
#    0.000    0.000    0.000    0.000    0.000    0.000 
#
# Total GULP energy -178460.872784 kJ/mol
# GULP energy per Si atom -5576.902275 kJ/mol
# Density = 2.079960 g / cm^3
# Si number density = 20.847049 Si / 1000 Ang^3
#
#
#
# Elastic Constant Matrix: (Units=GPa)
#
#
# Indices 1 2 3 4 5 6 
#
# 1 34.1474 16.4052 11.8321 0.0000 -0.5280 0.0000
# 2 16.4052 96.1336 28.1013 0.0000 12.3512 0.0000
# 3 11.8321 28.1013 119.0023 0.0000 -6.0396 0.0000
# 4 0.0000 0.0000 0.0000 23.0343 0.0000 3.3824
# 5 -0.5280 12.3512 -6.0396 0.0000 25.4060 0.0000
# 6 0.0000 0.0000 0.0000 3.3824 0.0000 10.0087
#
#
#
# Elastic Compliance Matrix: (Units=1/GPa)
#
#
# Indices 1 2 3 4 5 6 
#
# 1 0.032549 -0.005391 -0.001818 0.000000 0.002865 0.000000
# 2 -0.005391 0.013098 -0.002921 0.000000 -0.007174 0.000000
# 3 -0.001818 -0.002921 0.009458 0.000000 0.003631 0.000000
# 4 0.000000 0.000000 0.000000 0.045680 0.000000 -0.015438
# 5 0.002865 -0.007174 0.003631 0.000000 0.043771 0.000000
# 6 0.000000 0.000000 0.000000 -0.015438 0.000000 0.105130
#
#
# Mechanical properties :
#
#
# Convention : Reuss Voigt Hill
#
# Bulk Modulus (GPa) = 28.69869 40.21783 34.45826
# Shear Modulus (GPa) = 17.75812 24.55278 21.15545
#
# Velocity S-wave (km/s) = 2.92178 3.43557 3.18904
# Velocity P-wave (km/s) = 5.01782 5.92210 5.48862
#
# Compressibility (1/GPa) = 0.03484480
#
# Stress axis : x y z
#
# Youngs Moduli (GPa) = 30.72283 76.34891 105.73110
#
# Poissons Ratio (x) = 0.41162 0.19219
# Poissons Ratio (y) = 0.16564 0.30884
# Poissons Ratio (z) = 0.05585 0.22301
#
# Static dielectric constant tensor:
#      x y z
#    x 1.727760 0.000000 0.013690 
#    y 0.000000 1.804860 0.000000 
#    z 0.013690 0.000000 1.789430 
# 
# From -- ./inp_files/26622.got.cif
#   From: 2010.05.17/outbox.cif.g08.bks.cpg/sg11_14_cif.got.tgz:26622.got - 2010.06.03 12:22:45.
