data_PCOD9160797
_publ_section_title
;
Structure prediction by ZEFSAII (Michael W. Deem and Ramdas Pophale) SiO2 
 PCOD9160797
Probable space group: P 21/M
;
_chemical_formula_sum "Si O2"
_cell_formula_units_Z 30
_cell_length_a 9.189929
_cell_length_b 16.215484
_cell_length_c 8.303802
_cell_angle_alpha 90.000000
_cell_angle_beta 78.786731
_cell_angle_gamma 90.000000
_cell_volume 1213.803217
_symmetry_space_group_name_H-M "P 21/M"
_symmetry_group_IT_number 11
_symmetry_cell_setting 'monoclinic'
loop_
_space_group_symop_operation_xyz
x,y,z
-x,1/2+y,-z
-x,-y,-z
x,1/2-y,z
loop_
_atom_site_type_symbol
_atom_site_label
_atom_site_fract_x
_atom_site_fract_y
_atom_site_fract_z
Si Si1 0.218114 0.960324 0.969980
Si Si2 0.287316 0.373702 0.484666
Si Si3 0.610891 0.887824 0.196216
Si Si4 0.419128 0.844899 0.734204
Si Si5 0.730197 0.750000 0.948105
Si Si6 0.952266 0.343194 0.491893
Si Si7 0.318635 0.566781 0.418204
Si Si8 0.938385 0.908444 0.842114
O O1 0.346649 0.895390 0.897580
O O2 0.062179 0.919334 0.953060
O O3 0.268563 0.039713 0.852619
O O4 0.173750 0.013962 0.136534
O O5 0.350677 0.346097 0.642128
O O6 0.400613 0.343413 0.320847
O O7 0.290458 0.472325 0.468265
O O8 0.119249 0.344070 0.518632
O O9 0.624143 0.822503 0.052394
O O10 0.452192 0.928318 0.262043
O O11 0.370325 0.750000 0.750832
O O12 0.368159 0.888510 0.576938
O O13 0.850804 0.823182 0.873270
O O14 0.912971 0.250000 0.456523
O O15 0.819131 0.381386 0.620719
O O16 0.964061 0.404069 0.338337
#
# Coordination Sequence:
#
# PCOD9160797 Si02
#       8
#     4   4   4   4   2   4   4   4
#     4  10  19  37  63  86 116 152 208 253 285 349
#     4  11  22  38  57  90 127 157 188 250 317 371
#     4  10  20  38  62  94 115 151 203 252 307 348
#     4  11  20  34  61  93 120 153 202 262 296 347
#     4  10  22  34  62  86 120 152 200 258 288 346
#     4  12  24  37  58  93 125 161 198 245 309 375
#     4  11  21  37  61  87 118 158 203 247 300 366
#     4  10  21  38  57  89 117 160 201 249 292 354
#
# _framework density 24.715703999999999
#
# number of rings (size 3 to 8) (size 9 to 14) (size 15 to 20)
#    0.000    1.333    4.667    2.000    6.533    0.000 
#    0.000    0.667    0.000    0.000    3.467    0.000 
#    0.000    0.000    0.000    0.000    0.000    0.000 
#
# Total GULP energy -167159.206730 kJ/mol
# GULP energy per Si atom -5571.973558 kJ/mol
# Density = 2.465945 g / cm^3
# Si number density = 24.715704 Si / 1000 Ang^3
#
#
#
# Elastic Constant Matrix: (Units=GPa)
#
#
# Indices 1 2 3 4 5 6 
#
# 1 109.4867 24.4843 17.1258 0.0000 -32.4745 0.0000
# 2 24.4843 139.7783 23.3300 0.0000 -7.5290 0.0000
# 3 17.1258 23.3300 52.9616 0.0000 -20.8037 0.0000
# 4 0.0000 0.0000 0.0000 44.0462 0.0000 -36.4429
# 5 -32.4745 -7.5290 -20.8037 0.0000 37.3903 0.0000
# 6 0.0000 0.0000 0.0000 -36.4429 0.0000 30.3288
#
#
#
# Elastic Compliance Matrix: (Units=1/GPa)
#
#
# Indices 1 2 3 4 5 6 
#
# 1 0.012715 -0.001806 0.001125 0.000000 0.011305 0.000000
# 2 -0.001806 0.007984 -0.003734 0.000000 -0.002038 0.000000
# 3 0.001125 -0.003734 0.025915 0.000000 0.014644 0.000000
# 4 0.000000 0.000000 0.000000 3.898120 0.000000 4.683961
# 5 0.011305 -0.002038 0.014644 0.000000 0.044301 0.000000
# 6 0.000000 0.000000 0.000000 4.683961 0.000000 5.661195
#
#
# Mechanical properties :
#
#
# Convention : Reuss Voigt Hill
#
# Bulk Modulus (GPa) = 26.46626 48.01189 37.23907
# Shear Modulus (GPa) = 0.51697 38.17217 19.34457
#
# Velocity S-wave (km/s) = 0.45785 3.93421 2.80068
# Velocity P-wave (km/s) = 3.31829 6.33287 5.05550
#
# Compressibility (1/GPa) = 0.03778396
#
# Stress axis : x y z
#
# Youngs Moduli (GPa) = 78.64938 125.25190 38.58794
#
# Poissons Ratio (x) = 0.22620 -0.04341
# Poissons Ratio (y) = 0.14204 0.14407
# Poissons Ratio (z) = -0.08847 0.46764
#
# Static dielectric constant tensor:
#      x y z
#    x 2.084520 0.000000 0.054070 
#    y 0.000000 1.826950 0.000000 
#    z 0.054070 0.000000 2.011390 
# 
# From -- ./inp_files/31834.got.cif
#   From: 2010.05.17/outbox.cif.g08.bks.cpg/sg11_16_cif.got.tgz:31834.got - 2010.06.03 12:22:45.
