data_PCOD9160010
_publ_section_title
;
Structure prediction by ZEFSAII (Michael W. Deem and Ramdas Pophale) SiO2 
 PCOD9160010
Probable space group: P 21/M
;
_chemical_formula_sum "Si O2"
_cell_formula_units_Z 32
_cell_length_a 31.602669
_cell_length_b 7.674497
_cell_length_c 12.460731
_cell_angle_alpha 90.000000
_cell_angle_beta 28.148933
_cell_angle_gamma 90.000000
_cell_volume 1425.748744
_symmetry_space_group_name_H-M "P 21/M"
_symmetry_group_IT_number 11
_symmetry_cell_setting 'monoclinic'
loop_
_space_group_symop_operation_xyz
x,y,z
-x,1/2+y,-z
-x,-y,-z
x,1/2-y,z
loop_
_atom_site_type_symbol
_atom_site_label
_atom_site_fract_x
_atom_site_fract_y
_atom_site_fract_z
Si Si1 0.652906 0.457024 0.700753
Si Si2 0.848337 0.039903 0.342082
Si Si3 0.404633 0.550576 0.590446
Si Si4 0.899391 0.464279 0.466874
Si Si5 0.579022 0.958194 0.081945
Si Si6 0.712624 0.546453 0.341316
Si Si7 0.093302 0.043463 0.018544
Si Si8 0.287036 0.954685 0.042041
O O1 0.656923 0.250000 0.679814
O O2 0.747680 0.521166 0.538858
O O3 0.651415 0.531811 0.584741
O O4 0.579662 0.498477 0.954580
O O5 0.847138 0.250000 0.346736
O O6 0.880393 0.980554 0.386526
O O7 0.907060 0.983401 0.109118
O O8 0.428112 0.750000 0.567161
O O9 0.494119 0.471090 0.338650
O O10 0.332563 0.549254 0.656263
O O11 0.356444 0.467113 0.800951
O O12 0.898962 0.250000 0.468920
O O13 0.999111 0.523338 0.275055
O O14 0.814046 0.524535 0.726706
O O15 0.579924 0.750000 0.087617
O O16 0.667310 0.029558 0.943658
O O17 0.719724 0.750000 0.297279
O O18 0.811651 0.474967 0.150138
O O19 0.095952 0.250000 0.031583
O O20 0.279040 0.750000 0.033422
#
# Coordination Sequence:
#
# PCOD9160010 Si02
#       8
#     4   4   4   4   4   4   4   4
#     4  10  19  34  57  83 112 146 181 219 267 327
#     4   9  16  28  48  76 108 141 175 211 258 320
#     4  10  23  40  58  78 104 146 190 226 268 325
#     4   9  16  30  52  78 107 139 177 216 262 320
#     4  11  22  36  56  85 114 137 174 227 282 328
#     4  10  21  37  56  80 112 146 183 227 272 315
#     4   9  18  31  50  77 108 141 175 217 266 314
#     4  10  20  38  60  81 108 143 184 223 268 325
#
# _framework density 22.444344999999998
#
# number of rings (size 3 to 8) (size 9 to 14) (size 15 to 20)
#    0.000    2.250    1.250    1.875    0.000    3.000 
#    0.000    1.250    0.000    0.000    0.000    0.000 
#    0.000    0.000    0.000    0.000    0.000    0.000 
#
# Total GULP energy -178669.987645 kJ/mol
# GULP energy per Si atom -5583.437114 kJ/mol
# Density = 2.239326 g / cm^3
# Si number density = 22.444345 Si / 1000 Ang^3
#
#
#
# Elastic Constant Matrix: (Units=GPa)
#
#
# Indices 1 2 3 4 5 6 
#
# 1 52.2527 -12.4599 25.6780 0.0000 6.1157 0.0000
# 2 -12.4599 49.3172 -11.9450 0.0000 -4.9289 0.0000
# 3 25.6780 -11.9450 197.0029 0.0000 10.5101 0.0000
# 4 0.0000 0.0000 0.0000 189.0001 0.0000 -54.4084
# 5 6.1157 -4.9289 10.5101 0.0000 28.4124 0.0000
# 6 0.0000 0.0000 0.0000 -54.4084 0.0000 33.3524
#
#
#
# Elastic Compliance Matrix: (Units=1/GPa)
#
#
# Indices 1 2 3 4 5 6 
#
# 1 0.021768 0.004619 -0.002397 0.000000 -0.002997 0.000000
# 2 0.004619 0.021843 0.000585 0.000000 0.002579 0.000000
# 3 -0.002397 0.000585 0.005500 0.000000 -0.001417 0.000000
# 4 0.000000 0.000000 0.000000 0.009976 0.000000 0.016274
# 5 -0.002997 0.002579 -0.001417 0.000000 0.036813 0.000000
# 6 0.000000 0.000000 0.000000 0.016274 0.000000 0.056530
#
#
# Mechanical properties :
#
#
# Convention : Reuss Voigt Hill
#
# Bulk Modulus (GPa) = 18.27319 33.45765 25.86542
# Shear Modulus (GPa) = 30.29242 69.97296 50.13269
#
# Velocity S-wave (km/s) = 3.67777 5.58962 4.73127
# Velocity P-wave (km/s) = 5.11800 7.52315 6.43396
#
# Compressibility (1/GPa) = 0.05472498
#
# Stress axis : x y z
#
# Youngs Moduli (GPa) = 45.93853 45.78051 181.83168
#
# Poissons Ratio (x) = -0.21148 0.43591
# Poissons Ratio (y) = -0.21221 -0.10633
# Poissons Ratio (z) = 0.11013 -0.02677
#
# Static dielectric constant tensor:
#      x y z
#    x 1.795590 0.000000 -0.016460 
#    y 0.000000 1.805630 0.000000 
#    z -0.016460 0.000000 1.898230 
# 
# From -- ./inp_files/45200.got.cif
#   From: 2010.05.17/outbox.cif.g08.bks.cpg/sg11_23_cif.got.tgz:45200.got - 2010.06.03 12:22:45.
