data_PCOD9160497
_publ_section_title
;
Structure prediction by ZEFSAII (Michael W. Deem and Ramdas Pophale) SiO2 
 PCOD9160497
Probable space group: P 21/M
;
_chemical_formula_sum "Si O2"
_cell_formula_units_Z 20
_cell_length_a 11.575367
_cell_length_b 14.036635
_cell_length_c 17.228995
_cell_angle_alpha 90.000000
_cell_angle_beta 19.807592
_cell_angle_gamma 90.000000
_cell_volume 948.596124
_symmetry_space_group_name_H-M "P 21/M"
_symmetry_group_IT_number 11
_symmetry_cell_setting 'monoclinic'
loop_
_space_group_symop_operation_xyz
x,y,z
-x,1/2+y,-z
-x,-y,-z
x,1/2-y,z
loop_
_atom_site_type_symbol
_atom_site_label
_atom_site_fract_x
_atom_site_fract_y
_atom_site_fract_z
Si Si1 0.820807 0.978866 0.032559
Si Si2 0.256407 0.639109 0.456555
Si Si3 0.726841 0.859890 0.659146
Si Si4 0.972267 0.528963 0.771022
Si Si5 0.727330 0.360872 0.825742
O O1 0.567943 0.065649 0.171258
O O2 0.580304 0.888008 0.200008
O O3 0.055505 0.966029 0.808994
O O4 0.000000 0.000000 0.000000
O O5 0.253347 0.750000 0.477440
O O6 0.923379 0.617029 0.614818
O O7 0.242524 0.575155 0.541809
O O8 0.610153 0.750000 0.736088
O O9 0.006729 0.866615 0.413705
O O10 0.882653 0.423400 0.797290
O O11 0.626531 0.590917 0.976506
O O12 0.676088 0.250000 0.877937
#
# Coordination Sequence:
#
# PCOD9160497 Si02
#       5
#     4   4   4   4   4
#     4  12  26  42  62  89 132 170 206 246 310 375
#     4  11  23  42  67  94 123 158 210 265 309 358
#     4  10  20  40  67  93 123 160 208 260 311 363
#     4  11  22  37  65  92 124 161 207 256 311 367
#     4  10  19  35  65  98 123 154 206 266 313 359
#
# _framework density 21.083788999999999
#
# number of rings (size 3 to 8) (size 9 to 14) (size 15 to 20)
#    0.000    1.200    4.000    3.600    0.000    4.800 
#    0.000    0.000    0.000    0.000    0.000    0.000 
#    0.000    0.000    0.000    0.000    0.000    0.000 
#
# Total GULP energy -111928.787578 kJ/mol
# GULP energy per Si atom -5596.439379 kJ/mol
# Density = 2.103580 g / cm^3
# Si number density = 21.083789 Si / 1000 Ang^3
#
#
#
# Elastic Constant Matrix: (Units=GPa)
#
#
# Indices 1 2 3 4 5 6 
#
# 1 137.6529 39.3635 15.6190 0.0000 26.8916 0.0000
# 2 39.3635 118.4790 13.5360 0.0000 5.3892 0.0000
# 3 15.6190 13.5360 33.9725 0.0000 21.7243 0.0000
# 4 0.0000 0.0000 0.0000 10.1456 0.0000 7.7176
# 5 26.8916 5.3892 21.7243 0.0000 35.2319 0.0000
# 6 0.0000 0.0000 0.0000 7.7176 0.0000 16.4311
#
#
#
# Elastic Compliance Matrix: (Units=1/GPa)
#
#
# Indices 1 2 3 4 5 6 
#
# 1 0.009457 -0.003001 0.001932 0.000000 -0.007950 0.000000
# 2 -0.003001 0.009834 -0.005021 0.000000 0.003883 0.000000
# 3 0.001932 -0.005021 0.051180 0.000000 -0.032265 0.000000
# 4 0.000000 0.000000 0.000000 0.153358 0.000000 -0.072032
# 5 -0.007950 0.003883 -0.032265 0.000000 0.053752 0.000000
# 6 0.000000 0.000000 0.000000 -0.072032 0.000000 0.094693
#
#
# Mechanical properties :
#
#
# Convention : Reuss Voigt Hill
#
# Bulk Modulus (GPa) = 17.15554 47.46016 32.30785
# Shear Modulus (GPa) = 12.37971 27.13411 19.75691
#
# Velocity S-wave (km/s) = 2.42578 3.59132 3.06447
# Velocity P-wave (km/s) = 4.00005 6.30523 5.27998
#
# Compressibility (1/GPa) = 0.05829022
#
# Stress axis : x y z
#
# Youngs Moduli (GPa) = 105.74439 101.68323 19.53877
#
# Poissons Ratio (x) = 0.30515 -0.03775
# Poissons Ratio (y) = 0.31734 0.09811
# Poissons Ratio (z) = -0.20428 0.51060
#
# Static dielectric constant tensor:
#      x y z
#    x 1.755090 0.000000 0.036070 
#    y 0.000000 1.733620 0.000000 
#    z 0.036070 0.000000 1.783730 
# 
# From -- ./inp_files/12390.got.cif
#   From: 2010.05.17/outbox.cif.g08.bks.cpg/sg11_7_cif.got.tgz:12390.got - 2010.06.03 12:22:45.
