data_PCOD9160577
_publ_section_title
;
Structure prediction by ZEFSAII (Michael W. Deem and Ramdas Pophale) SiO2 
 PCOD9160577
Probable space group: P 21/M
;
_chemical_formula_sum "Si O2"
_cell_formula_units_Z 24
_cell_length_a 7.353977
_cell_length_b 15.034380
_cell_length_c 12.211950
_cell_angle_alpha 90.000000
_cell_angle_beta 137.416569
_cell_angle_gamma 90.000000
_cell_volume 913.619342
_symmetry_space_group_name_H-M "P 21/M"
_symmetry_group_IT_number 11
_symmetry_cell_setting 'monoclinic'
loop_
_space_group_symop_operation_xyz
x,y,z
-x,1/2+y,-z
-x,-y,-z
x,1/2-y,z
loop_
_atom_site_type_symbol
_atom_site_label
_atom_site_fract_x
_atom_site_fract_y
_atom_site_fract_z
Si Si1 0.216051 0.894397 0.531135
Si Si2 0.692577 0.351444 0.042385
Si Si3 0.554270 0.472262 0.802923
Si Si4 0.942751 0.647665 0.616815
Si Si5 0.659650 0.357601 0.645437
Si Si6 0.773350 0.845265 0.870042
O O1 0.168324 0.891125 0.381170
O O2 0.495997 0.842263 0.677427
O O3 0.299104 0.987427 0.624663
O O4 0.008401 0.146767 0.490952
O O5 0.589814 0.250000 0.004061
O O6 0.795984 0.389301 0.204498
O O7 0.971859 0.350346 0.096649
O O8 0.504152 0.414568 0.888027
O O9 0.699839 0.408255 0.777671
O O10 0.730742 0.559812 0.909314
O O11 0.948804 0.750000 0.654666
O O12 0.649918 0.616025 0.519904
O O13 0.675633 0.250000 0.664195
O O14 0.790134 0.750000 0.938808
#
# Coordination Sequence:
#
# PCOD9160577 Si02
#       6
#     4   4   4   4   4   4
#     4  10  21  35  59  81 112 144 195 226 270 323
#     4  10  19  36  59  84 111 149 186 227 283 333
#     4  10  22  34  57  86 116 146 181 233 289 328
#     4  10  20  35  61  83 108 150 193 227 267 331
#     4  11  21  38  59  84 115 149 184 230 280 331
#     4   9  18  34  57  81 111 146 191 231 266 329
#
# _framework density 26.269145000000002
#
# number of rings (size 3 to 8) (size 9 to 14) (size 15 to 20)
#    1.000    1.000    1.667    3.000    0.000    1.333 
#    0.000    0.000    3.667    0.000    0.000    0.000 
#    0.000    0.000    0.000    0.000    0.000    0.000 
#
# Total GULP energy -133987.890704 kJ/mol
# GULP energy per Si atom -5582.828779 kJ/mol
# Density = 2.620936 g / cm^3
# Si number density = 26.269145 Si / 1000 Ang^3
#
#
#
# Elastic Constant Matrix: (Units=GPa)
#
#
# Indices 1 2 3 4 5 6 
#
# 1 103.0089 12.9028 30.6025 0.0000 -17.1566 0.0000
# 2 12.9028 145.7341 41.6531 0.0000 -9.5166 0.0000
# 3 30.6025 41.6531 86.2182 0.0000 -23.8618 0.0000
# 4 0.0000 0.0000 0.0000 15.6178 0.0000 -7.6718
# 5 -17.1566 -9.5166 -23.8618 0.0000 41.5253 0.0000
# 6 0.0000 0.0000 0.0000 -7.6718 0.0000 -7.6380
#
#
#
# Elastic Compliance Matrix: (Units=1/GPa)
#
#
# Indices 1 2 3 4 5 6 
#
# 1 0.011115 0.000122 -0.003241 0.000000 0.002758 0.000000
# 2 0.000122 0.007970 -0.004012 0.000000 -0.000429 0.000000
# 3 -0.003241 -0.004012 0.016721 0.000000 0.007350 0.000000
# 4 0.000000 0.000000 0.000000 0.042875 0.000000 -0.043065
# 5 0.002758 -0.000429 0.007350 0.000000 0.029347 0.000000
# 6 0.000000 0.000000 0.000000 -0.043065 0.000000 -0.087669
#
#
# Mechanical properties :
#
#
# Convention : Reuss Voigt Hill
#
# Bulk Modulus (GPa) = 46.41639 56.14203 51.27921
# Shear Modulus (GPa) = 119.61250 26.55454 73.08352
#
# Velocity S-wave (km/s) = 6.75517 3.18286 5.28029
# Velocity P-wave (km/s) = 8.86290 5.90980 7.53249
#
# Compressibility (1/GPa) = 0.02154411
#
# Stress axis : x y z
#
# Youngs Moduli (GPa) = 89.97058 125.47391 59.80325
#
# Poissons Ratio (x) = -0.01535 0.19382
# Poissons Ratio (y) = -0.01101 0.23995
# Poissons Ratio (z) = 0.29159 0.50345
#
# Static dielectric constant tensor:
#      x y z
#    x 2.018830 0.000000 0.026010 
#    y 0.000000 2.116200 0.000000 
#    z 0.026010 0.000000 2.100270 
# 
# From -- ./inp_files/50182.got.cif
#   From: 2010.05.17/outbox.cif.g08.bks.cpg/sg11_26_cif.got.tgz:50182.got - 2010.06.03 12:22:45.
