data_PCOD9160854
_publ_section_title
;
Structure prediction by ZEFSAII (Michael W. Deem and Ramdas Pophale) SiO2 
 PCOD9160854
Probable space group: P 21/M
;
_chemical_formula_sum "Si O2"
_cell_formula_units_Z 32
_cell_length_a 14.881677
_cell_length_b 19.259611
_cell_length_c 9.514334
_cell_angle_alpha 90.000000
_cell_angle_beta 141.117383
_cell_angle_gamma 90.000000
_cell_volume 1711.782295
_symmetry_space_group_name_H-M "P 21/M"
_symmetry_group_IT_number 11
_symmetry_cell_setting 'monoclinic'
loop_
_space_group_symop_operation_xyz
x,y,z
-x,1/2+y,-z
-x,-y,-z
x,1/2-y,z
loop_
_atom_site_type_symbol
_atom_site_label
_atom_site_fract_x
_atom_site_fract_y
_atom_site_fract_z
Si Si1 0.313151 0.167652 0.368745
Si Si2 0.460978 0.570458 0.867290
Si Si3 0.935300 0.913594 0.062724
Si Si4 0.131229 0.930383 0.536876
Si Si5 0.155374 0.937272 0.094440
Si Si6 0.473807 0.573068 0.545682
Si Si7 0.031726 0.089712 0.386232
Si Si8 0.319143 0.332721 0.704435
O O1 0.329483 0.250000 0.380993
O O2 0.421092 0.128915 0.395433
O O3 0.333910 0.145932 0.557257
O O4 0.156454 0.143969 0.126541
O O5 0.292911 0.585587 0.690215
O O6 0.486464 0.565031 0.730089
O O7 0.500000 0.500000 0.000000
O O8 0.562339 0.629062 0.057743
O O9 0.005355 0.893505 0.294635
O O10 0.073011 0.937188 0.141167
O O11 0.838308 0.983077 0.953287
O O12 0.091951 0.912145 0.647863
O O13 0.103748 0.012858 0.478588
O O14 0.311032 0.907337 0.307807
O O15 0.050602 0.899119 0.859515
O O16 0.500000 0.500000 0.500000
O O17 0.161554 0.142755 0.561056
O O18 0.332543 0.250000 0.729163
#
# Coordination Sequence:
#
# PCOD9160854 Si02
#       8
#     4   4   4   4   4   4   4   4
#     4  11  25  44  65  92 130 175 218 263 326 392
#     4  12  25  40  65  96 135 172 211 268 325 388
#     4  10  19  38  61  91 122 159 203 266 319 370
#     4  10  22  37  63  97 124 156 207 264 323 370
#     4  10  20  35  65  91 122 154 207 270 315 369
#     4  12  25  39  65 101 129 170 216 270 323 382
#     4  10  21  38  63  95 126 158 205 264 318 381
#     4  11  25  45  65  91 131 177 215 261 326 395
#
# _framework density 18.693966
#
# number of rings (size 3 to 8) (size 9 to 14) (size 15 to 20)
#    0.000    1.250    5.000    0.750    5.250    0.500 
#    0.000    2.500    0.000    0.000    0.000    0.000 
#    0.000    0.000    0.000    0.000    0.000    0.000 
#
# Total GULP energy -178588.729542 kJ/mol
# GULP energy per Si atom -5580.897798 kJ/mol
# Density = 1.865142 g / cm^3
# Si number density = 18.693966 Si / 1000 Ang^3
#
#
#
# Elastic Constant Matrix: (Units=GPa)
#
#
# Indices 1 2 3 4 5 6 
#
# 1 99.5700 33.3602 34.4054 0.0000 0.3417 0.0000
# 2 33.3602 61.1470 37.4444 0.0000 0.0925 0.0000
# 3 34.4054 37.4444 94.4701 0.0000 0.2719 0.0000
# 4 0.0000 0.0000 0.0000 25.8022 0.0000 0.0817
# 5 0.3417 0.0925 0.2719 0.0000 30.8591 0.0000
# 6 0.0000 0.0000 0.0000 0.0817 0.0000 20.9498
#
#
#
# Elastic Compliance Matrix: (Units=1/GPa)
#
#
# Indices 1 2 3 4 5 6 
#
# 1 0.012717 -0.005417 -0.002484 0.000000 -0.000103 0.000000
# 2 -0.005417 0.023903 -0.007502 0.000000 0.000054 0.000000
# 3 -0.002484 -0.007502 0.014464 0.000000 -0.000077 0.000000
# 4 0.000000 0.000000 0.000000 0.038757 0.000000 -0.000151
# 5 -0.000103 0.000054 -0.000077 0.000000 0.032407 0.000000
# 6 0.000000 0.000000 0.000000 -0.000151 0.000000 0.047734
#
#
# Mechanical properties :
#
#
# Convention : Reuss Voigt Hill
#
# Bulk Modulus (GPa) = 49.31326 51.73410 50.52368
# Shear Modulus (GPa) = 24.09115 25.52069 24.80592
#
# Velocity S-wave (km/s) = 3.59376 3.69885 3.64668
# Velocity P-wave (km/s) = 6.60732 6.78058 6.69451
#
# Compressibility (1/GPa) = 0.02027852
#
# Stress axis : x y z
#
# Youngs Moduli (GPa) = 78.63688 41.83596 69.13871
#
# Poissons Ratio (x) = 0.22661 0.17175
# Poissons Ratio (y) = 0.42594 0.51866
# Poissons Ratio (z) = 0.19534 0.31384
#
# Static dielectric constant tensor:
#      x y z
#    x 1.643950 0.000000 -0.009520 
#    y 0.000000 1.626050 0.000000 
#    z -0.009520 0.000000 1.652740 
# 
# From -- ./inp_files/23105.got.cif
#   From: 2010.05.17/outbox.cif.g08.bks.cpg/sg11_12_cif.got.tgz:23105.got - 2010.06.03 12:22:45.
