data_PCOD9160752
_publ_section_title
;
Structure prediction by ZEFSAII (Michael W. Deem and Ramdas Pophale) SiO2 
 PCOD9160752
Probable space group: P 21/M
;
_chemical_formula_sum "Si O2"
_cell_formula_units_Z 30
_cell_length_a 9.468888
_cell_length_b 14.837651
_cell_length_c 14.819890
_cell_angle_alpha 90.000000
_cell_angle_beta 142.252301
_cell_angle_gamma 90.000000
_cell_volume 1274.653575
_symmetry_space_group_name_H-M "P 21/M"
_symmetry_group_IT_number 11
_symmetry_cell_setting 'monoclinic'
loop_
_space_group_symop_operation_xyz
x,y,z
-x,1/2+y,-z
-x,-y,-z
x,1/2-y,z
loop_
_atom_site_type_symbol
_atom_site_label
_atom_site_fract_x
_atom_site_fract_y
_atom_site_fract_z
Si Si1 0.027295 0.106760 0.483508
Si Si2 0.841973 0.538640 0.115154
Si Si3 0.742608 0.094011 0.799478
Si Si4 0.408232 0.108285 0.287548
Si Si5 0.887657 0.349334 0.071506
Si Si6 0.417599 0.250000 0.608117
Si Si7 0.561623 0.148539 0.162496
Si Si8 0.118386 0.848052 0.392558
O O1 0.825306 0.121115 0.308880
O O2 0.969596 0.152226 0.549623
O O3 0.241610 0.166541 0.553979
O O4 0.000000 0.000000 0.500000
O O5 0.006706 0.569559 0.114399
O O6 0.822618 0.431765 0.101550
O O7 0.980954 0.575991 0.269953
O O8 0.596645 0.583517 0.975800
O O9 0.609764 0.171009 0.679330
O O10 0.608496 0.999610 0.730363
O O11 0.772843 0.131302 0.916127
O O12 0.162908 0.144567 0.196437
O O13 0.465757 0.144834 0.217415
O O14 0.610198 0.132905 0.458795
O O15 0.822888 0.250000 0.069793
O O16 0.540091 0.250000 0.118290
O O17 0.073128 0.750000 0.328733
#
# Coordination Sequence:
#
# PCOD9160752 Si02
#       8
#     4   4   4   4   4   2   4   4
#     4  11  24  44  71  94 126 180 235 285 324 390
#     4  11  24  39  65 106 135 170 224 272 351 395
#     4  11  22  36  65 101 135 168 211 284 330 406
#     4  10  19  37  60  93 133 172 218 260 322 395
#     4  11  20  36  61  97 140 180 216 263 333 403
#     4  12  22  40  64 102 130 166 226 268 346 390
#     4  11  19  36  65  95 125 168 226 280 309 397
#     4  11  23  42  66  98 131 179 221 279 333 399
#
# _framework density 23.535807999999999
#
# number of rings (size 3 to 8) (size 9 to 14) (size 15 to 20)
#    0.000    1.067    4.667    4.800    1.867    2.133 
#    0.000    0.667    8.800    0.000    0.000    0.000 
#    0.000    0.000    0.000    0.000    0.000    0.000 
#
# Total GULP energy -167311.534316 kJ/mol
# GULP energy per Si atom -5577.051144 kJ/mol
# Density = 2.348224 g / cm^3
# Si number density = 23.535808 Si / 1000 Ang^3
#
#
#
# Elastic Constant Matrix: (Units=GPa)
#
#
# Indices 1 2 3 4 5 6 
#
# 1 53.3680 29.9053 17.0296 0.0000 0.3240 0.0000
# 2 29.9053 237.3657 37.0519 0.0000 10.5957 0.0000
# 3 17.0296 37.0519 83.5732 0.0000 -13.1905 0.0000
# 4 0.0000 0.0000 0.0000 38.1529 0.0000 1.8590
# 5 0.3240 10.5957 -13.1905 0.0000 19.2129 0.0000
# 6 0.0000 0.0000 0.0000 1.8590 0.0000 13.5701
#
#
#
# Elastic Compliance Matrix: (Units=1/GPa)
#
#
# Indices 1 2 3 4 5 6 
#
# 1 0.021043 -0.001996 -0.003684 0.000000 -0.001783 0.000000
# 2 -0.001996 0.005064 -0.002550 0.000000 -0.004510 0.000000
# 3 -0.003684 -0.002550 0.015789 0.000000 0.012309 0.000000
# 4 0.000000 0.000000 0.000000 0.026386 0.000000 -0.003615
# 5 -0.001783 -0.004510 0.012309 0.000000 0.063016 0.000000
# 6 0.000000 0.000000 0.000000 -0.003615 0.000000 0.074187
#
#
# Mechanical properties :
#
#
# Convention : Reuss Voigt Hill
#
# Bulk Modulus (GPa) = 39.31594 60.25339 49.78466
# Shear Modulus (GPa) = 21.69904 33.54183 27.62044
#
# Velocity S-wave (km/s) = 3.03967 3.77920 3.42943
# Velocity P-wave (km/s) = 5.39078 6.68576 6.07289
#
# Compressibility (1/GPa) = 0.02543498
#
# Stress axis : x y z
#
# Youngs Moduli (GPa) = 47.52170 197.48075 63.33333
#
# Poissons Ratio (x) = 0.39427 0.23333
# Poissons Ratio (y) = 0.09488 0.16150
# Poissons Ratio (z) = 0.17508 0.50357
#
# Static dielectric constant tensor:
#      x y z
#    x 1.931550 0.000000 0.022430 
#    y 0.000000 1.901650 0.000000 
#    z 0.022430 0.000000 1.879980 
# 
# From -- ./inp_files/59414.got.cif
#   From: 2010.05.17/outbox.cif.g08.bks.cpg/sg11_30_cif.got.tgz:59414.got - 2010.06.03 12:22:45.
