data_PCOD9160839
_publ_section_title
;
Structure prediction by ZEFSAII (Michael W. Deem and Ramdas Pophale) SiO2 
 PCOD9160839
Probable space group: P 21/M
;
_chemical_formula_sum "Si O2"
_cell_formula_units_Z 28
_cell_length_a 18.253356
_cell_length_b 13.635558
_cell_length_c 5.788089
_cell_angle_alpha 90.000000
_cell_angle_beta 120.242644
_cell_angle_gamma 90.000000
_cell_volume 1244.555882
_symmetry_space_group_name_H-M "P 21/M"
_symmetry_group_IT_number 11
_symmetry_cell_setting 'monoclinic'
loop_
_space_group_symop_operation_xyz
x,y,z
-x,1/2+y,-z
-x,-y,-z
x,1/2-y,z
loop_
_atom_site_type_symbol
_atom_site_label
_atom_site_fract_x
_atom_site_fract_y
_atom_site_fract_z
Si Si1 0.069996 0.087826 0.613267
Si Si2 0.987616 0.883727 0.978775
Si Si3 0.453595 0.553947 0.633193
Si Si4 0.398693 0.362336 0.821321
Si Si5 0.751597 0.522604 0.271401
Si Si6 0.184488 0.855020 0.291633
Si Si7 0.314261 0.855790 0.119611
O O1 0.055090 0.139776 0.338034
O O2 0.166040 0.048472 0.749203
O O3 0.056044 0.138971 0.841982
O O4 0.000000 0.000000 0.500000
O O5 0.084077 0.849543 0.132536
O O6 0.000000 0.000000 0.000000
O O7 0.500000 0.500000 0.500000
O O8 0.410479 0.459654 0.684432
O O9 0.381005 0.625103 0.427152
O O10 0.523450 0.617060 0.880217
O O11 0.405842 0.250000 0.743664
O O12 0.303391 0.381099 0.763180
O O13 0.786818 0.454169 0.535003
O O14 0.685620 0.448206 0.045543
O O15 0.215009 0.750000 0.444706
O O16 0.222626 0.856200 0.095681
O O17 0.332222 0.750000 0.042392
#
# Coordination Sequence:
#
# PCOD9160839 Si02
#       7
#     4   4   4   4   4   4   4
#     4  10  20  35  68  88 126 182 229 279 354 409
#     4  10  19  38  59  90 123 174 227 283 346 412
#     4  11  23  47  69  96 133 177 221 282 344 408
#     4  11  26  45  69 100 136 180 229 279 347 425
#     4  12  22  41  66  92 138 175 222 288 348 410
#     4  11  23  38  62  95 132 174 222 281 346 414
#     4  11  23  39  65 100 131 173 224 278 347 418
#
# _framework density 22.497986000000001
#
# number of rings (size 3 to 8) (size 9 to 14) (size 15 to 20)
#    0.000    1.143    5.714    2.571    0.000    1.143 
#    0.000    1.429    0.000    0.000    0.000    0.000 
#    0.000    0.000    0.000    0.000    0.000    0.000 
#
# Total GULP energy -156042.123283 kJ/mol
# GULP energy per Si atom -5572.932974 kJ/mol
# Density = 2.244678 g / cm^3
# Si number density = 22.497986 Si / 1000 Ang^3
#
#
#
# Elastic Constant Matrix: (Units=GPa)
#
#
# Indices 1 2 3 4 5 6 
#
# 1 97.2627 21.4678 13.4686 0.0000 2.1485 0.0000
# 2 21.4678 119.7605 28.2132 0.0000 7.1978 0.0000
# 3 13.4686 28.2132 94.3589 0.0000 -3.5626 0.0000
# 4 0.0000 0.0000 0.0000 -24.3889 0.0000 31.1799
# 5 2.1485 7.1978 -3.5626 0.0000 37.8237 0.0000
# 6 0.0000 0.0000 0.0000 31.1799 0.0000 -44.5300
#
#
#
# Elastic Compliance Matrix: (Units=1/GPa)
#
#
# Indices 1 2 3 4 5 6 
#
# 1 0.010804 -0.001663 -0.001060 0.000000 -0.000397 0.000000
# 2 -0.001663 0.009387 -0.002643 0.000000 -0.001941 0.000000
# 3 -0.001060 -0.002643 0.011602 0.000000 0.001656 0.000000
# 4 0.000000 0.000000 0.000000 -0.391131 0.000000 -0.273870
# 5 -0.000397 -0.001941 0.001656 0.000000 0.026986 0.000000
# 6 0.000000 0.000000 0.000000 -0.273870 0.000000 -0.214220
#
#
# Mechanical properties :
#
#
# Convention : Reuss Voigt Hill
#
# Bulk Modulus (GPa) = 47.47933 48.63126 48.05529
# Shear Modulus (GPa) = -9.45501 10.32980 0.43739
#
# Velocity S-wave (km/s) = -2.05225 2.14509 0.44140
# Velocity P-wave (km/s) = 3.94132 5.27238 4.65467
#
# Compressibility (1/GPa) = 0.02106180
#
# Stress axis : x y z
#
# Youngs Moduli (GPa) = 92.55779 106.52642 86.19358
#
# Poissons Ratio (x) = 0.17717 0.09135
# Poissons Ratio (y) = 0.15394 0.22778
# Poissons Ratio (z) = 0.09810 0.28152
#
# Static dielectric constant tensor:
#      x y z
#    x 2.208590 0.000000 -0.581900 
#    y 0.000000 1.784830 0.000000 
#    z -0.581900 0.000000 2.764750 
# 
# From -- ./inp_files/8131.got.cif
#   From: 2010.05.17/outbox.cif.g08.bks.cpg/sg11_5_cif.got.tgz:8131.got - 2010.06.03 12:22:45.
