data_PCOD9160883
_publ_section_title
;
Structure prediction by ZEFSAII (Michael W. Deem and Ramdas Pophale) SiO2 
 PCOD9160883
Probable space group: P 21/M
;
_chemical_formula_sum "Si O2"
_cell_formula_units_Z 26
_cell_length_a 19.575388
_cell_length_b 7.974785
_cell_length_c 7.633673
_cell_angle_alpha 90.000000
_cell_angle_beta 57.393456
_cell_angle_gamma 90.000000
_cell_volume 1003.867880
_symmetry_space_group_name_H-M "P 21/M"
_symmetry_group_IT_number 11
_symmetry_cell_setting 'monoclinic'
loop_
_space_group_symop_operation_xyz
x,y,z
-x,1/2+y,-z
-x,-y,-z
x,1/2-y,z
loop_
_atom_site_type_symbol
_atom_site_label
_atom_site_fract_x
_atom_site_fract_y
_atom_site_fract_z
Si Si1 0.360443 0.491292 0.424989
Si Si2 0.880320 0.547926 0.989217
Si Si3 0.799390 0.555334 0.468741
Si Si4 0.404200 0.750000 0.875357
Si Si5 0.956749 0.050540 0.383139
Si Si6 0.710215 0.942768 0.092591
Si Si7 0.516863 0.250000 0.593350
Si Si8 0.457783 0.250000 0.045259
O O1 0.281367 0.553418 0.429363
O O2 0.318697 0.422575 0.662995
O O3 0.428537 0.596877 0.424680
O O4 0.410577 0.399179 0.205104
O O5 0.883502 0.750000 0.960155
O O6 0.971833 0.484182 0.843215
O O7 0.851300 0.514906 0.225070
O O8 0.803155 0.491001 0.978964
O O9 0.772299 0.750000 0.505094
O O10 0.868065 0.529157 0.514697
O O11 0.348702 0.584257 0.912326
O O12 0.478984 0.750000 0.624091
O O13 0.450859 0.750000 0.997397
O O14 0.946385 0.250000 0.375504
O O15 0.000000 0.000000 0.500000
O O16 0.712301 0.750000 0.017729
O O17 0.451943 0.250000 0.841819
#
# Coordination Sequence:
#
# PCOD9160883 Si02
#       8
#     4   4   4   2   4   4   2   2
#     4  10  20  40  65  89 127 166 206 264 328 386
#     4   8  17  36  64  88 118 160 207 253 307 373
#     4  10  19  38  66  87 116 163 206 251 316 370
#     4  10  24  40  66 101 127 172 225 267 338 392
#     4  11  23  39  58  89 127 163 203 255 310 371
#     4   9  17  39  64  91 130 170 210 270 323 384
#     4  10  24  40  66  96 129 162 219 278 326 390
#     4  12  22  44  66  93 134 166 216 277 328 398
#
# _framework density 25.899823000000001
#
# number of rings (size 3 to 8) (size 9 to 14) (size 15 to 20)
#    0.000    2.154    1.538    2.308    1.077    2.462 
#    8.308    0.000    3.385    0.000    0.000    0.000 
#    0.000    0.000    0.000    0.000    0.000    0.000 
#
# Total GULP energy -144917.414381 kJ/mol
# GULP energy per Si atom -5573.746707 kJ/mol
# Density = 2.584087 g / cm^3
# Si number density = 25.899823 Si / 1000 Ang^3
#
#
#
# Elastic Constant Matrix: (Units=GPa)
#
#
# Indices 1 2 3 4 5 6 
#
# 1 126.5045 7.2344 -1.6232 0.0000 -15.2021 0.0000
# 2 7.2344 70.2987 -4.2059 0.0000 -3.7006 0.0000
# 3 -1.6232 -4.2059 81.5351 0.0000 10.5030 0.0000
# 4 0.0000 0.0000 0.0000 17.8733 0.0000 -2.1633
# 5 -15.2021 -3.7006 10.5030 0.0000 30.3787 0.0000
# 6 0.0000 0.0000 0.0000 -2.1633 0.0000 36.0045
#
#
#
# Elastic Compliance Matrix: (Units=1/GPa)
#
#
# Indices 1 2 3 4 5 6 
#
# 1 0.008454 -0.000669 -0.000419 0.000000 0.004294 0.000000
# 2 -0.000669 0.014392 0.000572 0.000000 0.001221 0.000000
# 3 -0.000419 0.000572 0.012877 0.000000 -0.004592 0.000000
# 4 0.000000 0.000000 0.000000 0.056359 0.000000 0.003386
# 5 0.004294 0.001221 -0.004592 0.000000 0.036803 0.000000
# 6 0.000000 0.000000 0.000000 0.003386 0.000000 0.027978
#
#
# Mechanical properties :
#
#
# Convention : Reuss Voigt Hill
#
# Bulk Modulus (GPa) = 28.82640 31.23877 30.03259
# Shear Modulus (GPa) = 29.50551 35.31350 32.40951
#
# Velocity S-wave (km/s) = 3.37889 3.69652 3.54127
# Velocity P-wave (km/s) = 5.13582 5.50514 5.32368
#
# Compressibility (1/GPa) = 0.03469042
#
# Stress axis : x y z
#
# Youngs Moduli (GPa) = 118.29092 69.48142 77.65557
#
# Poissons Ratio (x) = 0.04648 0.03256
# Poissons Ratio (y) = 0.07914 -0.04441
# Poissons Ratio (z) = 0.04960 -0.03973
#
# Static dielectric constant tensor:
#      x y z
#    x 2.092150 0.000000 0.002610 
#    y 0.000000 2.557150 0.000000 
#    z 0.002610 0.000000 2.189820 
# 
# From -- ./inp_files/26137.got.cif
#   From: 2010.05.17/outbox.cif.g08.bks.cpg/sg11_14_cif.got.tgz:26137.got - 2010.06.03 12:22:45.
