data_PCOD9160760
_publ_section_title
;
Structure prediction by ZEFSAII (Michael W. Deem and Ramdas Pophale) SiO2 
 PCOD9160760
Probable space group: P 21/M
;
_chemical_formula_sum "Si O2"
_cell_formula_units_Z 20
_cell_length_a 7.455839
_cell_length_b 17.035078
_cell_length_c 9.104177
_cell_angle_alpha 90.000000
_cell_angle_beta 48.903075
_cell_angle_gamma 90.000000
_cell_volume 871.407844
_symmetry_space_group_name_H-M "P 21/M"
_symmetry_group_IT_number 11
_symmetry_cell_setting 'monoclinic'
loop_
_space_group_symop_operation_xyz
x,y,z
-x,1/2+y,-z
-x,-y,-z
x,1/2-y,z
loop_
_atom_site_type_symbol
_atom_site_label
_atom_site_fract_x
_atom_site_fract_y
_atom_site_fract_z
Si Si1 0.712366 0.907970 0.173885
Si Si2 0.845988 0.042091 0.271239
Si Si3 0.512734 0.594830 0.986334
Si Si4 0.003442 0.661065 0.600629
Si Si5 0.006569 0.875399 0.262665
O O1 0.653734 0.994007 0.277100
O O2 0.536040 0.879674 0.144798
O O3 0.799320 0.853018 0.259919
O O4 0.956066 0.925307 0.949064
O O5 0.803525 0.109586 0.412304
O O6 0.961472 0.969360 0.298099
O O7 0.270828 0.631017 0.054273
O O8 0.500000 0.500000 0.000000
O O9 0.747004 0.623985 0.779420
O O10 0.015661 0.750000 0.646530
O O11 0.010214 0.658941 0.421565
#
# Coordination Sequence:
#
# PCOD9160760 Si02
#       5
#     4   4   4   4   4
#     4   8  16  32  60  90 107 134 201 245 273 327
#     4   8  15  34  58  81 110 143 188 239 273 332
#     4  11  19  36  66  86 109 151 199 241 284 340
#     4  11  23  36  55  88 123 153 188 241 296 347
#     4  10  19  37  61  84 113 149 192 236 285 344
#
# _framework density 22.951366
#
# number of rings (size 3 to 8) (size 9 to 14) (size 15 to 20)
#    1.200    1.200    4.000    0.600    0.000    0.800 
#    0.000   12.000    0.000    8.400    0.000    0.000 
#    0.000    0.000    0.000    0.000    0.000    0.000 
#
# Total GULP energy -111375.056015 kJ/mol
# GULP energy per Si atom -5568.752801 kJ/mol
# Density = 2.289913 g / cm^3
# Si number density = 22.951366 Si / 1000 Ang^3
#
#
#
# Elastic Constant Matrix: (Units=GPa)
#
#
# Indices 1 2 3 4 5 6 
#
# 1 104.7464 11.1833 4.8200 0.0000 8.7916 0.0000
# 2 11.1833 62.1253 1.8299 0.0000 -0.5211 0.0000
# 3 4.8200 1.8299 63.1335 0.0000 7.8030 0.0000
# 4 0.0000 0.0000 0.0000 -3.5770 0.0000 -6.9145
# 5 8.7916 -0.5211 7.8030 0.0000 29.3878 0.0000
# 6 0.0000 0.0000 0.0000 -6.9145 0.0000 5.1168
#
#
#
# Elastic Compliance Matrix: (Units=1/GPa)
#
#
# Indices 1 2 3 4 5 6 
#
# 1 0.010003 -0.001815 -0.000349 0.000000 -0.002932 0.000000
# 2 -0.001815 0.016445 -0.000456 0.000000 0.000956 0.000000
# 3 -0.000349 -0.000456 0.016406 0.000000 -0.004260 0.000000
# 4 0.000000 0.000000 0.000000 -0.077395 0.000000 -0.104587
# 5 -0.002932 0.000956 -0.004260 0.000000 0.036053 0.000000
# 6 0.000000 0.000000 0.000000 -0.104587 0.000000 0.054105
#
#
# Mechanical properties :
#
#
# Convention : Reuss Voigt Hill
#
# Bulk Modulus (GPa) = 26.58613 29.51906 28.05259
# Shear Modulus (GPa) = 68.12611 20.33032 44.22821
#
# Velocity S-wave (km/s) = 5.45410 2.97947 4.39457
# Velocity P-wave (km/s) = 7.16043 4.97250 6.16432
#
# Compressibility (1/GPa) = 0.03761360
#
# Stress axis : x y z
#
# Youngs Moduli (GPa) = 99.97226 60.80999 60.95411
#
# Poissons Ratio (x) = 0.11037 0.02125
# Poissons Ratio (y) = 0.18144 0.02781
# Poissons Ratio (z) = 0.03486 0.02774
#
# Static dielectric constant tensor:
#      x y z
#    x 1.900440 0.000000 -0.003380 
#    y 0.000000 1.848400 0.000000 
#    z -0.003380 0.000000 1.917610 
# 
# From -- ./inp_files/10285.got.cif
#   From: 2010.05.17/outbox.cif.g08.bks.cpg/sg11_6_cif.got.tgz:10285.got - 2010.06.03 12:22:45.
