data_PCOD9160331
_publ_section_title
;
Structure prediction by ZEFSAII (Michael W. Deem and Ramdas Pophale) SiO2 
 PCOD9160331
Probable space group: P 21/M
;
_chemical_formula_sum "Si O2"
_cell_formula_units_Z 32
_cell_length_a 12.551594
_cell_length_b 8.629320
_cell_length_c 16.663632
_cell_angle_alpha 90.000000
_cell_angle_beta 89.026155
_cell_angle_gamma 90.000000
_cell_volume 1804.605963
_symmetry_space_group_name_H-M "P 21/M"
_symmetry_group_IT_number 11
_symmetry_cell_setting 'monoclinic'
loop_
_space_group_symop_operation_xyz
x,y,z
-x,1/2+y,-z
-x,-y,-z
x,1/2-y,z
loop_
_atom_site_type_symbol
_atom_site_label
_atom_site_fract_x
_atom_site_fract_y
_atom_site_fract_z
Si Si1 0.642168 0.435934 0.209606
Si Si2 0.739476 0.937497 0.878085
Si Si3 0.077047 0.436435 0.237972
Si Si4 0.588800 0.563090 0.731193
Si Si5 0.146483 0.064340 0.711168
Si Si6 0.387806 0.436869 0.968487
Si Si7 0.770339 0.065563 0.624341
Si Si8 0.114484 0.435950 0.526101
O O1 0.643759 0.250000 0.205713
O O2 0.534066 0.481485 0.258120
O O3 0.747214 0.497088 0.251376
O O4 0.633823 0.500961 0.119743
O O5 0.741398 0.750000 0.879696
O O6 0.852494 0.987314 0.839811
O O7 0.650118 0.980412 0.813057
O O8 0.702011 0.988695 0.966021
O O9 0.073513 0.250000 0.240118
O O10 0.143355 0.494178 0.314641
O O11 0.959179 0.503364 0.243325
O O12 0.596424 0.750000 0.723410
O O13 0.655623 0.486572 0.659051
O O14 0.148590 0.250000 0.715276
O O15 0.136449 0.018679 0.617662
O O16 0.391358 0.250000 0.967349
O O17 0.500000 0.500000 0.000000
O O18 0.780252 0.250000 0.625571
O O19 0.798695 0.001691 0.536576
O O20 0.112414 0.250000 0.521315
O O21 0.000000 0.500000 0.500000
#
# Coordination Sequence:
#
# PCOD9160331 Si02
#       8
#     4   4   4   4   4   4   4   4
#     4  11  23  40  60  84 116 156 196 235 290 352
#     4   8  16  32  55  83 113 145 185 235 283 331
#     4  10  19  35  58  82 113 153 191 232 286 341
#     4   9  18  36  57  80 113 151 191 233 284 341
#     4  11  24  40  58  85 117 150 191 239 289 347
#     4  11  20  35  58  87 119 151 193 242 287 338
#     4  11  21  33  55  88 118 145 188 239 287 339
#     4  11  22  37  59  85 116 150 191 240 288 342
#
# _framework density 17.732403000000001
#
# number of rings (size 3 to 8) (size 9 to 14) (size 15 to 20)
#    0.000    1.750    2.500    3.750    0.000    2.500 
#    0.000    3.125    0.000    0.000    0.000    0.000 
#    0.000    0.000    0.000    0.000    0.000    0.000 
#
# Total GULP energy -178674.123340 kJ/mol
# GULP energy per Si atom -5583.566354 kJ/mol
# Density = 1.769204 g / cm^3
# Si number density = 17.732403 Si / 1000 Ang^3
#
#
#
# Elastic Constant Matrix: (Units=GPa)
#
#
# Indices 1 2 3 4 5 6 
#
# 1 168.8872 46.0176 91.4857 0.0000 -17.0409 0.0000
# 2 46.0176 58.0792 41.8995 0.0000 -3.9261 0.0000
# 3 91.4857 41.8995 121.6609 0.0000 -15.0461 0.0000
# 4 0.0000 0.0000 0.0000 26.4687 0.0000 -0.8228
# 5 -17.0409 -3.9261 -15.0461 0.0000 33.0736 0.0000
# 6 0.0000 0.0000 0.0000 -0.8228 0.0000 28.6357
#
#
#
# Elastic Compliance Matrix: (Units=1/GPa)
#
#
# Indices 1 2 3 4 5 6 
#
# 1 0.010632 -0.003595 -0.006498 0.000000 0.002095 0.000000
# 2 -0.003595 0.024152 -0.005816 0.000000 -0.001631 0.000000
# 3 -0.006498 -0.005816 0.015480 0.000000 0.003004 0.000000
# 4 0.000000 0.000000 0.000000 0.037814 0.000000 0.001086
# 5 0.002095 -0.001631 0.003004 0.000000 0.032488 0.000000
# 6 0.000000 0.000000 0.000000 0.001086 0.000000 0.034953
#
#
# Mechanical properties :
#
#
# Convention : Reuss Voigt Hill
#
# Bulk Modulus (GPa) = 54.21113 78.60366 66.40740
# Shear Modulus (GPa) = 25.84176 28.91724 27.37950
#
# Velocity S-wave (km/s) = 3.82163 4.04264 3.93369
# Velocity P-wave (km/s) = 7.07893 8.13723 7.62646
#
# Compressibility (1/GPa) = 0.01844639
#
# Stress axis : x y z
#
# Youngs Moduli (GPa) = 94.05786 41.40475 64.59804
#
# Poissons Ratio (x) = 0.14883 0.41974
# Poissons Ratio (y) = 0.33810 0.37573
# Poissons Ratio (z) = 0.61116 0.24083
#
# Static dielectric constant tensor:
#      x y z
#    x 1.596430 0.000000 -0.030550 
#    y 0.000000 1.596890 0.000000 
#    z -0.030550 0.000000 1.595240 
# 
# From -- ./inp_files/49399.got.cif
#   From: 2010.05.17/outbox.cif.g08.bks.cpg/sg11_25_cif.got.tgz:49399.got - 2010.06.03 12:22:45.
