data_PCOD9160956
_publ_section_title
;
Structure prediction by ZEFSAII (Michael W. Deem and Ramdas Pophale) SiO2 
 PCOD9160956
Probable space group: P 21/M
;
_chemical_formula_sum "Si O2"
_cell_formula_units_Z 14
_cell_length_a 22.248450
_cell_length_b 5.661249
_cell_length_c 10.373483
_cell_angle_alpha 90.000000
_cell_angle_beta 26.724538
_cell_angle_gamma 90.000000
_cell_volume 587.571891
_symmetry_space_group_name_H-M "P 21/M"
_symmetry_group_IT_number 11
_symmetry_cell_setting 'monoclinic'
loop_
_space_group_symop_operation_xyz
x,y,z
-x,1/2+y,-z
-x,-y,-z
x,1/2-y,z
loop_
_atom_site_type_symbol
_atom_site_label
_atom_site_fract_x
_atom_site_fract_y
_atom_site_fract_z
Si Si1 0.941822 0.999385 0.965348
Si Si2 0.358153 0.250000 0.351775
Si Si3 0.838694 0.250000 0.601496
Si Si4 0.680731 0.250000 0.161497
Si Si5 0.614114 0.750000 0.403377
Si Si6 0.656159 0.250000 0.715929
O O1 0.866669 0.750000 0.091771
O O2 0.068107 0.965177 0.626605
O O3 0.878749 0.250000 0.057359
O O4 0.000000 0.000000 0.000000
O O5 0.406387 0.250000 0.405171
O O6 0.293276 0.501796 0.439400
O O7 0.496921 0.250000 0.002627
O O8 0.707936 0.250000 0.762404
O O9 0.793097 0.250000 0.835012
O O10 0.685137 0.502867 0.226556
O O11 0.532244 0.250000 0.382423
#
# Coordination Sequence:
#
# PCOD9160956 Si02
#       6
#     4   2   2   2   2   2
#     4   8  16  28  44  66 100 128 136 188 246 296
#     4  10  20  36  45  64  97 128 167 196 234 263
#     4  10  20  30  50  76 102 116 170 184 240 302
#     4  10  21  30  51  69  89 131 159 201 233 273
#     4  10  20  36  45  64  97 128 167 196 234 263
#     4  10  21  30  51  69  89 131 159 201 233 273
#
# _framework density 23.826872000000002
#
# number of rings (size 3 to 8) (size 9 to 14) (size 15 to 20)
#    0.857    1.714    1.429    0.857    4.000    0.000 
#    0.000    0.000    0.000    0.000    0.000    0.000 
#    0.000   22.857    0.000    0.000    0.000    0.000 
#
# Total GULP energy -78119.014069 kJ/mol
# GULP energy per Si atom -5579.929576 kJ/mol
# Density = 2.377264 g / cm^3
# Si number density = 23.826872 Si / 1000 Ang^3
#
#
#
# Elastic Constant Matrix: (Units=GPa)
#
#
# Indices 1 2 3 4 5 6 
#
# 1 46.3337 39.8875 1.6438 0.0000 1.2831 0.0000
# 2 39.8875 262.4123 64.6800 0.0000 7.1061 0.0000
# 3 1.6438 64.6800 117.3455 0.0000 14.5661 0.0000
# 4 0.0000 0.0000 0.0000 32.6103 0.0000 -5.0637
# 5 1.2831 7.1061 14.5661 0.0000 37.5627 0.0000
# 6 0.0000 0.0000 0.0000 -5.0637 0.0000 34.3395
#
#
#
# Elastic Compliance Matrix: (Units=1/GPa)
#
#
# Indices 1 2 3 4 5 6 
#
# 1 0.025274 -0.004348 0.002151 0.000000 -0.000875 0.000000
# 2 -0.004348 0.005158 -0.002815 0.000000 0.000264 0.000000
# 3 0.002151 -0.002815 0.010491 0.000000 -0.003609 0.000000
# 4 0.000000 0.000000 0.000000 0.031384 0.000000 0.004628
# 5 -0.000875 0.000264 -0.003609 0.000000 0.028002 0.000000
# 6 0.000000 0.000000 0.000000 0.004628 0.000000 0.029803
#
#
# Mechanical properties :
#
#
# Convention : Reuss Voigt Hill
#
# Bulk Modulus (GPa) = 32.36310 70.94600 51.65455
# Shear Modulus (GPa) = 33.23654 42.22782 37.73218
#
# Velocity S-wave (km/s) = 3.73891 4.21441 3.98376
# Velocity P-wave (km/s) = 5.67903 7.31587 6.54879
#
# Compressibility (1/GPa) = 0.03089938
#
# Stress axis : x y z
#
# Youngs Moduli (GPa) = 39.56666 193.85506 95.31558
#
# Poissons Ratio (x) = 0.84293 -0.20505
# Poissons Ratio (y) = 0.17205 0.26833
# Poissons Ratio (z) = -0.08512 0.54575
#
# Static dielectric constant tensor:
#      x y z
#    x 1.849630 0.000000 -0.049350 
#    y 0.000000 1.948220 0.000000 
#    z -0.049350 0.000000 1.973150 
# 
# From -- ./inp_files/20007.got.cif
#   From: 2010.05.17/outbox.cif.g08.bks.cpg/sg11_11_cif.got.tgz:20007.got - 2010.06.03 12:22:45.
