data_PCOD9160053
_publ_section_title
;
Structure prediction by ZEFSAII (Michael W. Deem and Ramdas Pophale) SiO2 
 PCOD9160053
Probable space group: P 21/M
;
_chemical_formula_sum "Si O2"
_cell_formula_units_Z 28
_cell_length_a 28.421764
_cell_length_b 8.573874
_cell_length_c 9.750260
_cell_angle_alpha 90.000000
_cell_angle_beta 139.704430
_cell_angle_gamma 90.000000
_cell_volume 1536.624925
_symmetry_space_group_name_H-M "P 21/M"
_symmetry_group_IT_number 11
_symmetry_cell_setting 'monoclinic'
loop_
_space_group_symop_operation_xyz
x,y,z
-x,1/2+y,-z
-x,-y,-z
x,1/2-y,z
loop_
_atom_site_type_symbol
_atom_site_label
_atom_site_fract_x
_atom_site_fract_y
_atom_site_fract_z
Si Si1 0.602176 0.565875 0.134591
Si Si2 0.992372 0.437813 0.828658
Si Si3 0.698653 0.065670 0.117158
Si Si4 0.439377 0.567895 0.673343
Si Si5 0.851373 0.937853 0.351870
Si Si6 0.580072 0.932208 0.650173
Si Si7 0.929684 0.937783 0.262565
O O1 0.603619 0.750000 0.167602
O O2 0.668481 0.516540 0.186716
O O3 0.597588 0.470203 0.264431
O O4 0.525631 0.534943 0.885760
O O5 0.990074 0.250000 0.827877
O O6 0.918715 0.499847 0.592738
O O7 0.057646 0.485939 0.867624
O O8 0.000000 0.500000 0.000000
O O9 0.700610 0.250000 0.142394
O O10 0.776653 0.003963 0.243684
O O11 0.639855 0.022067 0.870489
O O12 0.431664 0.750000 0.620661
O O13 0.407974 0.461530 0.483937
O O14 0.850859 0.750000 0.357632
O O15 0.864651 0.984653 0.220983
O O16 0.582362 0.750000 0.690970
O O17 0.500000 0.000000 0.500000
O O18 0.930906 0.750000 0.265234
O O19 0.000000 0.000000 0.500000
#
# Coordination Sequence:
#
# PCOD9160053 Si02
#       7
#     4   4   4   4   4   4   4
#     4  10  20  35  56  80 109 145 184 229 283 341
#     4  10  19  34  57  88 118 148 187 228 274 329
#     4  12  24  38  57  82 114 150 189 237 290 343
#     4  10  20  35  56  81 109 140 183 234 284 337
#     4  10  20  37  58  82 112 148 188 231 283 339
#     4  12  23  37  57  82 110 144 188 238 287 338
#     4   8  16  31  54  80 109 143 181 223 266 321
#
# _framework density 18.221754000000001
#
# number of rings (size 3 to 8) (size 9 to 14) (size 15 to 20)
#    0.000    1.714    1.429    4.286    0.000    2.286 
#    0.000    1.429    0.000    1.714    0.000    0.000 
#    0.000    0.000    0.000    0.000    0.000    0.000 
#
# Total GULP energy -156245.226614 kJ/mol
# GULP energy per Si atom -5580.186665 kJ/mol
# Density = 1.818028 g / cm^3
# Si number density = 18.221754 Si / 1000 Ang^3
#
#
#
# Elastic Constant Matrix: (Units=GPa)
#
#
# Indices 1 2 3 4 5 6 
#
# 1 141.7405 9.6369 35.6626 0.0000 -0.2261 0.0000
# 2 9.6369 41.5034 4.8422 0.0000 1.1616 0.0000
# 3 35.6626 4.8422 46.5893 0.0000 -4.6164 0.0000
# 4 0.0000 0.0000 0.0000 27.8743 0.0000 -2.5273
# 5 -0.2261 1.1616 -4.6164 0.0000 30.1044 0.0000
# 6 0.0000 0.0000 0.0000 -2.5273 0.0000 29.7985
#
#
#
# Elastic Compliance Matrix: (Units=1/GPa)
#
#
# Indices 1 2 3 4 5 6 
#
# 1 0.008829 -0.001240 -0.006720 0.000000 -0.000916 0.000000
# 2 -0.001240 0.024619 -0.001731 0.000000 -0.001225 0.000000
# 3 -0.006720 -0.001731 0.027203 0.000000 0.004188 0.000000
# 4 0.000000 0.000000 0.000000 0.036153 0.000000 0.003066
# 5 -0.000916 -0.001225 0.004188 0.000000 0.033900 0.000000
# 6 0.000000 0.000000 0.000000 0.003066 0.000000 0.033819
#
#
# Mechanical properties :
#
#
# Convention : Reuss Voigt Hill
#
# Bulk Modulus (GPa) = 24.23163 36.67963 30.45563
# Shear Modulus (GPa) = 25.29585 29.53488 27.41537
#
# Velocity S-wave (km/s) = 3.72993 4.03036 3.88305
# Velocity P-wave (km/s) = 5.64596 6.46774 6.07077
#
# Compressibility (1/GPa) = 0.04126838
#
# Stress axis : x y z
#
# Youngs Moduli (GPa) = 113.26550 40.61974 36.76070
#
# Poissons Ratio (x) = 0.05038 0.24703
# Poissons Ratio (y) = 0.14049 0.06362
# Poissons Ratio (z) = 0.76115 0.07030
#
# Static dielectric constant tensor:
#      x y z
#    x 1.669360 0.000000 -0.024950 
#    y 0.000000 1.605110 0.000000 
#    z -0.024950 0.000000 1.594950 
# 
# From -- ./inp_files/28524.got.cif
#   From: 2010.05.17/outbox.cif.g08.bks.cpg/sg11_15_cif.got.tgz:28524.got - 2010.06.03 12:22:45.
