data_PCOD9160397
_publ_section_title
;
Structure prediction by ZEFSAII (Michael W. Deem and Ramdas Pophale) SiO2 
 PCOD9160397
Probable space group: P 21/M
;
_chemical_formula_sum "Si O2"
_cell_formula_units_Z 28
_cell_length_a 12.083467
_cell_length_b 15.095743
_cell_length_c 7.139603
_cell_angle_alpha 90.000000
_cell_angle_beta 66.066866
_cell_angle_gamma 90.000000
_cell_volume 1190.352486
_symmetry_space_group_name_H-M "P 21/M"
_symmetry_group_IT_number 11
_symmetry_cell_setting 'monoclinic'
loop_
_space_group_symop_operation_xyz
x,y,z
-x,1/2+y,-z
-x,-y,-z
x,1/2-y,z
loop_
_atom_site_type_symbol
_atom_site_label
_atom_site_fract_x
_atom_site_fract_y
_atom_site_fract_z
Si Si1 0.097013 0.586296 0.062874
Si Si2 0.494557 0.355765 0.023825
Si Si3 0.349931 0.146359 0.470817
Si Si4 0.078351 0.947636 0.675353
Si Si5 0.234020 0.651894 0.304224
Si Si6 0.138805 0.153251 0.311595
Si Si7 0.292309 0.071863 0.907862
O O1 0.140890 0.650469 0.194330
O O2 0.969222 0.540310 0.207636
O O3 0.084340 0.614389 0.856711
O O4 0.207691 0.514379 0.982521
O O5 0.460229 0.250000 0.022431
O O6 0.632629 0.362914 0.868545
O O7 0.412404 0.419085 0.951637
O O8 0.465389 0.375726 0.261203
O O9 0.359020 0.250000 0.519653
O O10 0.237545 0.137768 0.404309
O O11 0.327930 0.090506 0.670869
O O12 0.195435 0.926001 0.472811
O O13 0.966750 0.917111 0.623986
O O14 0.230976 0.750000 0.395083
O O15 0.086208 0.250000 0.373405
O O16 0.207519 0.145373 0.065901
#
# Coordination Sequence:
#
# PCOD9160397 Si02
#       7
#     4   4   4   4   4   4   4
#     4  10  24  41  61  88 118 152 197 246 292 350
#     4   9  20  37  58  88 121 154 198 244 286 344
#     4   9  17  32  56  85 116 151 193 243 297 345
#     4  10  22  41  61  85 118 156 194 240 294 347
#     4  11  24  42  63  86 118 160 197 236 291 351
#     4   9  18  32  55  88 116 145 194 246 291 346
#     4  10  19  35  59  85 117 155 192 243 300 344
#
# _framework density 23.522444
#
# number of rings (size 3 to 8) (size 9 to 14) (size 15 to 20)
#    0.000    2.286    0.000    3.000    0.000    9.714 
#    0.000    4.286    0.000    0.000    0.000    0.000 
#    0.000    0.000    0.000    0.000    0.000    0.000 
#
# Total GULP energy -156451.259552 kJ/mol
# GULP energy per Si atom -5587.544984 kJ/mol
# Density = 2.346891 g / cm^3
# Si number density = 23.522444 Si / 1000 Ang^3
#
#
#
# Elastic Constant Matrix: (Units=GPa)
#
#
# Indices 1 2 3 4 5 6 
#
# 1 61.8512 15.5108 32.6675 0.0000 -20.9447 0.0000
# 2 15.5108 73.4864 38.3768 0.0000 -14.5896 0.0000
# 3 32.6675 38.3768 169.3059 0.0000 -18.8309 0.0000
# 4 0.0000 0.0000 0.0000 24.0280 0.0000 -2.1154
# 5 -20.9447 -14.5896 -18.8309 0.0000 39.0819 0.0000
# 6 0.0000 0.0000 0.0000 -2.1154 0.0000 28.0747
#
#
#
# Elastic Compliance Matrix: (Units=1/GPa)
#
#
# Indices 1 2 3 4 5 6 
#
# 1 0.021154 -0.001119 -0.002761 0.000000 0.009588 0.000000
# 2 -0.001119 0.016212 -0.003014 0.000000 0.004000 0.000000
# 3 -0.002761 -0.003014 0.007220 0.000000 0.000874 0.000000
# 4 0.000000 0.000000 0.000000 0.041896 0.000000 0.003157
# 5 0.009588 0.004000 0.000874 0.000000 0.032640 0.000000
# 6 0.000000 0.000000 0.000000 0.003157 0.000000 0.035857
#
#
# Mechanical properties :
#
#
# Convention : Reuss Voigt Hill
#
# Bulk Modulus (GPa) = 32.47115 53.08372 42.77744
# Shear Modulus (GPa) = 27.92765 32.77617 30.35191
#
# Velocity S-wave (km/s) = 3.44943 3.73688 3.59602
# Velocity P-wave (km/s) = 5.44968 6.42147 5.95543
#
# Compressibility (1/GPa) = 0.03079656
#
# Stress axis : x y z
#
# Youngs Moduli (GPa) = 47.27251 61.68133 138.51091
#
# Poissons Ratio (x) = 0.06903 0.38250
# Poissons Ratio (y) = 0.05291 0.41747
# Poissons Ratio (z) = 0.13054 0.18591
#
# Static dielectric constant tensor:
#      x y z
#    x 1.877590 0.000000 -0.012990 
#    y 0.000000 1.929510 0.000000 
#    z -0.012990 0.000000 1.887360 
# 
# From -- ./inp_files/5035.got.cif
#   From: 2010.05.17/outbox.cif.g08.bks.cpg/sg11_3_cif.got.tgz:5035.got - 2010.06.03 12:22:45.
