data_PCOD9160055
_publ_section_title
;
Structure prediction by ZEFSAII (Michael W. Deem and Ramdas Pophale) SiO2 
 PCOD9160055
Probable space group: P 21/M
;
_chemical_formula_sum "Si O2"
_cell_formula_units_Z 28
_cell_length_a 11.145868
_cell_length_b 8.791255
_cell_length_c 16.065473
_cell_angle_alpha 90.000000
_cell_angle_beta 118.248184
_cell_angle_gamma 90.000000
_cell_volume 1386.716647
_symmetry_space_group_name_H-M "P 21/M"
_symmetry_group_IT_number 11
_symmetry_cell_setting 'monoclinic'
loop_
_space_group_symop_operation_xyz
x,y,z
-x,1/2+y,-z
-x,-y,-z
x,1/2-y,z
loop_
_atom_site_type_symbol
_atom_site_label
_atom_site_fract_x
_atom_site_fract_y
_atom_site_fract_z
Si Si1 0.414986 0.069450 0.047941
Si Si2 0.835251 0.070646 0.606742
Si Si3 0.839229 0.929115 0.786848
Si Si4 0.844285 0.570438 0.295438
Si Si5 0.330545 0.567745 0.611843
Si Si6 0.156293 0.931336 0.887053
Si Si7 0.579210 0.070342 0.774519
O O1 0.428341 0.250000 0.053642
O O2 0.462414 0.999885 0.150625
O O3 0.500000 0.000000 0.000000
O O4 0.259764 0.018955 0.980313
O O5 0.813880 0.250000 0.619407
O O6 0.739234 0.027446 0.498643
O O7 0.994050 0.054103 0.633976
O O8 0.813339 0.973120 0.682180
O O9 0.816944 0.750000 0.792848
O O10 0.998197 0.963541 0.855085
O O11 0.733855 0.023401 0.806769
O O12 0.813840 0.750000 0.276584
O O13 0.759128 0.500212 0.342533
O O14 0.818052 0.487169 0.199112
O O15 0.333042 0.750000 0.619272
O O16 0.481044 0.501456 0.672856
O O17 0.178848 0.750000 0.899828
O O18 0.563575 0.250000 0.771109
#
# Coordination Sequence:
#
# PCOD9160055 Si02
#       7
#     4   4   4   4   4   4   4
#     4  12  25  43  66  92 122 154 192 237 289 347
#     4   9  20  37  59  86 118 157 198 243 292 348
#     4  10  22  41  64  89 118 153 196 244 291 344
#     4  10  19  34  57  88 122 155 196 242 293 349
#     4  11  22  37  57  84 119 158 200 245 296 348
#     4  10  21  39  63  90 120 155 194 238 292 349
#     4  12  26  43  62  85 117 156 198 244 292 346
#
# _framework density 20.191580999999999
#
# number of rings (size 3 to 8) (size 9 to 14) (size 15 to 20)
#    0.000    1.429    0.000    5.571    0.000    4.571 
#    0.000    0.000    0.000    0.000    0.000    0.000 
#    0.000    0.000    0.000    0.000    0.000    0.000 
#
# Total GULP energy -156669.472513 kJ/mol
# GULP energy per Si atom -5595.338304 kJ/mol
# Density = 2.014562 g / cm^3
# Si number density = 20.191581 Si / 1000 Ang^3
#
#
#
# Elastic Constant Matrix: (Units=GPa)
#
#
# Indices 1 2 3 4 5 6 
#
# 1 55.3641 25.1229 2.2540 0.0000 -3.9959 0.0000
# 2 25.1229 78.7572 12.8050 0.0000 1.8088 0.0000
# 3 2.2540 12.8050 63.4596 0.0000 17.9222 0.0000
# 4 0.0000 0.0000 0.0000 33.0262 0.0000 -0.0194
# 5 -3.9959 1.8088 17.9222 0.0000 18.3955 0.0000
# 6 0.0000 0.0000 0.0000 -0.0194 0.0000 37.8588
#
#
#
# Elastic Compliance Matrix: (Units=1/GPa)
#
#
# Indices 1 2 3 4 5 6 
#
# 1 0.021709 -0.006873 -0.001251 0.000000 0.006610 0.000000
# 2 -0.006873 0.015347 -0.002766 0.000000 -0.000308 0.000000
# 3 -0.001251 -0.002766 0.022571 0.000000 -0.021990 0.000000
# 4 0.000000 0.000000 0.000000 0.030279 0.000000 0.000016
# 5 0.006610 -0.000308 -0.021990 0.000000 0.077252 0.000000
# 6 0.000000 0.000000 0.000000 0.000016 0.000000 0.026414
#
#
# Mechanical properties :
#
#
# Convention : Reuss Voigt Hill
#
# Bulk Modulus (GPa) = 26.42259 30.88275 28.65267
# Shear Modulus (GPa) = 21.93296 28.34936 25.14116
#
# Velocity S-wave (km/s) = 3.29940 3.75109 3.53247
# Velocity P-wave (km/s) = 5.25633 5.83858 5.55509
#
# Compressibility (1/GPa) = 0.03784640
#
# Stress axis : x y z
#
# Youngs Moduli (GPa) = 46.06323 65.16120 44.30471
#
# Poissons Ratio (x) = 0.44788 0.05543
# Poissons Ratio (y) = 0.31662 0.12253
# Poissons Ratio (z) = 0.05763 0.18021
#
# Static dielectric constant tensor:
#      x y z
#    x 1.728990 0.000000 0.019360 
#    y 0.000000 1.668480 0.000000 
#    z 0.019360 0.000000 1.695730 
# 
# From -- ./inp_files/49452.got.cif
#   From: 2010.05.17/outbox.cif.g08.bks.cpg/sg11_25_cif.got.tgz:49452.got - 2010.06.03 12:22:45.
