data_PCOD9160006
_publ_section_title
;
Structure prediction by ZEFSAII (Michael W. Deem and Ramdas Pophale) SiO2 
 PCOD9160006
Probable space group: P 21/M
;
_chemical_formula_sum "Si O2"
_cell_formula_units_Z 30
_cell_length_a 10.161216
_cell_length_b 9.471251
_cell_length_c 19.357820
_cell_angle_alpha 90.000000
_cell_angle_beta 41.975247
_cell_angle_gamma 90.000000
_cell_volume 1245.982387
_symmetry_space_group_name_H-M "P 21/M"
_symmetry_group_IT_number 11
_symmetry_cell_setting 'monoclinic'
loop_
_space_group_symop_operation_xyz
x,y,z
-x,1/2+y,-z
-x,-y,-z
x,1/2-y,z
loop_
_atom_site_type_symbol
_atom_site_label
_atom_site_fract_x
_atom_site_fract_y
_atom_site_fract_z
Si Si1 0.711159 0.411000 0.644482
Si Si2 0.216053 0.414066 0.641685
Si Si3 0.021547 0.589272 0.596773
Si Si4 0.575940 0.406559 0.332390
Si Si5 0.035842 0.750000 0.856359
Si Si6 0.181900 0.092465 0.956173
Si Si7 0.221573 0.903662 0.137382
Si Si8 0.486293 0.907522 0.897178
O O1 0.665390 0.250000 0.683771
O O2 0.863702 0.399828 0.520421
O O3 0.536000 0.498656 0.678633
O O4 0.822236 0.504248 0.658293
O O5 0.269500 0.250000 0.610739
O O6 0.150431 0.495899 0.598495
O O7 0.384041 0.502223 0.614988
O O8 0.013417 0.414864 0.766099
O O9 0.993272 0.750000 0.634079
O O10 0.480931 0.250000 0.379901
O O11 0.793079 0.368432 0.221399
O O12 0.875628 0.631545 0.942712
O O13 0.184807 0.250000 0.921392
O O14 0.671928 0.102312 0.978154
O O15 0.383643 0.008282 0.881138
O O16 0.000000 0.000000 0.000000
O O17 0.270303 0.750000 0.151607
O O18 0.322171 0.027620 0.141765
O O19 0.516342 0.750000 0.857920
#
# Coordination Sequence:
#
# PCOD9160006 Si02
#       8
#     4   4   4   4   2   4   4   4
#     4  10  21  41  66  90 123 163 209 248 305 370
#     4  11  22  38  60  91 127 158 206 261 313 358
#     4  10  22  40  63  93 124 164 203 252 306 369
#     4  10  21  39  62  91 120 163 203 252 307 371
#     4   8  22  38  60  86 118 156 202 246 306 368
#     4  10  20  37  57  80 113 150 195 244 291 355
#     4   9  20  36  54  81 114 149 192 242 293 355
#     4  10  19  34  57  83 108 150 196 238 297 356
#
# _framework density 24.077387000000002
#
# number of rings (size 3 to 8) (size 9 to 14) (size 15 to 20)
#    0.800    1.333    0.000    3.200    0.000    3.733 
#    2.400    2.000    0.000    0.000    0.000    0.000 
#    0.000    0.000    0.000    0.000    0.000    0.000 
#
# Total GULP energy -167050.629263 kJ/mol
# GULP energy per Si atom -5568.354309 kJ/mol
# Density = 2.402259 g / cm^3
# Si number density = 24.077387 Si / 1000 Ang^3
#
#
#
# Elastic Constant Matrix: (Units=GPa)
#
#
# Indices 1 2 3 4 5 6 
#
# 1 115.8173 88.4980 -5.7642 0.0000 -14.9498 0.0000
# 2 88.4980 252.0902 6.9563 0.0000 -27.2951 0.0000
# 3 -5.7642 6.9563 57.4502 0.0000 5.8713 0.0000
# 4 0.0000 0.0000 0.0000 20.4580 0.0000 -1.2009
# 5 -14.9498 -27.2951 5.8713 0.0000 25.7435 0.0000
# 6 0.0000 0.0000 0.0000 -1.2009 0.0000 28.9271
#
#
#
# Elastic Compliance Matrix: (Units=1/GPa)
#
#
# Indices 1 2 3 4 5 6 
#
# 1 0.012094 -0.004023 0.001453 0.000000 0.002426 0.000000
# 2 -0.004023 0.005883 -0.001551 0.000000 0.004255 0.000000
# 3 0.001453 -0.001551 0.018247 0.000000 -0.004962 0.000000
# 4 0.000000 0.000000 0.000000 0.049000 0.000000 0.002034
# 5 0.002426 0.004255 -0.004962 0.000000 0.045896 0.000000
# 6 0.000000 0.000000 0.000000 0.002034 0.000000 0.034654
#
#
# Mechanical properties :
#
#
# Convention : Reuss Voigt Hill
#
# Bulk Modulus (GPa) = 35.73838 67.19310 51.46574
# Shear Modulus (GPa) = 27.27121 37.40355 32.33738
#
# Velocity S-wave (km/s) = 3.36913 3.94569 3.66875
# Velocity P-wave (km/s) = 5.47815 6.98038 6.27438
#
# Compressibility (1/GPa) = 0.02798112
#
# Stress axis : x y z
#
# Youngs Moduli (GPa) = 82.68690 169.99319 54.80341
#
# Poissons Ratio (x) = 0.68388 -0.07961
# Poissons Ratio (y) = 0.33265 0.08499
# Poissons Ratio (z) = -0.12011 0.26362
#
# Static dielectric constant tensor:
#      x y z
#    x 1.879670 0.000000 0.071150 
#    y 0.000000 1.923310 0.000000 
#    z 0.071150 0.000000 1.970710 
# 
# From -- ./inp_files/72684.got.cif
#   From: 2010.05.17/outbox.cif.g08.bks.cpg/sg11_37_cif.got.tgz:72684.got - 2010.06.03 12:22:45.
