data_PCOD9160157
_publ_section_title
;
Structure prediction by ZEFSAII (Michael W. Deem and Ramdas Pophale) SiO2 
 PCOD9160157
Probable space group: P 21/M
;
_chemical_formula_sum "Si O2"
_cell_formula_units_Z 30
_cell_length_a 15.382093
_cell_length_b 18.778718
_cell_length_c 8.329948
_cell_angle_alpha 90.000000
_cell_angle_beta 150.215530
_cell_angle_gamma 90.000000
_cell_volume 1195.230565
_symmetry_space_group_name_H-M "P 21/M"
_symmetry_group_IT_number 11
_symmetry_cell_setting 'monoclinic'
loop_
_space_group_symop_operation_xyz
x,y,z
-x,1/2+y,-z
-x,-y,-z
x,1/2-y,z
loop_
_atom_site_type_symbol
_atom_site_label
_atom_site_fract_x
_atom_site_fract_y
_atom_site_fract_z
Si Si1 0.671543 0.383333 0.915102
Si Si2 0.010312 0.330501 0.011958
Si Si3 0.076610 0.331396 0.603822
Si Si4 0.536779 0.250000 0.881880
Si Si5 0.707121 0.480405 0.273415
Si Si6 0.917412 0.931461 0.132196
Si Si7 0.261889 0.559030 0.312833
Si Si8 0.668923 0.643970 0.276900
O O1 0.637610 0.442377 0.000411
O O2 0.878195 0.359880 0.257794
O O3 0.569887 0.312951 0.801697
O O4 0.633322 0.412675 0.674780
O O5 0.949273 0.250000 0.933424
O O6 0.215440 0.335731 0.380898
O O7 0.998129 0.361475 0.814734
O O8 0.904091 0.387144 0.945948
O O9 0.065312 0.250000 0.650213
O O10 0.166679 0.394727 0.850674
O O11 0.199582 0.327242 0.646922
O O12 0.504747 0.188206 0.971383
O O13 0.685584 0.444058 0.415797
O O14 0.651428 0.560912 0.217932
O O15 0.916179 0.481432 0.572095
O O16 0.795737 0.979008 0.826112
#
# Coordination Sequence:
#
# PCOD9160157 Si02
#       8
#     4   4   4   2   4   4   4   4
#     4  11  24  42  65  93 127 167 214 263 308 371
#     4  11  19  32  59  97 129 159 194 257 323 366
#     4  11  20  36  64  97 125 165 211 258 321 375
#     4  12  28  42  62  90 128 172 216 258 310 382
#     4  10  21  40  66  96 129 163 208 266 318 375
#     4  10  19  34  61 103 131 148 205 272 316 373
#     4  11  20  38  67  99 126 161 210 260 318 380
#     4  12  21  39  67  90 124 167 208 256 321 376
#
# _framework density 25.09976
#
# number of rings (size 3 to 8) (size 9 to 14) (size 15 to 20)
#    0.000    1.067    6.000    2.000    0.933    2.667 
#    1.200    0.667    5.867    0.000    0.000    0.000 
#    0.000    0.000    0.000    0.000    0.000    0.000 
#
# Total GULP energy -167004.844111 kJ/mol
# GULP energy per Si atom -5566.828137 kJ/mol
# Density = 2.504263 g / cm^3
# Si number density = 25.099760 Si / 1000 Ang^3
#
#
#
# Elastic Constant Matrix: (Units=GPa)
#
#
# Indices 1 2 3 4 5 6 
#
# 1 150.6031 72.4315 8.6047 0.0000 -11.2631 0.0000
# 2 72.4315 202.1385 23.6193 0.0000 -22.1278 0.0000
# 3 8.6047 23.6193 32.1267 0.0000 2.6538 0.0000
# 4 0.0000 0.0000 0.0000 -32.3423 0.0000 -33.8894
# 5 -11.2631 -22.1278 2.6538 0.0000 15.2886 0.0000
# 6 0.0000 0.0000 0.0000 -33.8894 0.0000 26.4364
#
#
#
# Elastic Compliance Matrix: (Units=1/GPa)
#
#
# Indices 1 2 3 4 5 6 
#
# 1 0.008084 -0.002596 -0.000445 0.000000 0.002276 0.000000
# 2 -0.002596 0.007669 -0.005785 0.000000 0.010191 0.000000
# 3 -0.000445 -0.005785 0.036744 0.000000 -0.015078 0.000000
# 4 0.000000 0.000000 0.000000 -0.013195 0.000000 -0.016915
# 5 0.002276 0.010191 -0.015078 0.000000 0.084452 0.000000
# 6 0.000000 0.000000 0.000000 -0.016915 0.000000 0.016143
#
#
# Mechanical properties :
#
#
# Convention : Reuss Voigt Hill
#
# Bulk Modulus (GPa) = 28.69718 66.01991 47.35854
# Shear Modulus (GPa) = 29.55733 20.55739 25.05736
#
# Velocity S-wave (km/s) = 3.43533 2.86497 3.16303
# Velocity P-wave (km/s) = 5.21473 6.10771 5.67880
#
# Compressibility (1/GPa) = 0.03484663
#
# Stress axis : x y z
#
# Youngs Moduli (GPa) = 123.70256 130.40069 27.21517
#
# Poissons Ratio (x) = 0.33846 0.01211
# Poissons Ratio (y) = 0.32107 0.15743
# Poissons Ratio (z) = 0.05504 0.75431
#
# Static dielectric constant tensor:
#      x y z
#    x 2.051320 0.000000 0.040340 
#    y 0.000000 1.944000 0.000000 
#    z 0.040340 0.000000 2.066820 
# 
# From -- ./inp_files/22803.got.cif
#   From: 2010.05.17/outbox.cif.g08.bks.cpg/sg11_12_cif.got.tgz:22803.got - 2010.06.03 12:22:45.
