data_PCOD9160773
_publ_section_title
;
Structure prediction by ZEFSAII (Michael W. Deem and Ramdas Pophale) SiO2 
 PCOD9160773
Probable space group: P 21/M
;
_chemical_formula_sum "Si O2"
_cell_formula_units_Z 32
_cell_length_a 12.231772
_cell_length_b 11.158126
_cell_length_c 12.493581
_cell_angle_alpha 90.000000
_cell_angle_beta 93.184665
_cell_angle_gamma 90.000000
_cell_volume 1702.536230
_symmetry_space_group_name_H-M "P 21/M"
_symmetry_group_IT_number 11
_symmetry_cell_setting 'monoclinic'
loop_
_space_group_symop_operation_xyz
x,y,z
-x,1/2+y,-z
-x,-y,-z
x,1/2-y,z
loop_
_atom_site_type_symbol
_atom_site_label
_atom_site_fract_x
_atom_site_fract_y
_atom_site_fract_z
Si Si1 0.942458 0.608607 0.561703
Si Si2 0.615879 0.888941 0.301968
Si Si3 0.412108 0.476556 0.243558
Si Si4 0.013681 0.889901 0.813086
Si Si5 0.456789 0.619876 0.937378
Si Si6 0.783150 0.889631 0.898274
Si Si7 0.243788 0.002201 0.880010
Si Si8 0.680307 0.607706 0.537418
O O1 0.963368 0.750000 0.529308
O O2 0.811352 0.589933 0.549616
O O3 0.000000 0.500000 0.500000
O O4 0.981600 0.598665 0.686684
O O5 0.641222 0.750000 0.308410
O O6 0.698053 0.946033 0.221537
O O7 0.634760 0.940563 0.422091
O O8 0.491654 0.909889 0.256805
O O9 0.488273 0.387253 0.177388
O O10 0.300201 0.474354 0.170514
O O11 0.378722 0.442594 0.361335
O O12 0.035263 0.750000 0.835361
O O13 0.906919 0.923837 0.875957
O O14 0.121940 0.961553 0.847565
O O15 0.485171 0.750000 0.986692
O O16 0.326624 0.603040 0.921131
O O17 0.500000 0.500000 0.000000
O O18 0.766837 0.750000 0.863885
O O19 0.759838 0.905062 0.022003
O O20 0.661468 0.750000 0.539305
#
# Coordination Sequence:
#
# PCOD9160773 Si02
#       8
#     4   4   4   4   4   4   4   4
#     4  10  20  36  62  90 119 160 205 252 301 360
#     4  10  23  38  57  88 122 159 196 248 310 361
#     4  11  21  37  60  87 115 154 204 250 290 355
#     4  10  21  38  60  87 119 155 205 253 298 358
#     4  11  23  37  58  86 117 155 199 246 298 354
#     4  11  21  37  61  88 117 159 205 246 296 361
#     4  11  22  38  58  87 121 157 194 248 301 357
#     4  10  19  37  62  85 116 156 203 246 294 361
#
# _framework density 18.795487999999999
#
# number of rings (size 3 to 8) (size 9 to 14) (size 15 to 20)
#    0.000    1.500    2.500    3.375    0.000    2.000 
#    0.000    1.250    0.000    8.250    0.000    0.000 
#    0.000    0.000    0.000    0.000    0.000    0.000 
#
# Total GULP energy -178439.444178 kJ/mol
# GULP energy per Si atom -5576.232631 kJ/mol
# Density = 1.875271 g / cm^3
# Si number density = 18.795488 Si / 1000 Ang^3
#
#
#
# Elastic Constant Matrix: (Units=GPa)
#
#
# Indices 1 2 3 4 5 6 
#
# 1 121.6401 28.3103 42.6897 0.0000 -1.8084 0.0000
# 2 28.3103 61.1268 30.6131 0.0000 -4.8329 0.0000
# 3 42.6897 30.6131 117.2053 0.0000 -11.2597 0.0000
# 4 0.0000 0.0000 0.0000 21.5084 0.0000 4.5462
# 5 -1.8084 -4.8329 -11.2597 0.0000 38.8649 0.0000
# 6 0.0000 0.0000 0.0000 4.5462 0.0000 18.7167
#
#
#
# Elastic Compliance Matrix: (Units=1/GPa)
#
#
# Indices 1 2 3 4 5 6 
#
# 1 0.009968 -0.003247 -0.002856 0.000000 -0.000767 0.000000
# 2 -0.003247 0.019913 -0.003904 0.000000 0.001194 0.000000
# 3 -0.002856 -0.003904 0.010834 0.000000 0.002520 0.000000
# 4 0.000000 0.000000 0.000000 0.049010 0.000000 -0.011904
# 5 -0.000767 0.001194 0.002520 0.000000 0.026573 0.000000
# 6 0.000000 0.000000 0.000000 -0.011904 0.000000 0.056320
#
#
# Mechanical properties :
#
#
# Convention : Reuss Voigt Hill
#
# Bulk Modulus (GPa) = 48.30679 55.91094 52.10886
# Shear Modulus (GPa) = 25.05886 29.04193 27.05039
#
# Velocity S-wave (km/s) = 3.65531 3.93511 3.79779
# Velocity P-wave (km/s) = 6.60092 7.10340 6.85677
#
# Compressibility (1/GPa) = 0.02070103
#
# Stress axis : x y z
#
# Youngs Moduli (GPa) = 100.32529 50.21955 92.30096
#
# Poissons Ratio (x) = 0.16304 0.26363
# Poissons Ratio (y) = 0.32572 0.36032
# Poissons Ratio (z) = 0.28655 0.19605
#
# Static dielectric constant tensor:
#      x y z
#    x 1.648010 0.000000 0.015650 
#    y 0.000000 1.659730 0.000000 
#    z 0.015650 0.000000 1.679830 
# 
# From -- ./inp_files/34784.got.cif
#   From: 2010.05.17/outbox.cif.g08.bks.cpg/sg11_18_cif.got.tgz:34784.got - 2010.06.03 12:22:45.
