data_PCOD9160835
_publ_section_title
;
Structure prediction by ZEFSAII (Michael W. Deem and Ramdas Pophale) SiO2 
 PCOD9160835
Probable space group: P 21/M
;
_chemical_formula_sum "Si O2"
_cell_formula_units_Z 32
_cell_length_a 7.347892
_cell_length_b 22.165344
_cell_length_c 13.228934
_cell_angle_alpha 90.000000
_cell_angle_beta 137.710973
_cell_angle_gamma 90.000000
_cell_volume 1449.752294
_symmetry_space_group_name_H-M "P 21/M"
_symmetry_group_IT_number 11
_symmetry_cell_setting 'monoclinic'
loop_
_space_group_symop_operation_xyz
x,y,z
-x,1/2+y,-z
-x,-y,-z
x,1/2-y,z
loop_
_atom_site_type_symbol
_atom_site_label
_atom_site_fract_x
_atom_site_fract_y
_atom_site_fract_z
Si Si1 0.393430 0.596355 0.148858
Si Si2 0.256516 0.981292 0.668546
Si Si3 0.140589 0.683398 0.198441
Si Si4 0.300447 0.942048 0.897911
Si Si5 0.342524 0.320245 0.458475
Si Si6 0.517586 0.141249 0.326041
Si Si7 0.540847 0.816055 0.918182
Si Si8 0.127747 0.321111 0.590331
O O1 0.529468 0.535187 0.241895
O O2 0.198497 0.629795 0.145695
O O3 0.657033 0.641381 0.254178
O O4 0.227843 0.578330 0.980849
O O5 0.146901 0.966834 0.736729
O O6 0.411877 0.925233 0.683382
O O7 0.000000 0.000000 0.500000
O O8 0.202689 0.750000 0.179067
O O9 0.348435 0.675862 0.374842
O O10 0.826968 0.684167 0.092748
O O11 0.404182 0.877453 0.897932
O O12 0.500000 0.000000 0.000000
O O13 0.280817 0.250000 0.413505
O O14 0.327260 0.354693 0.346223
O O15 0.178304 0.338831 0.491954
O O16 0.416492 0.177268 0.185492
O O17 0.812343 0.167594 0.478097
O O18 0.408610 0.750000 0.881292
O O19 0.182395 0.250000 0.621904
#
# Coordination Sequence:
#
# PCOD9160835 Si02
#       8
#     4   4   4   4   4   4   4   4
#     4  10  19  38  59  83 116 153 195 251 302 353
#     4  10  20  38  60  84 117 158 203 254 295 362
#     4   9  20  38  58  85 120 153 195 251 301 364
#     4   9  21  37  58  86 117 156 201 244 300 362
#     4   9  19  35  56  84 115 149 196 244 293 360
#     4  11  21  38  60  84 119 160 197 244 314 359
#     4  10  21  37  57  85 120 154 197 250 308 373
#     4  10  20  34  59  88 116 151 198 246 298 365
#
# _framework density 22.072735000000002
#
# number of rings (size 3 to 8) (size 9 to 14) (size 15 to 20)
#    0.000    2.250    1.250    2.250    1.750    1.000 
#    4.500    8.125    2.750    0.000    0.000    0.000 
#    0.000    0.000    0.000    0.000    0.000    0.000 
#
# Total GULP energy -178361.742353 kJ/mol
# GULP energy per Si atom -5573.804449 kJ/mol
# Density = 2.202250 g / cm^3
# Si number density = 22.072735 Si / 1000 Ang^3
#
#
#
# Elastic Constant Matrix: (Units=GPa)
#
#
# Indices 1 2 3 4 5 6 
#
# 1 60.9660 19.2102 22.6936 0.0000 -27.6846 0.0000
# 2 19.2102 126.3477 24.6796 0.0000 -17.9660 0.0000
# 3 22.6936 24.6796 68.8820 0.0000 -12.1692 0.0000
# 4 0.0000 0.0000 0.0000 21.7839 0.0000 -2.3569
# 5 -27.6846 -17.9660 -12.1692 0.0000 32.3162 0.0000
# 6 0.0000 0.0000 0.0000 -2.3569 0.0000 19.3183
#
#
#
# Elastic Compliance Matrix: (Units=1/GPa)
#
#
# Indices 1 2 3 4 5 6 
#
# 1 0.028648 -0.000103 -0.005437 0.000000 0.022437 0.000000
# 2 -0.000103 0.008980 -0.002482 0.000000 0.003969 0.000000
# 3 -0.005437 -0.002482 0.017281 0.000000 0.000470 0.000000
# 4 0.000000 0.000000 0.000000 0.046519 0.000000 0.005676
# 5 0.022437 0.003969 0.000470 0.000000 0.052549 0.000000
# 6 0.000000 0.000000 0.000000 0.005676 0.000000 0.052457
#
#
# Mechanical properties :
#
#
# Convention : Reuss Voigt Hill
#
# Bulk Modulus (GPa) = 25.73118 43.26251 34.49684
# Shear Modulus (GPa) = 21.23743 27.32450 24.28097
#
# Velocity S-wave (km/s) = 3.10523 3.52224 3.32029
# Velocity P-wave (km/s) = 4.95372 6.01532 5.51015
#
# Compressibility (1/GPa) = 0.03886335
#
# Stress axis : x y z
#
# Youngs Moduli (GPa) = 34.90682 111.36399 57.86635
#
# Poissons Ratio (x) = 0.01149 0.31464
# Poissons Ratio (y) = 0.00360 0.14363
# Poissons Ratio (z) = 0.18980 0.27641
#
# Static dielectric constant tensor:
#      x y z
#    x 1.859550 0.000000 -0.005460 
#    y 0.000000 1.806830 0.000000 
#    z -0.005460 0.000000 1.831110 
# 
# From -- ./inp_files/48276.got.cif
#   From: 2010.05.17/outbox.cif.g08.bks.cpg/sg11_25_cif.got.tgz:48276.got - 2010.06.03 12:22:45.
