data_PCOD9160323
_publ_section_title
;
Structure prediction by ZEFSAII (Michael W. Deem and Ramdas Pophale) SiO2 
 PCOD9160323
Probable space group: P 21/M
;
_chemical_formula_sum "Si O2"
_cell_formula_units_Z 32
_cell_length_a 22.305050
_cell_length_b 8.567734
_cell_length_c 28.805570
_cell_angle_alpha 90.000000
_cell_angle_beta 18.669364
_cell_angle_gamma 90.000000
_cell_volume 1762.138762
_symmetry_space_group_name_H-M "P 21/M"
_symmetry_group_IT_number 11
_symmetry_cell_setting 'monoclinic'
loop_
_space_group_symop_operation_xyz
x,y,z
-x,1/2+y,-z
-x,-y,-z
x,1/2-y,z
loop_
_atom_site_type_symbol
_atom_site_label
_atom_site_fract_x
_atom_site_fract_y
_atom_site_fract_z
Si Si1 0.803089 0.938531 0.849632
Si Si2 0.676035 0.563144 0.660809
Si Si3 0.405840 0.438162 0.174366
Si Si4 0.496939 0.062052 0.554494
Si Si5 0.498287 0.936677 0.301412
Si Si6 0.790664 0.435797 0.158963
Si Si7 0.913456 0.561161 0.663740
Si Si8 0.191619 0.938959 0.602296
O O1 0.796071 0.750000 0.856999
O O2 0.846503 0.981409 0.764498
O O3 0.979609 0.993742 0.751195
O O4 0.606115 0.004504 0.010140
O O5 0.664238 0.750000 0.667611
O O6 0.630870 0.509664 0.746096
O O7 0.536365 0.492546 0.725136
O O8 0.885360 0.510101 0.494714
O O9 0.404511 0.250000 0.174857
O O10 0.240410 0.489518 0.261121
O O11 0.493112 0.250000 0.557040
O O12 0.684694 0.009612 0.444582
O O13 0.500000 0.000000 0.500000
O O14 0.322044 0.003779 0.713881
O O15 0.518771 0.750000 0.288125
O O16 0.313541 0.978647 0.467243
O O17 0.670517 0.013237 0.202125
O O18 0.794539 0.250000 0.159968
O O19 0.000000 0.500000 0.000000
O O20 0.930605 0.750000 0.649700
O O21 0.185093 0.750000 0.608929
#
# Coordination Sequence:
#
# PCOD9160323 Si02
#       8
#     4   4   4   4   4   4   4   4
#     4  10  19  35  58  82 106 143 190 233 280 339
#     4  11  22  36  55  82 115 148 189 235 283 339
#     4  10  23  38  51  79 118 149 180 234 292 339
#     4  10  20  37  60  87 120 157 197 241 289 342
#     4  10  19  37  62  85 113 151 192 236 284 336
#     4  11  22  39  62  91 122 154 194 238 289 346
#     4  10  20  37  60  80 106 145 191 236 285 343
#     4   8  16  33  57  82 108 141 187 235 274 328
#
# _framework density 18.159749000000001
#
# number of rings (size 3 to 8) (size 9 to 14) (size 15 to 20)
#    0.000    2.000    1.250    3.750    0.000    2.000 
#    2.250    1.250    0.000    0.000    0.000    0.000 
#    0.000    0.000    0.000    0.000    0.000    0.000 
#
# Total GULP energy -178658.287670 kJ/mol
# GULP energy per Si atom -5583.071490 kJ/mol
# Density = 1.811842 g / cm^3
# Si number density = 18.159749 Si / 1000 Ang^3
#
#
#
# Elastic Constant Matrix: (Units=GPa)
#
#
# Indices 1 2 3 4 5 6 
#
# 1 163.9849 42.5879 76.1153 0.0000 2.8438 0.0000
# 2 42.5879 51.1717 35.0630 0.0000 -0.7722 0.0000
# 3 76.1153 35.0630 110.7981 0.0000 -2.2148 0.0000
# 4 0.0000 0.0000 0.0000 40.7639 0.0000 -2.9835
# 5 2.8438 -0.7722 -2.2148 0.0000 28.6890 0.0000
# 6 0.0000 0.0000 0.0000 -2.9835 0.0000 26.5497
#
#
#
# Elastic Compliance Matrix: (Units=1/GPa)
#
#
# Indices 1 2 3 4 5 6 
#
# 1 0.009758 -0.004507 -0.005307 0.000000 -0.001498 0.000000
# 2 -0.004507 0.027035 -0.005444 0.000000 0.000754 0.000000
# 3 -0.005307 -0.005444 0.014424 0.000000 0.001493 0.000000
# 4 0.000000 0.000000 0.000000 0.024735 0.000000 0.002780
# 5 -0.001498 0.000754 0.001493 0.000000 0.035141 0.000000
# 6 0.000000 0.000000 0.000000 0.002780 0.000000 0.037978
#
#
# Mechanical properties :
#
#
# Convention : Reuss Voigt Hill
#
# Bulk Modulus (GPa) = 48.30894 70.38748 59.34821
# Shear Modulus (GPa) = 26.81156 30.67973 28.74564
#
# Velocity S-wave (km/s) = 3.84660 4.11473 3.98292
# Velocity P-wave (km/s) = 6.81090 7.83703 7.34191
#
# Compressibility (1/GPa) = 0.02070010
#
# Stress axis : x y z
#
# Youngs Moduli (GPa) = 102.47981 36.98921 69.32960
#
# Poissons Ratio (x) = 0.16672 0.36794
# Poissons Ratio (y) = 0.46191 0.37742
# Poissons Ratio (z) = 0.54387 0.20137
#
# Static dielectric constant tensor:
#      x y z
#    x 1.626190 0.000000 -0.010370 
#    y 0.000000 1.617540 0.000000 
#    z -0.010370 0.000000 1.588880 
# 
# From -- ./inp_files/72098.got.cif
#   From: 2010.05.17/outbox.cif.g08.bks.cpg/sg11_37_cif.got.tgz:72098.got - 2010.06.03 12:22:45.
