data_PCOD9160466
_publ_section_title
;
Structure prediction by ZEFSAII (Michael W. Deem and Ramdas Pophale) SiO2 
 PCOD9160466
Probable space group: P 21/M
;
_chemical_formula_sum "Si O2"
_cell_formula_units_Z 24
_cell_length_a 18.886809
_cell_length_b 14.531944
_cell_length_c 10.403660
_cell_angle_alpha 90.000000
_cell_angle_beta 152.386398
_cell_angle_gamma 90.000000
_cell_volume 1323.500763
_symmetry_space_group_name_H-M "P 21/M"
_symmetry_group_IT_number 11
_symmetry_cell_setting 'monoclinic'
loop_
_space_group_symop_operation_xyz
x,y,z
-x,1/2+y,-z
-x,-y,-z
x,1/2-y,z
loop_
_atom_site_type_symbol
_atom_site_label
_atom_site_fract_x
_atom_site_fract_y
_atom_site_fract_z
Si Si1 0.811422 0.250000 0.292974
Si Si2 0.001641 0.429699 0.885552
Si Si3 0.513929 0.250000 0.305318
Si Si4 0.343393 0.427790 0.354967
Si Si5 0.791892 0.250000 0.554366
Si Si6 0.447870 0.750000 0.335851
Si Si7 0.108308 0.955620 0.567928
Si Si8 0.603607 0.949787 0.856641
O O1 0.738402 0.250000 0.318700
O O2 0.902759 0.345226 0.434669
O O3 0.695658 0.250000 0.988433
O O4 0.896918 0.340396 0.741795
O O5 0.941177 0.476306 0.656880
O O6 0.177568 0.404764 0.140822
O O7 0.000000 0.500000 0.000000
O O8 0.648703 0.250000 0.418735
O O9 0.584245 0.250000 0.563186
O O10 0.413783 0.342974 0.134453
O O11 0.452163 0.339577 0.531895
O O12 0.334954 0.456749 0.191438
O O13 0.434030 0.506579 0.578232
O O14 0.000000 0.000000 0.500000
O O15 0.279459 0.992281 0.869331
#
# Coordination Sequence:
#
# PCOD9160466 Si02
#       8
#     2   4   2   4   2   2   4   4
#     4  10  22  39  58  90 119 156 194 250 308 352
#     4  11  23  40  61  88 124 164 197 247 310 365
#     4  10  22  37  59  87 121 157 206 250 299 359
#     4  10  19  35  61  89 116 148 203 247 297 360
#     4  10  23  42  58  86 128 161 193 254 311 361
#     4  10  19  36  65  89 108 154 205 252 296 348
#     4  11  22  40  63  88 125 158 205 250 304 360
#     4  10  20  36  61  88 117 155 200 256 293 348
#
# _framework density 18.133724999999998
#
# number of rings (size 3 to 8) (size 9 to 14) (size 15 to 20)
#    0.000    1.667    3.333    1.500    0.000    2.000 
#    3.000    3.333    0.000    0.000    0.000    0.000 
#    0.000    0.000    0.000    0.000    0.000    0.000 
#
# Total GULP energy -133957.526190 kJ/mol
# GULP energy per Si atom -5581.563591 kJ/mol
# Density = 1.809245 g / cm^3
# Si number density = 18.133725 Si / 1000 Ang^3
#
#
#
# Elastic Constant Matrix: (Units=GPa)
#
#
# Indices 1 2 3 4 5 6 
#
# 1 94.0044 30.8234 32.9716 0.0000 -4.9331 0.0000
# 2 30.8234 98.7853 24.1546 0.0000 -16.6927 0.0000
# 3 32.9716 24.1546 68.5919 0.0000 -16.7085 0.0000
# 4 0.0000 0.0000 0.0000 25.5802 0.0000 -0.3231
# 5 -4.9331 -16.6927 -16.7085 0.0000 28.8351 0.0000
# 6 0.0000 0.0000 0.0000 -0.3231 0.0000 19.0689
#
#
#
# Elastic Compliance Matrix: (Units=1/GPa)
#
#
# Indices 1 2 3 4 5 6 
#
# 1 0.013732 -0.003300 -0.006208 0.000000 -0.003159 0.000000
# 2 -0.003300 0.012481 -0.001381 0.000000 0.005860 0.000000
# 3 -0.006208 -0.001381 0.020488 0.000000 0.010010 0.000000
# 4 0.000000 0.000000 0.000000 0.039101 0.000000 0.000663
# 5 -0.003159 0.005860 0.010010 0.000000 0.043332 0.000000
# 6 0.000000 0.000000 0.000000 0.000663 0.000000 0.052453
#
#
# Mechanical properties :
#
#
# Convention : Reuss Voigt Hill
#
# Bulk Modulus (GPa) = 40.12611 48.58676 44.35644
# Shear Modulus (GPa) = 23.62143 26.25897 24.94020
#
# Velocity S-wave (km/s) = 3.61310 3.80948 3.71259
# Velocity P-wave (km/s) = 6.29142 6.79716 6.54917
#
# Compressibility (1/GPa) = 0.02492143
#
# Stress axis : x y z
#
# Youngs Moduli (GPa) = 72.82474 80.12356 48.80958
#
# Poissons Ratio (x) = 0.26444 0.30300
# Poissons Ratio (y) = 0.24035 0.06741
# Poissons Ratio (z) = 0.45208 0.11066
#
# Static dielectric constant tensor:
#      x y z
#    x 1.601920 0.000000 -0.007880 
#    y 0.000000 1.609070 0.000000 
#    z -0.007880 0.000000 1.625890 
# 
# From -- ./inp_files/25013.got.cif
#   From: 2010.05.17/outbox.cif.g08.bks.cpg/sg11_13_cif.got.tgz:25013.got - 2010.06.03 12:22:45.
