data_PCOD9160670
_publ_section_title
;
Structure prediction by ZEFSAII (Michael W. Deem and Ramdas Pophale) SiO2 
 PCOD9160670
Probable space group: P 21/M
;
_chemical_formula_sum "Si O2"
_cell_formula_units_Z 32
_cell_length_a 12.090041
_cell_length_b 8.506768
_cell_length_c 15.226105
_cell_angle_alpha 90.000000
_cell_angle_beta 87.087669
_cell_angle_gamma 90.000000
_cell_volume 1563.939344
_symmetry_space_group_name_H-M "P 21/M"
_symmetry_group_IT_number 11
_symmetry_cell_setting 'monoclinic'
loop_
_space_group_symop_operation_xyz
x,y,z
-x,1/2+y,-z
-x,-y,-z
x,1/2-y,z
loop_
_atom_site_type_symbol
_atom_site_label
_atom_site_fract_x
_atom_site_fract_y
_atom_site_fract_z
Si Si1 0.228037 0.562133 0.472595
Si Si2 0.484393 0.560570 0.219245
Si Si3 0.060343 0.937947 0.334634
Si Si4 0.281823 0.064252 0.845842
Si Si5 0.760739 0.441280 0.821714
Si Si6 0.545124 0.566750 0.589765
Si Si7 0.875260 0.062675 0.996721
Si Si8 0.182263 0.564948 0.674128
O O1 0.250101 0.750000 0.462470
O O2 0.112840 0.531328 0.428029
O O3 0.324353 0.468921 0.420174
O O4 0.225267 0.522510 0.575251
O O5 0.483197 0.750000 0.216269
O O6 0.590626 0.507092 0.158979
O O7 0.364450 0.502562 0.191090
O O8 0.499687 0.511978 0.320039
O O9 0.038586 0.750000 0.328030
O O10 0.155045 0.979757 0.260249
O O11 0.948484 0.030340 0.321667
O O12 0.279776 0.250000 0.863371
O O13 0.237527 0.031270 0.749813
O O14 0.200343 0.982818 0.917679
O O15 0.755150 0.250000 0.824215
O O16 0.814248 0.496016 0.910804
O O17 0.500000 0.500000 0.500000
O O18 0.520550 0.750000 0.594627
O O19 0.882497 0.250000 0.990422
O O20 0.000000 0.000000 0.000000
O O21 0.202913 0.750000 0.687132
#
# Coordination Sequence:
#
# PCOD9160670 Si02
#       8
#     4   4   4   4   4   4   4   4
#     4  10  21  38  59  85 120 162 203 252 311 369
#     4  10  21  42  66  88 120 161 207 255 308 373
#     4  10  19  36  62  87 121 162 201 248 307 377
#     4  11  24  41  63  89 120 162 207 252 309 370
#     4   9  19  38  65  91 119 160 203 247 311 369
#     4  12  24  37  58  87 121 163 210 260 307 364
#     4  11  23  41  67  97 128 162 202 252 307 372
#     4  11  23  37  57  87 123 160 206 260 308 363
#
# _framework density 20.461151999999998
#
# number of rings (size 3 to 8) (size 9 to 14) (size 15 to 20)
#    0.000    1.500    1.250    4.125    0.000    6.000 
#    0.000    1.875    0.000    0.000    0.000    0.000 
#    0.000    0.000    0.000    0.000    0.000    0.000 
#
# Total GULP energy -178892.190729 kJ/mol
# GULP energy per Si atom -5590.380960 kJ/mol
# Density = 2.041458 g / cm^3
# Si number density = 20.461152 Si / 1000 Ang^3
#
#
#
# Elastic Constant Matrix: (Units=GPa)
#
#
# Indices 1 2 3 4 5 6 
#
# 1 89.8437 13.2474 32.3718 0.0000 -14.7161 0.0000
# 2 13.2474 16.6332 11.5935 0.0000 -3.4630 0.0000
# 3 32.3718 11.5935 101.8046 0.0000 -3.7080 0.0000
# 4 0.0000 0.0000 0.0000 16.9633 0.0000 -0.0144
# 5 -14.7161 -3.4630 -3.7080 0.0000 35.1200 0.0000
# 6 0.0000 0.0000 0.0000 -0.0144 0.0000 25.1645
#
#
#
# Elastic Compliance Matrix: (Units=1/GPa)
#
#
# Indices 1 2 3 4 5 6 
#
# 1 0.014359 -0.008000 -0.003478 0.000000 0.004861 0.000000
# 2 -0.008000 0.070908 -0.005419 0.000000 0.003068 0.000000
# 3 -0.003478 -0.005419 0.011518 0.000000 -0.000776 0.000000
# 4 0.000000 0.000000 0.000000 0.058951 0.000000 0.000034
# 5 0.004861 0.003068 -0.000776 0.000000 0.030731 0.000000
# 6 0.000000 0.000000 0.000000 0.000034 0.000000 0.039739
#
#
# Mechanical properties :
#
#
# Convention : Reuss Voigt Hill
#
# Bulk Modulus (GPa) = 15.87548 35.85630 25.86589
# Shear Modulus (GPa) = 17.79375 25.52082 21.65728
#
# Velocity S-wave (km/s) = 2.95216 3.53552 3.25693
# Velocity P-wave (km/s) = 4.40409 5.85053 5.17806
#
# Compressibility (1/GPa) = 0.06299022
#
# Stress axis : x y z
#
# Youngs Moduli (GPa) = 69.64089 14.10272 86.82409
#
# Poissons Ratio (x) = 0.11283 0.30196
# Poissons Ratio (y) = 0.55714 0.47053
# Poissons Ratio (z) = 0.24220 0.07643
#
# Static dielectric constant tensor:
#      x y z
#    x 1.743710 0.000000 0.010640 
#    y 0.000000 1.699890 0.000000 
#    z 0.010640 0.000000 1.714710 
# 
# From -- ./inp_files/49291.got.cif
#   From: 2010.05.17/outbox.cif.g08.bks.cpg/sg11_25_cif.got.tgz:49291.got - 2010.06.03 12:22:45.
