data_PCOD9160209
_publ_section_title
;
Structure prediction by ZEFSAII (Michael W. Deem and Ramdas Pophale) SiO2 
 PCOD9160209
Probable space group: P 21/M
;
_chemical_formula_sum "Si O2"
_cell_formula_units_Z 32
_cell_length_a 9.247543
_cell_length_b 13.471998
_cell_length_c 26.261891
_cell_angle_alpha 90.000000
_cell_angle_beta 146.631720
_cell_angle_gamma 90.000000
_cell_volume 1799.540545
_symmetry_space_group_name_H-M "P 21/M"
_symmetry_group_IT_number 11
_symmetry_cell_setting 'monoclinic'
loop_
_space_group_symop_operation_xyz
x,y,z
-x,1/2+y,-z
-x,-y,-z
x,1/2-y,z
loop_
_atom_site_type_symbol
_atom_site_label
_atom_site_fract_x
_atom_site_fract_y
_atom_site_fract_z
Si Si1 0.744691 0.135529 0.278046
Si Si2 0.768542 0.972003 0.551644
Si Si3 0.229726 0.136142 0.961324
Si Si4 0.285054 0.638023 0.120102
Si Si5 0.721118 0.560871 0.323898
Si Si6 0.584392 0.632796 0.395607
Si Si7 0.956950 0.635350 0.209626
Si Si8 0.541053 0.013442 0.126276
O O1 0.699502 0.250000 0.276006
O O2 0.606696 0.100218 0.185616
O O3 0.055570 0.109209 0.366464
O O4 0.651666 0.055929 0.293513
O O5 0.709552 0.926583 0.478996
O O6 0.500000 0.000000 0.500000
O O7 0.975495 0.062516 0.605172
O O8 0.324271 0.250000 0.993313
O O9 0.133646 0.121822 0.875523
O O10 0.978438 0.125503 0.924583
O O11 0.444688 0.060380 0.045445
O O12 0.290005 0.750000 0.101244
O O13 0.528394 0.621766 0.230565
O O14 0.321605 0.557306 0.086936
O O15 0.684241 0.593865 0.370599
O O16 0.642604 0.750000 0.417179
O O17 0.268780 0.620839 0.304748
O O18 0.899155 0.750000 0.207150
O O19 0.794114 0.556791 0.194328
#
# Coordination Sequence:
#
# PCOD9160209 Si02
#       8
#     4   4   4   4   4   4   4   4
#     4   9  20  36  55  78 111 147 182 221 275 334
#     4  10  21  37  56  85 113 143 185 228 279 332
#     4  10  20  35  56  79 109 147 188 228 278 338
#     4  10  19  35  55  83 113 141 187 237 277 324
#     4   9  20  35  59  80 109 148 183 230 275 334
#     4  11  20  36  60  85 113 150 188 231 284 329
#     4  10  21  35  55  84 114 145 187 238 282 324
#     4  11  20  34  55  83 109 154 183 228 280 329
#
# _framework density 17.782316000000002
#
# number of rings (size 3 to 8) (size 9 to 14) (size 15 to 20)
#    0.750    1.250    1.250    3.375    0.000    0.000 
#    0.000    1.875    0.000    5.250    0.000    0.000 
#    0.000    0.000    0.000    0.000    0.000    0.000 
#
# Total GULP energy -178360.191425 kJ/mol
# GULP energy per Si atom -5573.755982 kJ/mol
# Density = 1.774184 g / cm^3
# Si number density = 17.782316 Si / 1000 Ang^3
#
#
#
# Elastic Constant Matrix: (Units=GPa)
#
#
# Indices 1 2 3 4 5 6 
#
# 1 25.1876 1.1833 -13.6298 0.0000 6.6403 0.0000
# 2 1.1833 52.4892 9.0124 0.0000 2.4739 0.0000
# 3 -13.6298 9.0124 51.4008 0.0000 -2.8548 0.0000
# 4 0.0000 0.0000 0.0000 17.7335 0.0000 -2.7233
# 5 6.6403 2.4739 -2.8548 0.0000 28.2456 0.0000
# 6 0.0000 0.0000 0.0000 -2.7233 0.0000 21.3843
#
#
#
# Elastic Compliance Matrix: (Units=1/GPa)
#
#
# Indices 1 2 3 4 5 6 
#
# 1 0.049581 -0.002891 0.013094 0.000000 -0.010079 0.000000
# 2 -0.002891 0.019934 -0.004345 0.000000 -0.001505 0.000000
# 3 0.013094 -0.004345 0.023672 0.000000 -0.000305 0.000000
# 4 0.000000 0.000000 0.000000 0.057515 0.000000 0.007325
# 5 -0.010079 -0.001505 -0.000305 0.000000 0.037874 0.000000
# 6 0.000000 0.000000 0.000000 0.007325 0.000000 0.047696
#
#
# Mechanical properties :
#
#
# Convention : Reuss Voigt Hill
#
# Bulk Modulus (GPa) = 9.53264 13.57882 11.55573
# Shear Modulus (GPa) = 19.26606 22.30680 20.78643
#
# Velocity S-wave (km/s) = 3.29513 3.54565 3.42268
# Velocity P-wave (km/s) = 4.45529 4.94114 4.70449
#
# Compressibility (1/GPa) = 0.10490277
#
# Stress axis : x y z
#
# Youngs Moduli (GPa) = 20.16906 50.16619 42.24392
#
# Poissons Ratio (x) = 0.14503 -0.55315
# Poissons Ratio (y) = 0.05831 0.18356
# Poissons Ratio (z) = -0.26410 0.21799
#
# Static dielectric constant tensor:
#      x y z
#    x 1.590100 0.000000 0.005980 
#    y 0.000000 1.602870 0.000000 
#    z 0.005980 0.000000 1.612860 
# 
# From -- ./inp_files/71129.got.cif
#   From: 2010.05.17/outbox.cif.g08.bks.cpg/sg11_36_cif.got.tgz:71129.got - 2010.06.03 12:22:45.
