data_PCOD9160451
_publ_section_title
;
Structure prediction by ZEFSAII (Michael W. Deem and Ramdas Pophale) SiO2 
 PCOD9160451
Probable space group: P 21/M
;
_chemical_formula_sum "Si O2"
_cell_formula_units_Z 28
_cell_length_a 8.946772
_cell_length_b 14.279885
_cell_length_c 21.328894
_cell_angle_alpha 90.000000
_cell_angle_beta 28.667910
_cell_angle_gamma 90.000000
_cell_volume 1307.248774
_symmetry_space_group_name_H-M "P 21/M"
_symmetry_group_IT_number 11
_symmetry_cell_setting 'monoclinic'
loop_
_space_group_symop_operation_xyz
x,y,z
-x,1/2+y,-z
-x,-y,-z
x,1/2-y,z
loop_
_atom_site_type_symbol
_atom_site_label
_atom_site_fract_x
_atom_site_fract_y
_atom_site_fract_z
Si Si1 0.304752 0.640843 0.777248
Si Si2 0.237383 0.551683 0.557305
Si Si3 0.009858 0.139825 0.228997
Si Si4 0.291539 0.640119 0.030753
Si Si5 0.764198 0.959034 0.036411
Si Si6 0.593306 0.856628 0.318591
Si Si7 0.684004 0.475208 0.694005
O O1 0.386279 0.750000 0.747721
O O2 0.547170 0.578408 0.726952
O O3 0.246276 0.605836 0.727219
O O4 0.962257 0.623748 0.932902
O O5 0.500000 0.500000 0.500000
O O6 0.413500 0.625953 0.449070
O O7 0.014726 0.593558 0.693646
O O8 0.041785 0.488314 0.580594
O O9 0.952071 0.250000 0.258470
O O10 0.358027 0.131418 0.071784
O O11 0.277859 0.750000 0.011666
O O12 0.967737 0.626636 0.187589
O O13 0.288899 0.549907 0.986772
O O14 0.467243 0.933549 0.186861
O O15 0.000000 0.000000 0.000000
O O16 0.560295 0.750000 0.311156
O O17 0.436382 0.916190 0.320647
#
# Coordination Sequence:
#
# PCOD9160451 Si02
#       7
#     4   4   4   4   4   4   4
#     4  10  22  38  63  97 133 167 216 274 323 383
#     4  12  26  43  65  93 127 171 217 273 326 389
#     4  10  22  41  64  94 127 170 219 265 318 383
#     4  10  20  37  64  93 128 166 212 267 320 383
#     4  10  19  35  60  95 128 160 216 263 327 378
#     4  11  24  43  67  97 133 173 216 267 327 388
#     4  11  23  44  63  94 126 175 220 263 323 398
#
# _framework density 21.419028999999998
#
# number of rings (size 3 to 8) (size 9 to 14) (size 15 to 20)
#    0.000    1.429    4.286    1.714    0.000    5.714 
#    0.000    2.857    0.000    0.000    0.000    0.000 
#    0.000    0.000    0.000    0.000    0.000    0.000 
#
# Total GULP energy -156012.331495 kJ/mol
# GULP energy per Si atom -5571.868982 kJ/mol
# Density = 2.137028 g / cm^3
# Si number density = 21.419029 Si / 1000 Ang^3
#
#
#
# Elastic Constant Matrix: (Units=GPa)
#
#
# Indices 1 2 3 4 5 6 
#
# 1 77.4011 26.0317 31.7204 0.0000 -17.0891 0.0000
# 2 26.0317 52.9364 8.0237 0.0000 -11.3980 0.0000
# 3 31.7204 8.0237 100.1768 0.0000 -8.4932 0.0000
# 4 0.0000 0.0000 0.0000 28.0556 0.0000 1.2402
# 5 -17.0891 -11.3980 -8.4932 0.0000 32.5243 0.0000
# 6 0.0000 0.0000 0.0000 1.2402 0.0000 17.9868
#
#
#
# Elastic Compliance Matrix: (Units=1/GPa)
#
#
# Indices 1 2 3 4 5 6 
#
# 1 0.018621 -0.007129 -0.004814 0.000000 0.006029 0.000000
# 2 -0.007129 0.023271 0.000785 0.000000 0.004614 0.000000
# 3 -0.004814 0.000785 0.011508 0.000000 0.000750 0.000000
# 4 0.000000 0.000000 0.000000 0.035752 0.000000 -0.002465
# 5 0.006029 0.004614 0.000750 0.000000 0.035727 0.000000
# 6 0.000000 0.000000 0.000000 -0.002465 0.000000 0.055766
#
#
# Mechanical properties :
#
#
# Convention : Reuss Voigt Hill
#
# Bulk Modulus (GPa) = 32.17268 40.22956 36.20112
# Shear Modulus (GPa) = 23.43851 26.69591 25.06721
#
# Velocity S-wave (km/s) = 3.31159 3.53422 3.42471
# Velocity P-wave (km/s) = 5.44751 5.95627 5.70756
#
# Compressibility (1/GPa) = 0.03108228
#
# Stress axis : x y z
#
# Youngs Moduli (GPa) = 53.70142 42.97188 86.89965
#
# Poissons Ratio (x) = 0.30636 0.41836
# Poissons Ratio (y) = 0.38286 -0.06820
# Poissons Ratio (z) = 0.25853 -0.03372
#
# Static dielectric constant tensor:
#      x y z
#    x 1.741570 0.000000 -0.038960 
#    y 0.000000 1.771400 0.000000 
#    z -0.038960 0.000000 1.820670 
# 
# From -- ./inp_files/63859.got.cif
#   From: 2010.05.17/outbox.cif.g08.bks.cpg/sg11_32_cif.got.tgz:63859.got - 2010.06.03 12:22:45.
