data_PCOD9160259
_publ_section_title
;
Structure prediction by ZEFSAII (Michael W. Deem and Ramdas Pophale) SiO2 
 PCOD9160259
Probable space group: P 21/M
;
_chemical_formula_sum "Si O2"
_cell_formula_units_Z 32
_cell_length_a 12.756200
_cell_length_b 8.480705
_cell_length_c 15.269966
_cell_angle_alpha 90.000000
_cell_angle_beta 92.109602
_cell_angle_gamma 90.000000
_cell_volume 1650.809269
_symmetry_space_group_name_H-M "P 21/M"
_symmetry_group_IT_number 11
_symmetry_cell_setting 'monoclinic'
loop_
_space_group_symop_operation_xyz
x,y,z
-x,1/2+y,-z
-x,-y,-z
x,1/2-y,z
loop_
_atom_site_type_symbol
_atom_site_label
_atom_site_fract_x
_atom_site_fract_y
_atom_site_fract_z
Si Si1 0.482980 0.440678 0.865862
Si Si2 0.748337 0.559513 0.427860
Si Si3 0.031142 0.937620 0.596943
Si Si4 0.689968 0.939586 0.619219
Si Si5 0.673328 0.438758 0.994946
Si Si6 0.101712 0.438958 0.054570
Si Si7 0.873475 0.557426 0.744691
Si Si8 0.530311 0.560081 0.335287
O O1 0.478320 0.250000 0.868734
O O2 0.386474 0.506591 0.919321
O O3 0.477387 0.492883 0.765580
O O4 0.592274 0.489208 0.915317
O O5 0.755660 0.750000 0.423380
O O6 0.848960 0.486627 0.385022
O O7 0.745703 0.514506 0.530236
O O8 0.638825 0.508366 0.382082
O O9 0.020404 0.750000 0.593638
O O10 0.957758 0.994470 0.674275
O O11 0.000000 0.000000 0.500000
O O12 0.686166 0.750000 0.620270
O O13 0.760097 0.992815 0.703629
O O14 0.572638 0.002034 0.618553
O O15 0.680665 0.250000 0.994143
O O16 0.788563 0.508326 0.985308
O O17 0.097972 0.250000 0.055097
O O18 0.103678 0.495664 0.156076
O O19 0.000000 0.500000 0.000000
O O20 0.874286 0.750000 0.745820
O O21 0.529931 0.750000 0.336425
#
# Coordination Sequence:
#
# PCOD9160259 Si02
#       8
#     4   4   4   4   4   4   4   4
#     4   9  19  36  57  83 115 148 185 233 284 336
#     4  10  21  37  55  79 115 151 185 229 279 331
#     4  11  21  38  61  84 112 145 189 236 280 334
#     4  10  19  35  57  79 111 149 186 228 275 336
#     4  10  20  36  59  84 112 147 190 235 281 338
#     4  11  23  40  60  83 115 152 190 237 290 343
#     4   9  20  38  60  84 112 148 187 231 284 338
#     4  10  21  35  53  82 117 148 184 232 281 329
#
# _framework density 19.384433000000001
#
# number of rings (size 3 to 8) (size 9 to 14) (size 15 to 20)
#    0.000    2.000    1.250    2.250    0.000    3.000 
#    0.000    5.625    0.000    0.000    0.000    0.000 
#    0.000    0.000    0.000    0.000    0.000    0.000 
#
# Total GULP energy -178708.392153 kJ/mol
# GULP energy per Si atom -5584.637255 kJ/mol
# Density = 1.934031 g / cm^3
# Si number density = 19.384433 Si / 1000 Ang^3
#
#
#
# Elastic Constant Matrix: (Units=GPa)
#
#
# Indices 1 2 3 4 5 6 
#
# 1 144.4648 15.8486 17.8783 0.0000 -2.7582 0.0000
# 2 15.8486 15.4009 5.4539 0.0000 0.4889 0.0000
# 3 17.8783 5.4539 22.8988 0.0000 0.8446 0.0000
# 4 0.0000 0.0000 0.0000 18.4983 0.0000 -0.8715
# 5 -2.7582 0.4889 0.8446 0.0000 25.3381 0.0000
# 6 0.0000 0.0000 0.0000 -0.8715 0.0000 30.1799
#
#
#
# Elastic Compliance Matrix: (Units=1/GPa)
#
#
# Indices 1 2 3 4 5 6 
#
# 1 0.008302 -0.006848 -0.004895 0.000000 0.001199 0.000000
# 2 -0.006848 0.076577 -0.012826 0.000000 -0.001795 0.000000
# 3 -0.004895 -0.012826 0.050620 0.000000 -0.001973 0.000000
# 4 0.000000 0.000000 0.000000 0.054133 0.000000 0.001563
# 5 0.001199 -0.001795 -0.001973 0.000000 0.039697 0.000000
# 6 0.000000 0.000000 0.000000 0.001563 0.000000 0.033180
#
#
# Mechanical properties :
#
#
# Convention : Reuss Voigt Hill
#
# Bulk Modulus (GPa) = 11.57927 29.01401 20.29664
# Shear Modulus (GPa) = 14.68714 24.37553 19.53133
#
# Velocity S-wave (km/s) = 2.75558 3.54994 3.17768
# Velocity P-wave (km/s) = 4.01382 5.63941 4.89457
#
# Compressibility (1/GPa) = 0.08636121
#
# Stress axis : x y z
#
# Youngs Moduli (GPa) = 120.45224 13.05867 19.75511
#
# Poissons Ratio (x) = 0.08943 0.09670
# Poissons Ratio (y) = 0.82485 0.25338
# Poissons Ratio (z) = 0.58962 0.16749
#
# Static dielectric constant tensor:
#      x y z
#    x 1.657820 0.000000 0.013560 
#    y 0.000000 1.665550 0.000000 
#    z 0.013560 0.000000 1.676310 
# 
# From -- ./inp_files/38288.got.cif
#   From: 2010.05.17/outbox.cif.g08.bks.cpg/sg11_20_cif.got.tgz:38288.got - 2010.06.03 12:22:45.
