data_PCOD9160879
_publ_section_title
;
Structure prediction by ZEFSAII (Michael W. Deem and Ramdas Pophale) SiO2 
 PCOD9160879
Probable space group: P 21/M
;
_chemical_formula_sum "Si O2"
_cell_formula_units_Z 30
_cell_length_a 9.105892
_cell_length_b 24.477408
_cell_length_c 13.045870
_cell_angle_alpha 90.000000
_cell_angle_beta 26.277475
_cell_angle_gamma 90.000000
_cell_volume 1287.326919
_symmetry_space_group_name_H-M "P 21/M"
_symmetry_group_IT_number 11
_symmetry_cell_setting 'monoclinic'
loop_
_space_group_symop_operation_xyz
x,y,z
-x,1/2+y,-z
-x,-y,-z
x,1/2-y,z
loop_
_atom_site_type_symbol
_atom_site_label
_atom_site_fract_x
_atom_site_fract_y
_atom_site_fract_z
Si Si1 0.735826 0.043019 0.792009
Si Si2 0.020744 0.187401 0.100801
Si Si3 0.090443 0.406042 0.886090
Si Si4 0.312950 0.967212 0.424817
Si Si5 0.801754 0.624895 0.810154
Si Si6 0.207775 0.750000 0.020936
Si Si7 0.252519 0.340907 0.590956
Si Si8 0.578922 0.856336 0.727623
O O1 0.706283 0.039723 0.686611
O O2 0.108724 0.021692 0.580605
O O3 0.549900 0.097132 0.944963
O O4 0.500000 0.000000 0.000000
O O5 0.115042 0.250000 0.013508
O O6 0.137897 0.141824 0.943771
O O7 0.146172 0.169758 0.134838
O O8 0.624975 0.182261 0.359637
O O9 0.235981 0.387269 0.686715
O O10 0.303816 0.458196 0.785648
O O11 0.695059 0.404585 0.112779
O O12 0.100848 0.919218 0.615093
O O13 0.770865 0.645031 0.713535
O O14 0.011727 0.797024 0.208724
O O15 0.392796 0.798493 0.841001
O O16 0.191974 0.359780 0.513803
#
# Coordination Sequence:
#
# PCOD9160879 Si02
#       8
#     4   4   4   4   4   2   4   4
#     4   9  20  37  65  90 118 153 196 253 310 358
#     4  11  22  35  59  87 120 155 205 249 288 339
#     4  10  21  38  61  87 114 161 204 243 291 361
#     4  10  19  38  65  91 112 156 205 244 306 363
#     4  11  22  40  57  90 127 150 194 257 305 353
#     4  10  20  38  56  76 114 166 210 228 290 354
#     4  10  20  37  57  80 112 160 205 239 281 356
#     4  10  24  36  57  84 122 159 194 246 308 351
#
# _framework density 23.304103999999999
#
# number of rings (size 3 to 8) (size 9 to 14) (size 15 to 20)
#    0.000    1.867    3.333    0.400    8.400    2.133 
#    0.000    0.667    0.000    8.000    0.000    0.000 
#    0.000    0.000    0.000    0.000    0.000    0.000 
#
# Total GULP energy -167025.365033 kJ/mol
# GULP energy per Si atom -5567.512168 kJ/mol
# Density = 2.325106 g / cm^3
# Si number density = 23.304104 Si / 1000 Ang^3
#
#
#
# Elastic Constant Matrix: (Units=GPa)
#
#
# Indices 1 2 3 4 5 6 
#
# 1 98.9021 7.6279 25.0633 0.0000 26.9704 0.0000
# 2 7.6279 49.0701 31.1410 0.0000 -0.3474 0.0000
# 3 25.0633 31.1410 130.0028 0.0000 15.2412 0.0000
# 4 0.0000 0.0000 0.0000 20.9995 0.0000 3.9555
# 5 26.9704 -0.3474 15.2412 0.0000 35.1574 0.0000
# 6 0.0000 0.0000 0.0000 3.9555 0.0000 10.6601
#
#
#
# Elastic Compliance Matrix: (Units=1/GPa)
#
#
# Indices 1 2 3 4 5 6 
#
# 1 0.013111 -0.001436 -0.001057 0.000000 -0.009614 0.000000
# 2 -0.001436 0.024469 -0.006050 0.000000 0.003966 0.000000
# 3 -0.001057 -0.006050 0.009753 0.000000 -0.003477 0.000000
# 4 0.000000 0.000000 0.000000 0.051199 0.000000 -0.018998
# 5 -0.009614 0.003966 -0.003477 0.000000 0.037365 0.000000
# 6 0.000000 0.000000 0.000000 -0.018998 0.000000 0.100858
#
#
# Mechanical properties :
#
#
# Convention : Reuss Voigt Hill
#
# Bulk Modulus (GPa) = 33.05835 45.07104 39.06469
# Shear Modulus (GPa) = 18.94501 27.63960 23.29230
#
# Velocity S-wave (km/s) = 2.85432 3.44763 3.16491
# Velocity P-wave (km/s) = 5.00792 5.93553 5.49135
#
# Compressibility (1/GPa) = 0.03024955
#
# Stress axis : x y z
#
# Youngs Moduli (GPa) = 76.27027 40.86731 102.53653
#
# Poissons Ratio (x) = 0.05867 0.10835
# Poissons Ratio (y) = 0.10949 0.62030
# Poissons Ratio (z) = 0.08059 0.24723
#
# Static dielectric constant tensor:
#      x y z
#    x 1.993340 0.000000 -0.043870 
#    y 0.000000 1.956710 0.000000 
#    z -0.043870 0.000000 1.842190 
# 
# From -- ./inp_files/19847.got.cif
#   From: 2010.05.17/outbox.cif.g08.bks.cpg/sg11_10_cif.got.tgz:19847.got - 2010.06.03 12:22:45.
