data_PCOD9160630
_publ_section_title
;
Structure prediction by ZEFSAII (Michael W. Deem and Ramdas Pophale) SiO2 
 PCOD9160630
Probable space group: P 21/M
;
_chemical_formula_sum "Si O2"
_cell_formula_units_Z 22
_cell_length_a 7.118506
_cell_length_b 15.230915
_cell_length_c 15.047585
_cell_angle_alpha 90.000000
_cell_angle_beta 40.405883
_cell_angle_gamma 90.000000
_cell_volume 1057.521980
_symmetry_space_group_name_H-M "P 21/M"
_symmetry_group_IT_number 11
_symmetry_cell_setting 'monoclinic'
loop_
_space_group_symop_operation_xyz
x,y,z
-x,1/2+y,-z
-x,-y,-z
x,1/2-y,z
loop_
_atom_site_type_symbol
_atom_site_label
_atom_site_fract_x
_atom_site_fract_y
_atom_site_fract_z
Si Si1 0.315519 0.973186 0.419006
Si Si2 0.773869 0.081344 0.369658
Si Si3 0.605258 0.250000 0.931433
Si Si4 0.082269 0.750000 0.987332
Si Si5 0.170117 0.070197 0.880198
Si Si6 0.922798 0.250000 0.202118
Si Si7 0.768509 0.446563 0.856531
O O1 0.293851 0.898127 0.502895
O O2 0.504808 0.952208 0.263724
O O3 0.498364 0.042844 0.413561
O O4 0.000000 0.000000 0.500000
O O5 0.860030 0.164854 0.282107
O O6 0.045992 0.012466 0.272522
O O7 0.262477 0.250000 0.060956
O O8 0.690705 0.345589 0.858192
O O9 0.728868 0.250000 0.989785
O O10 0.883786 0.664354 0.059688
O O11 0.240031 0.750000 0.834872
O O12 0.003441 0.069209 0.847956
O O13 0.000000 0.000000 0.000000
O O14 0.500000 0.500000 0.000000
#
# Coordination Sequence:
#
# PCOD9160630 Si02
#       7
#     4   4   2   2   4   2   4
#     4  10  23  42  64  87 124 173 214 261 327 377
#     4  10  23  40  60  92 128 168 216 261 320 388
#     4  10  22  34  58  98 124 167 211 265 325 383
#     4  10  22  37  56  92 130 152 216 260 317 375
#     4  10  22  38  62  90 120 161 206 262 309 371
#     4  12  22  37  64  94 130 167 211 267 318 382
#     4  10  19  36  60  88 126 159 207 262 315 373
#
# _framework density 20.803349000000001
#
# number of rings (size 3 to 8) (size 9 to 14) (size 15 to 20)
#    0.000    1.818    1.818    2.182    2.545    2.182 
#    0.000    6.364    0.000    0.000    0.000    0.000 
#    0.000    0.000    0.000    0.000    0.000    0.000 
#
# Total GULP energy -122566.631818 kJ/mol
# GULP energy per Si atom -5571.210537 kJ/mol
# Density = 2.075600 g / cm^3
# Si number density = 20.803349 Si / 1000 Ang^3
#
#
#
# Elastic Constant Matrix: (Units=GPa)
#
#
# Indices 1 2 3 4 5 6 
#
# 1 89.1322 23.9149 25.9583 0.0000 -6.4167 0.0000
# 2 23.9149 125.2701 48.2324 0.0000 2.5212 0.0000
# 3 25.9583 48.2324 118.5173 0.0000 -2.6508 0.0000
# 4 0.0000 0.0000 0.0000 -89.0986 0.0000 -87.6315
# 5 -6.4167 2.5212 -2.6508 0.0000 43.7628 0.0000
# 6 0.0000 0.0000 0.0000 -87.6315 0.0000 -45.6033
#
#
#
# Elastic Compliance Matrix: (Units=1/GPa)
#
#
# Indices 1 2 3 4 5 6 
#
# 1 0.012368 -0.001624 -0.002008 0.000000 0.001785 0.000000
# 2 -0.001624 0.009706 -0.003617 0.000000 -0.001016 0.000000
# 3 -0.002008 -0.003617 0.010362 0.000000 0.000542 0.000000
# 4 0.000000 0.000000 0.000000 0.012611 0.000000 -0.024234
# 5 0.001785 -0.001016 0.000542 0.000000 0.023204 0.000000
# 6 0.000000 0.000000 0.000000 -0.024234 0.000000 0.024639
#
#
# Mechanical properties :
#
#
# Convention : Reuss Voigt Hill
#
# Bulk Modulus (GPa) = 55.74892 58.79232 57.27062
# Shear Modulus (GPa) = 44.10437 -2.53355 20.78541
#
# Velocity S-wave (km/s) = 4.60941 -1.10476 3.16434
# Velocity P-wave (km/s) = 7.42867 5.16672 6.39844
#
# Compressibility (1/GPa) = 0.01793757
#
# Stress axis : x y z
#
# Youngs Moduli (GPa) = 80.85128 103.03045 96.51080
#
# Poissons Ratio (x) = 0.16732 0.19381
# Poissons Ratio (y) = 0.13130 0.34908
# Poissons Ratio (z) = 0.16236 0.37266
#
# Static dielectric constant tensor:
#      x y z
#    x 1.761790 0.000000 0.023710 
#    y 0.000000 1.878720 0.000000 
#    z 0.023710 0.000000 1.799820 
# 
# From -- ./inp_files/58075.got.cif
#   From: 2010.05.17/outbox.cif.g08.bks.cpg/sg11_30_cif.got.tgz:58075.got - 2010.06.03 12:22:45.
