data_PCOD9160023
_publ_section_title
;
Structure prediction by ZEFSAII (Michael W. Deem and Ramdas Pophale) SiO2 
 PCOD9160023
Probable space group: P 21/M
;
_chemical_formula_sum "Si O2"
_cell_formula_units_Z 32
_cell_length_a 26.653162
_cell_length_b 8.885791
_cell_length_c 20.693668
_cell_angle_alpha 90.000000
_cell_angle_beta 21.326832
_cell_angle_gamma 90.000000
_cell_volume 1782.422658
_symmetry_space_group_name_H-M "P 21/M"
_symmetry_group_IT_number 11
_symmetry_cell_setting 'monoclinic'
loop_
_space_group_symop_operation_xyz
x,y,z
-x,1/2+y,-z
-x,-y,-z
x,1/2-y,z
loop_
_atom_site_type_symbol
_atom_site_label
_atom_site_fract_x
_atom_site_fract_y
_atom_site_fract_z
Si Si1 0.712426 0.931548 0.984465
Si Si2 0.648870 0.568258 0.806929
Si Si3 0.781910 0.568520 0.511090
Si Si4 0.701759 0.569543 0.223388
Si Si5 0.599135 0.070811 0.474477
Si Si6 0.848334 0.931214 0.684874
Si Si7 0.414382 0.430408 0.371806
Si Si8 0.084838 0.068622 0.141471
O O1 0.695701 0.750000 0.007050
O O2 0.565668 0.005948 0.174219
O O3 0.771671 0.973597 0.843305
O O4 0.822261 0.973829 0.908039
O O5 0.638540 0.750000 0.820212
O O6 0.706194 0.521757 0.668164
O O7 0.756519 0.522880 0.733602
O O8 0.500000 0.500000 0.000000
O O9 0.790935 0.750000 0.500917
O O10 0.690803 0.523562 0.558623
O O11 0.934578 0.502078 0.324829
O O12 0.705129 0.750000 0.228722
O O13 0.559742 0.535639 0.355109
O O14 0.690813 0.489372 0.305370
O O15 0.829733 0.524693 0.025083
O O16 0.610951 0.250000 0.466111
O O17 0.629594 0.993757 0.505917
O O18 0.859987 0.750000 0.670217
O O19 0.000000 0.000000 0.500000
O O20 0.419730 0.250000 0.367623
O O21 0.073571 0.250000 0.155144
#
# Coordination Sequence:
#
# PCOD9160023 Si02
#       8
#     4   4   4   4   4   4   4   4
#     4  10  20  36  56  82 111 140 182 233 278 328
#     4  10  21  38  57  80 109 145 188 232 277 328
#     4  10  23  39  54  78 115 149 185 231 274 327
#     4   9  18  34  55  83 115 143 177 225 272 325
#     4  10  19  34  57  84 114 144 179 228 274 322
#     4  10  21  35  55  81 111 143 180 228 280 333
#     4  11  22  36  55  81 110 146 186 229 275 322
#     4  10  20  36  57  82 112 146 183 225 275 328
#
# _framework density 17.953094
#
# number of rings (size 3 to 8) (size 9 to 14) (size 15 to 20)
#    0.000    2.000    1.250    2.250    0.000    4.000 
#    0.000    0.625    0.000    0.000    0.000    0.000 
#    0.000    0.000    0.000    0.000    0.000    0.000 
#
# Total GULP energy -178732.763183 kJ/mol
# GULP energy per Si atom -5585.398849 kJ/mol
# Density = 1.791223 g / cm^3
# Si number density = 17.953094 Si / 1000 Ang^3
#
#
#
# Elastic Constant Matrix: (Units=GPa)
#
#
# Indices 1 2 3 4 5 6 
#
# 1 190.7555 50.8230 106.6354 0.0000 9.9010 0.0000
# 2 50.8230 20.3825 38.1095 0.0000 2.8747 0.0000
# 3 106.6354 38.1095 135.5148 0.0000 6.1206 0.0000
# 4 0.0000 0.0000 0.0000 37.2181 0.0000 -1.2265
# 5 9.9010 2.8747 6.1206 0.0000 35.3428 0.0000
# 6 0.0000 0.0000 0.0000 -1.2265 0.0000 18.7457
#
#
#
# Elastic Compliance Matrix: (Units=1/GPa)
#
#
# Indices 1 2 3 4 5 6 
#
# 1 0.016197 -0.034771 -0.002913 0.000000 -0.001205 0.000000
# 2 -0.034771 0.178515 -0.022803 0.000000 -0.000830 0.000000
# 3 -0.002913 -0.022803 0.016089 0.000000 -0.000116 0.000000
# 4 0.000000 0.000000 0.000000 0.026927 0.000000 0.001762
# 5 -0.001205 -0.000830 -0.000116 0.000000 0.028719 0.000000
# 6 0.000000 0.000000 0.000000 0.001762 0.000000 0.053461
#
#
# Mechanical properties :
#
#
# Convention : Reuss Voigt Hill
#
# Bulk Modulus (GPa) = 11.13250 81.97652 46.55451
# Shear Modulus (GPa) = 10.61965 28.33365 19.47665
#
# Velocity S-wave (km/s) = 2.43476 3.97697 3.29730
# Velocity P-wave (km/s) = 3.75745 8.17613 6.36268
#
# Compressibility (1/GPa) = 0.08982709
#
# Stress axis : x y z
#
# Youngs Moduli (GPa) = 61.73922 5.60176 62.15373
#
# Poissons Ratio (x) = 0.19478 0.18103
# Poissons Ratio (y) = 2.14676 1.41731
# Poissons Ratio (z) = 0.17982 0.12774
#
# Static dielectric constant tensor:
#      x y z
#    x 1.606940 0.000000 0.012320 
#    y 0.000000 1.600390 0.000000 
#    z 0.012320 0.000000 1.578140 
# 
# From -- ./inp_files/66937.got.cif
#   From: 2010.05.17/outbox.cif.g08.bks.cpg/sg11_34_cif.got.tgz:66937.got - 2010.06.03 12:22:45.
