data_PCOD9160928
_publ_section_title
;
Structure prediction by ZEFSAII (Michael W. Deem and Ramdas Pophale) SiO2 
 PCOD9160928
Probable space group: P 21/M
;
_chemical_formula_sum "Si O2"
_cell_formula_units_Z 14
_cell_length_a 6.961466
_cell_length_b 8.549163
_cell_length_c 8.765172
_cell_angle_alpha 90.000000
_cell_angle_beta 98.499831
_cell_angle_gamma 90.000000
_cell_volume 515.926928
_symmetry_space_group_name_H-M "P 21/M"
_symmetry_group_IT_number 11
_symmetry_cell_setting 'monoclinic'
loop_
_space_group_symop_operation_xyz
x,y,z
-x,1/2+y,-z
-x,-y,-z
x,1/2-y,z
loop_
_atom_site_type_symbol
_atom_site_label
_atom_site_fract_x
_atom_site_fract_y
_atom_site_fract_z
Si Si1 0.605158 0.750000 0.438251
Si Si2 0.703079 0.477928 0.221083
Si Si3 0.744368 0.926128 0.882781
Si Si4 0.000136 0.750000 0.590346
Si Si5 0.808270 0.250000 0.696211
O O1 0.643282 0.604105 0.337247
O O2 0.377727 0.750000 0.442613
O O3 0.767825 0.750000 0.585448
O O4 0.489366 0.406469 0.164751
O O5 0.881127 0.390350 0.321559
O O6 0.774204 0.532438 0.064196
O O7 0.835485 0.750000 0.878397
O O8 0.796154 0.087535 0.793113
O O9 0.022291 0.750000 0.408482
#
# Coordination Sequence:
#
# PCOD9160928 Si02
#       5
#     2   4   4   2   2
#     4  10  22  40  64  94 134 176 210 272 336 394
#     4  10  20  38  66  93 125 174 226 261 325 398
#     4  10  19  40  69  96 126 176 228 272 322 392
#     4  12  23  41  63 101 137 166 218 276 332 402
#     4  10  25  41  67 103 131 170 222 272 338 394
#
# _framework density 27.135625999999998
#
# number of rings (size 3 to 8) (size 9 to 14) (size 15 to 20)
#    0.000    1.714    2.857    1.714    4.000    4.571 
#    2.571    1.429    0.000   13.714    0.000    0.000 
#    0.000    0.000    0.000    0.000    0.000    0.000 
#
# Total GULP energy -78272.273973 kJ/mol
# GULP energy per Si atom -5590.876712 kJ/mol
# Density = 2.707386 g / cm^3
# Si number density = 27.135626 Si / 1000 Ang^3
#
#
#
# Elastic Constant Matrix: (Units=GPa)
#
#
# Indices 1 2 3 4 5 6 
#
# 1 114.8173 22.2897 21.7775 0.0000 17.0553 0.0000
# 2 22.2897 171.9466 33.2752 0.0000 -9.8943 0.0000
# 3 21.7775 33.2752 118.7564 0.0000 -13.0676 0.0000
# 4 0.0000 0.0000 0.0000 248.0542 0.0000 357.1934
# 5 17.0553 -9.8943 -13.0676 0.0000 57.3962 0.0000
# 6 0.0000 0.0000 0.0000 357.1934 0.0000 603.5623
#
#
#
# Elastic Compliance Matrix: (Units=1/GPa)
#
#
# Indices 1 2 3 4 5 6 
#
# 1 0.009806 -0.001111 -0.001875 0.000000 -0.003532 0.000000
# 2 -0.001111 0.006302 -0.001442 0.000000 0.001088 0.000000
# 3 -0.001875 -0.001442 0.009439 0.000000 0.002458 0.000000
# 4 0.000000 0.000000 0.000000 0.027275 0.000000 -0.016141
# 5 -0.003532 0.001088 0.002458 0.000000 0.019220 0.000000
# 6 0.000000 0.000000 0.000000 -0.016141 0.000000 0.011209
#
#
# Mechanical properties :
#
#
# Convention : Reuss Voigt Hill
#
# Bulk Modulus (GPa) = 59.92233 62.24500 61.08367
# Shear Modulus (GPa) = 51.19245 203.68107 127.43676
#
# Velocity S-wave (km/s) = 4.34814 8.67314 6.86038
# Velocity P-wave (km/s) = 6.88033 11.10343 9.23648
#
# Compressibility (1/GPa) = 0.01668827
#
# Stress axis : x y z
#
# Youngs Moduli (GPa) = 101.98172 158.69141 105.94308
#
# Poissons Ratio (x) = 0.17638 0.19869
# Poissons Ratio (y) = 0.11335 0.15278
# Poissons Ratio (z) = 0.19126 0.22885
#
# Static dielectric constant tensor:
#      x y z
#    x 2.101710 0.000000 0.009320 
#    y 0.000000 2.165970 0.000000 
#    z 0.009320 0.000000 2.013120 
# 
# From -- ./inp_files/11038.got.cif
#   From: 2010.05.17/outbox.cif.g08.bks.cpg/sg11_6_cif.got.tgz:11038.got - 2010.06.03 12:22:45.
