data_PCOD9160988
_publ_section_title
;
Structure prediction by ZEFSAII (Michael W. Deem and Ramdas Pophale) SiO2 
 PCOD9160988
Probable space group: P 21/M
;
_chemical_formula_sum "Si O2"
_cell_formula_units_Z 24
_cell_length_a 10.056689
_cell_length_b 14.363213
_cell_length_c 13.189104
_cell_angle_alpha 90.000000
_cell_angle_beta 148.877812
_cell_angle_gamma 90.000000
_cell_volume 984.688667
_symmetry_space_group_name_H-M "P 21/M"
_symmetry_group_IT_number 11
_symmetry_cell_setting 'monoclinic'
loop_
_space_group_symop_operation_xyz
x,y,z
-x,1/2+y,-z
-x,-y,-z
x,1/2-y,z
loop_
_atom_site_type_symbol
_atom_site_label
_atom_site_fract_x
_atom_site_fract_y
_atom_site_fract_z
Si Si1 0.990607 0.536569 0.848409
Si Si2 0.411255 0.641345 0.009486
Si Si3 0.581738 0.996713 0.723162
Si Si4 0.757850 0.143131 0.385503
Si Si5 0.219049 0.141407 0.549686
Si Si6 0.126686 0.357448 0.823452
O O1 0.706906 0.553040 0.707942
O O2 0.008121 0.429557 0.824317
O O3 0.142188 0.593715 0.861201
O O4 0.182865 0.550298 0.069808
O O5 0.362818 0.750000 0.960835
O O6 0.596352 0.635168 0.229651
O O7 0.592806 0.610148 0.034815
O O8 0.472719 0.922915 0.732921
O O9 0.350761 0.069865 0.558398
O O10 0.681080 0.250000 0.318928
O O11 0.942842 0.141977 0.604928
O O12 0.939437 0.113686 0.410643
O O13 0.216153 0.250000 0.517055
O O14 0.139958 0.250000 0.866487
#
# Coordination Sequence:
#
# PCOD9160988 Si02
#       6
#     4   4   4   4   4   4
#     4  10  20  31  47  74 102 127 155 191 239 288
#     4   8  15  30  50  69  92 125 163 199 236 281
#     4  10  20  31  47  74 102 127 155 191 239 288
#     4   9  18  33  52  70  90 124 166 201 235 277
#     4   8  15  30  50  69  92 125 163 199 236 281
#     4   9  18  33  52  70  90 124 166 201 235 277
#
# _framework density 24.373187000000001
#
# number of rings (size 3 to 8) (size 9 to 14) (size 15 to 20)
#    0.000    3.000    0.000    3.000    0.000    2.667 
#    0.000    3.333    0.000    3.000    0.000    0.000 
#    0.000    0.000    0.000    0.000    0.000    0.000 
#
# Total GULP energy -134170.472794 kJ/mol
# GULP energy per Si atom -5590.436366 kJ/mol
# Density = 2.431771 g / cm^3
# Si number density = 24.373187 Si / 1000 Ang^3
#
#
#
# Elastic Constant Matrix: (Units=GPa)
#
#
# Indices 1 2 3 4 5 6 
#
# 1 162.3790 57.5678 26.3957 0.0000 34.7486 0.0000
# 2 57.5678 72.6634 -1.0268 0.0000 30.6428 0.0000
# 3 26.3957 -1.0268 88.4413 0.0000 16.1065 0.0000
# 4 0.0000 0.0000 0.0000 9.8295 0.0000 -10.7848
# 5 34.7486 30.6428 16.1065 0.0000 51.7068 0.0000
# 6 0.0000 0.0000 0.0000 -10.7848 0.0000 16.2750
#
#
#
# Elastic Compliance Matrix: (Units=1/GPa)
#
#
# Indices 1 2 3 4 5 6 
#
# 1 0.009295 -0.006809 -0.002598 0.000000 -0.001402 0.000000
# 2 -0.006809 0.023798 0.004287 0.000000 -0.010863 0.000000
# 3 -0.002598 0.004287 0.013015 0.000000 -0.004849 0.000000
# 4 0.000000 0.000000 0.000000 0.372744 0.000000 0.247004
# 5 -0.001402 -0.010863 -0.004849 0.000000 0.028230 0.000000
# 6 0.000000 0.000000 0.000000 0.247004 0.000000 0.225125
#
#
# Mechanical properties :
#
#
# Convention : Reuss Voigt Hill
#
# Bulk Modulus (GPa) = 27.88041 54.37301 41.12671
# Shear Modulus (GPa) = 7.20043 31.59872 19.39958
#
# Velocity S-wave (km/s) = 1.72066 3.60454 2.82430
# Velocity P-wave (km/s) = 3.92573 6.29925 5.24842
#
# Compressibility (1/GPa) = 0.03586748
#
# Stress axis : x y z
#
# Youngs Moduli (GPa) = 107.58654 42.01960 76.83380
#
# Poissons Ratio (x) = 0.28613 0.19960
# Poissons Ratio (y) = 0.73261 -0.32938
# Poissons Ratio (z) = 0.27950 -0.18013
#
# Static dielectric constant tensor:
#      x y z
#    x 1.921670 0.000000 -0.023110 
#    y 0.000000 1.900920 0.000000 
#    z -0.023110 0.000000 2.043130 
# 
# From -- ./inp_files/17544.got.cif
#   From: 2010.05.17/outbox.cif.g08.bks.cpg/sg11_9_cif.got.tgz:17544.got - 2010.06.03 12:22:45.
