data_PCOD9160007
_publ_section_title
;
Structure prediction by ZEFSAII (Michael W. Deem and Ramdas Pophale) SiO2 
 PCOD9160007
Probable space group: P 21/M
;
_chemical_formula_sum "Si O2"
_cell_formula_units_Z 28
_cell_length_a 23.398533
_cell_length_b 7.796581
_cell_length_c 16.913788
_cell_angle_alpha 90.000000
_cell_angle_beta 25.630021
_cell_angle_gamma 90.000000
_cell_volume 1334.683451
_symmetry_space_group_name_H-M "P 21/M"
_symmetry_group_IT_number 11
_symmetry_cell_setting 'monoclinic'
loop_
_space_group_symop_operation_xyz
x,y,z
-x,1/2+y,-z
-x,-y,-z
x,1/2-y,z
loop_
_atom_site_type_symbol
_atom_site_label
_atom_site_fract_x
_atom_site_fract_y
_atom_site_fract_z
Si Si1 0.634089 0.456685 0.159746
Si Si2 0.346343 0.050750 0.692288
Si Si3 0.867475 0.950877 0.559688
Si Si4 0.369421 0.040498 0.409121
Si Si5 0.842566 0.041287 0.769476
Si Si6 0.390258 0.457456 0.203081
Si Si7 0.846695 0.543132 0.203082
O O1 0.632353 0.250000 0.166353
O O2 0.693187 0.520571 0.167982
O O3 0.485322 0.513075 0.325073
O O4 0.725672 0.508026 0.972849
O O5 0.347411 0.250000 0.672754
O O6 0.244454 0.974785 0.755774
O O7 0.500000 0.000000 0.500000
O O8 0.877807 0.750000 0.526758
O O9 0.751580 0.024105 0.650679
O O10 0.016360 0.020375 0.372575
O O11 0.824722 0.970397 0.704111
O O12 0.370710 0.250000 0.405617
O O13 0.405315 0.983852 0.275273
O O14 0.229064 0.987064 0.621857
O O15 0.846160 0.250000 0.758946
O O16 0.387357 0.250000 0.209072
O O17 0.500000 0.500000 0.000000
O O18 0.842032 0.750000 0.209551
O O19 0.000000 0.500000 0.000000
#
# Coordination Sequence:
#
# PCOD9160007 Si02
#       7
#     4   4   4   4   4   4   4
#     4  10  19  34  57  83 109 140 185 230 275 336
#     4  11  22  38  60  85 113 145 184 231 281 334
#     4   9  18  32  49  75 109 140 178 228 276 322
#     4   9  18  35  56  78 109 147 182 225 278 335
#     4   9  18  32  53  78 104 142 184 222 272 333
#     4  10  20  34  54  77 107 144 182 225 273 327
#     4  10  22  40  60  84 116 151 191 234 284 341
#
# _framework density 20.978757000000002
#
# number of rings (size 3 to 8) (size 9 to 14) (size 15 to 20)
#    0.000    2.286    1.429    1.286    0.000    4.571 
#    0.000    4.286    0.000    0.000    0.000    0.000 
#    0.000    0.000    0.000    0.000    0.000    0.000 
#
# Total GULP energy -156166.002880 kJ/mol
# GULP energy per Si atom -5577.357246 kJ/mol
# Density = 2.093101 g / cm^3
# Si number density = 20.978757 Si / 1000 Ang^3
#
#
#
# Elastic Constant Matrix: (Units=GPa)
#
#
# Indices 1 2 3 4 5 6 
#
# 1 123.7237 3.2792 50.5688 0.0000 -9.9946 0.0000
# 2 3.2792 24.4212 5.0123 0.0000 -2.1621 0.0000
# 3 50.5688 5.0123 119.0862 0.0000 3.9276 0.0000
# 4 0.0000 0.0000 0.0000 25.4773 0.0000 1.7769
# 5 -9.9946 -2.1621 3.9276 0.0000 17.9398 0.0000
# 6 0.0000 0.0000 0.0000 1.7769 0.0000 18.5129
#
#
#
# Elastic Compliance Matrix: (Units=1/GPa)
#
#
# Indices 1 2 3 4 5 6 
#
# 1 0.010570 0.000165 -0.004724 0.000000 0.006943 0.000000
# 2 0.000165 0.041833 -0.002015 0.000000 0.005575 0.000000
# 3 -0.004724 -0.002015 0.010660 0.000000 -0.005209 0.000000
# 4 0.000000 0.000000 0.000000 0.039515 0.000000 -0.003793
# 5 0.006943 0.005575 -0.005209 0.000000 0.061422 0.000000
# 6 0.000000 0.000000 0.000000 -0.003793 0.000000 0.054380
#
#
# Mechanical properties :
#
#
# Convention : Reuss Voigt Hill
#
# Bulk Modulus (GPa) = 20.03412 42.77242 31.40327
# Shear Modulus (GPa) = 20.14770 26.27737 23.21253
#
# Velocity S-wave (km/s) = 3.10237 3.54301 3.32999
# Velocity P-wave (km/s) = 4.73322 6.09671 5.45771
#
# Compressibility (1/GPa) = 0.04991485
#
# Stress axis : x y z
#
# Youngs Moduli (GPa) = 94.60758 23.90462 93.80837
#
# Poissons Ratio (x) = -0.00394 0.44319
# Poissons Ratio (y) = -0.01561 0.18899
# Poissons Ratio (z) = 0.44696 0.04816
#
# Static dielectric constant tensor:
#      x y z
#    x 1.772990 0.000000 -0.004850 
#    y 0.000000 1.788090 0.000000 
#    z -0.004850 0.000000 1.757510 
# 
# From -- ./inp_files/54472.got.cif
#   From: 2010.05.17/outbox.cif.g08.bks.cpg/sg11_28_cif.got.tgz:54472.got - 2010.06.03 12:22:45.
