data_PCOD9160954
_publ_section_title
;
Structure prediction by ZEFSAII (Michael W. Deem and Ramdas Pophale) SiO2 
 PCOD9160954
Probable space group: P 21/M
;
_chemical_formula_sum "Si O2"
_cell_formula_units_Z 18
_cell_length_a 16.457025
_cell_length_b 5.734224
_cell_length_c 8.911756
_cell_angle_alpha 90.000000
_cell_angle_beta 113.434075
_cell_angle_gamma 90.000000
_cell_volume 771.620916
_symmetry_space_group_name_H-M "P 21/M"
_symmetry_group_IT_number 11
_symmetry_cell_setting 'monoclinic'
loop_
_space_group_symop_operation_xyz
x,y,z
-x,1/2+y,-z
-x,-y,-z
x,1/2-y,z
loop_
_atom_site_type_symbol
_atom_site_label
_atom_site_fract_x
_atom_site_fract_y
_atom_site_fract_z
Si Si1 0.316184 0.250000 0.518100
Si Si2 0.271725 0.001325 0.107826
Si Si3 0.671069 0.750000 0.122840
Si Si4 0.653878 0.250000 0.484609
Si Si5 0.490582 0.250000 0.185205
Si Si6 0.472926 0.750000 0.329580
Si Si7 0.093153 0.500865 0.155769
O O1 0.305151 0.250000 0.689071
O O2 0.289640 0.513701 0.452136
O O3 0.421152 0.250000 0.565647
O O4 0.310058 0.750000 0.177300
O O5 0.306619 0.250000 0.197077
O O6 0.286572 0.037855 0.941848
O O7 0.170630 0.997165 0.087261
O O8 0.564747 0.750000 0.012190
O O9 0.597810 0.250000 0.285237
O O10 0.571208 0.250000 0.538794
O O11 0.460710 0.500946 0.234272
O O12 0.101926 0.250000 0.243897
O O13 0.098262 0.750000 0.242526
O O14 0.000000 0.500000 0.000000
#
# Coordination Sequence:
#
# PCOD9160954 Si02
#       7
#     2   4   2   2   2   2   4
#     4  10  20  30  50  64  86 111 131 179 211 264
#     4   8  16  26  36  49  84 114 135 169 182 248
#     4  10  22  28  42  66  96 114 142 148 226 268
#     4  10  20  36  50  64  77 103 150 188 217 237
#     4  10  20  30  50  64  86 111 131 179 211 264
#     4  10  20  36  50  64  77 103 150 188 217 237
#     4   8  12  20  34  50  65  99 148 174 183 205
#
# _framework density 23.327514999999998
#
# number of rings (size 3 to 8) (size 9 to 14) (size 15 to 20)
#    0.667    2.222    0.000    3.333    3.111    3.556 
#    0.000    0.000    0.000    0.000    0.000    0.000 
#    0.000    0.000    0.000    0.000    0.000   37.778 
#
# Total GULP energy -100271.951209 kJ/mol
# GULP energy per Si atom -5570.663956 kJ/mol
# Density = 2.327442 g / cm^3
# Si number density = 23.327515 Si / 1000 Ang^3
#
#
#
# Elastic Constant Matrix: (Units=GPa)
#
#
# Indices 1 2 3 4 5 6 
#
# 1 64.9100 19.9100 22.0149 0.0000 3.7157 0.0000
# 2 19.9100 298.1564 34.4308 0.0000 3.6691 0.0000
# 3 22.0149 34.4308 52.3682 0.0000 -11.2828 0.0000
# 4 0.0000 0.0000 0.0000 27.5813 0.0000 6.5916
# 5 3.7157 3.6691 -11.2828 0.0000 8.2090 0.0000
# 6 0.0000 0.0000 0.0000 6.5916 0.0000 35.7578
#
#
#
# Elastic Compliance Matrix: (Units=1/GPa)
#
#
# Indices 1 2 3 4 5 6 
#
# 1 0.023357 0.000992 -0.018248 0.000000 -0.036096 0.000000
# 2 0.000992 0.003975 -0.004987 0.000000 -0.009080 0.000000
# 3 -0.018248 -0.004987 0.045896 0.000000 0.073570 0.000000
# 4 0.000000 0.000000 0.000000 0.037927 0.000000 -0.006992
# 5 -0.036096 -0.009080 0.073570 0.000000 0.243332 0.000000
# 6 0.000000 0.000000 0.000000 -0.006992 0.000000 0.029255
#
#
# Mechanical properties :
#
#
# Convention : Reuss Voigt Hill
#
# Bulk Modulus (GPa) = 34.79183 63.12734 48.95958
# Shear Modulus (GPa) = 11.42049 36.91488 24.16769
#
# Velocity S-wave (km/s) = 2.21503 3.98233 3.22221
# Velocity P-wave (km/s) = 4.63559 6.94733 5.90568
#
# Compressibility (1/GPa) = 0.02874238
#
# Stress axis : x y z
#
# Youngs Moduli (GPa) = 42.81362 251.55148 21.78829
#
# Poissons Ratio (x) = -0.24947 0.39759
# Poissons Ratio (y) = -0.04246 0.10865
# Poissons Ratio (z) = 0.78126 1.25445
#
# Static dielectric constant tensor:
#      x y z
#    x 1.912100 0.000000 0.022820 
#    y 0.000000 2.058220 0.000000 
#    z 0.022820 0.000000 1.918900 
# 
# From -- ./inp_files/25390.got.cif
#   From: 2010.05.17/outbox.cif.g08.bks.cpg/sg11_13_cif.got.tgz:25390.got - 2010.06.03 12:22:45.
