data_PCOD9160383
_publ_section_title
;
Structure prediction by ZEFSAII (Michael W. Deem and Ramdas Pophale) SiO2 
 PCOD9160383
Probable space group: P 21/M
;
_chemical_formula_sum "Si O2"
_cell_formula_units_Z 32
_cell_length_a 10.154713
_cell_length_b 14.821773
_cell_length_c 11.701621
_cell_angle_alpha 90.000000
_cell_angle_beta 102.298107
_cell_angle_gamma 90.000000
_cell_volume 1720.805515
_symmetry_space_group_name_H-M "P 21/M"
_symmetry_group_IT_number 11
_symmetry_cell_setting 'monoclinic'
loop_
_space_group_symop_operation_xyz
x,y,z
-x,1/2+y,-z
-x,-y,-z
x,1/2-y,z
loop_
_atom_site_type_symbol
_atom_site_label
_atom_site_fract_x
_atom_site_fract_y
_atom_site_fract_z
Si Si1 0.833074 0.649187 0.941515
Si Si2 0.372685 0.563225 0.946177
Si Si3 0.369161 0.357865 0.675808
Si Si4 0.307029 0.140409 0.401614
Si Si5 0.666513 0.144108 0.819493
Si Si6 0.877629 0.506759 0.770942
Si Si7 0.840282 0.929792 0.178168
Si Si8 0.465755 0.145066 0.216427
O O1 0.867260 0.750000 0.906811
O O2 0.907251 0.570685 0.886128
O O3 0.674647 0.633861 0.880585
O O4 0.856573 0.643465 0.080621
O O5 0.237128 0.508235 0.904359
O O6 0.414978 0.601455 0.831424
O O7 0.500000 0.500000 0.000000
O O8 0.352042 0.631088 0.047437
O O9 0.360310 0.250000 0.687435
O O10 0.339715 0.378918 0.538521
O O11 0.521379 0.382095 0.739320
O O12 0.259570 0.399651 0.740422
O O13 0.281616 0.250000 0.384635
O O14 0.430391 0.117091 0.338493
O O15 0.189166 0.076278 0.331566
O O16 0.695595 0.250000 0.799899
O O17 0.775637 0.072856 0.791737
O O18 0.015024 0.462428 0.753680
O O19 0.494351 0.250000 0.225185
#
# Coordination Sequence:
#
# PCOD9160383 Si02
#       8
#     4   4   4   4   4   4   4   4
#     4  10  19  35  59  83 114 158 200 240 289 353
#     4  12  19  34  56  83 121 155 191 241 294 351
#     4  10  22  40  63  89 113 155 208 250 299 352
#     4   9  20  41  66  85 114 157 207 252 292 351
#     4  11  23  39  60  89 125 156 193 249 301 353
#     4  11  23  40  57  90 123 157 204 239 298 363
#     4  12  23  35  57  88 124 156 195 242 298 364
#     4   9  17  32  55  82 107 145 194 243 291 337
#
# _framework density 18.595942000000001
#
# number of rings (size 3 to 8) (size 9 to 14) (size 15 to 20)
#    0.000    1.500    3.750    3.000    0.000    4.000 
#    0.000    1.875    0.000    0.000    0.000    0.000 
#    0.000    0.000    0.000    0.000    0.000    0.000 
#
# Total GULP energy -178507.588000 kJ/mol
# GULP energy per Si atom -5578.362125 kJ/mol
# Density = 1.855362 g / cm^3
# Si number density = 18.595942 Si / 1000 Ang^3
#
#
#
# Elastic Constant Matrix: (Units=GPa)
#
#
# Indices 1 2 3 4 5 6 
#
# 1 91.6488 41.6248 32.0753 0.0000 -0.8994 0.0000
# 2 41.6248 70.7066 31.2057 0.0000 0.0479 0.0000
# 3 32.0753 31.2057 113.0192 0.0000 -0.0338 0.0000
# 4 0.0000 0.0000 0.0000 28.3717 0.0000 -4.1487
# 5 -0.8994 0.0479 -0.0338 0.0000 8.2386 0.0000
# 6 0.0000 0.0000 0.0000 -4.1487 0.0000 17.6655
#
#
#
# Elastic Compliance Matrix: (Units=1/GPa)
#
#
# Indices 1 2 3 4 5 6 
#
# 1 0.015349 -0.008102 -0.002119 0.000000 0.001714 0.000000
# 2 -0.008102 0.020383 -0.003329 0.000000 -0.001017 0.000000
# 3 -0.002119 -0.003329 0.010368 0.000000 -0.000169 0.000000
# 4 0.000000 0.000000 0.000000 0.036500 0.000000 0.008572
# 5 0.001714 -0.001017 -0.000169 0.000000 0.121572 0.000000
# 6 0.000000 0.000000 0.000000 0.008572 0.000000 0.058621
#
#
# Mechanical properties :
#
#
# Convention : Reuss Voigt Hill
#
# Bulk Modulus (GPa) = 52.62832 53.90959 53.26896
# Shear Modulus (GPa) = 16.87903 22.21974 19.54938
#
# Velocity S-wave (km/s) = 3.01603 3.46044 3.24585
# Velocity P-wave (km/s) = 6.36325 6.70963 6.53873
#
# Compressibility (1/GPa) = 0.01900118
#
# Stress axis : x y z
#
# Youngs Moduli (GPa) = 65.14916 49.06169 96.44750
#
# Poissons Ratio (x) = 0.39751 0.20433
# Poissons Ratio (y) = 0.52786 0.32104
# Poissons Ratio (z) = 0.13802 0.16331
#
# Static dielectric constant tensor:
#      x y z
#    x 1.627900 0.000000 -0.003240 
#    y 0.000000 1.692030 0.000000 
#    z -0.003240 0.000000 1.648610 
# 
# From -- ./inp_files/31895.got.cif
#   From: 2010.05.17/outbox.cif.g08.bks.cpg/sg11_16_cif.got.tgz:31895.got - 2010.06.03 12:22:45.
