data_PCOD9160262
_publ_section_title
;
Structure prediction by ZEFSAII (Michael W. Deem and Ramdas Pophale) SiO2 
 PCOD9160262
Probable space group: P 21/M
;
_chemical_formula_sum "Si O2"
_cell_formula_units_Z 28
_cell_length_a 26.372892
_cell_length_b 8.594886
_cell_length_c 9.699824
_cell_angle_alpha 90.000000
_cell_angle_beta 139.995711
_cell_angle_gamma 90.000000
_cell_volume 1413.409379
_symmetry_space_group_name_H-M "P 21/M"
_symmetry_group_IT_number 11
_symmetry_cell_setting 'monoclinic'
loop_
_space_group_symop_operation_xyz
x,y,z
-x,1/2+y,-z
-x,-y,-z
x,1/2-y,z
loop_
_atom_site_type_symbol
_atom_site_label
_atom_site_fract_x
_atom_site_fract_y
_atom_site_fract_z
Si Si1 0.687825 0.563955 0.682078
Si Si2 0.584695 0.935257 0.216450
Si Si3 0.999280 0.932560 0.152025
Si Si4 0.925591 0.565978 0.429466
Si Si5 0.165598 0.565434 0.181200
Si Si6 0.754749 0.063559 0.082272
Si Si7 0.731289 0.437095 0.348615
O O1 0.699545 0.750000 0.699363
O O2 0.612633 0.524033 0.430475
O O3 0.760791 0.477225 0.760762
O O4 0.690982 0.508805 0.845697
O O5 0.582798 0.750000 0.203313
O O6 0.653148 0.996147 0.257411
O O7 0.500000 0.000000 0.000000
O O8 0.017782 0.750000 0.191295
O O9 0.056782 0.021355 0.375245
O O10 0.910255 0.966195 0.016656
O O11 0.000000 0.000000 0.000000
O O12 0.921469 0.750000 0.401979
O O13 0.842048 0.489936 0.218203
O O14 0.000000 0.500000 0.500000
O O15 0.147734 0.750000 0.136135
O O16 0.195133 0.525873 0.397707
O O17 0.750843 0.250000 0.068577
O O18 0.742307 0.011725 0.214440
O O19 0.725071 0.250000 0.336307
#
# Coordination Sequence:
#
# PCOD9160262 Si02
#       7
#     4   4   4   4   4   4   4
#     4  10  21  37  57  84 114 148 186 227 274 335
#     4  10  21  38  63  90 118 148 185 228 275 333
#     4  12  24  38  55  79 110 146 191 243 294 345
#     4  12  25  41  59  81 113 155 199 247 297 347
#     4  10  19  35  57  80 107 144 188 236 286 339
#     4  11  22  38  59  85 116 151 191 238 287 342
#     4   9  20  37  59  85 115 148 186 231 282 337
#
# _framework density 19.810255000000002
#
# number of rings (size 3 to 8) (size 9 to 14) (size 15 to 20)
#    0.000    1.429    0.000    6.000    0.000    4.571 
#    0.000    0.714    0.000    0.000    0.000    0.000 
#    0.000    0.000    0.000    0.000    0.000    0.000 
#
# Total GULP energy -156569.655132 kJ/mol
# GULP energy per Si atom -5591.773398 kJ/mol
# Density = 1.976517 g / cm^3
# Si number density = 19.810255 Si / 1000 Ang^3
#
#
#
# Elastic Constant Matrix: (Units=GPa)
#
#
# Indices 1 2 3 4 5 6 
#
# 1 44.5384 11.5270 35.0588 0.0000 -10.3193 0.0000
# 2 11.5270 49.3308 25.2106 0.0000 -3.7780 0.0000
# 3 35.0588 25.2106 137.5235 0.0000 -9.1195 0.0000
# 4 0.0000 0.0000 0.0000 34.8056 0.0000 -0.0350
# 5 -10.3193 -3.7780 -9.1195 0.0000 38.6340 0.0000
# 6 0.0000 0.0000 0.0000 -0.0350 0.0000 29.3904
#
#
#
# Elastic Compliance Matrix: (Units=1/GPa)
#
#
# Indices 1 2 3 4 5 6 
#
# 1 0.029910 -0.003124 -0.006647 0.000000 0.006115 0.000000
# 2 -0.003124 0.022752 -0.003334 0.000000 0.000603 0.000000
# 3 -0.006647 -0.003334 0.009588 0.000000 0.000162 0.000000
# 4 0.000000 0.000000 0.000000 0.028731 0.000000 0.000034
# 5 0.006115 0.000603 0.000162 0.000000 0.027614 0.000000
# 6 0.000000 0.000000 0.000000 0.000034 0.000000 0.034025
#
#
# Mechanical properties :
#
#
# Convention : Reuss Voigt Hill
#
# Bulk Modulus (GPa) = 27.74754 41.66506 34.70630
# Shear Modulus (GPa) = 26.19962 31.20575 28.70269
#
# Velocity S-wave (km/s) = 3.64060 3.97323 3.81055
# Velocity P-wave (km/s) = 5.63108 6.49049 6.07600
#
# Compressibility (1/GPa) = 0.03603923
#
# Stress axis : x y z
#
# Youngs Moduli (GPa) = 33.43391 43.95308 104.29789
#
# Poissons Ratio (x) = 0.13730 0.69324
# Poissons Ratio (y) = 0.10444 0.34777
# Poissons Ratio (z) = 0.22223 0.14656
#
# Static dielectric constant tensor:
#      x y z
#    x 1.726250 0.000000 -0.040780 
#    y 0.000000 1.636480 0.000000 
#    z -0.040780 0.000000 1.729870 
# 
# From -- ./inp_files/28606.got.cif
#   From: 2010.05.17/outbox.cif.g08.bks.cpg/sg11_15_cif.got.tgz:28606.got - 2010.06.03 12:22:45.
