data_PCOD9160572
_publ_section_title
;
Structure prediction by ZEFSAII (Michael W. Deem and Ramdas Pophale) SiO2 
 PCOD9160572
Probable space group: P 21/M
;
_chemical_formula_sum "Si O2"
_cell_formula_units_Z 28
_cell_length_a 9.629746
_cell_length_b 7.518782
_cell_length_c 28.118575
_cell_angle_alpha 90.000000
_cell_angle_beta 142.854664
_cell_angle_gamma 90.000000
_cell_volume 1229.353319
_symmetry_space_group_name_H-M "P 21/M"
_symmetry_group_IT_number 11
_symmetry_cell_setting 'monoclinic'
loop_
_space_group_symop_operation_xyz
x,y,z
-x,1/2+y,-z
-x,-y,-z
x,1/2-y,z
loop_
_atom_site_type_symbol
_atom_site_label
_atom_site_fract_x
_atom_site_fract_y
_atom_site_fract_z
Si Si1 0.845994 0.469452 0.299505
Si Si2 0.210129 0.538383 0.021360
Si Si3 0.271064 0.038535 0.575849
Si Si4 0.552937 0.953346 0.744625
Si Si5 0.292849 0.462080 0.478159
Si Si6 0.929773 0.467915 0.122110
Si Si7 0.268585 0.543325 0.832851
O O1 0.845762 0.250000 0.299862
O O2 0.608183 0.532114 0.258440
O O3 0.860012 0.530150 0.248793
O O4 0.056824 0.528747 0.390172
O O5 0.231880 0.750000 0.025548
O O6 0.162131 0.473518 0.954414
O O7 0.459922 0.466815 0.103729
O O8 0.000000 0.500000 0.000000
O O9 0.306335 0.250000 0.589993
O O10 0.353119 0.970635 0.547014
O O11 0.400043 0.954702 0.655403
O O12 0.000000 0.000000 0.500000
O O13 0.596289 0.750000 0.771335
O O14 0.804399 0.027658 0.803072
O O15 0.500000 0.500000 0.500000
O O16 0.262548 0.250000 0.475144
O O17 0.918796 0.250000 0.118972
O O18 0.794342 0.530709 0.132233
O O19 0.202041 0.750000 0.816946
#
# Coordination Sequence:
#
# PCOD9160572 Si02
#       7
#     4   4   4   4   4   4   4
#     4   9  18  35  57  81 113 151 190 231 279 338
#     4  11  22  39  61  87 117 152 191 231 280 335
#     4  11  22  38  58  83 114 149 191 237 286 337
#     4  10  19  36  59  83 113 149 192 236 278 334
#     4  10  22  38  56  82 113 149 191 237 284 337
#     4   9  20  36  60  89 115 149 189 229 281 344
#     4  10  20  37  61  88 116 149 189 232 280 337
#
# _framework density 22.776199999999999
#
# number of rings (size 3 to 8) (size 9 to 14) (size 15 to 20)
#    0.000    2.000    1.429    2.143    2.000    3.429 
#    0.000    5.714    0.000    0.000    0.000    0.000 
#    0.000    0.000    0.000    0.000    0.000    0.000 
#
# Total GULP energy -156418.914863 kJ/mol
# GULP energy per Si atom -5586.389817 kJ/mol
# Density = 2.272436 g / cm^3
# Si number density = 22.776200 Si / 1000 Ang^3
#
#
#
# Elastic Constant Matrix: (Units=GPa)
#
#
# Indices 1 2 3 4 5 6 
#
# 1 129.7007 -5.7785 10.9357 0.0000 -21.7971 0.0000
# 2 -5.7785 62.9985 -10.6349 0.0000 -5.5351 0.0000
# 3 10.9357 -10.6349 70.2063 0.0000 -16.6903 0.0000
# 4 0.0000 0.0000 0.0000 14.7810 0.0000 1.6406
# 5 -21.7971 -5.5351 -16.6903 0.0000 45.0868 0.0000
# 6 0.0000 0.0000 0.0000 1.6406 0.0000 14.3076
#
#
#
# Elastic Compliance Matrix: (Units=1/GPa)
#
#
# Indices 1 2 3 4 5 6 
#
# 1 0.008475 0.001118 -0.000158 0.000000 0.004176 0.000000
# 2 0.001118 0.016868 0.003292 0.000000 0.003830 0.000000
# 3 -0.000158 0.003292 0.016277 0.000000 0.006353 0.000000
# 4 0.000000 0.000000 0.000000 0.068527 0.000000 -0.007858
# 5 0.004176 0.003830 0.006353 0.000000 0.027020 0.000000
# 6 0.000000 0.000000 0.000000 -0.007858 0.000000 0.070794
#
#
# Mechanical properties :
#
#
# Convention : Reuss Voigt Hill
#
# Bulk Modulus (GPa) = 19.95120 27.99446 23.97283
# Shear Modulus (GPa) = 23.13032 32.72730 27.92881
#
# Velocity S-wave (km/s) = 3.19022 3.79477 3.50555
# Velocity P-wave (km/s) = 4.72744 5.61410 5.18974
#
# Compressibility (1/GPa) = 0.05012230
#
# Stress axis : x y z
#
# Youngs Moduli (GPa) = 117.99461 59.28383 61.43517
#
# Poissons Ratio (x) = -0.06625 0.00971
# Poissons Ratio (y) = -0.13187 -0.20221
# Poissons Ratio (z) = 0.01865 -0.19513
#
# Static dielectric constant tensor:
#      x y z
#    x 1.879150 0.000000 -0.035750 
#    y 0.000000 1.891530 0.000000 
#    z -0.035750 0.000000 1.824680 
# 
# From -- ./inp_files/28369.got.cif
#   From: 2010.05.17/outbox.cif.g08.bks.cpg/sg11_15_cif.got.tgz:28369.got - 2010.06.03 12:22:45.
