data_PCOD9160375
_publ_section_title
;
Structure prediction by ZEFSAII (Michael W. Deem and Ramdas Pophale) SiO2 
 PCOD9160375
Probable space group: P 21/M
;
_chemical_formula_sum "Si O2"
_cell_formula_units_Z 32
_cell_length_a 17.049728
_cell_length_b 12.939548
_cell_length_c 14.657006
_cell_angle_alpha 90.000000
_cell_angle_beta 149.397176
_cell_angle_gamma 90.000000
_cell_volume 1646.156561
_symmetry_space_group_name_H-M "P 21/M"
_symmetry_group_IT_number 11
_symmetry_cell_setting 'monoclinic'
loop_
_space_group_symop_operation_xyz
x,y,z
-x,1/2+y,-z
-x,-y,-z
x,1/2-y,z
loop_
_atom_site_type_symbol
_atom_site_label
_atom_site_fract_x
_atom_site_fract_y
_atom_site_fract_z
Si Si1 0.083419 0.367520 0.776290
Si Si2 0.534354 0.024443 0.304296
Si Si3 0.100318 0.953006 0.944786
Si Si4 0.829447 0.010726 0.288584
Si Si5 0.639040 0.944345 0.691415
Si Si6 0.237551 0.366658 0.362745
Si Si7 0.704415 0.137315 0.009424
Si Si8 0.730147 0.367259 0.351124
O O1 0.125824 0.250000 0.841827
O O2 0.089713 0.446163 0.867744
O O3 0.185710 0.412721 0.794607
O O4 0.906535 0.368234 0.564100
O O5 0.433895 0.080462 0.282691
O O6 0.620993 0.102628 0.325223
O O7 0.655142 0.946374 0.473846
O O8 0.422359 0.950415 0.134075
O O9 0.934458 0.912204 0.806729
O O10 0.187292 0.868833 0.970476
O O11 0.215771 0.981802 0.141648
O O12 0.721382 0.043742 0.264594
O O13 0.000000 0.000000 0.500000
O O14 0.810319 0.106674 0.200652
O O15 0.701956 0.864317 0.680868
O O16 0.500000 0.000000 0.500000
O O17 0.242487 0.250000 0.405115
O O18 0.635148 0.250000 0.950757
O O19 0.698830 0.250000 0.286753
#
# Coordination Sequence:
#
# PCOD9160375 Si02
#       8
#     4   4   4   4   4   4   4   4
#     4   9  18  34  57  84 116 151 188 237 289 338
#     4  10  21  38  57  84 119 155 198 241 289 352
#     4  10  19  36  59  86 115 147 199 243 288 351
#     4   9  19  35  56  84 114 146 190 239 281 336
#     4   9  21  38  57  78 113 156 188 240 296 344
#     4  11  21  36  58  85 116 150 195 250 297 345
#     4  10  20  36  58  83 117 158 190 233 298 356
#     4  10  19  35  59  82 114 155 193 235 287 344
#
# _framework density 19.439221
#
# number of rings (size 3 to 8) (size 9 to 14) (size 15 to 20)
#    0.000    2.250    1.250    1.500    0.000    2.000 
#    0.000    6.875    0.000    1.500    0.000    0.000 
#    0.000    0.000    0.000    0.000    0.000    0.000 
#
# Total GULP energy -178234.918456 kJ/mol
# GULP energy per Si atom -5569.841202 kJ/mol
# Density = 1.939498 g / cm^3
# Si number density = 19.439221 Si / 1000 Ang^3
#
#
#
# Elastic Constant Matrix: (Units=GPa)
#
#
# Indices 1 2 3 4 5 6 
#
# 1 81.1525 33.9628 12.6668 0.0000 12.2978 0.0000
# 2 33.9628 88.8040 15.0130 0.0000 2.7299 0.0000
# 3 12.6668 15.0130 79.9957 0.0000 5.3130 0.0000
# 4 0.0000 0.0000 0.0000 7.8827 0.0000 4.4852
# 5 12.2978 2.7299 5.3130 0.0000 26.3071 0.0000
# 6 0.0000 0.0000 0.0000 4.4852 0.0000 14.3598
#
#
#
# Elastic Compliance Matrix: (Units=1/GPa)
#
#
# Indices 1 2 3 4 5 6 
#
# 1 0.015866 -0.005695 -0.001004 0.000000 -0.006623 0.000000
# 2 -0.005695 0.013689 -0.001774 0.000000 0.001600 0.000000
# 3 -0.001004 -0.001774 0.013125 0.000000 -0.001997 0.000000
# 4 0.000000 0.000000 0.000000 0.154279 0.000000 -0.048188
# 5 -0.006623 0.001600 -0.001997 0.000000 0.041346 0.000000
# 6 0.000000 0.000000 0.000000 -0.048188 0.000000 0.084690
#
#
# Mechanical properties :
#
#
# Convention : Reuss Voigt Hill
#
# Bulk Modulus (GPa) = 38.85519 41.47084 40.16302
# Shear Modulus (GPa) = 14.34645 22.26388 18.30517
#
# Velocity S-wave (km/s) = 2.71959 3.38791 3.07198
# Velocity P-wave (km/s) = 5.46745 6.05672 5.76961
#
# Compressibility (1/GPa) = 0.02573658
#
# Stress axis : x y z
#
# Youngs Moduli (GPa) = 63.02762 73.04965 76.18970
#
# Poissons Ratio (x) = 0.41599 0.07647
# Poissons Ratio (y) = 0.35892 0.13513
# Poissons Ratio (z) = 0.06326 0.12956
#
# Static dielectric constant tensor:
#      x y z
#    x 1.711970 0.000000 -0.011430 
#    y 0.000000 1.684230 0.000000 
#    z -0.011430 0.000000 1.696560 
# 
# From -- ./inp_files/53648.got.cif
#   From: 2010.05.17/outbox.cif.g08.bks.cpg/sg11_27_cif.got.tgz:53648.got - 2010.06.03 12:22:45.
