data_PCOD9160945
_publ_section_title
;
Structure prediction by ZEFSAII (Michael W. Deem and Ramdas Pophale) SiO2 
 PCOD9160945
Probable space group: P 21/M
;
_chemical_formula_sum "Si O2"
_cell_formula_units_Z 26
_cell_length_a 12.426574
_cell_length_b 19.585944
_cell_length_c 9.063607
_cell_angle_alpha 90.000000
_cell_angle_beta 35.624670
_cell_angle_gamma 90.000000
_cell_volume 1284.910255
_symmetry_space_group_name_H-M "P 21/M"
_symmetry_group_IT_number 11
_symmetry_cell_setting 'monoclinic'
loop_
_space_group_symop_operation_xyz
x,y,z
-x,1/2+y,-z
-x,-y,-z
x,1/2-y,z
loop_
_atom_site_type_symbol
_atom_site_label
_atom_site_fract_x
_atom_site_fract_y
_atom_site_fract_z
Si Si1 0.682334 0.250000 0.010408
Si Si2 0.669393 0.750000 0.773694
Si Si3 0.903684 0.393210 0.470630
Si Si4 0.522103 0.892758 0.037741
Si Si5 0.885542 0.516276 0.271958
Si Si6 0.018030 0.750000 0.554712
Si Si7 0.137928 0.891126 0.132725
Si Si8 0.532841 0.479719 0.202245
O O1 0.765557 0.317802 0.989338
O O2 0.774840 0.250000 0.743279
O O3 0.461583 0.250000 0.226444
O O4 0.616242 0.820524 0.913040
O O5 0.890453 0.750000 0.548698
O O6 0.944274 0.460592 0.331579
O O7 0.910266 0.403688 0.640472
O O8 0.006192 0.320960 0.331520
O O9 0.687511 0.381309 0.678925
O O10 0.511770 0.931934 0.891670
O O11 0.602702 0.947806 0.061035
O O12 0.664545 0.513391 0.499550
O O13 0.953231 0.590566 0.251859
O O14 0.000000 0.500000 0.000000
O O15 0.299189 0.943262 0.904813
#
# Coordination Sequence:
#
# PCOD9160945 Si02
#       8
#     2   2   4   4   4   2   4   4
#     4  10  20  36  49  91 114 137 176 229 289 330
#     4  12  18  28  52  86 121 132 179 226 294 329
#     4   9  18  37  55  82 115 138 183 230 279 324
#     4   9  17  31  52  83 113 139 173 235 271 328
#     4  11  24  37  55  83 111 150 191 226 273 329
#     4  10  20  28  55  83 113 147 169 231 285 329
#     4  10  20  36  62  80 112 141 182 234 277 333
#     4   9  19  34  54  78 109 144 184 222 281 316
#
# _framework density 20.234874999999999
#
# number of rings (size 3 to 8) (size 9 to 14) (size 15 to 20)
#    0.000    2.154    4.615    1.385    6.462    0.615 
#    0.000    0.769    0.000    0.000    0.000    0.000 
#    0.000    0.000    0.000    0.000    0.000    0.000 
#
# Total GULP energy -144847.866446 kJ/mol
# GULP energy per Si atom -5571.071786 kJ/mol
# Density = 2.018882 g / cm^3
# Si number density = 20.234875 Si / 1000 Ang^3
#
#
#
# Elastic Constant Matrix: (Units=GPa)
#
#
# Indices 1 2 3 4 5 6 
#
# 1 23.5050 12.5688 12.8241 0.0000 -6.8774 0.0000
# 2 12.5688 125.0730 17.1357 0.0000 -1.3156 0.0000
# 3 12.8241 17.1357 61.9566 0.0000 -6.4273 0.0000
# 4 0.0000 0.0000 0.0000 15.0065 0.0000 -13.3862
# 5 -6.8774 -1.3156 -6.4273 0.0000 15.1356 0.0000
# 6 0.0000 0.0000 0.0000 -13.3862 0.0000 21.0836
#
#
#
# Elastic Compliance Matrix: (Units=1/GPa)
#
#
# Indices 1 2 3 4 5 6 
#
# 1 0.055492 -0.004243 -0.008092 0.000000 0.021410 0.000000
# 2 -0.004243 0.008636 -0.001708 0.000000 -0.001902 0.000000
# 3 -0.008092 -0.001708 0.018715 0.000000 0.004122 0.000000
# 4 0.000000 0.000000 0.000000 0.153669 0.000000 0.097566
# 5 0.021410 -0.001902 0.004122 0.000000 0.077383 0.000000
# 6 0.000000 0.000000 0.000000 0.097566 0.000000 0.109376
#
#
# Mechanical properties :
#
#
# Convention : Reuss Voigt Hill
#
# Bulk Modulus (GPa) = 18.26188 32.84354 25.55271
# Shear Modulus (GPa) = 10.64720 21.44555 16.04638
#
# Velocity S-wave (km/s) = 2.29635 3.25904 2.81909
# Velocity P-wave (km/s) = 4.00943 5.51617 4.82202
#
# Compressibility (1/GPa) = 0.05475889
#
# Stress axis : x y z
#
# Youngs Moduli (GPa) = 18.02066 115.79944 53.43291
#
# Poissons Ratio (x) = 0.49130 0.43236
# Poissons Ratio (y) = 0.07646 0.09124
# Poissons Ratio (z) = 0.14582 0.19774
#
# Static dielectric constant tensor:
#      x y z
#    x 1.734670 0.000000 -0.036690 
#    y 0.000000 1.791370 0.000000 
#    z -0.036690 0.000000 1.731950 
# 
# From -- ./inp_files/19318.got.cif
#   From: 2010.05.17/outbox.cif.g08.bks.cpg/sg11_10_cif.got.tgz:19318.got - 2010.06.03 12:22:45.
