data_PCOD9160874
_publ_section_title
;
Structure prediction by ZEFSAII (Michael W. Deem and Ramdas Pophale) SiO2 
 PCOD9160874
Probable space group: P 21/M
;
_chemical_formula_sum "Si O2"
_cell_formula_units_Z 24
_cell_length_a 17.089300
_cell_length_b 14.952408
_cell_length_c 11.584690
_cell_angle_alpha 90.000000
_cell_angle_beta 22.337807
_cell_angle_gamma 90.000000
_cell_volume 1125.069925
_symmetry_space_group_name_H-M "P 21/M"
_symmetry_group_IT_number 11
_symmetry_cell_setting 'monoclinic'
loop_
_space_group_symop_operation_xyz
x,y,z
-x,1/2+y,-z
-x,-y,-z
x,1/2-y,z
loop_
_atom_site_type_symbol
_atom_site_label
_atom_site_fract_x
_atom_site_fract_y
_atom_site_fract_z
Si Si1 0.996611 0.017887 0.868040
Si Si2 0.653736 0.149090 0.246975
Si Si3 0.780844 0.648493 0.068127
Si Si4 0.752418 0.390412 0.851840
Si Si5 0.389127 0.090969 0.192841
Si Si6 0.780559 0.892662 0.817643
O O1 0.953290 0.925494 0.858162
O O2 0.198683 0.064215 0.536236
O O3 0.802911 0.081532 0.107825
O O4 0.000000 0.000000 0.000000
O O5 0.679424 0.250000 0.256217
O O6 0.413908 0.125834 0.585978
O O7 0.714152 0.144670 0.031332
O O8 0.849186 0.750000 0.996747
O O9 0.692966 0.641656 0.057675
O O10 0.759063 0.499272 0.849940
O O11 0.980478 0.365283 0.502013
O O12 0.567992 0.361089 0.020495
O O13 0.309269 0.135754 0.183590
O O14 0.500000 0.000000 0.000000
#
# Coordination Sequence:
#
# PCOD9160874 Si02
#       6
#     4   4   4   4   4   4
#     4  12  24  41  68  92 127 177 211 266 331 371
#     4  11  24  42  64  93 128 167 216 267 317 385
#     4  11  24  41  64  94 127 170 217 263 321 387
#     4  10  19  39  66  93 126 165 212 259 317 380
#     4  10  21  36  65 102 124 162 219 258 310 393
#     4  10  19  38  64  94 131 167 208 263 315 380
#
# _framework density 21.332007999999998
#
# number of rings (size 3 to 8) (size 9 to 14) (size 15 to 20)
#    0.000    1.333    3.333    3.500    4.667    1.333 
#    0.000    1.667    0.000    1.000    0.000    0.000 
#    0.000    0.000    0.000    0.000    0.000    0.000 
#
# Total GULP energy -134088.569146 kJ/mol
# GULP energy per Si atom -5587.023714 kJ/mol
# Density = 2.128346 g / cm^3
# Si number density = 21.332008 Si / 1000 Ang^3
#
#
#
# Elastic Constant Matrix: (Units=GPa)
#
#
# Indices 1 2 3 4 5 6 
#
# 1 127.0786 31.1149 5.9140 0.0000 -5.1145 0.0000
# 2 31.1149 59.6266 15.5697 0.0000 -19.2218 0.0000
# 3 5.9140 15.5697 50.4222 0.0000 0.2371 0.0000
# 4 0.0000 0.0000 0.0000 6.1893 0.0000 7.7689
# 5 -5.1145 -19.2218 0.2371 0.0000 41.1609 0.0000
# 6 0.0000 0.0000 0.0000 7.7689 0.0000 -3.6353
#
#
#
# Elastic Compliance Matrix: (Units=1/GPa)
#
#
# Indices 1 2 3 4 5 6 
#
# 1 0.009094 -0.005340 0.000589 0.000000 -0.001367 0.000000
# 2 -0.005340 0.024982 -0.007140 0.000000 0.011044 0.000000
# 3 0.000589 -0.007140 0.021984 0.000000 -0.003388 0.000000
# 4 0.000000 0.000000 0.000000 0.043874 0.000000 0.093764
# 5 -0.001367 0.011044 -0.003388 0.000000 0.029302 0.000000
# 6 0.000000 0.000000 0.000000 0.093764 0.000000 -0.074700
#
#
# Mechanical properties :
#
#
# Convention : Reuss Voigt Hill
#
# Bulk Modulus (GPa) = 30.98058 38.03607 34.50833
# Shear Modulus (GPa) = 56.13006 21.04491 38.58749
#
# Velocity S-wave (km/s) = 5.13515 3.14433 4.25773
# Velocity P-wave (km/s) = 7.05083 5.57240 6.35476
#
# Compressibility (1/GPa) = 0.03227828
#
# Stress axis : x y z
#
# Youngs Moduli (GPa) = 109.95982 40.02844 45.48744
#
# Poissons Ratio (x) = 0.21376 -0.02678
# Poissons Ratio (y) = 0.58720 0.32477
# Poissons Ratio (z) = -0.06474 0.28579
#
# Static dielectric constant tensor:
#      x y z
#    x 1.777560 0.000000 -0.017300 
#    y 0.000000 1.868410 0.000000 
#    z -0.017300 0.000000 1.763810 
# 
# From -- ./inp_files/41900.got.cif
#   From: 2010.05.17/outbox.cif.g08.bks.cpg/sg11_21_cif.got.tgz:41900.got - 2010.06.03 12:22:45.
