data_PCOD9160806
_publ_section_title
;
Structure prediction by ZEFSAII (Michael W. Deem and Ramdas Pophale) SiO2 
 PCOD9160806
Probable space group: P 21/M
;
_chemical_formula_sum "Si O2"
_cell_formula_units_Z 32
_cell_length_a 16.701054
_cell_length_b 17.318954
_cell_length_c 11.632160
_cell_angle_alpha 90.000000
_cell_angle_beta 31.156935
_cell_angle_gamma 90.000000
_cell_volume 1740.759835
_symmetry_space_group_name_H-M "P 21/M"
_symmetry_group_IT_number 11
_symmetry_cell_setting 'monoclinic'
loop_
_space_group_symop_operation_xyz
x,y,z
-x,1/2+y,-z
-x,-y,-z
x,1/2-y,z
loop_
_atom_site_type_symbol
_atom_site_label
_atom_site_fract_x
_atom_site_fract_y
_atom_site_fract_z
Si Si1 0.753967 0.162188 0.625902
Si Si2 0.581828 0.615686 0.886078
Si Si3 0.906614 0.923030 0.150356
Si Si4 0.614609 0.479005 0.461794
Si Si5 0.901014 0.837721 0.397762
Si Si6 0.407347 0.999456 0.931373
Si Si7 0.818785 0.159144 0.282285
Si Si8 0.098819 0.573934 0.341907
O O1 0.807841 0.250000 0.568919
O O2 0.783717 0.137107 0.458259
O O3 0.841769 0.112313 0.613004
O O4 0.571655 0.158149 0.880117
O O5 0.723098 0.661562 0.658711
O O6 0.519018 0.556341 0.867434
O O7 0.642420 0.566140 0.919333
O O8 0.915245 0.895636 0.272016
O O9 0.732163 0.948876 0.335894
O O10 0.000494 0.857350 0.965875
O O11 0.000000 0.000000 0.000000
O O12 0.500000 0.500000 0.500000
O O13 0.504683 0.469493 0.706847
O O14 0.716629 0.400075 0.330468
O O15 0.945333 0.750000 0.311788
O O16 0.003733 0.869539 0.376458
O O17 0.253658 0.953740 0.085840
O O18 0.782791 0.250000 0.310399
O O19 0.000000 0.500000 0.500000
#
# Coordination Sequence:
#
# PCOD9160806 Si02
#       8
#     4   4   4   4   4   4   4   4
#     4  10  21  39  62  90 124 159 196 249 313 374
#     4  10  19  37  63  89 119 159 201 254 299 380
#     4  10  24  41  65  86 121 163 218 254 307 375
#     4  11  23  40  65  91 118 162 214 263 306 370
#     4  12  24  41  63  94 130 165 207 261 320 378
#     4  10  20  36  60  90 121 153 208 250 306 356
#     4  10  22  42  66  90 124 163 206 260 317 374
#     4  11  24  35  61  93 128 162 199 249 310 375
#
# _framework density 18.382776
#
# number of rings (size 3 to 8) (size 9 to 14) (size 15 to 20)
#    0.000    1.500    3.750    1.125    7.000    0.000 
#    0.000    1.250    0.000    0.000    0.000    0.000 
#    0.000    0.000    0.000    0.000    0.000    0.000 
#
# Total GULP energy -178440.926857 kJ/mol
# GULP energy per Si atom -5576.278964 kJ/mol
# Density = 1.834094 g / cm^3
# Si number density = 18.382776 Si / 1000 Ang^3
#
#
#
# Elastic Constant Matrix: (Units=GPa)
#
#
# Indices 1 2 3 4 5 6 
#
# 1 95.9308 49.4405 37.4534 0.0000 -13.0292 0.0000
# 2 49.4405 89.6099 19.2637 0.0000 -5.2301 0.0000
# 3 37.4534 19.2637 85.3046 0.0000 0.1721 0.0000
# 4 0.0000 0.0000 0.0000 28.3736 0.0000 -0.3823
# 5 -13.0292 -5.2301 0.1721 0.0000 20.7835 0.0000
# 6 0.0000 0.0000 0.0000 -0.3823 0.0000 22.4303
#
#
#
# Elastic Compliance Matrix: (Units=1/GPa)
#
#
# Indices 1 2 3 4 5 6 
#
# 1 0.018408 -0.008261 -0.006236 0.000000 0.009513 0.000000
# 2 -0.008261 0.015622 0.000101 0.000000 -0.001248 0.000000
# 3 -0.006236 0.000101 0.014446 0.000000 -0.004003 0.000000
# 4 0.000000 0.000000 0.000000 0.035252 0.000000 0.000601
# 5 0.009513 -0.001248 -0.004003 0.000000 0.053798 0.000000
# 6 0.000000 0.000000 0.000000 0.000601 0.000000 0.044593
#
#
# Mechanical properties :
#
#
# Convention : Reuss Voigt Hill
#
# Bulk Modulus (GPa) = 50.79684 53.68450 52.24067
# Shear Modulus (GPa) = 22.99152 25.29665 24.14409
#
# Velocity S-wave (km/s) = 3.54037 3.71362 3.62803
# Velocity P-wave (km/s) = 6.66372 6.90326 6.78455
#
# Compressibility (1/GPa) = 0.01968626
#
# Stress axis : x y z
#
# Youngs Moduli (GPa) = 54.32367 64.01054 69.22436
#
# Poissons Ratio (x) = 0.52876 0.43168
# Poissons Ratio (y) = 0.44874 -0.00702
# Poissons Ratio (z) = 0.33876 -0.00649
#
# Static dielectric constant tensor:
#      x y z
#    x 1.621850 0.000000 -0.003440 
#    y 0.000000 1.664200 0.000000 
#    z -0.003440 0.000000 1.648070 
# 
# From -- ./inp_files/41822.got.cif
#   From: 2010.05.17/outbox.cif.g08.bks.cpg/sg11_21_cif.got.tgz:41822.got - 2010.06.03 12:22:45.
