data_PCOD9160641
_publ_section_title
;
Structure prediction by ZEFSAII (Michael W. Deem and Ramdas Pophale) SiO2 
 PCOD9160641
Probable space group: P 21/M
;
_chemical_formula_sum "Si O2"
_cell_formula_units_Z 28
_cell_length_a 16.836146
_cell_length_b 8.746147
_cell_length_c 23.149111
_cell_angle_alpha 90.000000
_cell_angle_beta 25.441263
_cell_angle_gamma 90.000000
_cell_volume 1464.345206
_symmetry_space_group_name_H-M "P 21/M"
_symmetry_group_IT_number 11
_symmetry_cell_setting 'monoclinic'
loop_
_space_group_symop_operation_xyz
x,y,z
-x,1/2+y,-z
-x,-y,-z
x,1/2-y,z
loop_
_atom_site_type_symbol
_atom_site_label
_atom_site_fract_x
_atom_site_fract_y
_atom_site_fract_z
Si Si1 0.194297 0.568350 0.394480
Si Si2 0.249257 0.429080 0.134727
Si Si3 0.577389 0.569824 0.856324
Si Si4 0.197469 0.435037 0.851455
Si Si5 0.591560 0.063683 0.631917
Si Si6 0.162638 0.569764 0.636055
Si Si7 0.691421 0.568623 0.350777
O O1 0.169135 0.750000 0.415733
O O2 0.346346 0.525986 0.246804
O O3 0.279006 0.512134 0.400045
O O4 0.000000 0.500000 0.500000
O O5 0.299034 0.250000 0.093931
O O6 0.303223 0.468565 0.164803
O O7 0.033724 0.446006 0.265738
O O8 0.370607 0.527387 0.011052
O O9 0.596711 0.750000 0.831798
O O10 0.187501 0.250000 0.859275
O O11 0.375568 0.481476 0.773474
O O12 0.247483 0.483320 0.752957
O O13 0.000000 0.500000 0.000000
O O14 0.595532 0.250000 0.630263
O O15 0.682035 0.017500 0.511444
O O16 0.194155 0.750000 0.627377
O O17 0.165334 0.479909 0.693946
O O18 0.500000 0.500000 0.500000
O O19 0.670869 0.750000 0.361354
#
# Coordination Sequence:
#
# PCOD9160641 Si02
#       7
#     4   4   4   4   4   4   4
#     4  11  22  37  59  84 114 152 196 239 290 353
#     4   9  19  35  57  82 110 151 193 233 288 350
#     4  10  20  36  56  79 114 152 191 240 289 339
#     4  10  22  41  62  85 118 156 197 241 292 351
#     4   9  19  38  60  81 112 156 195 234 287 355
#     4  10  19  36  61  85 112 147 194 240 286 348
#     4  11  22  38  61  87 116 149 189 240 293 347
#
# _framework density 19.121174
#
# number of rings (size 3 to 8) (size 9 to 14) (size 15 to 20)
#    0.000    2.000    1.429    2.143    0.000    5.714 
#    0.000    8.571    0.000    0.000    0.000    0.000 
#    0.000    0.000    0.000    0.000    0.000    0.000 
#
# Total GULP energy -156263.555715 kJ/mol
# GULP energy per Si atom -5580.841276 kJ/mol
# Density = 1.907765 g / cm^3
# Si number density = 19.121174 Si / 1000 Ang^3
#
#
#
# Elastic Constant Matrix: (Units=GPa)
#
#
# Indices 1 2 3 4 5 6 
#
# 1 104.2392 22.9199 57.7244 0.0000 -0.8942 0.0000
# 2 22.9199 20.7203 24.9461 0.0000 -0.9331 0.0000
# 3 57.7244 24.9461 92.0117 0.0000 -1.6205 0.0000
# 4 0.0000 0.0000 0.0000 34.2094 0.0000 -2.0166
# 5 -0.8942 -0.9331 -1.6205 0.0000 27.2140 0.0000
# 6 0.0000 0.0000 0.0000 -2.0166 0.0000 26.4815
#
#
#
# Elastic Compliance Matrix: (Units=1/GPa)
#
#
# Indices 1 2 3 4 5 6 
#
# 1 0.015568 -0.008117 -0.007570 0.000000 -0.000218 0.000000
# 2 -0.008117 0.075926 -0.015468 0.000000 0.001415 0.000000
# 3 -0.007570 -0.015468 0.019818 0.000000 0.000401 0.000000
# 4 0.000000 0.000000 0.000000 0.029364 0.000000 0.002236
# 5 -0.000218 0.001415 0.000401 0.000000 0.036811 0.000000
# 6 0.000000 0.000000 0.000000 0.002236 0.000000 0.037933
#
#
# Mechanical properties :
#
#
# Convention : Reuss Voigt Hill
#
# Bulk Modulus (GPa) = 20.40689 47.57244 33.98966
# Shear Modulus (GPa) = 17.00309 25.00636 21.00472
#
# Velocity S-wave (km/s) = 2.98523 3.62025 3.31797
# Velocity P-wave (km/s) = 4.75160 6.51218 5.70027
#
# Compressibility (1/GPa) = 0.04900307
#
# Stress axis : x y z
#
# Youngs Moduli (GPa) = 64.23336 13.17063 50.45878
#
# Poissons Ratio (x) = 0.10690 0.38198
# Poissons Ratio (y) = 0.52136 0.78050
# Poissons Ratio (z) = 0.48626 0.20372
#
# Static dielectric constant tensor:
#      x y z
#    x 1.692930 0.000000 -0.017850 
#    y 0.000000 1.672900 0.000000 
#    z -0.017850 0.000000 1.651340 
# 
# From -- ./inp_files/65392.got.cif
#   From: 2010.05.17/outbox.cif.g08.bks.cpg/sg11_33_cif.got.tgz:65392.got - 2010.06.03 12:22:45.
