data_PCOD9160503
_publ_section_title
;
Structure prediction by ZEFSAII (Michael W. Deem and Ramdas Pophale) SiO2 
 PCOD9160503
Probable space group: P 21/M
;
_chemical_formula_sum "Si O2"
_cell_formula_units_Z 28
_cell_length_a 18.907363
_cell_length_b 13.810315
_cell_length_c 8.870760
_cell_angle_alpha 90.000000
_cell_angle_beta 42.655402
_cell_angle_gamma 90.000000
_cell_volume 1569.497798
_symmetry_space_group_name_H-M "P 21/M"
_symmetry_group_IT_number 11
_symmetry_cell_setting 'monoclinic'
loop_
_space_group_symop_operation_xyz
x,y,z
-x,1/2+y,-z
-x,-y,-z
x,1/2-y,z
loop_
_atom_site_type_symbol
_atom_site_label
_atom_site_fract_x
_atom_site_fract_y
_atom_site_fract_z
Si Si1 0.227792 0.359020 0.758490
Si Si2 0.356008 0.998026 0.355160
Si Si3 0.760250 0.638030 0.909614
Si Si4 0.163953 0.858225 0.581967
Si Si5 0.443915 0.134130 0.949339
Si Si6 0.988096 0.891931 0.075987
Si Si7 0.927964 0.978581 0.472005
O O1 0.271979 0.250000 0.680835
O O2 0.304508 0.437453 0.566588
O O3 0.118778 0.357445 0.836313
O O4 0.212475 0.381773 0.959027
O O5 0.264766 0.925150 0.445687
O O6 0.392259 0.075970 0.171474
O O7 0.452217 0.927913 0.246358
O O8 0.789571 0.750000 0.832989
O O9 0.638471 0.628803 0.058843
O O10 0.823077 0.568233 0.701271
O O11 0.189559 0.750000 0.489773
O O12 0.094055 0.919532 0.575350
O O13 0.094121 0.848640 0.843120
O O14 0.461351 0.250000 0.952740
O O15 0.973869 0.902905 0.277101
O O16 0.000000 0.000000 0.000000
O O17 0.000000 0.000000 0.500000
#
# Coordination Sequence:
#
# PCOD9160503 Si02
#       7
#     4   4   4   4   4   4   4
#     4  11  21  36  61  88 116 155 200 238 285 349
#     4  11  21  37  62  85 113 152 195 243 293 350
#     4  10  21  37  59  87 117 151 194 244 290 338
#     4  11  22  38  57  85 120 158 196 239 291 344
#     4  10  21  39  61  87 113 147 195 244 297 350
#     4  10  19  36  55  83 114 154 191 234 281 340
#     4  11  22  36  60  86 118 156 195 239 288 343
#
# _framework density 17.840102999999999
#
# number of rings (size 3 to 8) (size 9 to 14) (size 15 to 20)
#    0.000    1.429    4.286    3.000    0.000    4.571 
#    0.000    0.000    0.000    0.000    0.000    0.000 
#    0.000    0.000    0.000    0.000    0.000    0.000 
#
# Total GULP energy -156001.114318 kJ/mol
# GULP energy per Si atom -5571.468369 kJ/mol
# Density = 1.779950 g / cm^3
# Si number density = 17.840103 Si / 1000 Ang^3
#
#
#
# Elastic Constant Matrix: (Units=GPa)
#
#
# Indices 1 2 3 4 5 6 
#
# 1 91.0269 23.6563 38.1933 0.0000 5.4241 0.0000
# 2 23.6563 118.1416 46.1496 0.0000 2.8771 0.0000
# 3 38.1933 46.1496 82.0706 0.0000 -4.5823 0.0000
# 4 0.0000 0.0000 0.0000 -219.7661 0.0000 53.3903
# 5 5.4241 2.8771 -4.5823 0.0000 24.2274 0.0000
# 6 0.0000 0.0000 0.0000 53.3903 0.0000 12.9607
#
#
#
# Elastic Compliance Matrix: (Units=1/GPa)
#
#
# Indices 1 2 3 4 5 6 
#
# 1 0.014111 -0.000071 -0.006774 0.000000 -0.004432 0.000000
# 2 -0.000071 0.010995 -0.006288 0.000000 -0.002479 0.000000
# 3 -0.006774 -0.006288 0.019202 0.000000 0.005895 0.000000
# 4 0.000000 0.000000 0.000000 -0.002274 0.000000 0.009369
# 5 -0.004432 -0.002479 0.005895 0.000000 0.043677 0.000000
# 6 0.000000 0.000000 0.000000 0.009369 0.000000 0.038563
#
#
# Mechanical properties :
#
#
# Convention : Reuss Voigt Hill
#
# Bulk Modulus (GPa) = 55.42872 56.35972 55.89422
# Shear Modulus (GPa) = 31.93766 -24.29962 3.81902
#
# Velocity S-wave (km/s) = 4.23569 -3.69464 1.46470
# Velocity P-wave (km/s) = 7.42015 3.66875 5.85313
#
# Compressibility (1/GPa) = 0.01804119
#
# Stress axis : x y z
#
# Youngs Moduli (GPa) = 70.86850 90.94714 52.07776
#
# Poissons Ratio (x) = 0.00650 0.35277
# Poissons Ratio (y) = 0.00506 0.32747
# Poissons Ratio (z) = 0.48006 0.57188
#
# Static dielectric constant tensor:
#      x y z
#    x 1.619760 0.000000 -0.004300 
#    y 0.000000 1.628820 0.000000 
#    z -0.004300 0.000000 1.636840 
# 
# From -- ./inp_files/24914.got.cif
#   From: 2010.05.17/outbox.cif.g08.bks.cpg/sg11_13_cif.got.tgz:24914.got - 2010.06.03 12:22:45.
