data_PCOD9160694
_publ_section_title
;
Structure prediction by ZEFSAII (Michael W. Deem and Ramdas Pophale) SiO2 
 PCOD9160694
Probable space group: P 21/M
;
_chemical_formula_sum "Si O2"
_cell_formula_units_Z 24
_cell_length_a 8.950139
_cell_length_b 18.822148
_cell_length_c 9.202026
_cell_angle_alpha 90.000000
_cell_angle_beta 129.500846
_cell_angle_gamma 90.000000
_cell_volume 1196.143238
_symmetry_space_group_name_H-M "P 21/M"
_symmetry_group_IT_number 11
_symmetry_cell_setting 'monoclinic'
loop_
_space_group_symop_operation_xyz
x,y,z
-x,1/2+y,-z
-x,-y,-z
x,1/2-y,z
loop_
_atom_site_type_symbol
_atom_site_label
_atom_site_fract_x
_atom_site_fract_y
_atom_site_fract_z
Si Si1 0.985819 0.834692 0.608852
Si Si2 0.997780 0.440106 0.625026
Si Si3 0.655320 0.538858 0.943061
Si Si4 0.538093 0.668830 0.335700
Si Si5 0.687333 0.036136 0.680774
Si Si6 0.392484 0.613910 0.962736
O O1 0.001102 0.750000 0.624408
O O2 0.018722 0.866182 0.469035
O O3 0.165200 0.867477 0.810885
O O4 0.761526 0.853364 0.507904
O O5 0.834450 0.455287 0.641049
O O6 0.000000 0.500000 0.500000
O O7 0.190049 0.441679 0.839620
O O8 0.748345 0.519861 0.845277
O O9 0.487048 0.597598 0.862834
O O10 0.577603 0.461174 0.937824
O O11 0.511344 0.750000 0.369334
O O12 0.382988 0.613413 0.304823
O O13 0.502970 0.666788 0.139010
O O14 0.500000 0.000000 0.500000
#
# Coordination Sequence:
#
# PCOD9160694 Si02
#       6
#     4   4   4   4   4   4
#     4  11  22  37  63  92 122 168 212 258 318 380
#     4  12  22  40  65  90 128 165 213 264 314 382
#     4  10  21  37  62  95 127 161 208 263 317 372
#     4  10  22  41  62  89 128 167 209 260 319 385
#     4  11  24  38  61  94 126 168 209 265 324 368
#     4  10  19  36  64  93 124 162 209 254 315 383
#
# _framework density 20.064487
#
# number of rings (size 3 to 8) (size 9 to 14) (size 15 to 20)
#    0.000    1.333    3.333    3.000    2.333    0.667 
#    0.000    0.000    0.000    1.000    0.000    0.000 
#    0.000    0.000    0.000    0.000    0.000    0.000 
#
# Total GULP energy -133733.772752 kJ/mol
# GULP energy per Si atom -5572.240531 kJ/mol
# Density = 2.001882 g / cm^3
# Si number density = 20.064487 Si / 1000 Ang^3
#
#
#
# Elastic Constant Matrix: (Units=GPa)
#
#
# Indices 1 2 3 4 5 6 
#
# 1 120.5245 22.4148 25.4745 0.0000 -2.8241 0.0000
# 2 22.4148 62.1044 13.9304 0.0000 -3.4714 0.0000
# 3 25.4745 13.9304 82.0335 0.0000 11.1601 0.0000
# 4 0.0000 0.0000 0.0000 21.8113 0.0000 3.8743
# 5 -2.8241 -3.4714 11.1601 0.0000 34.5045 0.0000
# 6 0.0000 0.0000 0.0000 3.8743 0.0000 21.3012
#
#
#
# Elastic Compliance Matrix: (Units=1/GPa)
#
#
# Indices 1 2 3 4 5 6 
#
# 1 0.009393 -0.002723 -0.002638 0.000000 0.001348 0.000000
# 2 -0.002723 0.017777 -0.002496 0.000000 0.002373 0.000000
# 3 -0.002638 -0.002496 0.014118 0.000000 -0.005033 0.000000
# 4 0.000000 0.000000 0.000000 0.047378 0.000000 -0.008617
# 5 0.001348 0.002373 -0.005033 0.000000 0.030959 0.000000
# 6 0.000000 0.000000 0.000000 -0.008617 0.000000 0.048513
#
#
# Mechanical properties :
#
#
# Convention : Reuss Voigt Hill
#
# Bulk Modulus (GPa) = 39.10201 43.14465 41.12333
# Shear Modulus (GPa) = 25.99075 29.04624 27.51849
#
# Velocity S-wave (km/s) = 3.60302 3.80892 3.70740
# Velocity P-wave (km/s) = 6.06955 6.39480 6.23430
#
# Compressibility (1/GPa) = 0.02557414
#
# Stress axis : x y z
#
# Youngs Moduli (GPa) = 106.46691 56.25171 70.83223
#
# Poissons Ratio (x) = 0.15317 0.18684
# Poissons Ratio (y) = 0.28991 0.17680
# Poissons Ratio (z) = 0.28083 0.14041
#
# Static dielectric constant tensor:
#      x y z
#    x 1.764380 0.000000 -0.031990 
#    y 0.000000 1.723030 0.000000 
#    z -0.031990 0.000000 1.770040 
# 
# From -- ./inp_files/14414.got.cif
#   From: 2010.05.17/outbox.cif.g08.bks.cpg/sg11_8_cif.got.tgz:14414.got - 2010.06.03 12:22:45.
