data_PCOD9160332
_publ_section_title
;
Structure prediction by ZEFSAII (Michael W. Deem and Ramdas Pophale) SiO2 
 PCOD9160332
Probable space group: P 21/M
;
_chemical_formula_sum "Si O2"
_cell_formula_units_Z 32
_cell_length_a 12.962698
_cell_length_b 8.803777
_cell_length_c 32.592498
_cell_angle_alpha 90.000000
_cell_angle_beta 153.195040
_cell_angle_gamma 90.000000
_cell_volume 1677.316836
_symmetry_space_group_name_H-M "P 21/M"
_symmetry_group_IT_number 11
_symmetry_cell_setting 'monoclinic'
loop_
_space_group_symop_operation_xyz
x,y,z
-x,1/2+y,-z
-x,-y,-z
x,1/2-y,z
loop_
_atom_site_type_symbol
_atom_site_label
_atom_site_fract_x
_atom_site_fract_y
_atom_site_fract_z
Si Si1 0.231487 0.926963 0.097874
Si Si2 0.616111 0.926903 0.165034
Si Si3 0.082462 0.931774 0.434076
Si Si4 0.833474 0.931807 0.713580
Si Si5 0.374448 0.568732 0.916314
Si Si6 0.898642 0.569735 0.645117
Si Si7 0.569255 0.931794 0.377704
Si Si8 0.583230 0.564637 0.287754
O O1 0.183584 0.750000 0.088647
O O2 0.419885 0.937962 0.128981
O O3 0.360526 0.990499 0.183913
O O4 0.000000 0.000000 0.000000
O O5 0.687710 0.750000 0.187817
O O6 0.534270 0.987405 0.092158
O O7 0.834302 0.026657 0.254869
O O8 0.090166 0.750000 0.436484
O O9 0.818902 0.979588 0.348732
O O10 0.233022 0.994810 0.524587
O O11 0.173694 0.991090 0.422740
O O12 0.794731 0.750000 0.702404
O O13 0.100157 0.959693 0.818737
O O14 0.792118 0.977867 0.651205
O O15 0.667112 0.016989 0.685336
O O16 0.407307 0.750000 0.925728
O O17 0.500000 0.500000 0.000000
O O18 0.871087 0.750000 0.631600
O O19 0.590032 0.750000 0.386275
O O20 0.584448 0.981278 0.335656
O O21 0.578435 0.750000 0.284784
#
# Coordination Sequence:
#
# PCOD9160332 Si02
#       8
#     4   4   4   4   4   4   4   4
#     4  10  21  38  58  85 117 152 194 240 293 351
#     4  10  19  35  58  82 114 152 191 238 295 352
#     4  11  21  38  63  86 115 155 194 240 299 356
#     4   9  21  40  57  80 118 155 190 240 295 348
#     4  10  21  37  59  86 116 151 198 246 292 352
#     4  10  20  36  60  87 114 147 195 246 288 345
#     4  11  23  38  59  87 118 154 197 244 290 351
#     4   9  20  40  60  82 117 155 194 240 292 346
#
# _framework density 19.078088999999999
#
# number of rings (size 3 to 8) (size 9 to 14) (size 15 to 20)
#    0.000    2.000    1.250    3.000    0.000    5.500 
#    0.000    5.625    0.000    0.000    0.000    0.000 
#    0.000    0.000    0.000    0.000    0.000    0.000 
#
# Total GULP energy -178658.731499 kJ/mol
# GULP energy per Si atom -5583.085359 kJ/mol
# Density = 1.903467 g / cm^3
# Si number density = 19.078089 Si / 1000 Ang^3
#
#
#
# Elastic Constant Matrix: (Units=GPa)
#
#
# Indices 1 2 3 4 5 6 
#
# 1 79.9077 25.8132 29.3515 0.0000 -28.8789 0.0000
# 2 25.8132 31.9280 18.9471 0.0000 -4.4846 0.0000
# 3 29.3515 18.9471 94.1026 0.0000 -29.5176 0.0000
# 4 0.0000 0.0000 0.0000 33.9905 0.0000 0.2381
# 5 -28.8789 -4.4846 -29.5176 0.0000 36.0699 0.0000
# 6 0.0000 0.0000 0.0000 0.2381 0.0000 25.0753
#
#
#
# Elastic Compliance Matrix: (Units=1/GPa)
#
#
# Indices 1 2 3 4 5 6 
#
# 1 0.024614 -0.018415 0.002010 0.000000 0.019062 0.000000
# 2 -0.018415 0.049449 -0.009295 0.000000 -0.016202 0.000000
# 3 0.002010 -0.009295 0.016162 0.000000 0.013680 0.000000
# 4 0.000000 0.000000 0.000000 0.029422 0.000000 -0.000279
# 5 0.019062 -0.016202 0.013680 0.000000 0.052166 0.000000
# 6 0.000000 0.000000 0.000000 -0.000279 0.000000 0.039883
#
#
# Mechanical properties :
#
#
# Convention : Reuss Voigt Hill
#
# Bulk Modulus (GPa) = 25.75664 39.35135 32.55399
# Shear Modulus (GPa) = 18.11346 27.81556 22.96451
#
# Velocity S-wave (km/s) = 3.08464 3.82250 3.47322
# Velocity P-wave (km/s) = 5.12021 6.33666 5.76064
#
# Compressibility (1/GPa) = 0.03882495
#
# Stress axis : x y z
#
# Youngs Moduli (GPa) = 40.62697 20.22291 61.87265
#
# Poissons Ratio (x) = 0.37241 -0.12435
# Poissons Ratio (y) = 0.74816 0.57508
# Poissons Ratio (z) = -0.08165 0.18796
#
# Static dielectric constant tensor:
#      x y z
#    x 1.665060 0.000000 -0.012140 
#    y 0.000000 1.650050 0.000000 
#    z -0.012140 0.000000 1.668200 
# 
# From -- ./inp_files/73153.got.cif
#   From: 2010.05.17/outbox.cif.g08.bks.cpg/sg11_37_cif.got.tgz:73153.got - 2010.06.03 12:22:45.
