data_PCOD9160931
_publ_section_title
;
Structure prediction by ZEFSAII (Michael W. Deem and Ramdas Pophale) SiO2 
 PCOD9160931
Probable space group: P 21/M
;
_chemical_formula_sum "Si O2"
_cell_formula_units_Z 24
_cell_length_a 13.378899
_cell_length_b 14.210553
_cell_length_c 8.601989
_cell_angle_alpha 90.000000
_cell_angle_beta 50.076424
_cell_angle_gamma 90.000000
_cell_volume 1254.208161
_symmetry_space_group_name_H-M "P 21/M"
_symmetry_group_IT_number 11
_symmetry_cell_setting 'monoclinic'
loop_
_space_group_symop_operation_xyz
x,y,z
-x,1/2+y,-z
-x,-y,-z
x,1/2-y,z
loop_
_atom_site_type_symbol
_atom_site_label
_atom_site_fract_x
_atom_site_fract_y
_atom_site_fract_z
Si Si1 0.453775 0.032369 0.874315
Si Si2 0.604251 0.750000 0.004749
Si Si3 0.789492 0.060485 0.042605
Si Si4 0.319939 0.750000 0.283054
Si Si5 0.007549 0.950410 0.660482
Si Si6 0.881147 0.250000 0.799051
Si Si7 0.910000 0.750000 0.643448
Si Si8 0.716396 0.064013 0.474508
O O1 0.580047 0.012504 0.641908
O O2 0.331955 0.970970 0.941914
O O3 0.410190 0.143640 0.906093
O O4 0.500000 0.000000 0.000000
O O5 0.752605 0.750000 0.795293
O O6 0.462954 0.750000 0.058740
O O7 0.745182 0.067882 0.264029
O O8 0.845768 0.159119 0.930923
O O9 0.904760 0.988169 0.888344
O O10 0.209778 0.750000 0.263494
O O11 0.306034 0.661629 0.410984
O O12 0.152134 0.972177 0.576530
O O13 0.968545 0.842059 0.669494
O O14 0.000000 0.000000 0.500000
O O15 0.028178 0.250000 0.590161
#
# Coordination Sequence:
#
# PCOD9160931 Si02
#       8
#     4   2   4   2   4   2   2   4
#     4  11  23  41  68  92 127 170 218 260 317 390
#     4  10  22  37  61  94 120 158 210 266 311 364
#     4  12  24  40  61  96 128 166 211 271 326 373
#     4  10  19  41  61  88 120 167 212 256 317 385
#     4  12  22  41  65  91 124 170 220 259 312 392
#     4  12  23  40  66  91 121 166 222 261 305 395
#     4  12  22  38  66  91 123 163 216 265 309 372
#     4  11  23  39  62  93 130 165 208 270 326 374
#
# _framework density 19.135579
#
# number of rings (size 3 to 8) (size 9 to 14) (size 15 to 20)
#    0.000    0.667    5.000    4.500    0.000    0.000 
#    0.000    0.000    0.000    3.000    0.000    0.000 
#    0.000    0.000    0.000    0.000    0.000    0.000 
#
# Total GULP energy -133812.758086 kJ/mol
# GULP energy per Si atom -5575.531587 kJ/mol
# Density = 1.909203 g / cm^3
# Si number density = 19.135579 Si / 1000 Ang^3
#
#
#
# Elastic Constant Matrix: (Units=GPa)
#
#
# Indices 1 2 3 4 5 6 
#
# 1 72.0885 8.2107 40.3200 0.0000 -22.9145 0.0000
# 2 8.2107 94.9208 36.6408 0.0000 0.4184 0.0000
# 3 40.3200 36.6408 164.9812 0.0000 -24.7361 0.0000
# 4 0.0000 0.0000 0.0000 206.5968 0.0000 -37.7019
# 5 -22.9145 0.4184 -24.7361 0.0000 47.5485 0.0000
# 6 0.0000 0.0000 0.0000 -37.7019 0.0000 44.9959
#
#
#
# Elastic Compliance Matrix: (Units=1/GPa)
#
#
# Indices 1 2 3 4 5 6 
#
# 1 0.017948 -0.000320 -0.003273 0.000000 0.006949 0.000000
# 2 -0.000320 0.011635 -0.002760 0.000000 -0.001692 0.000000
# 3 -0.003273 -0.002760 0.007854 0.000000 0.002533 0.000000
# 4 0.000000 0.000000 0.000000 0.005714 0.000000 0.004788
# 5 0.006949 -0.001692 0.002533 0.000000 0.025713 0.000000
# 6 0.000000 0.000000 0.000000 0.004788 0.000000 0.026236
#
#
# Mechanical properties :
#
#
# Convention : Reuss Voigt Hill
#
# Bulk Modulus (GPa) = 40.43342 55.81485 48.12413
# Shear Modulus (GPa) = 43.08503 76.28283 59.68393
#
# Velocity S-wave (km/s) = 4.75022 6.32068 5.59086
# Velocity P-wave (km/s) = 7.15974 9.08291 8.17806
#
# Compressibility (1/GPa) = 0.02473202
#
# Stress axis : x y z
#
# Youngs Moduli (GPa) = 55.71627 85.94393 127.32476
#
# Poissons Ratio (x) = 0.02746 0.41679
# Poissons Ratio (y) = 0.01780 0.35138
# Poissons Ratio (z) = 0.18238 0.23718
#
# Static dielectric constant tensor:
#      x y z
#    x 1.645560 0.000000 -0.027330 
#    y 0.000000 1.677930 0.000000 
#    z -0.027330 0.000000 1.669570 
# 
# From -- ./inp_files/22059.got.cif
#   From: 2010.05.17/outbox.cif.g08.bks.cpg/sg11_12_cif.got.tgz:22059.got - 2010.06.03 12:22:45.
