data_PCOD9160165
_publ_section_title
;
Structure prediction by ZEFSAII (Michael W. Deem and Ramdas Pophale) SiO2 
 PCOD9160165
Probable space group: P 21/M
;
_chemical_formula_sum "Si O2"
_cell_formula_units_Z 22
_cell_length_a 7.842200
_cell_length_b 13.840402
_cell_length_c 10.629819
_cell_angle_alpha 90.000000
_cell_angle_beta 62.147329
_cell_angle_gamma 90.000000
_cell_volume 1020.092027
_symmetry_space_group_name_H-M "P 21/M"
_symmetry_group_IT_number 11
_symmetry_cell_setting 'monoclinic'
loop_
_space_group_symop_operation_xyz
x,y,z
-x,1/2+y,-z
-x,-y,-z
x,1/2-y,z
loop_
_atom_site_type_symbol
_atom_site_label
_atom_site_fract_x
_atom_site_fract_y
_atom_site_fract_z
Si Si1 0.882562 0.750000 0.345209
Si Si2 0.742204 0.250000 0.639114
Si Si3 0.178813 0.638543 0.864687
Si Si4 0.883428 0.750000 0.629203
Si Si5 0.116305 0.069815 0.830712
Si Si6 0.587585 0.614198 0.842131
Si Si7 0.498527 0.400434 0.851791
O O1 0.802127 0.750000 0.514025
O O2 0.837572 0.650056 0.290250
O O3 0.112062 0.750000 0.292375
O O4 0.607173 0.340937 0.707448
O O5 0.886569 0.250000 0.471263
O O6 0.122448 0.750000 0.851172
O O7 0.119136 0.545362 0.798849
O O8 0.408663 0.637531 0.811228
O O9 0.074116 0.607925 0.031973
O O10 0.786511 0.660652 0.731660
O O11 0.285565 0.078887 0.875175
O O12 0.609545 0.499594 0.835687
O O13 0.525870 0.645782 0.003032
#
# Coordination Sequence:
#
# PCOD9160165 Si02
#       7
#     2   2   4   2   4   4   4
#     4  10  21  38  57  82 119 174 198 236 298 380
#     4  10  22  36  61  83 118 168 197 237 309 371
#     4  10  19  34  62  90 122 156 195 258 304 363
#     4  10  23  38  62  83 121 168 201 237 297 389
#     4  10  20  35  61  94 123 149 205 258 303 357
#     4  10  20  39  64  90 118 151 209 251 304 362
#     4  10  21  36  65  94 114 151 201 267 301 347
#
# _framework density 21.566683000000001
#
# number of rings (size 3 to 8) (size 9 to 14) (size 15 to 20)
#    0.545    1.455    1.818    2.182    0.000    2.182 
#    0.000    3.636    8.000    0.000    0.000    0.000 
#    0.000    0.000    0.000    0.000    0.000    0.000 
#
# Total GULP energy -122620.703097 kJ/mol
# GULP energy per Si atom -5573.668323 kJ/mol
# Density = 2.151760 g / cm^3
# Si number density = 21.566683 Si / 1000 Ang^3
#
#
#
# Elastic Constant Matrix: (Units=GPa)
#
#
# Indices 1 2 3 4 5 6 
#
# 1 42.7106 9.6930 8.6040 0.0000 -10.3623 0.0000
# 2 9.6930 182.2095 46.6239 0.0000 -6.3702 0.0000
# 3 8.6040 46.6239 108.7353 0.0000 -30.9964 0.0000
# 4 0.0000 0.0000 0.0000 37.7539 0.0000 -9.6018
# 5 -10.3623 -6.3702 -30.9964 0.0000 32.3991 0.0000
# 6 0.0000 0.0000 0.0000 -9.6018 0.0000 26.0987
#
#
#
# Elastic Compliance Matrix: (Units=1/GPa)
#
#
# Indices 1 2 3 4 5 6 
#
# 1 0.025679 -0.001335 0.001109 0.000000 0.009012 0.000000
# 2 -0.001335 0.006312 -0.003257 0.000000 -0.002302 0.000000
# 3 0.001109 -0.003257 0.014333 0.000000 0.013427 0.000000
# 4 0.000000 0.000000 0.000000 0.029221 0.000000 0.010751
# 5 0.009012 -0.002302 0.013427 0.000000 0.046140 0.000000
# 6 0.000000 0.000000 0.000000 0.010751 0.000000 0.042271
#
#
# Mechanical properties :
#
#
# Convention : Reuss Voigt Hill
#
# Bulk Modulus (GPa) = 25.40697 51.49966 38.45332
# Shear Modulus (GPa) = 27.16766 37.16598 32.16682
#
# Velocity S-wave (km/s) = 3.55308 4.15577 3.86619
# Velocity P-wave (km/s) = 5.35152 6.85262 6.14805
#
# Compressibility (1/GPa) = 0.03935927
#
# Stress axis : x y z
#
# Youngs Moduli (GPa) = 38.94182 158.42448 69.76939
#
# Poissons Ratio (x) = 0.21148 -0.07740
# Poissons Ratio (y) = 0.05198 0.22725
# Poissons Ratio (z) = -0.04320 0.51601
#
# Static dielectric constant tensor:
#      x y z
#    x 1.780720 0.000000 0.002420 
#    y 0.000000 1.861420 0.000000 
#    z 0.002420 0.000000 1.736600 
# 
# From -- ./inp_files/31428.got.cif
#   From: 2010.05.17/outbox.cif.g08.bks.cpg/sg11_16_cif.got.tgz:31428.got - 2010.06.03 12:22:45.
