data_PCOD9160367
_publ_section_title
;
Structure prediction by ZEFSAII (Michael W. Deem and Ramdas Pophale) SiO2 
 PCOD9160367
Probable space group: P 21/M
;
_chemical_formula_sum "Si O2"
_cell_formula_units_Z 28
_cell_length_a 14.850605
_cell_length_b 8.472674
_cell_length_c 13.195588
_cell_angle_alpha 90.000000
_cell_angle_beta 124.247916
_cell_angle_gamma 90.000000
_cell_volume 1372.442508
_symmetry_space_group_name_H-M "P 21/M"
_symmetry_group_IT_number 11
_symmetry_cell_setting 'monoclinic'
loop_
_space_group_symop_operation_xyz
x,y,z
-x,1/2+y,-z
-x,-y,-z
x,1/2-y,z
loop_
_atom_site_type_symbol
_atom_site_label
_atom_site_fract_x
_atom_site_fract_y
_atom_site_fract_z
Si Si1 0.038870 0.437493 0.283062
Si Si2 0.379660 0.558977 0.560915
Si Si3 0.402194 0.935507 0.006149
Si Si4 0.176304 0.560811 0.561643
Si Si5 0.229412 0.938206 0.279096
Si Si6 0.386734 0.437913 0.221534
Si Si7 0.179798 0.435319 0.783980
O O1 0.030875 0.250000 0.287277
O O2 0.100307 0.507110 0.420942
O O3 0.115447 0.483681 0.237339
O O4 0.919531 0.512448 0.207606
O O5 0.384211 0.750000 0.560087
O O6 0.299421 0.519726 0.603503
O O7 0.317725 0.506319 0.420124
O O8 0.502016 0.501433 0.654266
O O9 0.416545 0.750000 0.031923
O O10 0.288357 0.969244 0.878503
O O11 0.500000 0.000000 0.000000
O O12 0.398036 0.022633 0.111067
O O13 0.168303 0.750000 0.568244
O O14 0.148334 0.476762 0.648431
O O15 0.217716 0.750000 0.281246
O O16 0.281773 0.983441 0.205794
O O17 0.379485 0.250000 0.231008
O O18 0.200535 0.250000 0.807299
#
# Coordination Sequence:
#
# PCOD9160367 Si02
#       7
#     4   4   4   4   4   4   4
#     4  11  22  38  59  87 120 157 198 245 296 353
#     4   8  17  32  55  85 120 155 192 236 287 341
#     4  12  26  45  65  89 119 155 196 243 292 347
#     4  10  19  35  58  88 123 159 196 242 295 353
#     4  10  20  37  58  86 121 158 197 244 296 351
#     4  11  21  37  60  88 119 157 200 245 294 350
#     4  12  24  40  61  87 117 155 198 245 298 355
#
# _framework density 20.401582999999999
#
# number of rings (size 3 to 8) (size 9 to 14) (size 15 to 20)
#    0.000    1.429    0.000    7.714    0.000    1.143 
#    0.000    7.857    0.000    0.000    0.000    0.000 
#    0.000    0.000    0.000    0.000    0.000    0.000 
#
# Total GULP energy -156590.006964 kJ/mol
# GULP energy per Si atom -5592.500249 kJ/mol
# Density = 2.035515 g / cm^3
# Si number density = 20.401583 Si / 1000 Ang^3
#
#
#
# Elastic Constant Matrix: (Units=GPa)
#
#
# Indices 1 2 3 4 5 6 
#
# 1 122.3514 -10.0482 16.3475 0.0000 -6.0652 0.0000
# 2 -10.0482 48.4696 -16.9868 0.0000 0.4837 0.0000
# 3 16.3475 -16.9868 18.4346 0.0000 -5.1666 0.0000
# 4 0.0000 0.0000 0.0000 27.3938 0.0000 -1.3347
# 5 -6.0652 0.4837 -5.1666 0.0000 31.8868 0.0000
# 6 0.0000 0.0000 0.0000 -1.3347 0.0000 28.9821
#
#
#
# Elastic Compliance Matrix: (Units=1/GPa)
#
#
# Indices 1 2 3 4 5 6 
#
# 1 0.009340 -0.001394 -0.009494 0.000000 0.000259 0.000000
# 2 -0.001394 0.031248 0.031242 0.000000 0.004323 0.000000
# 3 -0.009494 0.031242 0.095134 0.000000 0.013135 0.000000
# 4 0.000000 0.000000 0.000000 0.036587 0.000000 0.001685
# 5 0.000259 0.004323 0.013135 0.000000 0.033473 0.000000
# 6 0.000000 0.000000 0.000000 0.001685 0.000000 0.034582
#
#
# Mechanical properties :
#
#
# Convention : Reuss Voigt Hill
#
# Bulk Modulus (GPa) = 5.66796 18.65340 12.16068
# Shear Modulus (GPa) = 19.34489 30.98209 25.16349
#
# Velocity S-wave (km/s) = 3.08263 3.90117 3.51580
# Velocity P-wave (km/s) = 3.93121 5.42725 4.73864
#
# Compressibility (1/GPa) = 0.17643033
#
# Stress axis : x y z
#
# Youngs Moduli (GPa) = 107.06519 32.00164 10.51148
#
# Poissons Ratio (x) = 0.04460 0.09980
# Poissons Ratio (y) = 0.14921 -0.32840
# Poissons Ratio (z) = 1.01649 -0.99978
#
# Static dielectric constant tensor:
#      x y z
#    x 1.729470 0.000000 0.001650 
#    y 0.000000 1.681890 0.000000 
#    z 0.001650 0.000000 1.723080 
# 
# From -- ./inp_files/38403.got.cif
#   From: 2010.05.17/outbox.cif.g08.bks.cpg/sg11_20_cif.got.tgz:38403.got - 2010.06.03 12:22:45.
