data_PCOD9160886
_publ_section_title
;
Structure prediction by ZEFSAII (Michael W. Deem and Ramdas Pophale) SiO2 
 PCOD9160886
Probable space group: P 21/M
;
_chemical_formula_sum "Si O2"
_cell_formula_units_Z 24
_cell_length_a 11.119429
_cell_length_b 14.415516
_cell_length_c 18.302245
_cell_angle_alpha 90.000000
_cell_angle_beta 25.292112
_cell_angle_gamma 90.000000
_cell_volume 1253.378479
_symmetry_space_group_name_H-M "P 21/M"
_symmetry_group_IT_number 11
_symmetry_cell_setting 'monoclinic'
loop_
_space_group_symop_operation_xyz
x,y,z
-x,1/2+y,-z
-x,-y,-z
x,1/2-y,z
loop_
_atom_site_type_symbol
_atom_site_label
_atom_site_fract_x
_atom_site_fract_y
_atom_site_fract_z
Si Si1 0.968708 0.750000 0.134349
Si Si2 0.294976 0.035029 0.548290
Si Si3 0.728338 0.574772 0.894713
Si Si4 0.827873 0.750000 0.420213
Si Si5 0.605247 0.250000 0.963161
Si Si6 0.715690 0.250000 0.194967
Si Si7 0.883641 0.589419 0.974867
Si Si8 0.302433 0.428359 0.768614
O O1 0.178244 0.750000 0.087715
O O2 0.168311 0.750000 0.951906
O O3 0.760647 0.837768 0.244356
O O4 0.247455 0.146843 0.572473
O O5 0.500000 0.000000 0.500000
O O6 0.443971 0.994153 0.394205
O O7 0.015712 0.974748 0.713534
O O8 0.607261 0.664445 0.921393
O O9 0.500000 0.500000 0.000000
O O10 0.751762 0.597615 0.967942
O O11 0.618603 0.750000 0.606016
O O12 0.170302 0.750000 0.228431
O O13 0.863350 0.162245 0.152817
O O14 0.682245 0.601325 0.155258
O O15 0.020492 0.488407 0.909355
#
# Coordination Sequence:
#
# PCOD9160886 Si02
#       8
#     2   4   4   2   2   2   4   4
#     4  10  22  39  63  96 129 168 205 264 322 374
#     4  12  23  41  66  96 125 161 218 268 310 367
#     4  12  24  41  60  92 131 171 207 256 325 388
#     4  12  22  40  61  92 125 164 211 254 311 375
#     4  12  25  41  63  86 131 177 207 247 325 393
#     4  10  19  38  67  92 121 161 219 265 312 368
#     4  10  20  37  61  93 124 161 205 262 316 370
#     4  10  20  37  64  94 124 156 211 268 313 359
#
# _framework density 19.148247000000001
#
# number of rings (size 3 to 8) (size 9 to 14) (size 15 to 20)
#    0.000    1.000    5.000    2.500    0.000    1.333 
#    0.000    2.500    0.000    0.000    0.000    0.000 
#    0.000    0.000    0.000    0.000    0.000    0.000 
#
# Total GULP energy -133699.187723 kJ/mol
# GULP energy per Si atom -5570.799488 kJ/mol
# Density = 1.910467 g / cm^3
# Si number density = 19.148247 Si / 1000 Ang^3
#
#
#
# Elastic Constant Matrix: (Units=GPa)
#
#
# Indices 1 2 3 4 5 6 
#
# 1 80.8086 23.0957 28.0162 0.0000 1.7881 0.0000
# 2 23.0957 169.0573 32.9489 0.0000 -12.6377 0.0000
# 3 28.0162 32.9489 116.7943 0.0000 -4.8253 0.0000
# 4 0.0000 0.0000 0.0000 39.4925 0.0000 -4.4300
# 5 1.7881 -12.6377 -4.8253 0.0000 24.4159 0.0000
# 6 0.0000 0.0000 0.0000 -4.4300 0.0000 18.3243
#
#
#
# Elastic Compliance Matrix: (Units=1/GPa)
#
#
# Indices 1 2 3 4 5 6 
#
# 1 0.013898 -0.001490 -0.003012 0.000000 -0.002384 0.000000
# 2 -0.001490 0.006632 -0.001378 0.000000 0.003269 0.000000
# 3 -0.003012 -0.001378 0.009733 0.000000 0.001431 0.000000
# 4 0.000000 0.000000 0.000000 0.026027 0.000000 0.006292
# 5 -0.002384 0.003269 0.001431 0.000000 0.043106 0.000000
# 6 0.000000 0.000000 0.000000 0.006292 0.000000 0.056094
#
#
# Mechanical properties :
#
#
# Convention : Reuss Voigt Hill
#
# Bulk Modulus (GPa) = 54.04953 59.42021 56.73487
# Shear Modulus (GPa) = 28.83230 35.28651 32.05941
#
# Velocity S-wave (km/s) = 3.88460 4.29745 4.09623
# Velocity P-wave (km/s) = 6.95761 7.46479 7.21566
#
# Compressibility (1/GPa) = 0.01850155
#
# Stress axis : x y z
#
# Youngs Moduli (GPa) = 71.95424 150.79012 102.74820
#
# Poissons Ratio (x) = 0.22465 0.30947
# Poissons Ratio (y) = 0.10720 0.14163
# Poissons Ratio (z) = 0.21672 0.20785
#
# Static dielectric constant tensor:
#      x y z
#    x 1.692760 0.000000 0.093490 
#    y 0.000000 1.713360 0.000000 
#    z 0.093490 0.000000 2.160800 
# 
# From -- ./inp_files/64822.got.cif
#   From: 2010.05.17/outbox.cif.g08.bks.cpg/sg11_33_cif.got.tgz:64822.got - 2010.06.03 12:22:45.
