data_PCOD9160721
_publ_section_title
;
Structure prediction by ZEFSAII (Michael W. Deem and Ramdas Pophale) SiO2 
 PCOD9160721
Probable space group: P 21/M
;
_chemical_formula_sum "Si O2"
_cell_formula_units_Z 28
_cell_length_a 8.557508
_cell_length_b 13.176458
_cell_length_c 16.564231
_cell_angle_alpha 90.000000
_cell_angle_beta 40.337602
_cell_angle_gamma 90.000000
_cell_volume 1208.972108
_symmetry_space_group_name_H-M "P 21/M"
_symmetry_group_IT_number 11
_symmetry_cell_setting 'monoclinic'
loop_
_space_group_symop_operation_xyz
x,y,z
-x,1/2+y,-z
-x,-y,-z
x,1/2-y,z
loop_
_atom_site_type_symbol
_atom_site_label
_atom_site_fract_x
_atom_site_fract_y
_atom_site_fract_z
Si Si1 0.331909 0.074515 0.617520
Si Si2 0.381677 0.575272 0.349657
Si Si3 0.927061 0.930437 0.433917
Si Si4 0.187044 0.367084 0.926693
Si Si5 0.818751 0.636811 0.729477
Si Si6 0.300274 0.636790 0.985659
Si Si7 0.100212 0.455279 0.136086
O O1 0.171586 0.123111 0.608428
O O2 0.153740 0.006617 0.741670
O O3 0.500000 0.000000 0.500000
O O4 0.501283 0.128855 0.616920
O O5 0.143526 0.619459 0.399281
O O6 0.593351 0.573442 0.200810
O O7 0.287554 0.466448 0.421828
O O8 0.039655 0.039921 0.360932
O O9 0.262561 0.250000 0.899384
O O10 0.946284 0.373473 0.967695
O O11 0.122398 0.405173 0.040582
O O12 0.892570 0.750000 0.673557
O O13 0.851425 0.624873 0.813038
O O14 0.529912 0.626556 0.836860
O O15 0.308717 0.750000 0.017353
O O16 0.281235 0.551536 0.061286
#
# Coordination Sequence:
#
# PCOD9160721 Si02
#       7
#     4   4   4   4   4   4   4
#     4   9  19  35  57  86 113 148 199 243 290 358
#     4  10  19  37  59  83 118 154 196 249 299 352
#     4   9  20  35  60  86 111 155 202 242 299 358
#     4  11  23  36  55  88 120 156 203 245 303 368
#     4  10  21  36  55  84 116 150 197 246 296 358
#     4  10  21  35  54  84 115 148 195 243 296 363
#     4  11  20  36  59  80 116 156 193 244 308 354
#
# _framework density 23.160170999999998
#
# number of rings (size 3 to 8) (size 9 to 14) (size 15 to 20)
#    0.000    2.000    1.429    2.143    2.000    1.714 
#    0.000    0.000    0.000    0.857    0.000   12.000 
#    0.000    0.000    0.000    0.000    0.000    0.000 
#
# Total GULP energy -156200.393109 kJ/mol
# GULP energy per Si atom -5578.585468 kJ/mol
# Density = 2.310746 g / cm^3
# Si number density = 23.160171 Si / 1000 Ang^3
#
#
#
# Elastic Constant Matrix: (Units=GPa)
#
#
# Indices 1 2 3 4 5 6 
#
# 1 157.1296 21.9823 36.7882 0.0000 1.7457 0.0000
# 2 21.9823 96.6085 26.5523 0.0000 -6.3723 0.0000
# 3 36.7882 26.5523 142.4533 0.0000 0.2676 0.0000
# 4 0.0000 0.0000 0.0000 5.6105 0.0000 -1.7046
# 5 1.7457 -6.3723 0.2676 0.0000 40.3926 0.0000
# 6 0.0000 0.0000 0.0000 -1.7046 0.0000 9.1021
#
#
#
# Elastic Compliance Matrix: (Units=1/GPa)
#
#
# Indices 1 2 3 4 5 6 
#
# 1 0.006899 -0.001172 -0.001562 0.000000 -0.000473 0.000000
# 2 -0.001172 0.011232 -0.001794 0.000000 0.001834 0.000000
# 3 -0.001562 -0.001794 0.007758 0.000000 -0.000267 0.000000
# 4 0.000000 0.000000 0.000000 0.188992 0.000000 0.035393
# 5 -0.000473 0.001834 -0.000267 0.000000 0.025069 0.000000
# 6 0.000000 0.000000 0.000000 0.035393 0.000000 0.116493
#
#
# Mechanical properties :
#
#
# Convention : Reuss Voigt Hill
#
# Bulk Modulus (GPa) = 59.40921 62.98190 61.19556
# Shear Modulus (GPa) = 13.47311 31.74562 22.60936
#
# Velocity S-wave (km/s) = 2.41454 3.70631 3.12784
# Velocity P-wave (km/s) = 5.78623 6.75046 6.28686
#
# Compressibility (1/GPa) = 0.01683241
#
# Stress axis : x y z
#
# Youngs Moduli (GPa) = 144.94583 89.03276 128.89417
#
# Poissons Ratio (x) = 0.10431 0.20139
# Poissons Ratio (y) = 0.16982 0.23129
# Poissons Ratio (z) = 0.22647 0.15976
#
# Static dielectric constant tensor:
#      x y z
#    x 1.981050 0.000000 -0.023450 
#    y 0.000000 1.862210 0.000000 
#    z -0.023450 0.000000 1.878570 
# 
# From -- ./inp_files/58097.got.cif
#   From: 2010.05.17/outbox.cif.g08.bks.cpg/sg11_30_cif.got.tgz:58097.got - 2010.06.03 12:22:45.
