data_PCOD9160944
_publ_section_title
;
Structure prediction by ZEFSAII (Michael W. Deem and Ramdas Pophale) SiO2 
 PCOD9160944
Probable space group: P 21/M
;
_chemical_formula_sum "Si O2"
_cell_formula_units_Z 12
_cell_length_a 14.037732
_cell_length_b 5.769285
_cell_length_c 7.130218
_cell_angle_alpha 90.000000
_cell_angle_beta 131.879798
_cell_angle_gamma 90.000000
_cell_volume 429.945938
_symmetry_space_group_name_H-M "P 21/M"
_symmetry_group_IT_number 11
_symmetry_cell_setting 'monoclinic'
loop_
_space_group_symop_operation_xyz
x,y,z
-x,1/2+y,-z
-x,-y,-z
x,1/2-y,z
loop_
_atom_site_type_symbol
_atom_site_label
_atom_site_fract_x
_atom_site_fract_y
_atom_site_fract_z
Si Si1 0.375781 0.750000 0.849127
Si Si2 0.029705 0.998772 0.314099
Si Si3 0.524720 0.750000 0.435332
Si Si4 0.660133 0.750000 0.117781
Si Si5 0.796238 0.750000 0.892890
O O1 0.434343 0.750000 0.136333
O O2 0.504757 0.750000 0.894237
O O3 0.310527 0.499331 0.751024
O O4 0.082685 0.250000 0.335102
O O5 0.092872 0.750000 0.357911
O O6 0.000000 0.000000 0.500000
O O7 0.893044 0.966949 0.027786
O O8 0.500000 0.500000 0.500000
O O9 0.677059 0.750000 0.599689
O O10 0.728892 0.750000 0.009000
#
# Coordination Sequence:
#
# PCOD9160944 Si02
#       5
#     2   4   2   2   2
#     4  10  20  36  43  68  97 127 163 200 225 271
#     4   8  16  28  43  66  94 112 149 199 239 271
#     4  12  22  32  47  72 100 128 160 195 235 285
#     4  10  20  32  52  62  93 133 164 194 230 272
#     4  10  20  28  52  70  92 128 159 187 248 278
#
# _framework density 27.910488999999998
#
# number of rings (size 3 to 8) (size 9 to 14) (size 15 to 20)
#    1.000    1.333    3.333    0.000    4.667    0.000 
#    0.000    0.000    0.000    0.000    0.000    2.333 
#    0.000    0.000    0.000    0.000    0.000    0.000 
#
# Total GULP energy -67078.133119 kJ/mol
# GULP energy per Si atom -5589.844427 kJ/mol
# Density = 2.784696 g / cm^3
# Si number density = 27.910489 Si / 1000 Ang^3
#
#
#
# Elastic Constant Matrix: (Units=GPa)
#
#
# Indices 1 2 3 4 5 6 
#
# 1 85.4462 80.4569 24.5081 0.0000 -4.0856 0.0000
# 2 80.4569 371.8870 96.1119 0.0000 17.4826 0.0000
# 3 24.5081 96.1119 128.0201 0.0000 10.8269 0.0000
# 4 0.0000 0.0000 0.0000 64.6769 0.0000 12.0301
# 5 -4.0856 17.4826 10.8269 0.0000 40.3595 0.0000
# 6 0.0000 0.0000 0.0000 12.0301 0.0000 58.0047
#
#
#
# Elastic Compliance Matrix: (Units=1/GPa)
#
#
# Indices 1 2 3 4 5 6 
#
# 1 0.015098 -0.003223 -0.000734 0.000000 0.003122 0.000000
# 2 -0.003223 0.004049 -0.002299 0.000000 -0.001464 0.000000
# 3 -0.000734 -0.002299 0.009823 0.000000 -0.001713 0.000000
# 4 0.000000 0.000000 0.000000 0.016082 0.000000 -0.003335
# 5 0.003122 -0.001464 -0.001713 0.000000 0.026187 0.000000
# 6 0.000000 0.000000 0.000000 -0.003335 0.000000 0.017932
#
#
# Mechanical properties :
#
#
# Convention : Reuss Voigt Hill
#
# Bulk Modulus (GPa) = 60.76608 109.72302 85.24455
# Shear Modulus (GPa) = 46.65437 58.22664 52.44051
#
# Velocity S-wave (km/s) = 4.09292 4.57244 4.33931
# Velocity P-wave (km/s) = 6.64493 8.20208 7.46422
#
# Compressibility (1/GPa) = 0.01645655
#
# Stress axis : x y z
#
# Youngs Moduli (GPa) = 66.23208 246.94981 101.80238
#
# Poissons Ratio (x) = 0.79603 0.07477
# Poissons Ratio (y) = 0.21350 0.23407
# Poissons Ratio (z) = 0.04864 0.56780
#
# Static dielectric constant tensor:
#      x y z
#    x 2.177750 0.000000 -0.009040 
#    y 0.000000 2.111160 0.000000 
#    z -0.009040 0.000000 2.258300 
# 
# From -- ./inp_files/15483.got.cif
#   From: 2010.05.17/outbox.cif.g08.bks.cpg/sg11_8_cif.got.tgz:15483.got - 2010.06.03 12:22:45.
