data_PCOD9160952
_publ_section_title
;
Structure prediction by ZEFSAII (Michael W. Deem and Ramdas Pophale) SiO2 
 PCOD9160952
Probable space group: P 21/M
;
_chemical_formula_sum "Si O2"
_cell_formula_units_Z 20
_cell_length_a 8.509249
_cell_length_b 10.064365
_cell_length_c 20.256337
_cell_angle_alpha 90.000000
_cell_angle_beta 31.372178
_cell_angle_gamma 90.000000
_cell_volume 903.105734
_symmetry_space_group_name_H-M "P 21/M"
_symmetry_group_IT_number 11
_symmetry_cell_setting 'monoclinic'
loop_
_space_group_symop_operation_xyz
x,y,z
-x,1/2+y,-z
-x,-y,-z
x,1/2-y,z
loop_
_atom_site_type_symbol
_atom_site_label
_atom_site_fract_x
_atom_site_fract_y
_atom_site_fract_z
Si Si1 0.569199 0.250000 0.698824
Si Si2 0.744311 0.750000 0.328853
Si Si3 0.632239 0.250000 0.184250
Si Si4 0.290170 0.537842 0.650430
Si Si5 0.280262 0.250000 0.451185
Si Si6 0.729176 0.250000 0.961987
Si Si7 0.872257 0.980705 0.139337
Si Si8 0.838737 0.750000 0.766642
O O1 0.481181 0.250000 0.652884
O O2 0.403390 0.383358 0.783156
O O3 0.922712 0.250000 0.579826
O O4 0.682925 0.611262 0.385848
O O5 0.081436 0.750000 0.174566
O O6 0.429334 0.250000 0.324407
O O7 0.840599 0.382076 0.111865
O O8 0.390343 0.250000 0.212071
O O9 0.588631 0.620858 0.559350
O O10 0.161666 0.518822 0.771179
O O11 0.056033 0.623574 0.692598
O O12 0.843132 0.381590 0.959948
O O13 0.371335 0.250000 0.092105
#
# Coordination Sequence:
#
# PCOD9160952 Si02
#       8
#     2   2   2   4   2   2   4   2
#     4   8  15  30  57  76  85 114 162 202 239 268
#     4   8  16  30  48  74  94 114 160 210 230 260
#     4  10  20  30  46  72 102 124 152 190 232 284
#     4   8  17  31  48  68  96 122 157 196 229 270
#     4   9  16  31  54  74  92 119 154 199 238 274
#     4   8  17  32  51  68  93 124 158 198 235 270
#     4   8  17  34  51  72  93 116 159 206 231 267
#     4  11  20  31  46  68 100 135 154 179 234 290
#
# _framework density 22.145803000000001
#
# number of rings (size 3 to 8) (size 9 to 14) (size 15 to 20)
#    0.000    4.000    0.000    0.600    0.000   11.200 
#    0.000    3.000    0.000   19.200    0.000    0.000 
#    0.000    0.000    0.000    0.000    0.000    0.000 
#
# Total GULP energy -111524.899474 kJ/mol
# GULP energy per Si atom -5576.244974 kJ/mol
# Density = 2.209540 g / cm^3
# Si number density = 22.145803 Si / 1000 Ang^3
#
#
#
# Elastic Constant Matrix: (Units=GPa)
#
#
# Indices 1 2 3 4 5 6 
#
# 1 59.9591 16.5380 1.9635 0.0000 9.8622 0.0000
# 2 16.5380 206.3405 26.1180 0.0000 -24.2633 0.0000
# 3 1.9635 26.1180 83.4314 0.0000 -15.2870 0.0000
# 4 0.0000 0.0000 0.0000 -17.8686 0.0000 -19.1407
# 5 9.8622 -24.2633 -15.2870 0.0000 30.8731 0.0000
# 6 0.0000 0.0000 0.0000 -19.1407 0.0000 -25.4556
#
#
#
# Elastic Compliance Matrix: (Units=1/GPa)
#
#
# Indices 1 2 3 4 5 6 
#
# 1 0.018754 -0.002338 -0.001258 0.000000 -0.008451 0.000000
# 2 -0.002338 0.005707 -0.000850 0.000000 0.004811 0.000000
# 3 -0.001258 -0.000850 0.013453 0.000000 0.006395 0.000000
# 4 0.000000 0.000000 0.000000 -0.287668 0.000000 0.216305
# 5 -0.008451 0.004811 0.006395 0.000000 0.042038 0.000000
# 6 0.000000 0.000000 0.000000 0.216305 0.000000 -0.201929
#
#
# Mechanical properties :
#
#
# Convention : Reuss Voigt Hill
#
# Bulk Modulus (GPa) = 34.45529 48.77445 41.61487
# Shear Modulus (GPa) = -12.78512 17.85053 2.53270
#
# Velocity S-wave (km/s) = -2.40535 2.84217 1.07058
# Velocity P-wave (km/s) = 2.80676 5.73085 4.51224
#
# Compressibility (1/GPa) = 0.02902312
#
# Stress axis : x y z
#
# Youngs Moduli (GPa) = 53.32188 175.22240 74.33057
#
# Poissons Ratio (x) = 0.40960 0.09351
# Poissons Ratio (y) = 0.12465 0.06318
# Poissons Ratio (z) = 0.06708 0.14895
#
# Static dielectric constant tensor:
#      x y z
#    x 1.799400 0.000000 0.077150 
#    y 0.000000 1.858640 0.000000 
#    z 0.077150 0.000000 1.797270 
# 
# From -- ./inp_files/70972.got.cif
#   From: 2010.05.17/outbox.cif.g08.bks.cpg/sg11_36_cif.got.tgz:70972.got - 2010.06.03 12:22:45.
