data_PCOD9160706
_publ_section_title
;
Structure prediction by ZEFSAII (Michael W. Deem and Ramdas Pophale) SiO2 
 PCOD9160706
Probable space group: P 21/M
;
_chemical_formula_sum "Si O2"
_cell_formula_units_Z 28
_cell_length_a 9.654983
_cell_length_b 13.970198
_cell_length_c 15.087196
_cell_angle_alpha 90.000000
_cell_angle_beta 135.861483
_cell_angle_gamma 90.000000
_cell_volume 1417.158742
_symmetry_space_group_name_H-M "P 21/M"
_symmetry_group_IT_number 11
_symmetry_cell_setting 'monoclinic'
loop_
_space_group_symop_operation_xyz
x,y,z
-x,1/2+y,-z
-x,-y,-z
x,1/2-y,z
loop_
_atom_site_type_symbol
_atom_site_label
_atom_site_fract_x
_atom_site_fract_y
_atom_site_fract_z
Si Si1 0.542448 0.899743 0.972220
Si Si2 0.222238 0.145717 0.747155
Si Si3 0.230677 0.637386 0.302793
Si Si4 0.116833 0.857787 0.825980
Si Si5 0.867162 0.502217 0.596498
Si Si6 0.622935 0.859971 0.366409
Si Si7 0.890378 0.974751 0.040536
O O1 0.322935 0.856811 0.864365
O O2 0.675511 0.852050 0.110115
O O3 0.678801 0.918874 0.948851
O O4 0.500000 0.000000 0.000000
O O5 0.127077 0.250000 0.688288
O O6 0.382263 0.132647 0.742325
O O7 0.061013 0.062156 0.665098
O O8 0.201136 0.750000 0.309613
O O9 0.264309 0.571060 0.404837
O O10 0.413339 0.630224 0.318949
O O11 0.039848 0.590787 0.167271
O O12 0.066564 0.750000 0.827362
O O13 0.144615 0.925613 0.923790
O O14 0.945341 0.910120 0.692302
O O15 0.760067 0.554872 0.466640
O O16 0.694167 0.750000 0.418833
O O17 0.000000 0.000000 0.000000
#
# Coordination Sequence:
#
# PCOD9160706 Si02
#       7
#     4   4   4   4   4   4   4
#     4  10  19  37  56  84 113 146 187 230 286 341
#     4  11  21  36  59  85 114 148 191 236 280 334
#     4  10  21  37  58  84 113 152 194 235 284 336
#     4  10  21  36  58  81 113 155 187 227 288 343
#     4  11  20  38  58  82 116 148 189 237 285 335
#     4  10  23  37  57  86 113 148 193 236 281 338
#     4  10  22  36  57  85 117 146 186 238 286 340
#
# _framework density 19.757842
#
# number of rings (size 3 to 8) (size 9 to 14) (size 15 to 20)
#    0.000    1.714    4.286    2.143    4.000    1.143 
#    0.000    0.000    0.000    0.857    0.000    0.000 
#    0.000    0.000    0.000    0.000    0.000    0.000 
#
# Total GULP energy -156026.693096 kJ/mol
# GULP energy per Si atom -5572.381896 kJ/mol
# Density = 1.971287 g / cm^3
# Si number density = 19.757842 Si / 1000 Ang^3
#
#
#
# Elastic Constant Matrix: (Units=GPa)
#
#
# Indices 1 2 3 4 5 6 
#
# 1 125.7857 24.0251 9.8539 0.0000 -16.7572 0.0000
# 2 24.0251 133.6375 18.2360 0.0000 5.2415 0.0000
# 3 9.8539 18.2360 23.6162 0.0000 -4.0163 0.0000
# 4 0.0000 0.0000 0.0000 7.3310 0.0000 -16.7520
# 5 -16.7572 5.2415 -4.0163 0.0000 20.4222 0.0000
# 6 0.0000 0.0000 0.0000 -16.7520 0.0000 -6.5092
#
#
#
# Elastic Compliance Matrix: (Units=1/GPa)
#
#
# Indices 1 2 3 4 5 6 
#
# 1 0.009463 -0.001859 -0.001150 0.000000 0.008016 0.000000
# 2 -0.001859 0.008984 -0.007049 0.000000 -0.005217 0.000000
# 3 -0.001150 -0.007049 0.050089 0.000000 0.010716 0.000000
# 4 0.000000 0.000000 0.000000 0.019824 0.000000 -0.051019
# 5 0.008016 -0.005217 0.010716 0.000000 0.058990 0.000000
# 6 0.000000 0.000000 0.000000 -0.051019 0.000000 -0.022327
#
#
# Mechanical properties :
#
#
# Convention : Reuss Voigt Hill
#
# Bulk Modulus (GPa) = 20.65230 43.02993 31.84112
# Shear Modulus (GPa) = 31.00251 19.64377 25.32314
#
# Velocity S-wave (km/s) = 3.96551 3.15656 3.58393
# Velocity P-wave (km/s) = 5.60736 5.92546 5.76860
#
# Compressibility (1/GPa) = 0.04842075
#
# Stress axis : x y z
#
# Youngs Moduli (GPa) = 105.67511 111.31450 19.96451
#
# Poissons Ratio (x) = 0.20690 0.02296
# Poissons Ratio (y) = 0.19642 0.14072
# Poissons Ratio (z) = 0.12153 0.78462
#
# Static dielectric constant tensor:
#      x y z
#    x 1.736550 0.000000 0.014900 
#    y 0.000000 1.721360 0.000000 
#    z 0.014900 0.000000 1.697770 
# 
# From -- ./inp_files/47665.got.cif
#   From: 2010.05.17/outbox.cif.g08.bks.cpg/sg11_24_cif.got.tgz:47665.got - 2010.06.03 12:22:45.
