data_PCOD9160471
_publ_section_title
;
Structure prediction by ZEFSAII (Michael W. Deem and Ramdas Pophale) SiO2 
 PCOD9160471
Probable space group: P 21/M
;
_chemical_formula_sum "Si O2"
_cell_formula_units_Z 32
_cell_length_a 12.045153
_cell_length_b 18.431531
_cell_length_c 14.882645
_cell_angle_alpha 90.000000
_cell_angle_beta 151.013832
_cell_angle_gamma 90.000000
_cell_volume 1601.164250
_symmetry_space_group_name_H-M "P 21/M"
_symmetry_group_IT_number 11
_symmetry_cell_setting 'monoclinic'
loop_
_space_group_symop_operation_xyz
x,y,z
-x,1/2+y,-z
-x,-y,-z
x,1/2-y,z
loop_
_atom_site_type_symbol
_atom_site_label
_atom_site_fract_x
_atom_site_fract_y
_atom_site_fract_z
Si Si1 0.229990 0.526662 0.708843
Si Si2 0.213908 0.903526 0.131160
Si Si3 0.210184 0.065746 0.044926
Si Si4 0.315702 0.933082 0.582420
Si Si5 0.820197 0.598643 0.189806
Si Si6 0.642622 0.552381 0.532869
Si Si7 0.653728 0.331683 0.111598
Si Si8 0.963696 0.331633 0.157016
O O1 0.378400 0.530156 0.723505
O O2 0.264303 0.473292 0.816204
O O3 0.231732 0.608110 0.744674
O O4 0.000000 0.500000 0.500000
O O5 0.455123 0.898908 0.350879
O O6 0.213785 0.980148 0.075506
O O7 0.165351 0.840147 0.027936
O O8 0.017414 0.906824 0.066594
O O9 0.433618 0.101268 0.253433
O O10 0.185249 0.084780 0.921349
O O11 0.080846 0.887044 0.409740
O O12 0.263305 0.996320 0.474569
O O13 0.620043 0.654691 0.075701
O O14 0.500000 0.500000 0.500000
O O15 0.843911 0.605099 0.707513
O O16 0.702324 0.250000 0.175081
O O17 0.773604 0.343052 0.100190
O O18 0.057561 0.250000 0.235262
#
# Coordination Sequence:
#
# PCOD9160471 Si02
#       8
#     4   4   4   4   4   4   4   4
#     4  10  20  35  60  91 120 160 212 258 308 371
#     4  10  21  36  62  90 121 154 209 259 317 371
#     4  10  19  35  61  93 118 152 201 266 316 359
#     4  10  20  33  59  95 120 152 208 260 313 359
#     4  11  21  36  62  87 125 164 209 256 309 374
#     4  11  22  39  66  97 128 157 215 275 319 370
#     4  11  24  41  61  90 133 174 210 263 327 387
#     4  11  24  42  61  88 129 171 207 257 328 389
#
# _framework density 19.985455999999999
#
# number of rings (size 3 to 8) (size 9 to 14) (size 15 to 20)
#    0.000    1.500    1.250    6.375    3.500    0.500 
#    0.000    3.125    0.000    3.750    0.000    0.000 
#    0.000    0.000    0.000    0.000    0.000    0.000 
#
# Total GULP energy -178195.198365 kJ/mol
# GULP energy per Si atom -5568.599949 kJ/mol
# Density = 1.993997 g / cm^3
# Si number density = 19.985456 Si / 1000 Ang^3
#
#
#
# Elastic Constant Matrix: (Units=GPa)
#
#
# Indices 1 2 3 4 5 6 
#
# 1 94.8999 35.9187 14.1354 0.0000 -12.0747 0.0000
# 2 35.9187 71.0059 19.0731 0.0000 -6.5977 0.0000
# 3 14.1354 19.0731 112.7684 0.0000 11.4244 0.0000
# 4 0.0000 0.0000 0.0000 12.1927 0.0000 0.9949
# 5 -12.0747 -6.5977 11.4244 0.0000 32.4565 0.0000
# 6 0.0000 0.0000 0.0000 0.9949 0.0000 18.5336
#
#
#
# Elastic Compliance Matrix: (Units=1/GPa)
#
#
# Indices 1 2 3 4 5 6 
#
# 1 0.013570 -0.006188 -0.001077 0.000000 0.004170 0.000000
# 2 -0.006188 0.018099 -0.002515 0.000000 0.002262 0.000000
# 3 -0.001077 -0.002515 0.009872 0.000000 -0.004387 0.000000
# 4 0.000000 0.000000 0.000000 0.082377 0.000000 -0.004422
# 5 0.004170 0.002262 -0.004387 0.000000 0.034366 0.000000
# 6 0.000000 0.000000 0.000000 -0.004422 0.000000 0.054193
#
#
# Mechanical properties :
#
#
# Convention : Reuss Voigt Hill
#
# Bulk Modulus (GPa) = 45.48971 46.32539 45.90755
# Shear Modulus (GPa) = 20.88859 26.60637 23.74748
#
# Velocity S-wave (km/s) = 3.23645 3.65264 3.45082
# Velocity P-wave (km/s) = 6.06440 6.40460 6.23682
#
# Compressibility (1/GPa) = 0.02198299
#
# Stress axis : x y z
#
# Youngs Moduli (GPa) = 73.68956 55.25088 101.29173
#
# Poissons Ratio (x) = 0.34189 0.10908
# Poissons Ratio (y) = 0.45599 0.25472
# Poissons Ratio (z) = 0.07935 0.13894
#
# Static dielectric constant tensor:
#      x y z
#    x 0.238750 0.000000 -1.280640 
#    y 0.000000 1.703720 0.000000 
#    z -1.280640 0.000000 0.674730 
# 
# From -- ./inp_files/50696.got.cif
#   From: 2010.05.17/outbox.cif.g08.bks.cpg/sg11_26_cif.got.tgz:50696.got - 2010.06.03 12:22:45.
