data_PCOD9160866
_publ_section_title
;
Structure prediction by ZEFSAII (Michael W. Deem and Ramdas Pophale) SiO2 
 PCOD9160866
Probable space group: P 21/M
;
_chemical_formula_sum "Si O2"
_cell_formula_units_Z 24
_cell_length_a 14.891166
_cell_length_b 13.631297
_cell_length_c 8.323326
_cell_angle_alpha 90.000000
_cell_angle_beta 142.470567
_cell_angle_gamma 90.000000
_cell_volume 1029.201738
_symmetry_space_group_name_H-M "P 21/M"
_symmetry_group_IT_number 11
_symmetry_cell_setting 'monoclinic'
loop_
_space_group_symop_operation_xyz
x,y,z
-x,1/2+y,-z
-x,-y,-z
x,1/2-y,z
loop_
_atom_site_type_symbol
_atom_site_label
_atom_site_fract_x
_atom_site_fract_y
_atom_site_fract_z
Si Si1 0.502465 0.858645 0.355130
Si Si2 0.262805 0.982216 0.188527
Si Si3 0.492288 0.884948 0.967136
Si Si4 0.181811 0.142514 0.559730
Si Si5 0.073449 0.139961 0.743088
Si Si6 0.812525 0.071471 0.591692
O O1 0.542870 0.750000 0.472451
O O2 0.624247 0.942234 0.562682
O O3 0.356271 0.899916 0.231333
O O4 0.478512 0.850045 0.130446
O O5 0.160099 0.934407 0.179344
O O6 0.176567 0.051521 0.945068
O O7 0.345329 0.874122 0.655007
O O8 0.651819 0.853906 0.128563
O O9 0.500000 0.000000 0.000000
O O10 0.162237 0.250000 0.450734
O O11 0.064970 0.133385 0.538048
O O12 0.184182 0.043128 0.460860
O O13 0.130390 0.250000 0.857680
O O14 0.926183 0.125273 0.636872
#
# Coordination Sequence:
#
# PCOD9160866 Si02
#       6
#     4   4   4   4   4   4
#     4  11  23  39  65  97 126 165 214 263 318 375
#     4  11  23  41  64  89 132 168 208 260 318 378
#     4  10  19  38  63  91 121 155 212 265 313 360
#     4  10  21  38  63  92 122 163 213 258 313 374
#     4  11  25  42  61  90 128 172 210 254 317 383
#     4  11  23  41  65  92 126 165 208 262 317 368
#
# _framework density 23.319044000000002
#
# number of rings (size 3 to 8) (size 9 to 14) (size 15 to 20)
#    0.000    1.333    3.333    4.000    2.333    2.667 
#    0.000    2.500    0.000    0.000    0.000    0.000 
#    0.000    0.000    0.000    0.000    0.000    0.000 
#
# Total GULP energy -134026.988121 kJ/mol
# GULP energy per Si atom -5584.457838 kJ/mol
# Density = 2.326597 g / cm^3
# Si number density = 23.319044 Si / 1000 Ang^3
#
#
#
# Elastic Constant Matrix: (Units=GPa)
#
#
# Indices 1 2 3 4 5 6 
#
# 1 120.3196 23.5235 -9.4825 0.0000 13.0368 0.0000
# 2 23.5235 103.3303 -2.6451 0.0000 -0.1388 0.0000
# 3 -9.4825 -2.6451 16.2761 0.0000 -1.5241 0.0000
# 4 0.0000 0.0000 0.0000 4.5074 0.0000 -0.0729
# 5 13.0368 -0.1388 -1.5241 0.0000 18.0226 0.0000
# 6 0.0000 0.0000 0.0000 -0.0729 0.0000 144.0416
#
#
#
# Elastic Compliance Matrix: (Units=1/GPa)
#
#
# Indices 1 2 3 4 5 6 
#
# 1 0.009830 -0.002125 0.004752 0.000000 -0.006725 0.000000
# 2 -0.002125 0.010178 0.000572 0.000000 0.001664 0.000000
# 3 0.004752 0.000572 0.064490 0.000000 0.002021 0.000000
# 4 0.000000 0.000000 0.000000 0.221861 0.000000 0.000112
# 5 -0.006725 0.001664 0.002021 0.000000 0.060534 0.000000
# 6 0.000000 0.000000 0.000000 0.000112 0.000000 0.006942
#
#
# Mechanical properties :
#
#
# Convention : Reuss Voigt Hill
#
# Bulk Modulus (GPa) = 11.00163 29.19086 20.09625
# Shear Modulus (GPa) = 12.57107 48.54966 30.56037
#
# Velocity S-wave (km/s) = 2.32435 4.56782 3.62406
# Velocity P-wave (km/s) = 3.45421 6.35336 5.11355
#
# Compressibility (1/GPa) = 0.09089559
#
# Stress axis : x y z
#
# Youngs Moduli (GPa) = 101.73092 98.24741 15.50616
#
# Poissons Ratio (x) = 0.20879 -0.07368
# Poissons Ratio (y) = 0.21620 -0.00887
# Poissons Ratio (z) = -0.48340 -0.05618
#
# Static dielectric constant tensor:
#      x y z
#    x 1.862290 0.000000 0.032200 
#    y 0.000000 1.872620 0.000000 
#    z 0.032200 0.000000 1.922060 
# 
# From -- ./inp_files/22306.got.cif
#   From: 2010.05.17/outbox.cif.g08.bks.cpg/sg11_12_cif.got.tgz:22306.got - 2010.06.03 12:22:45.
