data_PCOD9160378
_publ_section_title
;
Structure prediction by ZEFSAII (Michael W. Deem and Ramdas Pophale) SiO2 
 PCOD9160378
Probable space group: P 21/M
;
_chemical_formula_sum "Si O2"
_cell_formula_units_Z 28
_cell_length_a 22.409895
_cell_length_b 7.903752
_cell_length_c 25.017678
_cell_angle_alpha 90.000000
_cell_angle_beta 161.947603
_cell_angle_gamma 90.000000
_cell_volume 1373.165650
_symmetry_space_group_name_H-M "P 21/M"
_symmetry_group_IT_number 11
_symmetry_cell_setting 'monoclinic'
loop_
_space_group_symop_operation_xyz
x,y,z
-x,1/2+y,-z
-x,-y,-z
x,1/2-y,z
loop_
_atom_site_type_symbol
_atom_site_label
_atom_site_fract_x
_atom_site_fract_y
_atom_site_fract_z
Si Si1 0.863342 0.454748 0.453232
Si Si2 0.238447 0.446831 0.042382
Si Si3 0.522786 0.452747 0.457832
Si Si4 0.297023 0.450756 0.797614
Si Si5 0.669593 0.042211 0.398745
Si Si6 0.145066 0.941907 0.077484
Si Si7 0.132897 0.542916 0.324153
O O1 0.869449 0.250000 0.457852
O O2 0.733253 0.506200 0.291188
O O3 0.765114 0.510406 0.424639
O O4 0.087504 0.515731 0.641384
O O5 0.259259 0.250000 0.045883
O O6 0.451011 0.519793 0.219373
O O7 0.153304 0.455634 0.029660
O O8 0.079171 0.522847 0.868122
O O9 0.500000 0.500000 0.500000
O O10 0.500077 0.250000 0.432665
O O11 0.355167 0.541231 0.281981
O O12 0.724140 0.502475 0.602475
O O13 0.291954 0.250000 0.798660
O O14 0.500000 0.500000 0.000000
O O15 0.669496 0.250000 0.399510
O O16 0.784915 0.987474 0.549315
O O17 0.098667 0.750000 0.023857
O O18 0.000000 0.000000 0.000000
O O19 0.128251 0.750000 0.320516
#
# Coordination Sequence:
#
# PCOD9160378 Si02
#       7
#     4   4   4   4   4   4   4
#     4   9  19  35  58  87 117 155 200 243 290 346
#     4  10  19  35  59  83 110 143 182 234 292 348
#     4  11  21  36  56  81 112 144 185 233 288 352
#     4  10  20  35  57  86 122 158 199 244 290 342
#     4   9  17  33  57  85 114 146 189 238 287 344
#     4  12  24  38  56  79 108 144 189 239 295 353
#     4   9  18  32  54  82 108 138 178 227 282 341
#
# _framework density 20.390839
#
# number of rings (size 3 to 8) (size 9 to 14) (size 15 to 20)
#    0.000    2.000    1.429    3.000    0.000    2.857 
#    0.000    5.714    0.000    0.000    0.000    0.000 
#    0.000    0.000    0.000    0.000    0.000    0.000 
#
# Total GULP energy -156200.132980 kJ/mol
# GULP energy per Si atom -5578.576178 kJ/mol
# Density = 2.034443 g / cm^3
# Si number density = 20.390839 Si / 1000 Ang^3
#
#
#
# Elastic Constant Matrix: (Units=GPa)
#
#
# Indices 1 2 3 4 5 6 
#
# 1 154.3583 -4.2525 92.6735 0.0000 -6.0369 0.0000
# 2 -4.2525 29.8735 4.3891 0.0000 1.2357 0.0000
# 3 92.6735 4.3891 194.7048 0.0000 -20.0920 0.0000
# 4 0.0000 0.0000 0.0000 17.9294 0.0000 -3.2067
# 5 -6.0369 1.2357 -20.0920 0.0000 22.9550 0.0000
# 6 0.0000 0.0000 0.0000 -3.2067 0.0000 20.8103
#
#
#
# Elastic Compliance Matrix: (Units=1/GPa)
#
#
# Indices 1 2 3 4 5 6 
#
# 1 0.009245 0.002067 -0.004625 0.000000 -0.001728 0.000000
# 2 0.002067 0.034203 -0.002076 0.000000 -0.003115 0.000000
# 3 -0.004625 -0.002076 0.007992 0.000000 0.005891 0.000000
# 4 0.000000 0.000000 0.000000 0.057355 0.000000 0.008838
# 5 -0.001728 -0.003115 0.005891 0.000000 0.048433 0.000000
# 6 0.000000 0.000000 0.000000 0.008838 0.000000 0.049415
#
#
# Mechanical properties :
#
#
# Convention : Reuss Voigt Hill
#
# Bulk Modulus (GPa) = 23.71323 62.72851 43.22087
# Shear Modulus (GPa) = 21.74219 31.41402 26.57811
#
# Velocity S-wave (km/s) = 3.26893 3.92930 3.61423
# Velocity P-wave (km/s) = 5.08944 7.17048 6.21764
#
# Compressibility (1/GPa) = 0.04217054
#
# Stress axis : x y z
#
# Youngs Moduli (GPa) = 108.17136 29.23756 125.12424
#
# Poissons Ratio (x) = -0.06043 0.57871
# Poissons Ratio (y) = -0.22359 0.25979
# Poissons Ratio (z) = 0.50030 0.06070
#
# Static dielectric constant tensor:
#      x y z
#    x 1.728710 0.000000 0.016960 
#    y 0.000000 1.752520 0.000000 
#    z 0.016960 0.000000 1.740850 
# 
# From -- ./inp_files/69832.got.cif
#   From: 2010.05.17/outbox.cif.g08.bks.cpg/sg11_35_cif.got.tgz:69832.got - 2010.06.03 12:22:45.
