data_PCOD9160878
_publ_section_title
;
Structure prediction by ZEFSAII (Michael W. Deem and Ramdas Pophale) SiO2 
 PCOD9160878
Probable space group: P 21/M
;
_chemical_formula_sum "Si O2"
_cell_formula_units_Z 32
_cell_length_a 12.549092
_cell_length_b 13.924848
_cell_length_c 18.325139
_cell_angle_alpha 90.000000
_cell_angle_beta 152.544714
_cell_angle_gamma 90.000000
_cell_volume 1476.399711
_symmetry_space_group_name_H-M "P 21/M"
_symmetry_group_IT_number 11
_symmetry_cell_setting 'monoclinic'
loop_
_space_group_symop_operation_xyz
x,y,z
-x,1/2+y,-z
-x,-y,-z
x,1/2-y,z
loop_
_atom_site_type_symbol
_atom_site_label
_atom_site_fract_x
_atom_site_fract_y
_atom_site_fract_z
Si Si1 0.296953 0.538588 0.428995
Si Si2 0.810351 0.141903 0.773234
Si Si3 0.490031 0.137207 0.703145
Si Si4 0.657944 0.134775 0.385667
Si Si5 0.748038 0.970600 0.937023
Si Si6 0.380741 0.357425 0.878825
Si Si7 0.809633 0.475964 0.137951
Si Si8 0.901832 0.640147 0.439187
O O1 0.500000 0.500000 0.500000
O O2 0.202639 0.625812 0.320855
O O3 0.348161 0.580283 0.540120
O O4 0.083840 0.463870 0.302089
O O5 0.888640 0.250000 0.837323
O O6 0.564895 0.128579 0.664622
O O7 0.990359 0.064663 0.913888
O O8 0.509973 0.250000 0.734409
O O9 0.234304 0.104483 0.572091
O O10 0.673534 0.071613 0.857100
O O11 0.681858 0.250000 0.411589
O O12 0.424465 0.107137 0.201909
O O13 0.869616 0.100989 0.461310
O O14 0.721486 0.981536 0.007499
O O15 0.328228 0.250000 0.873740
O O16 0.244113 0.442005 0.835820
O O17 0.295350 0.360942 0.743335
O O18 0.649558 0.383585 0.052785
O O19 0.965612 0.750000 0.494974
#
# Coordination Sequence:
#
# PCOD9160878 Si02
#       8
#     4   4   4   4   4   4   4   4
#     4  11  23  41  63  87 122 167 211 253 304 369
#     4  10  22  40  62  87 121 163 203 249 307 362
#     4  10  20  37  59  87 121 159 201 248 306 364
#     4  11  23  40  62  91 124 161 207 254 304 367
#     4  11  22  37  60  93 124 156 203 255 303 359
#     4  10  19  38  65  90 120 162 207 252 308 371
#     4  10  22  38  62  93 122 158 206 258 309 363
#     4   9  18  35  61  88 115 157 201 244 303 366
#
# _framework density 21.674347000000001
#
# number of rings (size 3 to 8) (size 9 to 14) (size 15 to 20)
#    0.000    1.750    2.500    1.875    0.000    4.000 
#    0.000    2.500    0.000    4.500    0.000    0.000 
#    0.000    0.000    0.000    0.000    0.000    0.000 
#
# Total GULP energy -178513.092482 kJ/mol
# GULP energy per Si atom -5578.534140 kJ/mol
# Density = 2.162502 g / cm^3
# Si number density = 21.674347 Si / 1000 Ang^3
#
#
#
# Elastic Constant Matrix: (Units=GPa)
#
#
# Indices 1 2 3 4 5 6 
#
# 1 108.7044 6.3006 24.4063 0.0000 11.6158 0.0000
# 2 6.3006 72.6787 3.6264 0.0000 12.1492 0.0000
# 3 24.4063 3.6264 66.7060 0.0000 13.9508 0.0000
# 4 0.0000 0.0000 0.0000 24.1013 0.0000 3.3212
# 5 11.6158 12.1492 13.9508 0.0000 41.5194 0.0000
# 6 0.0000 0.0000 0.0000 3.3212 0.0000 21.8899
#
#
#
# Elastic Compliance Matrix: (Units=1/GPa)
#
#
# Indices 1 2 3 4 5 6 
#
# 1 0.010148 -0.000448 -0.003358 0.000000 -0.001580 0.000000
# 2 -0.000448 0.014487 0.000255 0.000000 -0.004199 0.000000
# 3 -0.003358 0.000255 0.017236 0.000000 -0.004927 0.000000
# 4 0.000000 0.000000 0.000000 0.042378 0.000000 -0.006430
# 5 -0.001580 -0.004199 -0.004927 0.000000 0.027411 0.000000
# 6 0.000000 0.000000 0.000000 -0.006430 0.000000 0.046659
#
#
# Mechanical properties :
#
#
# Convention : Reuss Voigt Hill
#
# Bulk Modulus (GPa) = 28.76191 35.19507 31.97849
# Shear Modulus (GPa) = 28.24667 31.75249 29.99958
#
# Velocity S-wave (km/s) = 3.61394 3.83166 3.72439
# Velocity P-wave (km/s) = 5.54193 5.98739 5.76896
#
# Compressibility (1/GPa) = 0.03476821
#
# Stress axis : x y z
#
# Youngs Moduli (GPa) = 98.54142 69.02585 58.01693
#
# Poissons Ratio (x) = 0.03093 0.19483
# Poissons Ratio (y) = 0.04416 -0.01477
# Poissons Ratio (z) = 0.33093 -0.01758
#
# Static dielectric constant tensor:
#      x y z
#    x 1.830600 0.000000 0.035670 
#    y 0.000000 1.800190 0.000000 
#    z 0.035670 0.000000 1.791770 
# 
# From -- ./inp_files/59516.got.cif
#   From: 2010.05.17/outbox.cif.g08.bks.cpg/sg11_30_cif.got.tgz:59516.got - 2010.06.03 12:22:45.
