data_PCOD9160682
_publ_section_title
;
Structure prediction by ZEFSAII (Michael W. Deem and Ramdas Pophale) SiO2 
 PCOD9160682
Probable space group: P 21/M
;
_chemical_formula_sum "Si O2"
_cell_formula_units_Z 32
_cell_length_a 22.004100
_cell_length_b 8.555187
_cell_length_c 28.259664
_cell_angle_alpha 90.000000
_cell_angle_beta 161.328306
_cell_angle_gamma 90.000000
_cell_volume 1703.126208
_symmetry_space_group_name_H-M "P 21/M"
_symmetry_group_IT_number 11
_symmetry_cell_setting 'monoclinic'
loop_
_space_group_symop_operation_xyz
x,y,z
-x,1/2+y,-z
-x,-y,-z
x,1/2-y,z
loop_
_atom_site_type_symbol
_atom_site_label
_atom_site_fract_x
_atom_site_fract_y
_atom_site_fract_z
Si Si1 0.286821 0.062034 0.344189
Si Si2 0.006919 0.436213 0.799205
Si Si3 0.323250 0.559793 0.677741
Si Si4 0.082768 0.064739 0.657216
Si Si5 0.857686 0.433178 0.199435
Si Si6 0.447612 0.936241 0.875051
Si Si7 0.313077 0.062783 0.106908
Si Si8 0.014192 0.936303 0.957557
O O1 0.286276 0.250000 0.345199
O O2 0.500000 0.000000 0.500000
O O3 0.177633 0.996081 0.309384
O O4 0.160259 0.011435 0.205238
O O5 0.998724 0.250000 0.786142
O O6 0.043640 0.519084 0.776765
O O7 0.182078 0.468877 0.964190
O O8 0.322659 0.750000 0.676041
O O9 0.395335 0.515616 0.782907
O O10 0.475997 0.508100 0.751117
O O11 0.109003 0.508883 0.510006
O O12 0.106542 0.250000 0.666675
O O13 0.062564 0.030324 0.697745
O O14 0.267727 0.977002 0.774534
O O15 0.879445 0.250000 0.224609
O O16 0.635833 0.476607 0.030608
O O17 0.484442 0.750000 0.902793
O O18 0.315859 0.250000 0.115720
O O19 0.206244 0.988681 0.072529
O O20 0.009036 0.750000 0.955489
O O21 0.000000 0.000000 0.000000
#
# Coordination Sequence:
#
# PCOD9160682 Si02
#       8
#     4   4   4   4   4   4   4   4
#     4  10  21  38  60  89 121 153 194 237 283 339
#     4  10  19  36  63  88 114 151 192 237 288 340
#     4   9  19  37  61  86 114 148 189 234 287 345
#     4  11  23  39  57  84 118 153 189 236 293 344
#     4  12  24  39  58  84 116 153 195 239 285 340
#     4  11  21  39  63  86 112 147 192 239 288 347
#     4   9  17  35  61  86 112 148 189 233 281 339
#     4  10  21  37  58  87 118 152 191 236 281 335
#
# _framework density 18.788976999999999
#
# number of rings (size 3 to 8) (size 9 to 14) (size 15 to 20)
#    0.000    1.750    1.250    3.750    0.000    2.000 
#    2.250    3.125    0.000    0.000    0.000    0.000 
#    0.000    0.000    0.000    0.000    0.000    0.000 
#
# Total GULP energy -178775.645806 kJ/mol
# GULP energy per Si atom -5586.738931 kJ/mol
# Density = 1.874621 g / cm^3
# Si number density = 18.788977 Si / 1000 Ang^3
#
#
#
# Elastic Constant Matrix: (Units=GPa)
#
#
# Indices 1 2 3 4 5 6 
#
# 1 83.6578 3.1412 -0.9000 0.0000 10.1911 0.0000
# 2 3.1412 17.3454 -1.4215 0.0000 3.4324 0.0000
# 3 -0.9000 -1.4215 42.8704 0.0000 14.1564 0.0000
# 4 0.0000 0.0000 0.0000 19.9756 0.0000 5.9249
# 5 10.1911 3.4324 14.1564 0.0000 28.6998 0.0000
# 6 0.0000 0.0000 0.0000 5.9249 0.0000 29.5167
#
#
#
# Elastic Compliance Matrix: (Units=1/GPa)
#
#
# Indices 1 2 3 4 5 6 
#
# 1 0.012668 -0.001070 0.001999 0.000000 -0.005356 0.000000
# 2 -0.001070 0.060098 0.005039 0.000000 -0.009293 0.000000
# 3 0.001999 0.005039 0.028632 0.000000 -0.015436 0.000000
# 4 0.000000 0.000000 0.000000 0.053230 0.000000 -0.010685
# 5 -0.005356 -0.009293 -0.015436 0.000000 0.045470 0.000000
# 6 0.000000 0.000000 0.000000 -0.010685 0.000000 0.036024
#
#
# Mechanical properties :
#
#
# Convention : Reuss Voigt Hill
#
# Bulk Modulus (GPa) = 8.82355 16.16811 12.49583
# Shear Modulus (GPa) = 19.08653 25.17534 22.13094
#
# Velocity S-wave (km/s) = 3.19068 3.66444 3.43573
# Velocity P-wave (km/s) = 4.27554 5.15052 4.73329
#
# Compressibility (1/GPa) = 0.11333303
#
# Stress axis : x y z
#
# Youngs Moduli (GPa) = 78.94118 16.63953 34.92574
#
# Poissons Ratio (x) = 0.01781 -0.06982
# Poissons Ratio (y) = 0.08449 -0.17598
# Poissons Ratio (z) = -0.15782 -0.08384
#
# Static dielectric constant tensor:
#      x y z
#    x 1.635940 0.000000 -0.000790 
#    y 0.000000 1.635460 0.000000 
#    z -0.000790 0.000000 1.642060 
# 
# From -- ./inp_files/72169.got.cif
#   From: 2010.05.17/outbox.cif.g08.bks.cpg/sg11_37_cif.got.tgz:72169.got - 2010.06.03 12:22:45.
