data_PCOD9160431
_publ_section_title
;
Structure prediction by ZEFSAII (Michael W. Deem and Ramdas Pophale) SiO2 
 PCOD9160431
Probable space group: P 21/M
;
_chemical_formula_sum "Si O2"
_cell_formula_units_Z 28
_cell_length_a 9.570399
_cell_length_b 13.524363
_cell_length_c 13.705402
_cell_angle_alpha 90.000000
_cell_angle_beta 61.531309
_cell_angle_gamma 90.000000
_cell_volume 1559.430113
_symmetry_space_group_name_H-M "P 21/M"
_symmetry_group_IT_number 11
_symmetry_cell_setting 'monoclinic'
loop_
_space_group_symop_operation_xyz
x,y,z
-x,1/2+y,-z
-x,-y,-z
x,1/2-y,z
loop_
_atom_site_type_symbol
_atom_site_label
_atom_site_fract_x
_atom_site_fract_y
_atom_site_fract_z
Si Si1 0.888264 0.523213 0.446473
Si Si2 0.664100 0.366805 0.942187
Si Si3 0.603754 0.634766 0.623939
Si Si4 0.353852 0.136453 0.741590
Si Si5 0.493159 0.493345 0.163573
Si Si6 0.993600 0.636966 0.234702
Si Si7 0.618618 0.133776 0.484288
O O1 0.767649 0.611600 0.514321
O O2 0.994139 0.558849 0.321443
O O3 0.769945 0.433795 0.456998
O O4 0.000000 0.500000 0.500000
O O5 0.625843 0.250000 0.945628
O O6 0.610618 0.430557 0.865863
O O7 0.854786 0.376292 0.884955
O O8 0.576595 0.416507 0.062757
O O9 0.591190 0.750000 0.652711
O O10 0.596589 0.567544 0.722259
O O11 0.463505 0.611199 0.592686
O O12 0.376287 0.250000 0.766652
O O13 0.383247 0.060869 0.818506
O O14 0.176727 0.126682 0.759462
O O15 0.483325 0.119383 0.612414
O O16 0.004843 0.750000 0.269112
O O17 0.660264 0.250000 0.471037
#
# Coordination Sequence:
#
# PCOD9160431 Si02
#       7
#     4   4   4   4   4   4   4
#     4  12  22  34  54  84 118 150 186 231 284 339
#     4  10  23  41  57  80 114 150 192 235 282 337
#     4  11  21  36  58  85 113 148 189 235 283 334
#     4  10  19  35  60  86 112 147 191 232 275 335
#     4  11  21  37  61  84 109 147 192 236 284 332
#     4  10  21  37  56  80 113 150 187 232 281 334
#     4  10  21  37  57  84 119 154 189 228 277 341
#
# _framework density 17.955276999999999
#
# number of rings (size 3 to 8) (size 9 to 14) (size 15 to 20)
#    0.000    1.429    2.857    3.429    0.000    1.714 
#    0.000    0.000    0.000    1.714    0.000    0.000 
#    0.000    0.000    0.000    0.000    0.000    0.000 
#
# Total GULP energy -156319.928109 kJ/mol
# GULP energy per Si atom -5582.854575 kJ/mol
# Density = 1.791441 g / cm^3
# Si number density = 17.955277 Si / 1000 Ang^3
#
#
#
# Elastic Constant Matrix: (Units=GPa)
#
#
# Indices 1 2 3 4 5 6 
#
# 1 37.0724 26.1153 20.2833 0.0000 1.3330 0.0000
# 2 26.1153 104.4158 30.1639 0.0000 5.2121 0.0000
# 3 20.2833 30.1639 62.8936 0.0000 1.3787 0.0000
# 4 0.0000 0.0000 0.0000 28.2783 0.0000 1.4163
# 5 1.3330 5.2121 1.3787 0.0000 26.4402 0.0000
# 6 0.0000 0.0000 0.0000 1.4163 0.0000 23.6020
#
#
#
# Elastic Compliance Matrix: (Units=1/GPa)
#
#
# Indices 1 2 3 4 5 6 
#
# 1 0.036304 -0.006610 -0.008536 0.000000 -0.000082 0.000000
# 2 -0.006610 0.012419 -0.003782 0.000000 -0.001918 0.000000
# 3 -0.008536 -0.003782 0.020464 0.000000 0.000109 0.000000
# 4 0.000000 0.000000 0.000000 0.035469 0.000000 -0.002128
# 5 -0.000082 -0.001918 0.000109 0.000000 0.038198 0.000000
# 6 0.000000 0.000000 0.000000 -0.002128 0.000000 0.042497
#
#
# Mechanical properties :
#
#
# Convention : Reuss Voigt Hill
#
# Bulk Modulus (GPa) = 31.91799 39.72296 35.82048
# Shear Modulus (GPa) = 21.39946 24.18538 22.79242
#
# Velocity S-wave (km/s) = 3.45602 3.67410 3.56673
# Velocity P-wave (km/s) = 5.80865 6.33798 6.07908
#
# Compressibility (1/GPa) = 0.03133029
#
# Stress axis : x y z
#
# Youngs Moduli (GPa) = 27.54535 80.52421 48.86537
#
# Poissons Ratio (x) = 0.53225 0.41712
# Poissons Ratio (y) = 0.18207 0.18482
# Poissons Ratio (z) = 0.23513 0.30456
#
# Static dielectric constant tensor:
#      x y z
#    x 1.593280 0.000000 0.008710 
#    y 0.000000 1.626000 0.000000 
#    z 0.008710 0.000000 1.591450 
# 
# From -- ./inp_files/17726.got.cif
#   From: 2010.05.17/outbox.cif.g08.bks.cpg/sg11_9_cif.got.tgz:17726.got - 2010.06.03 12:22:45.
