data_PCOD9160289
_publ_section_title
;
Structure prediction by ZEFSAII (Michael W. Deem and Ramdas Pophale) SiO2 
 PCOD9160289
Probable space group: P 21/M
;
_chemical_formula_sum "Si O2"
_cell_formula_units_Z 28
_cell_length_a 13.575464
_cell_length_b 13.791307
_cell_length_c 20.732789
_cell_angle_alpha 90.000000
_cell_angle_beta 160.954066
_cell_angle_gamma 90.000000
_cell_volume 1266.687863
_symmetry_space_group_name_H-M "P 21/M"
_symmetry_group_IT_number 11
_symmetry_cell_setting 'monoclinic'
loop_
_space_group_symop_operation_xyz
x,y,z
-x,1/2+y,-z
-x,-y,-z
x,1/2-y,z
loop_
_atom_site_type_symbol
_atom_site_label
_atom_site_fract_x
_atom_site_fract_y
_atom_site_fract_z
Si Si1 0.631919 0.061369 0.394028
Si Si2 0.656671 0.022371 0.268253
Si Si3 0.818417 0.463368 0.724666
Si Si4 0.421448 0.859621 0.301611
Si Si5 0.311670 0.362628 0.809094
Si Si6 0.344397 0.136105 0.973190
Si Si7 0.937280 0.858814 0.885595
O O1 0.513317 0.052472 0.247140
O O2 0.389200 0.120803 0.284406
O O3 0.955211 0.112315 0.594134
O O4 0.644651 0.950657 0.428268
O O5 0.561825 0.927121 0.170211
O O6 0.603289 0.107134 0.183951
O O7 0.000000 0.000000 0.500000
O O8 0.500000 0.500000 0.500000
O O9 0.747233 0.383678 0.735779
O O10 0.961816 0.555796 0.849321
O O11 0.046228 0.420695 0.812784
O O12 0.546285 0.750000 0.379619
O O13 0.182626 0.865892 0.094794
O O14 0.353534 0.250000 0.821596
O O15 0.437764 0.386985 0.957840
O O16 0.279457 0.250000 0.934995
O O17 0.950934 0.750000 0.867079
#
# Coordination Sequence:
#
# PCOD9160289 Si02
#       7
#     4   4   4   4   4   4   4
#     4  10  19  35  57  83 112 148 192 240 291 347
#     4  10  22  38  59  87 114 145 196 256 303 343
#     4  11  22  36  58  90 126 156 191 237 283 347
#     4  10  20  34  53  80 115 153 191 235 287 344
#     4  10  22  39  59  82 112 151 194 242 295 347
#     4  11  22  39  63  87 116 159 202 240 289 350
#     4  10  20  35  56  83 117 154 192 234 285 346
#
# _framework density 22.104892
#
# number of rings (size 3 to 8) (size 9 to 14) (size 15 to 20)
#    0.000    1.714    0.000    6.429    0.000    6.857 
#    0.000    2.857    0.000    5.143    0.000    0.000 
#    0.000    0.000    0.000    0.000    0.000    0.000 
#
# Total GULP energy -156497.805113 kJ/mol
# GULP energy per Si atom -5589.207325 kJ/mol
# Density = 2.205458 g / cm^3
# Si number density = 22.104892 Si / 1000 Ang^3
#
#
#
# Elastic Constant Matrix: (Units=GPa)
#
#
# Indices 1 2 3 4 5 6 
#
# 1 61.6875 12.1342 18.7084 0.0000 -19.5992 0.0000
# 2 12.1342 113.7835 6.8635 0.0000 -18.0683 0.0000
# 3 18.7084 6.8635 71.0907 0.0000 -4.5402 0.0000
# 4 0.0000 0.0000 0.0000 24.9149 0.0000 -1.4831
# 5 -19.5992 -18.0683 -4.5402 0.0000 32.7098 0.0000
# 6 0.0000 0.0000 0.0000 -1.4831 0.0000 20.7474
#
#
#
# Elastic Compliance Matrix: (Units=1/GPa)
#
#
# Indices 1 2 3 4 5 6 
#
# 1 0.021591 -0.000067 -0.004895 0.000000 0.012221 0.000000
# 2 -0.000067 0.009659 -0.000582 0.000000 0.005215 0.000000
# 3 -0.004895 -0.000582 0.015339 0.000000 -0.001125 0.000000
# 4 0.000000 0.000000 0.000000 0.040308 0.000000 0.002881
# 5 0.012221 0.005215 -0.001125 0.000000 0.040619 0.000000
# 6 0.000000 0.000000 0.000000 0.002881 0.000000 0.048405
#
#
# Mechanical properties :
#
#
# Convention : Reuss Voigt Hill
#
# Bulk Modulus (GPa) = 28.16762 35.77487 31.97124
# Shear Modulus (GPa) = 25.14561 29.59814 27.37188
#
# Velocity S-wave (km/s) = 3.37643 3.66319 3.52273
# Velocity P-wave (km/s) = 5.28874 5.84048 5.57144
#
# Compressibility (1/GPa) = 0.03550176
#
# Stress axis : x y z
#
# Youngs Moduli (GPa) = 46.31524 103.53145 65.19313
#
# Poissons Ratio (x) = 0.00690 0.31912
# Poissons Ratio (y) = 0.00309 0.03794
# Poissons Ratio (z) = 0.22672 0.06025
#
# Static dielectric constant tensor:
#      x y z
#    x 1.854620 0.000000 0.030370 
#    y 0.000000 1.791030 0.000000 
#    z 0.030370 0.000000 1.874430 
# 
# From -- ./inp_files/65663.got.cif
#   From: 2010.05.17/outbox.cif.g08.bks.cpg/sg11_33_cif.got.tgz:65663.got - 2010.06.03 12:22:45.
