data_PCOD9160372
_publ_section_title
;
Structure prediction by ZEFSAII (Michael W. Deem and Ramdas Pophale) SiO2 
 PCOD9160372
Probable space group: P 21/M
;
_chemical_formula_sum "Si O2"
_cell_formula_units_Z 32
_cell_length_a 15.079815
_cell_length_b 19.163222
_cell_length_c 11.197638
_cell_angle_alpha 90.000000
_cell_angle_beta 149.300413
_cell_angle_gamma 90.000000
_cell_volume 1652.030084
_symmetry_space_group_name_H-M "P 21/M"
_symmetry_group_IT_number 11
_symmetry_cell_setting 'monoclinic'
loop_
_space_group_symop_operation_xyz
x,y,z
-x,1/2+y,-z
-x,-y,-z
x,1/2-y,z
loop_
_atom_site_type_symbol
_atom_site_label
_atom_site_fract_x
_atom_site_fract_y
_atom_site_fract_z
Si Si1 0.495678 0.064947 0.313256
Si Si2 0.942701 0.671092 0.083023
Si Si3 0.310737 0.572680 0.132086
Si Si4 0.435361 0.169432 0.444908
Si Si5 0.357749 0.419567 0.888039
Si Si6 0.142870 0.941399 0.176755
Si Si7 0.954040 0.832969 0.372660
Si Si8 0.289880 0.579474 0.828814
O O1 0.493176 0.135903 0.385536
O O2 0.679100 0.030822 0.559769
O O3 0.355275 0.009372 0.197875
O O4 0.458835 0.075826 0.132193
O O5 0.009168 0.750000 0.154483
O O6 0.080549 0.617555 0.194545
O O7 0.895884 0.657705 0.167120
O O8 0.772162 0.665517 0.803494
O O9 0.475907 0.621027 0.353668
O O10 0.177897 0.588567 0.084707
O O11 0.260197 0.582156 0.936868
O O12 0.486866 0.250000 0.516311
O O13 0.284481 0.498046 0.781174
O O14 0.195221 0.368003 0.718290
O O15 0.510802 0.399694 0.972840
O O16 0.000000 0.000000 0.000000
O O17 0.971183 0.750000 0.415583
O O18 0.138073 0.872981 0.598254
#
# Coordination Sequence:
#
# PCOD9160372 Si02
#       8
#     4   4   4   4   4   4   4   4
#     4  10  19  36  60  84 115 148 201 251 295 350
#     4  10  21  37  57  87 119 149 197 251 302 352
#     4  10  22  39  57  83 119 157 194 242 294 365
#     4  10  19  35  59  81 113 154 190 239 295 353
#     4  10  21  41  67  91 120 165 211 261 311 365
#     4  11  21  33  58  91 119 156 195 247 307 362
#     4  11  23  41  66  92 125 162 204 268 320 365
#     4  10  23  42  61  93 125 163 210 254 306 378
#
# _framework density 19.370107000000001
#
# number of rings (size 3 to 8) (size 9 to 14) (size 15 to 20)
#    0.000    1.750    1.250    4.125    1.750    3.000 
#    9.000    0.000    0.000    0.000    0.000    0.000 
#    0.000    0.000    0.000    0.000    0.000    0.000 
#
# Total GULP energy -178503.116756 kJ/mol
# GULP energy per Si atom -5578.222399 kJ/mol
# Density = 1.932602 g / cm^3
# Si number density = 19.370107 Si / 1000 Ang^3
#
#
#
# Elastic Constant Matrix: (Units=GPa)
#
#
# Indices 1 2 3 4 5 6 
#
# 1 57.8619 26.9912 8.7297 0.0000 12.9877 0.0000
# 2 26.9912 76.8157 23.5831 0.0000 5.4799 0.0000
# 3 8.7297 23.5831 61.8981 0.0000 5.0064 0.0000
# 4 0.0000 0.0000 0.0000 26.9080 0.0000 0.4718
# 5 12.9877 5.4799 5.0064 0.0000 23.2194 0.0000
# 6 0.0000 0.0000 0.0000 0.4718 0.0000 19.9650
#
#
#
# Elastic Compliance Matrix: (Units=1/GPa)
#
#
# Indices 1 2 3 4 5 6 
#
# 1 0.023260 -0.007518 0.000501 0.000000 -0.011344 0.000000
# 2 -0.007518 0.017295 -0.005637 0.000000 0.001339 0.000000
# 3 0.000501 -0.005637 0.018470 0.000000 -0.002932 0.000000
# 4 0.000000 0.000000 0.000000 0.037179 0.000000 -0.000879
# 5 -0.011344 0.001339 -0.002932 0.000000 0.049729 0.000000
# 6 0.000000 0.000000 0.000000 -0.000879 0.000000 0.050108
#
#
# Mechanical properties :
#
#
# Convention : Reuss Voigt Hill
#
# Bulk Modulus (GPa) = 29.65827 35.02040 32.33934
# Shear Modulus (GPa) = 21.49725 23.16994 22.33359
#
# Velocity S-wave (km/s) = 3.33500 3.46232 3.39926
# Velocity P-wave (km/s) = 5.49311 5.83973 5.66907
#
# Compressibility (1/GPa) = 0.03371740
#
# Stress axis : x y z
#
# Youngs Moduli (GPa) = 42.99216 57.82051 54.14225
#
# Poissons Ratio (x) = 0.43467 -0.02714
# Poissons Ratio (y) = 0.32320 0.30522
# Poissons Ratio (z) = -0.02155 0.32596
#
# Static dielectric constant tensor:
#      x y z
#    x 1.689530 0.000000 0.024000 
#    y 0.000000 1.661710 0.000000 
#    z 0.024000 0.000000 1.687420 
# 
# From -- ./inp_files/40045.got.cif
#   From: 2010.05.17/outbox.cif.g08.bks.cpg/sg11_21_cif.got.tgz:40045.got - 2010.06.03 12:22:45.
