data_PCOD9160468
_publ_section_title
;
Structure prediction by ZEFSAII (Michael W. Deem and Ramdas Pophale) SiO2 
 PCOD9160468
Probable space group: P 21/M
;
_chemical_formula_sum "Si O2"
_cell_formula_units_Z 32
_cell_length_a 14.674059
_cell_length_b 21.945396
_cell_length_c 9.051365
_cell_angle_alpha 90.000000
_cell_angle_beta 149.393884
_cell_angle_gamma 90.000000
_cell_volume 1484.018304
_symmetry_space_group_name_H-M "P 21/M"
_symmetry_group_IT_number 11
_symmetry_cell_setting 'monoclinic'
loop_
_space_group_symop_operation_xyz
x,y,z
-x,1/2+y,-z
-x,-y,-z
x,1/2-y,z
loop_
_atom_site_type_symbol
_atom_site_label
_atom_site_fract_x
_atom_site_fract_y
_atom_site_fract_z
Si Si1 0.529200 0.633483 0.207224
Si Si2 0.780427 0.179300 0.802707
Si Si3 0.369607 0.323399 0.203506
Si Si4 0.403704 0.979961 0.218254
Si Si5 0.137533 0.323144 0.160243
Si Si6 0.971115 0.439922 0.364442
Si Si7 0.160557 0.684241 0.767686
Si Si8 0.652612 0.590605 0.088429
O O1 0.500541 0.575950 0.273690
O O2 0.719269 0.662833 0.511420
O O3 0.513403 0.609280 0.018656
O O4 0.369274 0.680013 0.017937
O O5 0.760463 0.250000 0.728093
O O6 0.576661 0.155232 0.517361
O O7 0.849330 0.180779 0.067675
O O8 0.939696 0.152156 0.924568
O O9 0.367755 0.250000 0.201185
O O10 0.235012 0.344235 0.145389
O O11 0.315404 0.351733 0.972333
O O12 0.500000 0.000000 0.500000
O O13 0.394064 0.035037 0.085878
O O14 0.202791 0.955864 0.973479
O O15 0.121191 0.250000 0.127114
O O16 0.921952 0.380379 0.394161
O O17 0.000000 0.500000 0.500000
O O18 0.165003 0.426137 0.570047
O O19 0.086980 0.750000 0.615214
#
# Coordination Sequence:
#
# PCOD9160468 Si02
#       8
#     4   4   4   4   4   4   4   4
#     4  11  21  36  60  91 127 165 211 266 333 398
#     4   9  18  34  58  89 123 162 211 271 319 375
#     4  10  21  38  60  91 131 168 212 267 321 387
#     4  10  22  42  68  88 116 169 220 270 328 397
#     4  10  19  35  61  89 122 167 217 261 317 391
#     4   9  21  40  61  90 129 166 212 278 339 395
#     4  10  19  35  62  91 126 172 222 272 331 403
#     4  11  23  40  61  90 130 167 206 268 338 397
#
# _framework density 21.563077
#
# number of rings (size 3 to 8) (size 9 to 14) (size 15 to 20)
#    0.000    2.000    1.250    2.250    1.750    1.500 
#    4.500    0.625    0.000    0.000    0.000    0.000 
#    0.000    0.000    0.000    0.000    0.000    0.000 
#
# Total GULP energy -178489.627283 kJ/mol
# GULP energy per Si atom -5577.800853 kJ/mol
# Density = 2.151400 g / cm^3
# Si number density = 21.563077 Si / 1000 Ang^3
#
#
#
# Elastic Constant Matrix: (Units=GPa)
#
#
# Indices 1 2 3 4 5 6 
#
# 1 118.6071 30.4119 43.7556 0.0000 14.7388 0.0000
# 2 30.4119 99.7168 16.0125 0.0000 0.3245 0.0000
# 3 43.7556 16.0125 75.3543 0.0000 11.8095 0.0000
# 4 0.0000 0.0000 0.0000 27.9886 0.0000 -3.3349
# 5 14.7388 0.3245 11.8095 0.0000 31.8700 0.0000
# 6 0.0000 0.0000 0.0000 -3.3349 0.0000 13.1066
#
#
#
# Elastic Compliance Matrix: (Units=1/GPa)
#
#
# Indices 1 2 3 4 5 6 
#
# 1 0.011596 -0.002615 -0.005670 0.000000 -0.003235 0.000000
# 2 -0.002615 0.010990 -0.001050 0.000000 0.001487 0.000000
# 3 -0.005670 -0.001050 0.017383 0.000000 -0.003808 0.000000
# 4 0.000000 0.000000 0.000000 0.036846 0.000000 0.009375
# 5 -0.003235 0.001487 -0.003808 0.000000 0.034269 0.000000
# 6 0.000000 0.000000 0.000000 0.009375 0.000000 0.078683
#
#
# Mechanical properties :
#
#
# Convention : Reuss Voigt Hill
#
# Bulk Modulus (GPa) = 46.95350 52.67091 49.81220
# Shear Modulus (GPa) = 23.19786 28.15959 25.67872
#
# Velocity S-wave (km/s) = 3.28352 3.61767 3.45464
# Velocity P-wave (km/s) = 6.01644 6.47530 6.25008
#
# Compressibility (1/GPa) = 0.02129767
#
# Stress axis : x y z
#
# Youngs Moduli (GPa) = 86.23892 90.99386 57.52691
#
# Poissons Ratio (x) = 0.23798 0.32621
# Poissons Ratio (y) = 0.22555 0.06038
# Poissons Ratio (z) = 0.48902 0.09551
#
# Static dielectric constant tensor:
#      x y z
#    x 1.783170 0.000000 0.041630 
#    y 0.000000 1.834880 0.000000 
#    z 0.041630 0.000000 1.831280 
# 
# From -- ./inp_files/23384.got.cif
#   From: 2010.05.17/outbox.cif.g08.bks.cpg/sg11_12_cif.got.tgz:23384.got - 2010.06.03 12:22:45.
