data_PCOD9160476
_publ_section_title
;
Structure prediction by ZEFSAII (Michael W. Deem and Ramdas Pophale) SiO2 
 PCOD9160476
Probable space group: P 21/M
;
_chemical_formula_sum "Si O2"
_cell_formula_units_Z 32
_cell_length_a 15.544823
_cell_length_b 13.418226
_cell_length_c 22.453415
_cell_angle_alpha 90.000000
_cell_angle_beta 160.565237
_cell_angle_gamma 90.000000
_cell_volume 1558.330680
_symmetry_space_group_name_H-M "P 21/M"
_symmetry_group_IT_number 11
_symmetry_cell_setting 'monoclinic'
loop_
_space_group_symop_operation_xyz
x,y,z
-x,1/2+y,-z
-x,-y,-z
x,1/2-y,z
loop_
_atom_site_type_symbol
_atom_site_label
_atom_site_fract_x
_atom_site_fract_y
_atom_site_fract_z
Si Si1 0.850200 0.630260 0.227217
Si Si2 0.565000 0.863575 0.565003
Si Si3 0.867892 0.576622 0.867892
Si Si4 0.223242 0.365776 0.430079
Si Si5 0.949394 0.634223 0.156236
Si Si6 0.312524 0.958561 0.081632
Si Si7 0.641738 0.369738 0.018748
Si Si8 0.611053 0.041440 0.380161
O O1 0.856869 0.750000 0.234186
O O2 0.837937 0.607411 0.148654
O O3 0.600709 0.595182 0.100713
O O4 0.115573 0.592258 0.429584
O O5 0.625670 0.750000 0.625675
O O6 0.696262 0.938791 0.696258
O O7 0.680997 0.873429 0.575348
O O8 0.258382 0.873434 0.364045
O O9 0.628238 0.611434 0.753913
O O10 0.000000 0.500000 0.000000
O O11 0.130947 0.611435 0.005271
O O12 0.254357 0.250000 0.468632
O O13 0.379029 0.441946 0.572435
O O14 0.919208 0.392595 0.229911
O O15 0.888549 0.750000 0.102822
O O16 0.847343 0.558052 0.040750
O O17 0.551154 0.999999 0.275580
O O18 0.371637 0.907741 0.057624
O O19 0.633860 0.250000 0.011174
#
# Coordination Sequence:
#
# PCOD9160476 Si02
#       8
#     4   4   4   4   4   4   4   4
#     4  10  22  40  61  85 113 150 200 250 294 345
#     4  10  19  35  62  88 115 156 203 241 285 345
#     4  10  21  35  53  90 125 152 189 229 288 349
#     4  10  21  37  59  87 114 149 197 247 290 343
#     4  10  21  37  59  87 114 149 197 247 290 343
#     4  11  23  37  58  87 122 159 190 234 295 356
#     4  10  22  40  61  85 113 150 200 250 294 345
#     4  11  23  37  58  87 122 159 190 234 295 356
#
# _framework density 20.534794000000002
#
# number of rings (size 3 to 8) (size 9 to 14) (size 15 to 20)
#    0.000    1.750    2.500    1.500    0.000    4.500 
#    0.000    3.750    0.000    3.000    0.000    0.000 
#    0.000    0.000    0.000    0.000    0.000    0.000 
#
# Total GULP energy -178345.212334 kJ/mol
# GULP energy per Si atom -5573.287885 kJ/mol
# Density = 2.048806 g / cm^3
# Si number density = 20.534794 Si / 1000 Ang^3
#
#
#
# Elastic Constant Matrix: (Units=GPa)
#
#
# Indices 1 2 3 4 5 6 
#
# 1 81.9468 18.6087 56.2777 0.0000 16.6106 0.0000
# 2 18.6087 79.6340 25.2864 0.0000 -8.4507 0.0000
# 3 56.2777 25.2864 77.5918 0.0000 -11.1244 0.0000
# 4 0.0000 0.0000 0.0000 18.0619 0.0000 4.8319
# 5 16.6106 -8.4507 -11.1244 0.0000 41.3558 0.0000
# 6 0.0000 0.0000 0.0000 4.8319 0.0000 21.8840
#
#
#
# Elastic Compliance Matrix: (Units=1/GPa)
#
#
# Indices 1 2 3 4 5 6 
#
# 1 0.038971 -0.001796 -0.031180 0.000000 -0.024407 0.000000
# 2 -0.001796 0.014206 -0.002920 0.000000 0.002839 0.000000
# 3 -0.031180 -0.002920 0.039695 0.000000 0.022605 0.000000
# 4 0.000000 0.000000 0.000000 0.058841 0.000000 -0.012992
# 5 -0.024407 0.002839 0.022605 0.000000 0.040644 0.000000
# 6 0.000000 0.000000 0.000000 -0.012992 0.000000 0.048564
#
#
# Mechanical properties :
#
#
# Convention : Reuss Voigt Hill
#
# Bulk Modulus (GPa) = 47.43721 48.83534 48.13628
# Shear Modulus (GPa) = 15.63771 25.52701 20.58236
#
# Velocity S-wave (km/s) = 2.76256 3.52960 3.16937
# Velocity P-wave (km/s) = 5.77293 6.35957 6.07334
#
# Compressibility (1/GPa) = 0.02108050
#
# Stress axis : x y z
#
# Youngs Moduli (GPa) = 25.65981 70.39522 25.19187
#
# Poissons Ratio (x) = 0.12644 0.78548
# Poissons Ratio (y) = 0.04609 0.07355
# Poissons Ratio (z) = 0.80008 0.20553
#
# Static dielectric constant tensor:
#      x y z
#    x 1.732750 0.000000 0.035640 
#    y 0.000000 1.819670 0.000000 
#    z 0.035640 0.000000 1.704550 
# 
# From -- ./inp_files/18062.got.cif
#   From: 2010.05.17/outbox.cif.g08.bks.cpg/sg11_10_cif.got.tgz:18062.got - 2010.06.03 12:22:45.
