data_PCOD9160947
_publ_section_title
;
Structure prediction by ZEFSAII (Michael W. Deem and Ramdas Pophale) SiO2 
 PCOD9160947
Probable space group: P 21/M
;
_chemical_formula_sum "Si O2"
_cell_formula_units_Z 32
_cell_length_a 19.549997
_cell_length_b 7.385467
_cell_length_c 21.346409
_cell_angle_alpha 90.000000
_cell_angle_beta 151.768928
_cell_angle_gamma 90.000000
_cell_volume 1457.930811
_symmetry_space_group_name_H-M "P 21/M"
_symmetry_group_IT_number 11
_symmetry_cell_setting 'monoclinic'
loop_
_space_group_symop_operation_xyz
x,y,z
-x,1/2+y,-z
-x,-y,-z
x,1/2-y,z
loop_
_atom_site_type_symbol
_atom_site_label
_atom_site_fract_x
_atom_site_fract_y
_atom_site_fract_z
Si Si1 0.238386 0.528208 0.505087
Si Si2 0.917883 0.970458 0.254946
Si Si3 0.113950 0.465827 0.038665
Si Si4 0.493371 0.030046 0.191870
Si Si5 0.673961 0.465793 0.563330
Si Si6 0.652062 0.532753 0.682247
Si Si7 0.832309 0.530474 0.048255
Si Si8 0.401535 0.465806 0.980373
O O1 0.239785 0.750000 0.505793
O O2 0.371001 0.469236 0.656808
O O3 0.260292 0.469603 0.449718
O O4 0.080333 0.471871 0.403417
O O5 0.919685 0.750000 0.260279
O O6 0.896237 0.028705 0.165417
O O7 0.765223 0.030514 0.162363
O O8 0.127365 0.250000 0.042754
O O9 0.261191 0.534633 0.187991
O O10 0.086172 0.536120 0.947148
O O11 0.000000 0.500000 0.000000
O O12 0.502167 0.250000 0.198438
O O13 0.336791 0.983290 0.094144
O O14 0.476533 0.968789 0.105658
O O15 0.668793 0.250000 0.551478
O O16 0.732626 0.492316 0.681467
O O17 0.510868 0.537442 0.442483
O O18 0.644231 0.750000 0.679126
O O19 0.839415 0.750000 0.057606
O O20 0.389670 0.250000 0.979025
O O21 0.500000 0.500000 0.000000
#
# Coordination Sequence:
#
# PCOD9160947 Si02
#       8
#     4   4   4   4   4   4   4   4
#     4   9  15  24  43  70  93 110 146 197 231 254
#     4   8  15  26  43  69  93 114 146 190 229 258
#     4  10  20  30  43  61  87 119 153 194 237 276
#     4   8  14  26  46  70  91 116 149 185 223 264
#     4   9  17  28  47  67  84 113 153 193 230 275
#     4   9  18  31  41  59  90 120 149 186 238 286
#     4   8  14  26  42  59  83 116 153 189 227 269
#     4   9  17  31  51  72  96 123 148 175 216 268
#
# _framework density 21.948913999999998
#
# number of rings (size 3 to 8) (size 9 to 14) (size 15 to 20)
#    0.000    3.250    0.000    2.250    1.750    3.500 
#    0.000    0.625    0.000    4.500    0.000    0.000 
#    0.000    0.000    0.000    0.000    0.000    0.000 
#
# Total GULP energy -178277.278997 kJ/mol
# GULP energy per Si atom -5571.164969 kJ/mol
# Density = 2.189896 g / cm^3
# Si number density = 21.948914 Si / 1000 Ang^3
#
#
#
# Elastic Constant Matrix: (Units=GPa)
#
#
# Indices 1 2 3 4 5 6 
#
# 1 122.1568 -4.9398 24.7981 0.0000 6.2508 0.0000
# 2 -4.9398 73.6087 -0.4027 0.0000 0.2564 0.0000
# 3 24.7981 -0.4027 72.7782 0.0000 21.6525 0.0000
# 4 0.0000 0.0000 0.0000 -3.4966 0.0000 -2.0713
# 5 6.2508 0.2564 21.6525 0.0000 24.3554 0.0000
# 6 0.0000 0.0000 0.0000 -2.0713 0.0000 15.5045
#
#
#
# Elastic Compliance Matrix: (Units=1/GPa)
#
#
# Indices 1 2 3 4 5 6 
#
# 1 0.008824 0.000573 -0.003165 0.000000 0.000543 0.000000
# 2 0.000573 0.013624 -0.000045 0.000000 -0.000250 0.000000
# 3 -0.003165 -0.000045 0.019819 0.000000 -0.016806 0.000000
# 4 0.000000 0.000000 0.000000 -0.265017 0.000000 -0.035404
# 5 0.000543 -0.000250 -0.016806 0.000000 0.055863 0.000000
# 6 0.000000 0.000000 0.000000 -0.035404 0.000000 0.059768
#
#
# Mechanical properties :
#
#
# Convention : Reuss Voigt Hill
#
# Bulk Modulus (GPa) = 27.03279 34.16168 30.59723
# Shear Modulus (GPa) = -55.85757 23.87853 -15.98952
#
# Velocity S-wave (km/s) = -5.05016 3.30193 -2.70198
# Velocity P-wave (km/s) = 4.65431 5.48953 2.05821
#
# Compressibility (1/GPa) = 0.03699211
#
# Stress axis : x y z
#
# Youngs Moduli (GPa) = 113.32602 73.39756 50.45730
#
# Poissons Ratio (x) = -0.04205 0.15970
# Poissons Ratio (y) = -0.06493 0.00229
# Poissons Ratio (z) = 0.35869 0.00334
#
# Static dielectric constant tensor:
#      x y z
#    x 1.807230 0.000000 0.007850 
#    y 0.000000 1.860630 0.000000 
#    z 0.007850 0.000000 1.847700 
# 
# From -- ./inp_files/26423.got.cif
#   From: 2010.05.17/outbox.cif.g08.bks.cpg/sg11_14_cif.got.tgz:26423.got - 2010.06.03 12:22:45.
