data_PCOD9160686
_publ_section_title
;
Structure prediction by ZEFSAII (Michael W. Deem and Ramdas Pophale) SiO2 
 PCOD9160686
Probable space group: P 21/M
;
_chemical_formula_sum "Si O2"
_cell_formula_units_Z 22
_cell_length_a 7.607990
_cell_length_b 14.993595
_cell_length_c 10.940508
_cell_angle_alpha 90.000000
_cell_angle_beta 130.192789
_cell_angle_gamma 90.000000
_cell_volume 953.315769
_symmetry_space_group_name_H-M "P 21/M"
_symmetry_group_IT_number 11
_symmetry_cell_setting 'monoclinic'
loop_
_space_group_symop_operation_xyz
x,y,z
-x,1/2+y,-z
-x,-y,-z
x,1/2-y,z
loop_
_atom_site_type_symbol
_atom_site_label
_atom_site_fract_x
_atom_site_fract_y
_atom_site_fract_z
Si Si1 0.843179 0.940723 0.836397
Si Si2 0.299737 0.750000 0.113229
Si Si3 0.037720 0.409478 0.366388
Si Si4 0.781580 0.750000 0.896785
Si Si5 0.570772 0.390177 0.626244
Si Si6 0.746356 0.750000 0.170907
Si Si7 0.099842 0.882187 0.443791
O O1 0.008153 0.909547 0.798261
O O2 0.714248 0.852017 0.829120
O O3 0.652966 0.008679 0.693300
O O4 0.000000 0.000000 0.000000
O O5 0.339006 0.833638 0.219766
O O6 0.481704 0.750000 0.087451
O O7 0.038762 0.750000 0.960012
O O8 0.299246 0.374995 0.497409
O O9 0.883359 0.365269 0.403058
O O10 0.053566 0.513777 0.404831
O O11 0.783543 0.750000 0.043901
O O12 0.694872 0.359372 0.557079
O O13 0.876544 0.832565 0.291505
#
# Coordination Sequence:
#
# PCOD9160686 Si02
#       7
#     4   2   4   2   4   2   4
#     4  11  22  40  66  90 131 177 198 255 326 376
#     4  12  22  39  67  91 121 169 213 264 313 383
#     4  10  22  39  64  98 126 159 216 261 313 379
#     4  12  24  44  60  90 134 166 211 258 322 392
#     4  11  21  42  67  95 125 166 215 264 316 374
#     4  12  22  39  63  95 121 171 220 254 321 377
#     4  10  19  36  63  92 124 158 206 267 307 367
#
# _framework density 23.077347
#
# number of rings (size 3 to 8) (size 9 to 14) (size 15 to 20)
#    0.000    1.091    5.455    3.273    0.000    1.455 
#    0.000   10.909    0.000    0.000    0.000    0.000 
#    0.000    0.000    0.000    0.000    0.000    0.000 
#
# Total GULP energy -122789.757964 kJ/mol
# GULP energy per Si atom -5581.352635 kJ/mol
# Density = 2.302482 g / cm^3
# Si number density = 23.077347 Si / 1000 Ang^3
#
#
#
# Elastic Constant Matrix: (Units=GPa)
#
#
# Indices 1 2 3 4 5 6 
#
# 1 129.1212 25.8328 31.0376 0.0000 -21.0207 0.0000
# 2 25.8328 79.9082 7.5964 0.0000 -13.6571 0.0000
# 3 31.0376 7.5964 74.6002 0.0000 -24.6843 0.0000
# 4 0.0000 0.0000 0.0000 28.5977 0.0000 -1.2503
# 5 -21.0207 -13.6571 -24.6843 0.0000 53.7800 0.0000
# 6 0.0000 0.0000 0.0000 -1.2503 0.0000 23.1052
#
#
#
# Elastic Compliance Matrix: (Units=1/GPa)
#
#
# Indices 1 2 3 4 5 6 
#
# 1 0.009224 -0.002420 -0.003067 0.000000 0.001583 0.000000
# 2 -0.002420 0.013722 0.000530 0.000000 0.002782 0.000000
# 3 -0.003067 0.000530 0.016831 0.000000 0.006661 0.000000
# 4 0.000000 0.000000 0.000000 0.035051 0.000000 0.001897
# 5 0.001583 0.002782 0.006661 0.000000 0.022977 0.000000
# 6 0.000000 0.000000 0.000000 0.001897 0.000000 0.043383
#
#
# Mechanical properties :
#
#
# Convention : Reuss Voigt Hill
#
# Bulk Modulus (GPa) = 33.48714 45.84035 39.66375
# Shear Modulus (GPa) = 31.04522 35.70742 33.37632
#
# Velocity S-wave (km/s) = 3.67177 3.93783 3.80713
# Velocity P-wave (km/s) = 5.70247 6.37042 6.04568
#
# Compressibility (1/GPa) = 0.02986221
#
# Stress axis : x y z
#
# Youngs Moduli (GPa) = 108.41527 72.87720 59.41405
#
# Poissons Ratio (x) = 0.17634 0.18225
# Poissons Ratio (y) = 0.26234 -0.03149
# Poissons Ratio (z) = 0.33256 -0.03863
#
# Static dielectric constant tensor:
#      x y z
#    x 1.868430 0.000000 -0.026520 
#    y 0.000000 2.000140 0.000000 
#    z -0.026520 0.000000 1.862750 
# 
# From -- ./inp_files/31602.got.cif
#   From: 2010.05.17/outbox.cif.g08.bks.cpg/sg11_16_cif.got.tgz:31602.got - 2010.06.03 12:22:45.
