data_PCOD9160990
_publ_section_title
;
Structure prediction by ZEFSAII (Michael W. Deem and Ramdas Pophale) SiO2 
 PCOD9160990
Probable space group: P 21/M
;
_chemical_formula_sum "Si O2"
_cell_formula_units_Z 32
_cell_length_a 11.069670
_cell_length_b 7.584713
_cell_length_c 20.713944
_cell_angle_alpha 90.000000
_cell_angle_beta 126.568309
_cell_angle_gamma 90.000000
_cell_volume 1396.791993
_symmetry_space_group_name_H-M "P 21/M"
_symmetry_group_IT_number 11
_symmetry_cell_setting 'monoclinic'
loop_
_space_group_symop_operation_xyz
x,y,z
-x,1/2+y,-z
-x,-y,-z
x,1/2-y,z
loop_
_atom_site_type_symbol
_atom_site_label
_atom_site_fract_x
_atom_site_fract_y
_atom_site_fract_z
Si Si1 0.943715 0.535620 0.886481
Si Si2 0.762675 0.034803 0.181616
Si Si3 0.172677 0.455779 0.537618
Si Si4 0.675911 0.537396 0.545911
Si Si5 0.715258 0.037896 0.026674
Si Si6 0.628881 0.036944 0.274647
Si Si7 0.328281 0.040785 0.125355
Si Si8 0.110075 0.036050 0.272181
O O1 0.954936 0.750000 0.892919
O O2 0.836335 0.468688 0.909131
O O3 0.862715 0.487783 0.793360
O O4 0.114655 0.473261 0.935136
O O5 0.755178 0.250000 0.179301
O O6 0.683204 0.975498 0.089359
O O7 0.702695 0.973732 0.231209
O O8 0.938327 0.985573 0.232869
O O9 0.168907 0.250000 0.524361
O O10 0.249006 0.532700 0.496790
O O11 0.278107 0.488679 0.632841
O O12 0.000000 0.500000 0.500000
O O13 0.500000 0.500000 0.500000
O O14 0.688558 0.750000 0.549647
O O15 0.772844 0.471217 0.637729
O O16 0.714647 0.250000 0.028448
O O17 0.625548 0.985532 0.934287
O O18 0.628063 0.250000 0.272550
O O19 0.456958 0.974558 0.214370
O O20 0.318756 0.250000 0.131722
O O21 0.112821 0.250000 0.274830
#
# Coordination Sequence:
#
# PCOD9160990 Si02
#       8
#     4   4   4   4   4   4   4   4
#     4   8  15  28  48  73  98 132 179 219 260 322
#     4   8  15  31  53  76 100 134 185 229 269 329
#     4  11  24  42  63  89 119 155 198 244 293 354
#     4  10  22  37  58  87 118 150 189 238 292 348
#     4   9  17  31  52  73  98 138 182 225 272 328
#     4  10  21  36  56  80 108 145 185 231 284 340
#     4  10  20  31  47  75 108 138 175 225 277 334
#     4   8  14  28  52  74  96 132 177 220 262 323
#
# _framework density 22.909638000000001
#
# number of rings (size 3 to 8) (size 9 to 14) (size 15 to 20)
#    0.000    2.750    0.000    3.000    1.750    4.000 
#    0.000    0.625    0.000    3.000    0.000    0.000 
#    0.000    0.000    0.000    0.000    0.000    0.000 
#
# Total GULP energy -178580.566465 kJ/mol
# GULP energy per Si atom -5580.642702 kJ/mol
# Density = 2.285749 g / cm^3
# Si number density = 22.909638 Si / 1000 Ang^3
#
#
#
# Elastic Constant Matrix: (Units=GPa)
#
#
# Indices 1 2 3 4 5 6 
#
# 1 104.9737 -1.4255 30.4354 0.0000 -15.4341 0.0000
# 2 -1.4255 49.0117 -7.1765 0.0000 1.6179 0.0000
# 3 30.4354 -7.1765 129.9436 0.0000 -11.7754 0.0000
# 4 0.0000 0.0000 0.0000 21.2881 0.0000 -2.6181
# 5 -15.4341 1.6179 -11.7754 0.0000 31.4456 0.0000
# 6 0.0000 0.0000 0.0000 -2.6181 0.0000 9.8728
#
#
#
# Elastic Compliance Matrix: (Units=1/GPa)
#
#
# Indices 1 2 3 4 5 6 
#
# 1 0.010805 -0.000147 -0.002130 0.000000 0.004513 0.000000
# 2 -0.000147 0.020585 0.001106 0.000000 -0.000717 0.000000
# 3 -0.002130 0.001106 0.008442 0.000000 0.002059 0.000000
# 4 0.000000 0.000000 0.000000 0.048558 0.000000 0.012877
# 5 0.004513 -0.000717 0.002059 0.000000 0.034824 0.000000
# 6 0.000000 0.000000 0.000000 0.012877 0.000000 0.104703
#
#
# Mechanical properties :
#
#
# Convention : Reuss Voigt Hill
#
# Bulk Modulus (GPa) = 26.67261 36.39954 31.53608
# Shear Modulus (GPa) = 20.59685 29.99433 25.29559
#
# Velocity S-wave (km/s) = 3.00166 3.62227 3.32647
# Velocity P-wave (km/s) = 4.86633 5.78077 5.34315
#
# Compressibility (1/GPa) = 0.03749164
#
# Stress axis : x y z
#
# Youngs Moduli (GPa) = 92.54682 48.57985 118.45256
#
# Poissons Ratio (x) = 0.00712 0.25229
# Poissons Ratio (y) = 0.01357 -0.13103
# Poissons Ratio (z) = 0.19712 -0.05374
#
# Static dielectric constant tensor:
#      x y z
#    x 1.838250 0.000000 -0.028520 
#    y 0.000000 1.861090 0.000000 
#    z -0.028520 0.000000 1.832390 
# 
# From -- ./inp_files/64422.got.cif
#   From: 2010.05.17/outbox.cif.g08.bks.cpg/sg11_33_cif.got.tgz:64422.got - 2010.06.03 12:22:45.
