data_PCOD9160580
_publ_section_title
;
Structure prediction by ZEFSAII (Michael W. Deem and Ramdas Pophale) SiO2 
 PCOD9160580
Probable space group: P 21/M
;
_chemical_formula_sum "Si O2"
_cell_formula_units_Z 30
_cell_length_a 25.191850
_cell_length_b 7.360412
_cell_length_c 15.556920
_cell_angle_alpha 90.000000
_cell_angle_beta 27.392566
_cell_angle_gamma 90.000000
_cell_volume 1327.160633
_symmetry_space_group_name_H-M "P 21/M"
_symmetry_group_IT_number 11
_symmetry_cell_setting 'monoclinic'
loop_
_space_group_symop_operation_xyz
x,y,z
-x,1/2+y,-z
-x,-y,-z
x,1/2-y,z
loop_
_atom_site_type_symbol
_atom_site_label
_atom_site_fract_x
_atom_site_fract_y
_atom_site_fract_z
Si Si1 0.102876 0.031205 0.144913
Si Si2 0.865122 0.964889 0.710075
Si Si3 0.935825 0.750000 0.303818
Si Si4 0.768721 0.454805 0.497406
Si Si5 0.672054 0.968904 0.272897
Si Si6 0.707067 0.528446 0.779980
Si Si7 0.523626 0.542048 0.326339
Si Si8 0.517564 0.028671 0.801756
O O1 0.080958 0.250000 0.177501
O O2 0.156935 0.979117 0.159850
O O3 0.195891 0.987894 0.936699
O O4 0.993264 0.909144 0.283351
O O5 0.844589 0.750000 0.738792
O O6 0.787310 0.034583 0.743834
O O7 0.000000 0.000000 0.500000
O O8 0.873139 0.591137 0.335998
O O9 0.791383 0.250000 0.435036
O O10 0.743594 0.453798 0.636033
O O11 0.648294 0.525392 0.631125
O O12 0.662724 0.750000 0.289400
O O13 0.599110 0.037232 0.295114
O O14 0.607314 0.039842 0.449822
O O15 0.717466 0.750000 0.757026
O O16 0.576024 0.479246 0.992235
O O17 0.564300 0.750000 0.259428
O O18 0.526570 0.463062 0.227455
O O19 0.518616 0.250000 0.798008
#
# Coordination Sequence:
#
# PCOD9160580 Si02
#       8
#     4   4   2   4   4   4   4   4
#     4  10  22  39  59  86 119 157 198 240 293 356
#     4  10  21  33  53  81 117 155 193 234 282 343
#     4  12  24  40  62  84 110 156 202 254 292 348
#     4  11  23  40  60  84 115 155 202 251 298 345
#     4   9  18  34  57  91 125 154 185 235 293 358
#     4  10  19  36  59  84 118 160 200 241 290 350
#     4   9  17  33  60  90 124 157 188 230 296 361
#     4   9  19  36  60  87 114 156 197 241 295 352
#
# _framework density 22.604648999999998
#
# number of rings (size 3 to 8) (size 9 to 14) (size 15 to 20)
#    0.000    2.133    0.667    2.400    3.733    4.800 
#    2.400    0.000    0.000    0.800    0.000    0.000 
#    0.000    0.000    0.000    0.000    0.000    0.000 
#
# Total GULP energy -167090.772147 kJ/mol
# GULP energy per Si atom -5569.692405 kJ/mol
# Density = 2.255320 g / cm^3
# Si number density = 22.604649 Si / 1000 Ang^3
#
#
#
# Elastic Constant Matrix: (Units=GPa)
#
#
# Indices 1 2 3 4 5 6 
#
# 1 34.1825 3.4802 -1.8161 0.0000 -21.5340 0.0000
# 2 3.4802 102.4656 -2.9750 0.0000 -6.9239 0.0000
# 3 -1.8161 -2.9750 20.8749 0.0000 19.9808 0.0000
# 4 0.0000 0.0000 0.0000 27.7512 0.0000 27.3756
# 5 -21.5340 -6.9239 19.9808 0.0000 19.2009 0.0000
# 6 0.0000 0.0000 0.0000 27.3756 0.0000 99.9117
#
#
#
# Elastic Compliance Matrix: (Units=1/GPa)
#
#
# Indices 1 2 3 4 5 6 
#
# 1 0.000223 -0.002023 0.048032 0.000000 -0.050462 0.000000
# 2 -0.002023 0.009789 0.003022 0.000000 -0.001884 0.000000
# 3 0.048032 0.003022 -0.022770 0.000000 0.078653 0.000000
# 4 0.000000 0.000000 0.000000 0.049382 0.000000 -0.013531
# 5 -0.050462 -0.001884 0.078653 0.000000 -0.087039 0.000000
# 6 0.000000 0.000000 0.000000 -0.013531 0.000000 0.013716
#
#
# Mechanical properties :
#
#
# Convention : Reuss Voigt Hill
#
# Bulk Modulus (GPa) = 11.72285 17.21123 14.46704
# Shear Modulus (GPa) = -47.02483 39.96168 -3.53158
#
# Velocity S-wave (km/s) = -4.56600 4.20914 -1.25129
# Velocity P-wave (km/s) = 4.75400 5.59045 2.07998
#
# Compressibility (1/GPa) = 0.08530352
#
# Stress axis : x y z
#
# Youngs Moduli (GPa) = 4479.95173 102.16044 -43.91706
#
# Poissons Ratio (x) = 0.20666 2.10940
# Poissons Ratio (y) = 9.06240 0.13273
# Poissons Ratio (z) = -215.17887 -0.30876
#
# Static dielectric constant tensor:
#      x y z
#    x 1.810790 0.000000 -0.018080 
#    y 0.000000 1.870080 0.000000 
#    z -0.018080 0.000000 1.878040 
# 
# From -- ./inp_files/55399.got.cif
#   From: 2010.05.17/outbox.cif.g08.bks.cpg/sg11_28_cif.got.tgz:55399.got - 2010.06.03 12:22:45.
