data_PCOD9160218
_publ_section_title
;
Structure prediction by ZEFSAII (Michael W. Deem and Ramdas Pophale) SiO2 
 PCOD9160218
Probable space group: P 21/M
;
_chemical_formula_sum "Si O2"
_cell_formula_units_Z 24
_cell_length_a 12.413869
_cell_length_b 15.063416
_cell_length_c 18.483249
_cell_angle_alpha 90.000000
_cell_angle_beta 160.302950
_cell_angle_gamma 90.000000
_cell_volume 1164.928124
_symmetry_space_group_name_H-M "P 21/M"
_symmetry_group_IT_number 11
_symmetry_cell_setting 'monoclinic'
loop_
_space_group_symop_operation_xyz
x,y,z
-x,1/2+y,-z
-x,-y,-z
x,1/2-y,z
loop_
_atom_site_type_symbol
_atom_site_label
_atom_site_fract_x
_atom_site_fract_y
_atom_site_fract_z
Si Si1 0.138023 0.588519 0.549185
Si Si2 0.855918 0.347386 0.007864
Si Si3 0.144077 0.152614 0.492133
Si Si4 0.861979 0.911481 0.950816
Si Si5 0.132378 0.977733 0.257255
Si Si6 0.867621 0.977733 0.242746
O O1 0.500000 0.582798 0.749998
O O2 0.000000 0.500000 0.500000
O O3 0.086447 0.654065 0.583098
O O4 0.927209 0.594074 0.343486
O O5 0.866982 0.250000 0.050546
O O6 0.086431 0.345934 0.083087
O O7 0.951500 0.431059 0.118006
O O8 0.499995 0.360205 0.749999
O O9 0.133019 0.250000 0.449455
O O10 0.048502 0.068941 0.381996
O O11 0.000000 0.000000 0.000000
O O12 0.072787 0.905926 0.156512
O O13 0.000001 0.946878 0.250001
O O14 0.500000 0.000000 0.500000
O O15 0.500000 0.000000 0.000000
#
# Coordination Sequence:
#
# PCOD9160218 Si02
#       6
#     4   4   4   4   4   4
#     4  10  19  35  56  78 107 146 190 224 263 327
#     4  10  21  38  58  80 110 149 189 225 268 328
#     4  10  21  38  58  80 110 149 189 225 268 328
#     4  10  19  35  56  78 107 146 190 224 263 327
#     4  11  20  33  55  83 111 139 179 231 280 323
#     4  11  20  33  55  83 111 139 179 231 280 323
#
# _framework density 20.602131
#
# number of rings (size 3 to 8) (size 9 to 14) (size 15 to 20)
#    0.000    1.667    0.000   10.000    0.000    1.333 
#    0.000    1.667    0.000    4.000    0.000    0.000 
#    0.000    0.000    0.000    0.000    0.000    0.000 
#
# Total GULP energy -133779.965301 kJ/mol
# GULP energy per Si atom -5574.165221 kJ/mol
# Density = 2.055524 g / cm^3
# Si number density = 20.602131 Si / 1000 Ang^3
#
#
#
# Elastic Constant Matrix: (Units=GPa)
#
#
# Indices 1 2 3 4 5 6 
#
# 1 105.2135 -35.9954 -2.2927 0.0000 3.5411 0.0000
# 2 -35.9954 56.7773 -29.9858 0.0000 -8.3945 0.0000
# 3 -2.2927 -29.9858 92.4010 0.0000 14.8852 0.0000
# 4 0.0000 0.0000 0.0000 4.9334 0.0000 -0.8427
# 5 3.5411 -8.3945 14.8852 0.0000 49.7135 0.0000
# 6 0.0000 0.0000 0.0000 -0.8427 0.0000 15.7719
#
#
#
# Elastic Compliance Matrix: (Units=1/GPa)
#
#
# Indices 1 2 3 4 5 6 
#
# 1 0.013082 0.010192 0.003683 0.000000 -0.000313 0.000000
# 2 0.010192 0.029319 0.009547 0.000000 0.001366 0.000000
# 3 0.003683 0.009547 0.014494 0.000000 -0.002990 0.000000
# 4 0.000000 0.000000 0.000000 0.204566 0.000000 0.010930
# 5 -0.000313 0.001366 -0.002990 0.000000 0.021263 0.000000
# 6 0.000000 0.000000 0.000000 0.010930 0.000000 0.063988
#
#
# Mechanical properties :
#
#
# Convention : Reuss Voigt Hill
#
# Bulk Modulus (GPa) = 9.63951 13.09377 11.36664
# Shear Modulus (GPa) = 14.95006 35.59480 25.27243
#
# Velocity S-wave (km/s) = 2.69672 4.16110 3.50621
# Velocity P-wave (km/s) = 3.79282 5.42731 4.68194
#
# Compressibility (1/GPa) = 0.10373970
#
# Stress axis : x y z
#
# Youngs Moduli (GPa) = 76.43906 34.10801 68.99553
#
# Poissons Ratio (x) = -0.34765 -0.25409
# Poissons Ratio (y) = -0.77910 -0.65872
# Poissons Ratio (z) = -0.28151 -0.32564
#
# Static dielectric constant tensor:
#      x y z
#    x 1.756550 0.000000 -0.009910 
#    y 0.000000 1.815600 0.000000 
#    z -0.009910 0.000000 1.725600 
# 
# From -- ./inp_files/13224.got.cif
#   From: 2010.05.17/outbox.cif.g08.bks.cpg/sg11_7_cif.got.tgz:13224.got - 2010.06.03 12:22:45.
