data_PCOD9160598
_publ_section_title
;
Structure prediction by ZEFSAII (Michael W. Deem and Ramdas Pophale) SiO2 
 PCOD9160598
Probable space group: P 21/M
;
_chemical_formula_sum "Si O2"
_cell_formula_units_Z 32
_cell_length_a 13.271727
_cell_length_b 7.638346
_cell_length_c 31.344664
_cell_angle_alpha 90.000000
_cell_angle_beta 151.999651
_cell_angle_gamma 90.000000
_cell_volume 1491.779558
_symmetry_space_group_name_H-M "P 21/M"
_symmetry_group_IT_number 11
_symmetry_cell_setting 'monoclinic'
loop_
_space_group_symop_operation_xyz
x,y,z
-x,1/2+y,-z
-x,-y,-z
x,1/2-y,z
loop_
_atom_site_type_symbol
_atom_site_label
_atom_site_fract_x
_atom_site_fract_y
_atom_site_fract_z
Si Si1 0.213976 0.039795 0.553125
Si Si2 0.924244 0.960139 0.111599
Si Si3 0.051482 0.043423 0.402800
Si Si4 0.508542 0.040367 0.900373
Si Si5 0.266065 0.554796 0.397271
Si Si6 0.554407 0.961965 0.218591
Si Si7 0.091562 0.033976 0.796881
Si Si8 0.628383 0.035365 0.760876
O O1 0.229367 0.250000 0.556288
O O2 0.426366 0.976984 0.656647
O O3 0.180941 0.976395 0.492395
O O4 0.000000 0.000000 0.500000
O O5 0.940745 0.750000 0.120164
O O6 0.894845 0.022822 0.149104
O O7 0.145951 0.024407 0.173800
O O8 0.720841 0.001627 0.006399
O O9 0.094812 0.250000 0.413314
O O10 0.800356 0.017157 0.317651
O O11 0.117918 0.952124 0.383914
O O12 0.487248 0.250000 0.889772
O O13 0.515678 0.974574 0.854364
O O14 0.297752 0.976043 0.846650
O O15 0.500000 0.500000 0.500000
O O16 0.299591 0.750000 0.393972
O O17 0.125263 0.468541 0.307366
O O18 0.550505 0.750000 0.217048
O O19 0.413481 0.020366 0.206080
O O20 0.092667 0.250000 0.796548
O O21 0.627540 0.250000 0.760171
#
# Coordination Sequence:
#
# PCOD9160598 Si02
#       8
#     4   4   4   4   4   4   4   4
#     4  10  20  34  56  83 112 150 191 232 275 335
#     4  10  21  37  58  83 109 145 190 237 287 341
#     4  11  22  35  56  88 118 148 191 241 285 336
#     4  10  20  37  58  82 108 145 192 237 288 343
#     4  11  23  40  60  86 119 156 191 232 285 345
#     4  10  19  36  60  81 111 155 194 229 281 349
#     4   9  19  37  61  82 109 150 190 227 281 346
#     4   9  19  35  56  81 112 151 190 226 280 345
#
# _framework density 21.450889
#
# number of rings (size 3 to 8) (size 9 to 14) (size 15 to 20)
#    0.000    2.000    2.500    1.125    1.750    1.500 
#    0.000    2.500    0.000    0.000    0.000    0.000 
#    0.000    0.000    0.000    0.000    0.000    0.000 
#
# Total GULP energy -178750.546134 kJ/mol
# GULP energy per Si atom -5585.954567 kJ/mol
# Density = 2.140207 g / cm^3
# Si number density = 21.450889 Si / 1000 Ang^3
#
#
#
# Elastic Constant Matrix: (Units=GPa)
#
#
# Indices 1 2 3 4 5 6 
#
# 1 113.8902 -1.3819 85.4477 0.0000 -32.0527 0.0000
# 2 -1.3819 37.2245 2.7593 0.0000 -3.4455 0.0000
# 3 85.4477 2.7593 191.5475 0.0000 -21.3246 0.0000
# 4 0.0000 0.0000 0.0000 26.0242 0.0000 3.7318
# 5 -32.0527 -3.4455 -21.3246 0.0000 38.5707 0.0000
# 6 0.0000 0.0000 0.0000 3.7318 0.0000 3.1290
#
#
#
# Elastic Compliance Matrix: (Units=1/GPa)
#
#
# Indices 1 2 3 4 5 6 
#
# 1 0.016347 0.002023 -0.006169 0.000000 0.010355 0.000000
# 2 0.002023 0.027341 -0.000892 0.000000 0.003630 0.000000
# 3 -0.006169 -0.000892 0.007891 0.000000 -0.000843 0.000000
# 4 0.000000 0.000000 0.000000 0.046353 0.000000 -0.055284
# 5 0.010355 0.003630 -0.000843 0.000000 0.034390 0.000000
# 6 0.000000 0.000000 0.000000 -0.055284 0.000000 0.385528
#
#
# Mechanical properties :
#
#
# Convention : Reuss Voigt Hill
#
# Bulk Modulus (GPa) = 24.09422 57.36804 40.73113
# Shear Modulus (GPa) = 9.22915 30.60058 19.91486
#
# Velocity S-wave (km/s) = 2.07649 3.78106 3.05026
# Velocity P-wave (km/s) = 4.12380 6.77228 5.60667
#
# Compressibility (1/GPa) = 0.04150374
#
# Stress axis : x y z
#
# Youngs Moduli (GPa) = 61.17174 36.57484 126.71915
#
# Poissons Ratio (x) = -0.07398 0.78170
# Poissons Ratio (y) = -0.12373 0.11303
# Poissons Ratio (z) = 0.37735 0.03263
#
# Static dielectric constant tensor:
#      x y z
#    x 1.755160 0.000000 -0.017970 
#    y 0.000000 1.800320 0.000000 
#    z -0.017970 0.000000 1.757630 
# 
# From -- ./inp_files/73187.got.cif
#   From: 2010.05.17/outbox.cif.g08.bks.cpg/sg11_37_cif.got.tgz:73187.got - 2010.06.03 12:22:45.
