data_PCOD9160105
_publ_section_title
;
Structure prediction by ZEFSAII (Michael W. Deem and Ramdas Pophale) SiO2 
 PCOD9160105
Probable space group: P 21/M
;
_chemical_formula_sum "Si O2"
_cell_formula_units_Z 24
_cell_length_a 5.039300
_cell_length_b 21.167252
_cell_length_c 10.627069
_cell_angle_alpha 90.000000
_cell_angle_beta 116.309980
_cell_angle_gamma 90.000000
_cell_volume 1016.142273
_symmetry_space_group_name_H-M "P 21/M"
_symmetry_group_IT_number 11
_symmetry_cell_setting 'monoclinic'
loop_
_space_group_symop_operation_xyz
x,y,z
-x,1/2+y,-z
-x,-y,-z
x,1/2-y,z
loop_
_atom_site_type_symbol
_atom_site_label
_atom_site_fract_x
_atom_site_fract_y
_atom_site_fract_z
Si Si1 0.283983 0.875442 0.014741
Si Si2 0.927564 0.823832 0.167921
Si Si3 0.657462 0.484767 0.804101
Si Si4 0.430263 0.897083 0.642223
Si Si5 0.023162 0.175695 0.297408
Si Si6 0.987031 0.567295 0.351056
O O1 0.622327 0.856722 0.059840
O O2 0.255956 0.949373 0.048152
O O3 0.175735 0.839014 0.117010
O O4 0.087084 0.849709 0.860757
O O5 0.884388 0.750000 0.173503
O O6 0.009718 0.859768 0.312790
O O7 0.567295 0.557796 0.779307
O O8 0.895688 0.472349 0.744384
O O9 0.354639 0.448483 0.700874
O O10 0.239106 0.841901 0.663621
O O11 0.208631 0.939543 0.513140
O O12 0.688919 0.866462 0.614093
O O13 0.083086 0.250000 0.306615
#
# Coordination Sequence:
#
# PCOD9160105 Si02
#       6
#     4   4   4   4   4   4
#     4  10  22  39  60  86 115 151 200 252 297 342
#     4  10  19  34  59  84 111 151 198 248 294 344
#     4  10  21  40  66  91 116 149 200 255 300 345
#     4  12  24  40  63  88 121 162 195 239 300 363
#     4  12  26  41  58  84 123 165 199 236 290 359
#     4  10  21  38  60  91 121 152 192 246 303 351
#
# _framework density 23.618736999999999
#
# number of rings (size 3 to 8) (size 9 to 14) (size 15 to 20)
#    0.000    1.333    0.000    6.000    0.000    2.667 
#    0.000    0.000    0.000    0.000    0.000    0.000 
#    0.000    0.000    0.000    0.000    0.000    0.000 
#
# Total GULP energy -134346.869221 kJ/mol
# GULP energy per Si atom -5597.786218 kJ/mol
# Density = 2.356498 g / cm^3
# Si number density = 23.618737 Si / 1000 Ang^3
#
#
#
# Elastic Constant Matrix: (Units=GPa)
#
#
# Indices 1 2 3 4 5 6 
#
# 1 54.2606 25.7578 -22.9677 0.0000 6.3798 0.0000
# 2 25.7578 86.8671 19.5625 0.0000 8.5086 0.0000
# 3 -22.9677 19.5625 30.0965 0.0000 -1.7301 0.0000
# 4 0.0000 0.0000 0.0000 20.7671 0.0000 3.3921
# 5 6.3798 8.5086 -1.7301 0.0000 22.6128 0.0000
# 6 0.0000 0.0000 0.0000 3.3921 0.0000 29.2237
#
#
#
# Elastic Compliance Matrix: (Units=1/GPa)
#
#
# Indices 1 2 3 4 5 6 
#
# 1 0.069414 -0.038183 0.077834 0.000000 0.000738 0.000000
# 2 -0.038183 0.035283 -0.052447 0.000000 -0.006516 0.000000
# 3 0.077834 -0.052447 0.127146 0.000000 0.007503 0.000000
# 4 0.000000 0.000000 0.000000 0.049084 0.000000 -0.005697
# 5 0.000738 -0.006516 0.007503 0.000000 0.047040 0.000000
# 6 0.000000 0.000000 0.000000 -0.005697 0.000000 0.034880
#
#
# Mechanical properties :
#
#
# Convention : Reuss Voigt Hill
#
# Bulk Modulus (GPa) = 4.84850 23.99215 14.42032
# Shear Modulus (GPa) = 10.93635 24.44548 17.69091
#
# Velocity S-wave (km/s) = 2.15416 3.22064 2.73979
# Velocity P-wave (km/s) = 2.87132 4.90002 4.01588
#
# Compressibility (1/GPa) = 0.20624953
#
# Stress axis : x y z
#
# Youngs Moduli (GPa) = 14.40628 28.34203 7.86499
#
# Poissons Ratio (x) = 1.08219 -0.61216
# Poissons Ratio (y) = 0.55008 0.41250
# Poissons Ratio (z) = -1.12129 1.48646
#
# Static dielectric constant tensor:
#      x y z
#    x 1.859190 0.000000 0.035440 
#    y 0.000000 1.866650 0.000000 
#    z 0.035440 0.000000 1.919950 
# 
# From -- ./inp_files/29916.got.cif
#   From: 2010.05.17/outbox.cif.g08.bks.cpg/sg11_15_cif.got.tgz:29916.got - 2010.06.03 12:22:45.
