data_PCOD9160767
_publ_section_title
;
Structure prediction by ZEFSAII (Michael W. Deem and Ramdas Pophale) SiO2 
 PCOD9160767
Probable space group: P 21/M
;
_chemical_formula_sum "Si O2"
_cell_formula_units_Z 28
_cell_length_a 14.996163
_cell_length_b 8.538574
_cell_length_c 13.008533
_cell_angle_alpha 90.000000
_cell_angle_beta 58.722690
_cell_angle_gamma 90.000000
_cell_volume 1423.604943
_symmetry_space_group_name_H-M "P 21/M"
_symmetry_group_IT_number 11
_symmetry_cell_setting 'monoclinic'
loop_
_space_group_symop_operation_xyz
x,y,z
-x,1/2+y,-z
-x,-y,-z
x,1/2-y,z
loop_
_atom_site_type_symbol
_atom_site_label
_atom_site_fract_x
_atom_site_fract_y
_atom_site_fract_z
Si Si1 0.689674 0.939568 0.651263
Si Si2 0.217243 0.440635 0.779784
Si Si3 0.998751 0.560191 0.185221
Si Si4 0.394239 0.439267 0.514008
Si Si5 0.770485 0.937471 0.997862
Si Si6 0.616378 0.436028 0.914783
Si Si7 0.075162 0.438409 0.542917
O O1 0.686920 0.750000 0.659975
O O2 0.619148 0.988348 0.596442
O O3 0.807065 0.988116 0.551476
O O4 0.656831 0.007600 0.779732
O O5 0.216378 0.250000 0.778191
O O6 0.295597 0.491134 0.642622
O O7 0.097898 0.489175 0.829352
O O8 0.254714 0.489611 0.870299
O O9 0.007565 0.750000 0.175474
O O10 0.110139 0.487398 0.093505
O O11 0.964363 0.514221 0.321064
O O12 0.500000 0.500000 0.500000
O O13 0.393858 0.250000 0.515592
O O14 0.763033 0.750000 0.997857
O O15 0.693674 0.005872 0.958249
O O16 0.613958 0.250000 0.918577
O O17 0.500000 0.500000 0.000000
O O18 0.074729 0.250000 0.542344
O O19 0.000000 0.500000 0.500000
#
# Coordination Sequence:
#
# PCOD9160767 Si02
#       7
#     4   4   4   4   4   4   4
#     4  10  21  41  65  90 123 159 201 252 308 364
#     4   9  19  38  63  89 124 164 202 247 306 363
#     4  10  19  37  61  88 122 164 206 248 303 361
#     4  10  21  39  63  92 123 160 203 254 309 365
#     4  11  23  39  61  92 127 164 205 252 303 362
#     4  12  27  46  66  89 120 160 206 255 308 368
#     4  10  20  34  57  85 118 158 198 244 296 354
#
# _framework density 19.668378000000001
#
# number of rings (size 3 to 8) (size 9 to 14) (size 15 to 20)
#    0.000    1.714    1.429    3.000    2.000    4.000 
#    0.000    2.143    0.000    0.000    0.000    0.000 
#    0.000    0.000    0.000    0.000    0.000    0.000 
#
# Total GULP energy -156466.143803 kJ/mol
# GULP energy per Si atom -5588.076564 kJ/mol
# Density = 1.962361 g / cm^3
# Si number density = 19.668378 Si / 1000 Ang^3
#
#
#
# Elastic Constant Matrix: (Units=GPa)
#
#
# Indices 1 2 3 4 5 6 
#
# 1 151.5043 27.7542 47.5740 0.0000 28.6388 0.0000
# 2 27.7542 36.9163 26.5984 0.0000 9.7474 0.0000
# 3 47.5740 26.5984 106.9609 0.0000 29.4286 0.0000
# 4 0.0000 0.0000 0.0000 20.4481 0.0000 -6.3490
# 5 28.6388 9.7474 29.4286 0.0000 39.0728 0.0000
# 6 0.0000 0.0000 0.0000 -6.3490 0.0000 34.1655
#
#
#
# Elastic Compliance Matrix: (Units=1/GPa)
#
#
# Indices 1 2 3 4 5 6 
#
# 1 0.008669 -0.004233 -0.001697 0.000000 -0.004020 0.000000
# 2 -0.004233 0.035277 -0.006713 0.000000 -0.000642 0.000000
# 3 -0.001697 -0.006713 0.013838 0.000000 -0.007504 0.000000
# 4 0.000000 0.000000 0.000000 0.051899 0.000000 0.009644
# 5 -0.004020 -0.000642 -0.007504 0.000000 0.034351 0.000000
# 6 0.000000 0.000000 0.000000 0.009644 0.000000 0.031062
#
#
# Mechanical properties :
#
#
# Convention : Reuss Voigt Hill
#
# Bulk Modulus (GPa) = 30.77205 55.47054 43.12129
# Shear Modulus (GPa) = 23.67262 31.63426 27.65344
#
# Velocity S-wave (km/s) = 3.47304 4.01481 3.75371
# Velocity P-wave (km/s) = 5.63579 7.05378 6.38427
#
# Compressibility (1/GPa) = 0.03249702
#
# Stress axis : x y z
#
# Youngs Moduli (GPa) = 115.35814 28.34699 72.26497
#
# Poissons Ratio (x) = 0.12000 0.12264
# Poissons Ratio (y) = 0.48833 0.48513
# Poissons Ratio (z) = 0.19577 0.19030
#
# Static dielectric constant tensor:
#      x y z
#    x 1.669920 0.000000 0.016270 
#    y 0.000000 1.675370 0.000000 
#    z 0.016270 0.000000 1.684930 
# 
# From -- ./inp_files/37944.got.cif
#   From: 2010.05.17/outbox.cif.g08.bks.cpg/sg11_19_cif.got.tgz:37944.got - 2010.06.03 12:22:45.
