data_PCOD9160299
_publ_section_title
;
Structure prediction by ZEFSAII (Michael W. Deem and Ramdas Pophale) SiO2 
 PCOD9160299
Probable space group: P 21/M
;
_chemical_formula_sum "Si O2"
_cell_formula_units_Z 32
_cell_length_a 8.736050
_cell_length_b 19.537992
_cell_length_c 16.021981
_cell_angle_alpha 90.000000
_cell_angle_beta 38.131270
_cell_angle_gamma 90.000000
_cell_volume 1688.588325
_symmetry_space_group_name_H-M "P 21/M"
_symmetry_group_IT_number 11
_symmetry_cell_setting 'monoclinic'
loop_
_space_group_symop_operation_xyz
x,y,z
-x,1/2+y,-z
-x,-y,-z
x,1/2-y,z
loop_
_atom_site_type_symbol
_atom_site_label
_atom_site_fract_x
_atom_site_fract_y
_atom_site_fract_z
Si Si1 0.656950 0.892611 0.216053
Si Si2 0.644388 0.451553 0.500377
Si Si3 0.454431 0.109088 0.066602
Si Si4 0.022734 0.669858 0.189521
Si Si5 0.952557 0.173324 0.346787
Si Si6 0.014340 0.569537 0.345755
Si Si7 0.852833 0.176026 0.586098
Si Si8 0.590460 0.967885 0.080492
O O1 0.515571 0.935621 0.348998
O O2 0.440488 0.840023 0.280765
O O3 0.718981 0.939462 0.109098
O O4 0.880509 0.854176 0.166545
O O5 0.500000 0.500000 0.500000
O O6 0.880416 0.498362 0.419334
O O7 0.743444 0.382565 0.413958
O O8 0.226370 0.146974 0.207700
O O9 0.585223 0.048739 0.064636
O O10 0.680794 0.158892 0.945394
O O11 0.335814 0.071231 0.036185
O O12 0.967558 0.750000 0.229977
O O13 0.940119 0.615978 0.297465
O O14 0.912123 0.250000 0.330659
O O15 0.921035 0.176339 0.460142
O O16 0.994084 0.618192 0.433634
O O17 0.302053 0.551862 0.212350
O O18 0.903444 0.250000 0.602279
#
# Coordination Sequence:
#
# PCOD9160299 Si02
#       8
#     4   4   4   4   4   4   4   4
#     4  10  21  35  57  82 114 148 183 231 289 333
#     4  11  21  36  58  88 117 145 184 230 286 347
#     4  10  20  37  59  82 111 147 198 236 279 332
#     4  11  22  36  55  81 115 151 187 233 284 331
#     4  10  21  37  59  83 114 151 187 230 286 346
#     4  10  19  35  57  85 109 145 184 232 278 332
#     4   9  19  34  56  85 112 142 181 228 282 340
#     4   9  20  35  59  84 108 145 192 242 272 329
#
# _framework density 18.950742000000002
#
# number of rings (size 3 to 8) (size 9 to 14) (size 15 to 20)
#    0.000    2.000    2.500    1.125    1.750    2.500 
#    0.000    1.875    0.000    0.000    0.000    0.000 
#    0.000    0.000    0.000    0.000    0.000    0.000 
#
# Total GULP energy -178354.843550 kJ/mol
# GULP energy per Si atom -5573.588861 kJ/mol
# Density = 1.890761 g / cm^3
# Si number density = 18.950742 Si / 1000 Ang^3
#
#
#
# Elastic Constant Matrix: (Units=GPa)
#
#
# Indices 1 2 3 4 5 6 
#
# 1 47.1171 17.1553 -0.3092 0.0000 0.0806 0.0000
# 2 17.1553 119.3952 17.7309 0.0000 0.4770 0.0000
# 3 -0.3092 17.7309 43.9742 0.0000 -0.6495 0.0000
# 4 0.0000 0.0000 0.0000 14.1013 0.0000 -2.0797
# 5 0.0806 0.4770 -0.6495 0.0000 11.3731 0.0000
# 6 0.0000 0.0000 0.0000 -2.0797 0.0000 19.2849
#
#
#
# Elastic Compliance Matrix: (Units=1/GPa)
#
#
# Indices 1 2 3 4 5 6 
#
# 1 0.022495 -0.003464 0.001556 0.000000 0.000075 0.000000
# 2 -0.003464 0.009446 -0.003842 0.000000 -0.000591 0.000000
# 3 0.001556 -0.003842 0.024323 0.000000 0.001539 0.000000
# 4 0.000000 0.000000 0.000000 0.072062 0.000000 0.007771
# 5 0.000075 -0.000591 0.001539 0.000000 0.088039 0.000000
# 6 0.000000 0.000000 0.000000 0.007771 0.000000 0.052692
#
#
# Mechanical properties :
#
#
# Convention : Reuss Voigt Hill
#
# Bulk Modulus (GPa) = 22.33881 31.07117 26.70499
# Shear Modulus (GPa) = 16.92175 20.67915 18.80045
#
# Velocity S-wave (km/s) = 2.99144 3.30692 3.15313
# Velocity P-wave (km/s) = 4.87289 5.56887 5.23247
#
# Compressibility (1/GPa) = 0.04476515
#
# Stress axis : x y z
#
# Youngs Moduli (GPa) = 44.45462 105.86380 41.11275
#
# Poissons Ratio (x) = 0.36666 -0.06396
# Poissons Ratio (y) = 0.15397 0.15795
# Poissons Ratio (z) = -0.06916 0.40671
#
# Static dielectric constant tensor:
#      x y z
#    x 1.695320 0.000000 0.004890 
#    y 0.000000 1.712600 0.000000 
#    z 0.004890 0.000000 1.658830 
# 
# From -- ./inp_files/48236.got.cif
#   From: 2010.05.17/outbox.cif.g08.bks.cpg/sg11_25_cif.got.tgz:48236.got - 2010.06.03 12:22:45.
