data_PCOD9160667
_publ_section_title
;
Structure prediction by ZEFSAII (Michael W. Deem and Ramdas Pophale) SiO2 
 PCOD9160667
Probable space group: P 21/M
;
_chemical_formula_sum "Si O2"
_cell_formula_units_Z 24
_cell_length_a 10.466304
_cell_length_b 17.158289
_cell_length_c 10.483249
_cell_angle_alpha 90.000000
_cell_angle_beta 43.525566
_cell_angle_gamma 90.000000
_cell_volume 1296.520971
_symmetry_space_group_name_H-M "P 21/M"
_symmetry_group_IT_number 11
_symmetry_cell_setting 'monoclinic'
loop_
_space_group_symop_operation_xyz
x,y,z
-x,1/2+y,-z
-x,-y,-z
x,1/2-y,z
loop_
_atom_site_type_symbol
_atom_site_label
_atom_site_fract_x
_atom_site_fract_y
_atom_site_fract_z
Si Si1 0.152298 0.155208 0.964658
Si Si2 0.793292 0.093788 0.614674
Si Si3 0.242799 0.844230 0.646364
Si Si4 0.206153 0.092890 0.397803
Si Si5 0.576061 0.843479 0.000725
Si Si6 0.649383 0.655546 0.439545
O O1 0.152630 0.250000 0.964090
O O2 0.287658 0.131097 0.982154
O O3 0.234136 0.130576 0.769533
O O4 0.942790 0.129587 0.146051
O O5 0.764761 0.126421 0.493026
O O6 0.627611 0.124603 0.822447
O O7 0.995490 0.118169 0.518990
O O8 0.787111 0.000464 0.613955
O O9 0.241607 0.750000 0.643252
O O10 0.435395 0.868137 0.572154
O O11 0.268823 0.121206 0.490769
O O12 0.339419 0.127021 0.192460
O O13 0.570979 0.750000 0.004347
O O14 0.655227 0.750000 0.442014
#
# Coordination Sequence:
#
# PCOD9160667 Si02
#       6
#     4   4   4   4   4   4
#     4   9  18  34  59  86 113 146 196 247 288 344
#     4  11  23  40  61  86 124 164 200 235 298 366
#     4  10  19  36  62  86 112 155 205 244 289 357
#     4  11  25  40  58  89 129 158 192 249 303 351
#     4  11  21  38  65  89 112 157 207 248 292 350
#     4  10  21  38  59  88 118 149 195 253 299 340
#
# _framework density 18.511077
#
# number of rings (size 3 to 8) (size 9 to 14) (size 15 to 20)
#    0.000    1.667    3.333    1.500    0.000    4.000 
#    0.000    2.500    0.000    0.000    0.000    0.000 
#    0.000    0.000    0.000    0.000    0.000    0.000 
#
# Total GULP energy -134077.373537 kJ/mol
# GULP energy per Si atom -5586.557231 kJ/mol
# Density = 1.846894 g / cm^3
# Si number density = 18.511077 Si / 1000 Ang^3
#
#
#
# Elastic Constant Matrix: (Units=GPa)
#
#
# Indices 1 2 3 4 5 6 
#
# 1 119.8273 16.1822 58.5915 0.0000 -0.5222 0.0000
# 2 16.1822 14.7683 13.9607 0.0000 -4.5822 0.0000
# 3 58.5915 13.9607 154.2378 0.0000 -9.0656 0.0000
# 4 0.0000 0.0000 0.0000 13.6316 0.0000 -10.7510
# 5 -0.5222 -4.5822 -9.0656 0.0000 39.5148 0.0000
# 6 0.0000 0.0000 0.0000 -10.7510 0.0000 12.0291
#
#
#
# Elastic Compliance Matrix: (Units=1/GPa)
#
#
# Indices 1 2 3 4 5 6 
#
# 1 0.011380 -0.009665 -0.003553 0.000000 -0.001786 0.000000
# 2 -0.009665 0.084302 -0.003438 0.000000 0.008859 0.000000
# 3 -0.003553 -0.003438 0.008229 0.000000 0.001442 0.000000
# 4 0.000000 0.000000 0.000000 0.248578 0.000000 0.222167
# 5 -0.001786 0.008859 0.001442 0.000000 0.026642 0.000000
# 6 0.000000 0.000000 0.000000 0.222167 0.000000 0.281693
#
#
# Mechanical properties :
#
#
# Convention : Reuss Voigt Hill
#
# Bulk Modulus (GPa) = 14.16459 51.81136 32.98798
# Shear Modulus (GPa) = 6.96699 26.37504 16.67102
#
# Velocity S-wave (km/s) = 1.94213 3.77878 3.00425
# Velocity P-wave (km/s) = 3.56338 6.86215 5.46748
#
# Compressibility (1/GPa) = 0.07059858
#
# Stress axis : x y z
#
# Youngs Moduli (GPa) = 87.87231 11.86214 121.51730
#
# Poissons Ratio (x) = 0.11464 0.43178
# Poissons Ratio (y) = 0.84926 0.41782
# Poissons Ratio (z) = 0.31223 0.04079
#
# Static dielectric constant tensor:
#      x y z
#    x 1.615550 0.000000 -0.021620 
#    y 0.000000 1.624410 0.000000 
#    z -0.021620 0.000000 1.618310 
# 
# From -- ./inp_files/14233.got.cif
#   From: 2010.05.17/outbox.cif.g08.bks.cpg/sg11_8_cif.got.tgz:14233.got - 2010.06.03 12:22:45.
