data_PCOD9160558
_publ_section_title
;
Structure prediction by ZEFSAII (Michael W. Deem and Ramdas Pophale) SiO2 
 PCOD9160558
Probable space group: P 21/M
;
_chemical_formula_sum "Si O2"
_cell_formula_units_Z 24
_cell_length_a 14.136376
_cell_length_b 13.503646
_cell_length_c 11.398820
_cell_angle_alpha 90.000000
_cell_angle_beta 33.397924
_cell_angle_gamma 90.000000
_cell_volume 1197.753066
_symmetry_space_group_name_H-M "P 21/M"
_symmetry_group_IT_number 11
_symmetry_cell_setting 'monoclinic'
loop_
_space_group_symop_operation_xyz
x,y,z
-x,1/2+y,-z
-x,-y,-z
x,1/2-y,z
loop_
_atom_site_type_symbol
_atom_site_label
_atom_site_fract_x
_atom_site_fract_y
_atom_site_fract_z
Si Si1 0.389249 0.084118 0.958838
Si Si2 0.729283 0.864252 0.536674
Si Si3 0.563481 0.462969 0.308648
Si Si4 0.278637 0.953235 0.270610
Si Si5 0.958529 0.465388 0.911294
Si Si6 0.025017 0.141900 0.293528
O O1 0.219417 0.147831 0.137229
O O2 0.323740 0.984052 0.092613
O O3 0.563324 0.111988 0.844312
O O4 0.436231 0.057953 0.777903
O O5 0.726505 0.750000 0.578049
O O6 0.569073 0.888087 0.616013
O O7 0.901903 0.889104 0.284244
O O8 0.721746 0.945277 0.650357
O O9 0.500000 0.500000 0.500000
O O10 0.761547 0.428822 0.109774
O O11 0.100403 0.899165 0.476117
O O12 0.975867 0.561875 0.809495
O O13 0.000000 0.500000 0.000000
O O14 0.966397 0.250000 0.315003
#
# Coordination Sequence:
#
# PCOD9160558 Si02
#       6
#     4   4   4   4   4   4
#     4   9  19  36  58  81 110 152 188 228 286 332
#     4  10  21  36  58  85 111 147 192 234 281 340
#     4  10  19  36  59  79 110 147 187 234 282 332
#     4   9  19  38  59  81 116 152 185 233 287 336
#     4  10  20  37  58  79 116 152 185 232 286 336
#     4  10  21  35  56  87 116 147 190 236 283 338
#
# _framework density 20.037519
#
# number of rings (size 3 to 8) (size 9 to 14) (size 15 to 20)
#    0.000    2.333    1.667    0.500    0.000    2.667 
#    0.000    6.667    0.000    0.000    0.000    0.000 
#    0.000    0.000    0.000    0.000    0.000    0.000 
#
# Total GULP energy -133831.611299 kJ/mol
# GULP energy per Si atom -5576.317137 kJ/mol
# Density = 1.999191 g / cm^3
# Si number density = 20.037519 Si / 1000 Ang^3
#
#
#
# Elastic Constant Matrix: (Units=GPa)
#
#
# Indices 1 2 3 4 5 6 
#
# 1 60.3008 15.2069 24.2527 0.0000 2.0249 0.0000
# 2 15.2069 76.9015 28.1190 0.0000 -16.5323 0.0000
# 3 24.2527 28.1190 126.3732 0.0000 -4.4343 0.0000
# 4 0.0000 0.0000 0.0000 -2.3169 0.0000 -3.3893
# 5 2.0249 -16.5323 -4.4343 0.0000 39.4755 0.0000
# 6 0.0000 0.0000 0.0000 -3.3893 0.0000 11.1619
#
#
#
# Elastic Compliance Matrix: (Units=1/GPa)
#
#
# Indices 1 2 3 4 5 6 
#
# 1 0.018664 -0.003168 -0.002969 0.000000 -0.002618 0.000000
# 2 -0.003168 0.016042 -0.002731 0.000000 0.006574 0.000000
# 3 -0.002969 -0.002731 0.009092 0.000000 0.000030 0.000000
# 4 0.000000 0.000000 0.000000 -0.298855 0.000000 -0.090748
# 5 -0.002618 0.006574 0.000030 0.000000 0.028223 0.000000
# 6 0.000000 0.000000 0.000000 -0.090748 0.000000 0.062035
#
#
# Mechanical properties :
#
#
# Convention : Reuss Voigt Hill
#
# Bulk Modulus (GPa) = 38.36929 44.30365 41.33647
# Shear Modulus (GPa) = -36.13317 22.73055 -6.70131
#
# Velocity S-wave (km/s) = -4.25111 3.37174 -1.83075
# Velocity P-wave (km/s) = 2.21485 6.10872 4.02560
#
# Compressibility (1/GPa) = 0.02606251
#
# Stress axis : x y z
#
# Youngs Moduli (GPa) = 53.57784 62.33664 109.99270
#
# Poissons Ratio (x) = 0.19748 0.32656
# Poissons Ratio (y) = 0.16973 0.30037
# Poissons Ratio (z) = 0.15907 0.17023
#
# Static dielectric constant tensor:
#      x y z
#    x 1.725050 0.000000 -0.027400 
#    y 0.000000 1.684270 0.000000 
#    z -0.027400 0.000000 1.719420 
# 
# From -- ./inp_files/39497.got.cif
#   From: 2010.05.17/outbox.cif.g08.bks.cpg/sg11_20_cif.got.tgz:39497.got - 2010.06.03 12:22:45.
