data_PCOD9160244
_publ_section_title
;
Structure prediction by ZEFSAII (Michael W. Deem and Ramdas Pophale) SiO2 
 PCOD9160244
Probable space group: P 21/M
;
_chemical_formula_sum "Si O2"
_cell_formula_units_Z 28
_cell_length_a 13.182778
_cell_length_b 14.419908
_cell_length_c 7.450279
_cell_angle_alpha 90.000000
_cell_angle_beta 108.779915
_cell_angle_gamma 90.000000
_cell_volume 1340.858230
_symmetry_space_group_name_H-M "P 21/M"
_symmetry_group_IT_number 11
_symmetry_cell_setting 'monoclinic'
loop_
_space_group_symop_operation_xyz
x,y,z
-x,1/2+y,-z
-x,-y,-z
x,1/2-y,z
loop_
_atom_site_type_symbol
_atom_site_label
_atom_site_fract_x
_atom_site_fract_y
_atom_site_fract_z
Si Si1 0.480539 0.392258 0.449597
Si Si2 0.097525 0.139609 0.024365
Si Si3 0.667120 0.349354 0.787769
Si Si4 0.403288 0.037403 0.059592
Si Si5 0.814786 0.537868 0.253454
Si Si6 0.878714 0.356640 0.095112
Si Si7 0.244776 0.357842 0.433721
O O1 0.500000 0.500000 0.500000
O O2 0.593987 0.348262 0.568130
O O3 0.445739 0.386424 0.223223
O O4 0.374531 0.364060 0.501321
O O5 0.096156 0.250000 0.995684
O O6 0.199199 0.117189 0.210231
O O7 0.992912 0.115041 0.080175
O O8 0.106105 0.090343 0.838205
O O9 0.640635 0.250000 0.864590
O O10 0.633493 0.444133 0.860748
O O11 0.795245 0.355525 0.879186
O O12 0.500000 0.000000 0.000000
O O13 0.303432 0.066495 0.883615
O O14 0.837004 0.429495 0.220904
O O15 0.811457 0.574413 0.454529
O O16 0.885180 0.250000 0.165116
O O17 0.215786 0.250000 0.453435
#
# Coordination Sequence:
#
# PCOD9160244 Si02
#       7
#     4   4   4   4   4   4   4
#     4  10  19  35  56  82 118 151 191 242 300 354
#     4  10  21  39  61  89 123 158 203 255 304 358
#     4   9  18  34  56  79 110 153 192 236 294 353
#     4  10  20  35  56  84 116 153 191 242 295 356
#     4  11  20  37  63  90 118 160 206 246 307 362
#     4   9  20  38  61  86 120 160 203 255 302 356
#     4  11  23  38  60  91 124 157 201 255 301 359
#
# _framework density 20.882148000000001
#
# number of rings (size 3 to 8) (size 9 to 14) (size 15 to 20)
#    0.000    2.000    1.429    3.000    0.000    0.571 
#    0.000    2.143    3.143   12.000    0.000    0.000 
#    0.000    0.000    0.000    0.000    0.000    0.000 
#
# Total GULP energy -155925.984663 kJ/mol
# GULP energy per Si atom -5568.785167 kJ/mol
# Density = 2.083462 g / cm^3
# Si number density = 20.882148 Si / 1000 Ang^3
#
#
#
# Elastic Constant Matrix: (Units=GPa)
#
#
# Indices 1 2 3 4 5 6 
#
# 1 69.5568 8.4605 12.4532 0.0000 4.7221 0.0000
# 2 8.4605 71.8586 12.1145 0.0000 -7.1171 0.0000
# 3 12.4532 12.1145 36.6891 0.0000 -9.8691 0.0000
# 4 0.0000 0.0000 0.0000 15.8005 0.0000 4.2366
# 5 4.7221 -7.1171 -9.8691 0.0000 29.5888 0.0000
# 6 0.0000 0.0000 0.0000 4.2366 0.0000 26.0408
#
#
#
# Elastic Compliance Matrix: (Units=1/GPa)
#
#
# Indices 1 2 3 4 5 6 
#
# 1 0.016010 -0.001309 -0.006343 0.000000 -0.004986 0.000000
# 2 -0.001309 0.014965 -0.003815 0.000000 0.002536 0.000000
# 3 -0.006343 -0.003815 0.033719 0.000000 0.011342 0.000000
# 4 0.000000 0.000000 0.000000 0.066176 0.000000 -0.010766
# 5 -0.004986 0.002536 0.011342 0.000000 0.038985 0.000000
# 6 0.000000 0.000000 0.000000 -0.010766 0.000000 0.040153
#
#
# Mechanical properties :
#
#
# Convention : Reuss Voigt Hill
#
# Bulk Modulus (GPa) = 23.94626 27.12898 25.53762
# Shear Modulus (GPa) = 20.25424 23.95777 22.10600
#
# Velocity S-wave (km/s) = 3.11775 3.39083 3.25716
# Velocity P-wave (km/s) = 4.94497 5.32447 5.13823
#
# Compressibility (1/GPa) = 0.04176018
#
# Stress axis : x y z
#
# Youngs Moduli (GPa) = 62.46057 66.82405 29.65651
#
# Poissons Ratio (x) = 0.08750 0.18811
# Poissons Ratio (y) = 0.08179 0.11313
# Poissons Ratio (z) = 0.39619 0.25491
#
# Static dielectric constant tensor:
#      x y z
#    x 1.721690 0.000000 0.031580 
#    y 0.000000 1.758890 0.000000 
#    z 0.031580 0.000000 1.809870 
# 
# From -- ./inp_files/17501.got.cif
#   From: 2010.05.17/outbox.cif.g08.bks.cpg/sg11_9_cif.got.tgz:17501.got - 2010.06.03 12:22:45.
