data_PCOD9160275
_publ_section_title
;
Structure prediction by ZEFSAII (Michael W. Deem and Ramdas Pophale) SiO2 
 PCOD9160275
Probable space group: P 21/M
;
_chemical_formula_sum "Si O2"
_cell_formula_units_Z 28
_cell_length_a 9.447439
_cell_length_b 8.459521
_cell_length_c 30.112796
_cell_angle_alpha 90.000000
_cell_angle_beta 38.305684
_cell_angle_gamma 90.000000
_cell_volume 1491.771751
_symmetry_space_group_name_H-M "P 21/M"
_symmetry_group_IT_number 11
_symmetry_cell_setting 'monoclinic'
loop_
_space_group_symop_operation_xyz
x,y,z
-x,1/2+y,-z
-x,-y,-z
x,1/2-y,z
loop_
_atom_site_type_symbol
_atom_site_label
_atom_site_fract_x
_atom_site_fract_y
_atom_site_fract_z
Si Si1 0.756041 0.062080 0.933762
Si Si2 0.006007 0.441775 0.363690
Si Si3 0.313407 0.942861 0.639074
Si Si4 0.135502 0.558813 0.778774
Si Si5 0.474020 0.942293 0.774906
Si Si6 0.161139 0.439736 0.499789
Si Si7 0.075070 0.939054 0.933908
O O1 0.756600 0.250000 0.934793
O O2 0.896762 0.995712 0.940865
O O3 0.895951 0.004284 0.856191
O O4 0.500000 0.000000 0.000000
O O5 0.005620 0.250000 0.364442
O O6 0.265224 0.495699 0.290261
O O7 0.833796 0.493909 0.367202
O O8 0.927400 0.501040 0.430964
O O9 0.312781 0.750000 0.639295
O O10 0.201263 0.993156 0.713210
O O11 0.576746 0.993499 0.571421
O O12 0.126348 0.750000 0.781703
O O13 0.331765 0.510600 0.765904
O O14 0.478324 0.750000 0.773853
O O15 0.323225 0.992477 0.854445
O O16 0.159374 0.250000 0.499612
O O17 0.000000 0.500000 0.500000
O O18 0.076589 0.750000 0.934354
O O19 0.000000 0.000000 0.000000
#
# Coordination Sequence:
#
# PCOD9160275 Si02
#       7
#     4   4   4   4   4   4   4
#     4  11  22  37  56  81 111 146 184 229 278 328
#     4  10  19  35  57  82 108 140 178 220 268 324
#     4   9  19  34  56  82 111 143 178 219 272 330
#     4   9  17  34  55  76 104 143 184 223 264 322
#     4   8  16  31  53  76 105 143 182 217 262 323
#     4  11  22  37  55  79 108 144 184 224 267 318
#     4  10  20  36  56  82 112 145 183 228 277 333
#
# _framework density 18.769627
#
# number of rings (size 3 to 8) (size 9 to 14) (size 15 to 20)
#    0.000    2.286    0.000    4.286    0.000    3.429 
#    0.000   12.143    0.000    0.000    0.000    0.000 
#    0.000    0.000    0.000    0.000    0.000    0.000 
#
# Total GULP energy -156302.187729 kJ/mol
# GULP energy per Si atom -5582.220990 kJ/mol
# Density = 1.872691 g / cm^3
# Si number density = 18.769627 Si / 1000 Ang^3
#
#
#
# Elastic Constant Matrix: (Units=GPa)
#
#
# Indices 1 2 3 4 5 6 
#
# 1 140.5699 25.6521 128.1750 0.0000 -0.5833 0.0000
# 2 25.6521 39.1378 37.5743 0.0000 1.2464 0.0000
# 3 128.1750 37.5743 227.8255 0.0000 0.7995 0.0000
# 4 0.0000 0.0000 0.0000 31.1361 0.0000 4.4422
# 5 -0.5833 1.2464 0.7995 0.0000 40.3230 0.0000
# 6 0.0000 0.0000 0.0000 4.4422 0.0000 23.2435
#
#
#
# Elastic Compliance Matrix: (Units=1/GPa)
#
#
# Indices 1 2 3 4 5 6 
#
# 1 0.014748 -0.002035 -0.007963 0.000000 0.000434 0.000000
# 2 -0.002035 0.030667 -0.003910 0.000000 -0.000900 0.000000
# 3 -0.007963 -0.003910 0.009515 0.000000 -0.000183 0.000000
# 4 0.000000 0.000000 0.000000 0.033017 0.000000 -0.006310
# 5 0.000434 -0.000900 -0.000183 0.000000 0.024837 0.000000
# 6 0.000000 0.000000 0.000000 -0.006310 0.000000 0.044229
#
#
# Mechanical properties :
#
#
# Convention : Reuss Voigt Hill
#
# Bulk Modulus (GPa) = 36.88152 87.81512 62.34832
# Shear Modulus (GPa) = 25.79087 33.34930 29.57009
#
# Velocity S-wave (km/s) = 3.71087 4.21975 3.97346
# Velocity P-wave (km/s) = 6.16871 8.40411 7.37164
#
# Compressibility (1/GPa) = 0.02711385
#
# Stress axis : x y z
#
# Youngs Moduli (GPa) = 67.80525 32.60863 105.09866
#
# Poissons Ratio (x) = 0.06636 0.83692
# Poissons Ratio (y) = 0.13799 0.41089
# Poissons Ratio (z) = 0.53995 0.12749
#
# Static dielectric constant tensor:
#      x y z
#    x 1.623460 0.000000 -0.008390 
#    y 0.000000 1.650640 0.000000 
#    z -0.008390 0.000000 1.643380 
# 
# From -- ./inp_files/70835.got.cif
#   From: 2010.05.17/outbox.cif.g08.bks.cpg/sg11_36_cif.got.tgz:70835.got - 2010.06.03 12:22:45.
