data_PCOD9160510
_publ_section_title
;
Structure prediction by ZEFSAII (Michael W. Deem and Ramdas Pophale) SiO2 
 PCOD9160510
Probable space group: P 21/M
;
_chemical_formula_sum "Si O2"
_cell_formula_units_Z 32
_cell_length_a 11.698288
_cell_length_b 15.881376
_cell_length_c 18.737134
_cell_angle_alpha 90.000000
_cell_angle_beta 148.808142
_cell_angle_gamma 90.000000
_cell_volume 1802.868635
_symmetry_space_group_name_H-M "P 21/M"
_symmetry_group_IT_number 11
_symmetry_cell_setting 'monoclinic'
loop_
_space_group_symop_operation_xyz
x,y,z
-x,1/2+y,-z
-x,-y,-z
x,1/2-y,z
loop_
_atom_site_type_symbol
_atom_site_label
_atom_site_fract_x
_atom_site_fract_y
_atom_site_fract_z
Si Si1 0.579417 0.152691 0.665264
Si Si2 0.260895 0.989978 0.141307
Si Si3 0.469185 0.490812 0.103013
Si Si4 0.334797 0.577182 0.434218
Si Si5 0.060578 0.347714 0.375902
Si Si6 0.851166 0.993787 0.201715
Si Si7 0.493587 0.651548 0.665371
Si Si8 0.262084 0.653107 0.679770
O O1 0.605417 0.250000 0.701282
O O2 0.690670 0.135021 0.648758
O O3 0.319544 0.135814 0.513063
O O4 0.668325 0.085007 0.768491
O O5 0.346736 0.079676 0.217956
O O6 0.364879 0.970223 0.118913
O O7 0.000000 0.000000 0.000000
O O8 0.681360 0.530835 0.175031
O O9 0.564628 0.403387 0.184839
O O10 0.282261 0.481663 0.942879
O O11 0.500000 0.500000 0.500000
O O12 0.441620 0.627083 0.556918
O O13 0.090510 0.548862 0.327512
O O14 0.025441 0.250000 0.339165
O O15 0.917262 0.408443 0.249692
O O16 0.972878 0.363635 0.409544
O O17 0.563815 0.750000 0.707891
O O18 0.283947 0.640758 0.606948
O O19 0.316007 0.750000 0.722182
#
# Coordination Sequence:
#
# PCOD9160510 Si02
#       8
#     4   4   4   4   4   4   4   4
#     4  11  23  38  56  82 112 145 189 233 284 338
#     4  11  22  38  59  82 115 151 187 231 281 334
#     4   9  20  34  56  82 110 148 188 226 272 337
#     4  12  21  36  57  81 112 148 182 234 282 328
#     4   9  17  32  56  81 108 141 179 230 281 330
#     4  10  19  36  56  81 111 147 188 228 278 330
#     4  10  21  37  57  84 111 143 188 231 278 336
#     4   8  16  33  55  80 109 142 182 225 274 331
#
# _framework density 17.749490999999999
#
# number of rings (size 3 to 8) (size 9 to 14) (size 15 to 20)
#    0.000    2.000    2.500    1.125    0.000    1.500 
#    0.000    8.125    0.000    3.000    0.000    0.000 
#    0.000    0.000    0.000    0.000    0.000    0.000 
#
# Total GULP energy -178176.788200 kJ/mol
# GULP energy per Si atom -5568.024631 kJ/mol
# Density = 1.770909 g / cm^3
# Si number density = 17.749491 Si / 1000 Ang^3
#
#
#
# Elastic Constant Matrix: (Units=GPa)
#
#
# Indices 1 2 3 4 5 6 
#
# 1 121.2945 48.8422 50.4068 0.0000 -11.5466 0.0000
# 2 48.8422 69.6236 29.1587 0.0000 -3.1208 0.0000
# 3 50.4068 29.1587 53.3148 0.0000 -0.0811 0.0000
# 4 0.0000 0.0000 0.0000 10.5263 0.0000 -1.9874
# 5 -11.5466 -3.1208 -0.0811 0.0000 34.8615 0.0000
# 6 0.0000 0.0000 0.0000 -1.9874 0.0000 25.9088
#
#
#
# Elastic Compliance Matrix: (Units=1/GPa)
#
#
# Indices 1 2 3 4 5 6 
#
# 1 0.016083 -0.006102 -0.011862 0.000000 0.004753 0.000000
# 2 -0.006102 0.021040 -0.005738 0.000000 -0.000151 0.000000
# 3 -0.011862 -0.005738 0.033103 0.000000 -0.004365 0.000000
# 4 0.000000 0.000000 0.000000 0.096396 0.000000 0.007394
# 5 0.004753 -0.000151 -0.004365 0.000000 0.030236 0.000000
# 6 0.000000 0.000000 0.000000 0.007394 0.000000 0.039164
#
#
# Mechanical properties :
#
#
# Convention : Reuss Voigt Hill
#
# Bulk Modulus (GPa) = 43.81614 55.67204 49.74409
# Shear Modulus (GPa) = 17.18019 21.98100 19.58059
#
# Velocity S-wave (km/s) = 3.11453 3.52291 3.32499
# Velocity P-wave (km/s) = 6.13785 6.92686 6.54425
#
# Compressibility (1/GPa) = 0.02282264
#
# Stress axis : x y z
#
# Youngs Moduli (GPa) = 62.17589 47.52839 30.20891
#
# Poissons Ratio (x) = 0.29002 0.35833
# Poissons Ratio (y) = 0.37940 0.17334
# Poissons Ratio (z) = 0.73751 0.27272
#
# Static dielectric constant tensor:
#      x y z
#    x 1.662760 0.000000 0.012850 
#    y 0.000000 1.619470 0.000000 
#    z 0.012850 0.000000 1.552400 
# 
# From -- ./inp_files/59494.got.cif
#   From: 2010.05.17/outbox.cif.g08.bks.cpg/sg11_30_cif.got.tgz:59494.got - 2010.06.03 12:22:45.
