data_PCOD9160110
_publ_section_title
;
Structure prediction by ZEFSAII (Michael W. Deem and Ramdas Pophale) SiO2 
 PCOD9160110
Probable space group: P 21/M
;
_chemical_formula_sum "Si O2"
_cell_formula_units_Z 30
_cell_length_a 7.874526
_cell_length_b 9.519871
_cell_length_c 16.107449
_cell_angle_alpha 90.000000
_cell_angle_beta 94.903735
_cell_angle_gamma 90.000000
_cell_volume 1203.066674
_symmetry_space_group_name_H-M "P 21/M"
_symmetry_group_IT_number 11
_symmetry_cell_setting 'monoclinic'
loop_
_space_group_symop_operation_xyz
x,y,z
-x,1/2+y,-z
-x,-y,-z
x,1/2-y,z
loop_
_atom_site_type_symbol
_atom_site_label
_atom_site_fract_x
_atom_site_fract_y
_atom_site_fract_z
Si Si1 0.861618 0.595189 0.911740
Si Si2 0.623533 0.486511 0.774410
Si Si3 0.160397 0.914991 0.800689
Si Si4 0.357937 0.516486 0.960416
Si Si5 0.586431 0.090807 0.384318
Si Si6 0.766665 0.589113 0.524029
Si Si7 0.518571 0.750000 0.105072
Si Si8 0.053192 0.585627 0.330598
O O1 0.902131 0.750000 0.944604
O O2 0.708309 0.600233 0.838859
O O3 0.016724 0.546236 0.863208
O O4 0.794559 0.499172 0.983326
O O5 0.474980 0.544061 0.709198
O O6 0.560634 0.371468 0.836311
O O7 0.777471 0.432510 0.721347
O O8 0.141055 0.750000 0.778830
O O9 0.104275 0.008304 0.721197
O O10 0.321784 0.928315 0.869605
O O11 0.281651 0.250000 0.885302
O O12 0.498838 0.386694 0.980410
O O13 0.653867 0.250000 0.385848
O O14 0.409832 0.093557 0.429824
O O15 0.710553 0.984791 0.436637
O O16 0.824172 0.750000 0.516689
O O17 0.895239 0.495032 0.583000
O O18 0.023542 0.750000 0.342136
#
# Coordination Sequence:
#
# PCOD9160110 Si02
#       8
#     4   4   4   4   4   4   2   4
#     4  10  20  39  60  85 114 155 200 253 309 360
#     4  10  20  34  54  83 122 163 197 249 300 359
#     4  10  24  41  61  86 117 154 200 252 309 363
#     4  12  25  40  60  83 118 157 201 251 303 366
#     4   9  17  29  49  81 122 164 205 240 296 355
#     4   9  17  28  49  83 125 163 194 245 298 354
#     4  12  24  38  54  86 120 156 212 248 300 366
#     4  10  19  34  59  85 122 158 200 242 301 359
#
# _framework density 24.936274000000001
#
# number of rings (size 3 to 8) (size 9 to 14) (size 15 to 20)
#    0.000    1.867    2.667    1.600    2.800    4.800 
#    0.000    0.000    0.000    0.000    0.000    0.933 
#    0.000    0.000    0.000    0.000    0.000    0.000 
#
# Total GULP energy -167126.638010 kJ/mol
# GULP energy per Si atom -5570.887934 kJ/mol
# Density = 2.487952 g / cm^3
# Si number density = 24.936274 Si / 1000 Ang^3
#
#
#
# Elastic Constant Matrix: (Units=GPa)
#
#
# Indices 1 2 3 4 5 6 
#
# 1 69.1751 18.5455 35.2902 0.0000 1.7682 0.0000
# 2 18.5455 183.1607 90.4589 0.0000 30.4372 0.0000
# 3 35.2902 90.4589 217.3628 0.0000 25.1510 0.0000
# 4 0.0000 0.0000 0.0000 -2.6495 0.0000 12.4687
# 5 1.7682 30.4372 25.1510 0.0000 56.1896 0.0000
# 6 0.0000 0.0000 0.0000 12.4687 0.0000 16.5885
#
#
#
# Elastic Compliance Matrix: (Units=1/GPa)
#
#
# Indices 1 2 3 4 5 6 
#
# 1 0.015827 -0.000542 -0.002447 0.000000 0.000891 0.000000
# 2 -0.000542 0.007263 -0.002617 0.000000 -0.002746 0.000000
# 3 -0.002447 -0.002617 0.006237 0.000000 -0.001297 0.000000
# 4 0.000000 0.000000 0.000000 -0.083184 0.000000 0.062525
# 5 0.000891 -0.002746 -0.001297 0.000000 0.019837 0.000000
# 6 0.000000 0.000000 0.000000 0.062525 0.000000 0.013286
#
#
# Mechanical properties :
#
#
# Convention : Reuss Voigt Hill
#
# Bulk Modulus (GPa) = 55.20221 84.25418 69.72819
# Shear Modulus (GPa) = -1435.64097 35.71934 -699.96081
#
# Velocity S-wave (km/s) = -24.02028 3.78884 -16.77228
# Velocity P-wave (km/s) = 27.33337 7.28022 18.62943
#
# Compressibility (1/GPa) = 0.01811522
#
# Stress axis : x y z
#
# Youngs Moduli (GPa) = 63.18300 137.67691 160.33019
#
# Poissons Ratio (x) = 0.07462 0.39235
# Poissons Ratio (y) = 0.03424 0.41959
# Poissons Ratio (z) = 0.15462 0.36030
#
# Static dielectric constant tensor:
#      x y z
#    x 2.101690 0.000000 -0.049140 
#    y 0.000000 1.445820 0.000000 
#    z -0.049140 0.000000 2.023030 
# 
# From -- ./inp_files/58751.got.cif
#   From: 2010.05.17/outbox.cif.g08.bks.cpg/sg11_30_cif.got.tgz:58751.got - 2010.06.03 12:22:45.
