data_PCOD9160465
_publ_section_title
;
Structure prediction by ZEFSAII (Michael W. Deem and Ramdas Pophale) SiO2 
 PCOD9160465
Probable space group: P 21/M
;
_chemical_formula_sum "Si O2"
_cell_formula_units_Z 30
_cell_length_a 10.154688
_cell_length_b 15.870534
_cell_length_c 9.950711
_cell_angle_alpha 90.000000
_cell_angle_beta 50.076434
_cell_angle_gamma 90.000000
_cell_volume 1229.848700
_symmetry_space_group_name_H-M "P 21/M"
_symmetry_group_IT_number 11
_symmetry_cell_setting 'monoclinic'
loop_
_space_group_symop_operation_xyz
x,y,z
-x,1/2+y,-z
-x,-y,-z
x,1/2-y,z
loop_
_atom_site_type_symbol
_atom_site_label
_atom_site_fract_x
_atom_site_fract_y
_atom_site_fract_z
Si Si1 0.069376 0.250000 0.694886
Si Si2 0.817169 0.842618 0.010777
Si Si3 0.009013 0.593057 0.646165
Si Si4 0.353234 0.550962 0.458650
Si Si5 0.504956 0.155725 0.976945
Si Si6 0.276138 0.373885 0.383115
Si Si7 0.165046 0.919092 0.138418
Si Si8 0.728529 0.510454 0.202664
O O1 0.928492 0.328336 0.809565
O O2 0.214996 0.320687 0.549366
O O3 0.805466 0.750000 0.080388
O O4 0.860741 0.913585 0.090995
O O5 0.958869 0.847901 0.802801
O O6 0.646238 0.862864 0.032242
O O7 0.895101 0.616634 0.594178
O O8 0.951351 0.497139 0.727513
O O9 0.208294 0.605393 0.483155
O O10 0.344419 0.461267 0.392763
O O11 0.553450 0.566603 0.330524
O O12 0.277989 0.541799 0.657963
O O13 0.565988 0.250000 0.905493
O O14 0.413111 0.157665 0.183413
O O15 0.662768 0.092046 0.883735
O O16 0.240332 0.951966 0.946240
#
# Coordination Sequence:
#
# PCOD9160465 Si02
#       8
#     2   4   4   4   4   4   4   4
#     4  12  24  36  60  98 122 152 208 248 316 350
#     4   9  21  40  60  91 123 161 203 249 306 362
#     4  10  23  38  65  90 124 158 200 253 312 358
#     4  11  22  42  62  88 119 165 207 248 303 365
#     4  10  19  35  61  88 127 158 191 249 309 356
#     4  11  22  39  61  93 124 159 196 254 307 364
#     4  11  22  38  60  95 119 160 204 251 302 363
#     4  10  24  41  65  84 120 169 210 244 298 371
#
# _framework density 24.393243999999999
#
# number of rings (size 3 to 8) (size 9 to 14) (size 15 to 20)
#    0.000    1.600    4.000    0.400    2.800    3.733 
#    1.200    0.667    4.400    0.000    0.000    0.000 
#    0.000    0.000    0.000    0.000    0.000    0.000 
#
# Total GULP energy -167033.019709 kJ/mol
# GULP energy per Si atom -5567.767324 kJ/mol
# Density = 2.433772 g / cm^3
# Si number density = 24.393244 Si / 1000 Ang^3
#
#
#
# Elastic Constant Matrix: (Units=GPa)
#
#
# Indices 1 2 3 4 5 6 
#
# 1 32.6456 -11.5293 22.8138 0.0000 -23.0758 0.0000
# 2 -11.5293 49.1368 -11.3532 0.0000 5.2179 0.0000
# 3 22.8138 -11.3532 72.9679 0.0000 11.0182 0.0000
# 4 0.0000 0.0000 0.0000 27.4770 0.0000 3.6017
# 5 -23.0758 5.2179 11.0182 0.0000 35.3318 0.0000
# 6 0.0000 0.0000 0.0000 3.6017 0.0000 10.5455
#
#
#
# Elastic Compliance Matrix: (Units=1/GPa)
#
#
# Indices 1 2 3 4 5 6 
#
# 1 0.223011 0.012228 -0.093968 0.000000 0.173150 0.000000
# 2 0.012228 0.022437 -0.001089 0.000000 0.005012 0.000000
# 3 -0.093968 -0.001089 0.054735 0.000000 -0.078281 0.000000
# 4 0.000000 0.000000 0.000000 0.038100 0.000000 -0.013013
# 5 0.173150 0.005012 -0.078281 0.000000 0.165062 0.000000
# 6 0.000000 0.000000 0.000000 -0.013013 0.000000 0.099272
#
#
# Mechanical properties :
#
#
# Convention : Reuss Voigt Hill
#
# Bulk Modulus (GPa) = 7.43367 17.17920 12.30644
# Shear Modulus (GPa) = 6.14919 24.99213 15.57066
#
# Velocity S-wave (km/s) = 1.58944 3.20433 2.52924
# Velocity P-wave (km/s) = 2.53426 4.55502 3.68583
#
# Compressibility (1/GPa) = 0.13452301
#
# Stress axis : x y z
#
# Youngs Moduli (GPa) = 4.48409 44.57015 18.26975
#
# Poissons Ratio (x) = -0.54499 1.71678
# Poissons Ratio (y) = -0.05483 0.01989
# Poissons Ratio (z) = 0.42136 0.04853
#
# Static dielectric constant tensor:
#      x y z
#    x 2.019600 0.000000 -0.006900 
#    y 0.000000 1.866950 0.000000 
#    z -0.006900 0.000000 1.980470 
# 
# From -- ./inp_files/36131.got.cif
#   From: 2010.05.17/outbox.cif.g08.bks.cpg/sg11_19_cif.got.tgz:36131.got - 2010.06.03 12:22:45.
