data_PCOD9160347
_publ_section_title
;
Structure prediction by ZEFSAII (Michael W. Deem and Ramdas Pophale) SiO2 
 PCOD9160347
Probable space group: P 21/M
;
_chemical_formula_sum "Si O2"
_cell_formula_units_Z 32
_cell_length_a 20.476574
_cell_length_b 8.703607
_cell_length_c 25.574682
_cell_angle_alpha 90.000000
_cell_angle_beta 20.586336
_cell_angle_gamma 90.000000
_cell_volume 1602.648975
_symmetry_space_group_name_H-M "P 21/M"
_symmetry_group_IT_number 11
_symmetry_cell_setting 'monoclinic'
loop_
_space_group_symop_operation_xyz
x,y,z
-x,1/2+y,-z
-x,-y,-z
x,1/2-y,z
loop_
_atom_site_type_symbol
_atom_site_label
_atom_site_fract_x
_atom_site_fract_y
_atom_site_fract_z
Si Si1 0.834230 0.427754 0.091472
Si Si2 0.629329 0.575565 0.331315
Si Si3 0.422004 0.427213 0.920783
Si Si4 0.170800 0.564104 0.404811
Si Si5 0.786052 0.568592 0.512119
Si Si6 0.790832 0.071703 0.310516
Si Si7 0.980352 0.937100 0.759167
Si Si8 0.603336 0.924403 0.184769
O O1 0.860967 0.250000 0.061552
O O2 0.661845 0.459937 0.259579
O O3 0.789279 0.518174 0.072507
O O4 0.000000 0.500000 0.000000
O O5 0.671067 0.750000 0.283277
O O6 0.416577 0.570742 0.509124
O O7 0.762696 0.528370 0.279562
O O8 0.433492 0.250000 0.930218
O O9 0.630698 0.491922 0.768121
O O10 0.383653 0.426118 0.887309
O O11 0.233044 0.493596 0.086392
O O12 0.173458 0.750000 0.402861
O O13 0.159127 0.507488 0.473433
O O14 0.000000 0.500000 0.500000
O O15 0.816595 0.750000 0.491537
O O16 0.567770 0.530945 0.670686
O O17 0.896500 0.497214 0.380800
O O18 0.834183 0.250000 0.264166
O O19 0.930179 0.018859 0.251736
O O20 0.980605 0.750000 0.758573
O O21 0.561406 0.750000 0.232532
#
# Coordination Sequence:
#
# PCOD9160347 Si02
#       8
#     4   4   4   4   4   4   4   4
#     4  12  25  38  53  76 107 145 190 244 299 353
#     4  10  20  35  51  74 105 141 187 236 290 350
#     4   8  18  35  59  88 117 149 188 235 291 348
#     4  10  20  39  65  92 121 156 195 237 284 344
#     4  11  22  37  59  90 121 156 196 235 279 339
#     4   9  19  33  54  77 104 143 185 232 287 347
#     4  10  19  35  58  84 114 151 192 238 292 344
#     4  10  20  38  60  83 112 151 196 246 296 352
#
# _framework density 19.966942
#
# number of rings (size 3 to 8) (size 9 to 14) (size 15 to 20)
#    0.000    2.000    0.000    4.875    1.750    2.000 
#    0.000    4.375    0.000    0.000    0.000    0.000 
#    0.000    0.000    0.000    0.000    0.000    0.000 
#
# Total GULP energy -178687.109777 kJ/mol
# GULP energy per Si atom -5583.972181 kJ/mol
# Density = 1.992150 g / cm^3
# Si number density = 19.966942 Si / 1000 Ang^3
#
#
#
# Elastic Constant Matrix: (Units=GPa)
#
#
# Indices 1 2 3 4 5 6 
#
# 1 70.2527 9.7169 17.6551 0.0000 -25.3702 0.0000
# 2 9.7169 52.3833 4.0739 0.0000 -5.9055 0.0000
# 3 17.6551 4.0739 74.2776 0.0000 -11.3846 0.0000
# 4 0.0000 0.0000 0.0000 18.8390 0.0000 -3.4837
# 5 -25.3702 -5.9055 -11.3846 0.0000 33.9353 0.0000
# 6 0.0000 0.0000 0.0000 -3.4837 0.0000 28.4955
#
#
#
# Elastic Compliance Matrix: (Units=1/GPa)
#
#
# Indices 1 2 3 4 5 6 
#
# 1 0.020159 -0.001977 -0.002557 0.000000 0.013869 0.000000
# 2 -0.001977 0.019690 -0.000328 0.000000 0.001838 0.000000
# 3 -0.002557 -0.000328 0.014534 0.000000 0.002907 0.000000
# 4 0.000000 0.000000 0.000000 0.054309 0.000000 0.006639
# 5 0.013869 0.001838 0.002907 0.000000 0.041131 0.000000
# 6 0.000000 0.000000 0.000000 0.006639 0.000000 0.035905
#
#
# Mechanical properties :
#
#
# Convention : Reuss Voigt Hill
#
# Bulk Modulus (GPa) = 22.39267 28.86728 25.62997
# Shear Modulus (GPa) = 23.77109 27.28515 25.52812
#
# Velocity S-wave (km/s) = 3.45414 3.70065 3.57952
# Velocity P-wave (km/s) = 5.21031 5.72265 5.47248
#
# Compressibility (1/GPa) = 0.04465747
#
# Stress axis : x y z
#
# Youngs Moduli (GPa) = 49.60585 50.78839 68.80209
#
# Poissons Ratio (x) = 0.10041 0.17596
# Poissons Ratio (y) = 0.09807 0.02258
# Poissons Ratio (z) = 0.12687 0.01667
#
# Static dielectric constant tensor:
#      x y z
#    x 1.684260 0.000000 -0.007990 
#    y 0.000000 1.679070 0.000000 
#    z -0.007990 0.000000 1.773980 
# 
# From -- ./inp_files/72039.got.cif
#   From: 2010.05.17/outbox.cif.g08.bks.cpg/sg11_37_cif.got.tgz:72039.got - 2010.06.03 12:22:45.
