data_PCOD9160750
_publ_section_title
;
Structure prediction by ZEFSAII (Michael W. Deem and Ramdas Pophale) SiO2 
 PCOD9160750
Probable space group: P 21/M
;
_chemical_formula_sum "Si O2"
_cell_formula_units_Z 18
_cell_length_a 7.021682
_cell_length_b 14.918118
_cell_length_c 7.952442
_cell_angle_alpha 90.000000
_cell_angle_beta 73.256711
_cell_angle_gamma 90.000000
_cell_volume 797.704718
_symmetry_space_group_name_H-M "P 21/M"
_symmetry_group_IT_number 11
_symmetry_cell_setting 'monoclinic'
loop_
_space_group_symop_operation_xyz
x,y,z
-x,1/2+y,-z
-x,-y,-z
x,1/2-y,z
loop_
_atom_site_type_symbol
_atom_site_label
_atom_site_fract_x
_atom_site_fract_y
_atom_site_fract_z
Si Si1 0.199652 0.942904 0.486318
Si Si2 0.404824 0.440407 0.174450
Si Si3 0.086587 0.250000 0.923432
Si Si4 0.028539 0.921018 0.863571
Si Si5 0.499145 0.750000 0.970623
Si Si6 0.857255 0.250000 0.672378
O O1 0.204393 0.936414 0.687112
O O2 0.167565 0.841896 0.425369
O O3 0.375181 0.995223 0.344317
O O4 0.000000 0.000000 0.500000
O O5 0.177042 0.417218 0.185405
O O6 0.500000 0.500000 0.000000
O O7 0.499409 0.341025 0.140641
O O8 0.305069 0.250000 0.953740
O O9 0.063547 0.250000 0.727435
O O10 0.968142 0.333887 0.025456
O O11 0.000000 0.000000 0.000000
O O12 0.316802 0.750000 0.145401
#
# Coordination Sequence:
#
# PCOD9160750 Si02
#       6
#     4   4   2   4   2   2
#     4  10  21  36  63  92 118 165 211 249 312 375
#     4  10  19  37  60  88 122 161 203 253 315 364
#     4  10  21  37  61  91 121 162 212 251 312 371
#     4  10  21  38  60  87 124 161 205 257 306 365
#     4  10  22  36  64  93 125 167 201 263 312 370
#     4  12  21  39  71  86 126 167 207 256 318 373
#
# _framework density 22.564737999999998
#
# number of rings (size 3 to 8) (size 9 to 14) (size 15 to 20)
#    0.000    1.778    2.222    3.333    0.000    2.667 
#    0.000    2.222    9.778    2.667    0.000    0.000 
#    0.000    0.000    0.000    0.000    0.000    0.000 
#
# Total GULP energy -100456.127202 kJ/mol
# GULP energy per Si atom -5580.895956 kJ/mol
# Density = 2.251338 g / cm^3
# Si number density = 22.564738 Si / 1000 Ang^3
#
#
#
# Elastic Constant Matrix: (Units=GPa)
#
#
# Indices 1 2 3 4 5 6 
#
# 1 72.7623 10.1144 6.8657 0.0000 -10.1463 0.0000
# 2 10.1144 238.3058 88.8180 0.0000 0.2414 0.0000
# 3 6.8657 88.8180 160.0885 0.0000 -6.0548 0.0000
# 4 0.0000 0.0000 0.0000 38.2434 0.0000 0.8840
# 5 -10.1463 0.2414 -6.0548 0.0000 31.0670 0.0000
# 6 0.0000 0.0000 0.0000 0.8840 0.0000 27.2104
#
#
#
# Elastic Compliance Matrix: (Units=1/GPa)
#
#
# Indices 1 2 3 4 5 6 
#
# 1 0.014492 -0.000573 -0.000125 0.000000 0.004713 0.000000
# 2 -0.000573 0.005325 -0.002960 0.000000 -0.000805 0.000000
# 3 -0.000125 -0.002960 0.007952 0.000000 0.001532 0.000000
# 4 0.000000 0.000000 0.000000 0.026168 0.000000 -0.000850
# 5 0.004713 -0.000805 0.001532 0.000000 0.034033 0.000000
# 6 0.000000 0.000000 0.000000 -0.000850 0.000000 0.036778
#
#
# Mechanical properties :
#
#
# Convention : Reuss Voigt Hill
#
# Bulk Modulus (GPa) = 48.89520 75.86141 62.37830
# Shear Modulus (GPa) = 36.00181 43.66139 39.83160
#
# Velocity S-wave (km/s) = 3.99869 4.40357 4.20600
# Velocity P-wave (km/s) = 6.56013 7.71671 7.16181
#
# Compressibility (1/GPa) = 0.02045191
#
# Stress axis : x y z
#
# Youngs Moduli (GPa) = 69.00317 187.80567 125.75292
#
# Poissons Ratio (x) = 0.10765 0.01575
# Poissons Ratio (y) = 0.03955 0.37223
# Poissons Ratio (z) = 0.00864 0.55591
#
# Static dielectric constant tensor:
#      x y z
#    x 1.898100 0.000000 0.033440 
#    y 0.000000 1.795760 0.000000 
#    z 0.033440 0.000000 1.872160 
# 
# From -- ./inp_files/11706.got.cif
#   From: 2010.05.17/outbox.cif.g08.bks.cpg/sg11_6_cif.got.tgz:11706.got - 2010.06.03 12:22:45.
