data_PCOD9160474
_publ_section_title
;
Structure prediction by ZEFSAII (Michael W. Deem and Ramdas Pophale) SiO2 
 PCOD9160474
Probable space group: P 21/M
;
_chemical_formula_sum "Si O2"
_cell_formula_units_Z 32
_cell_length_a 32.756010
_cell_length_b 8.214292
_cell_length_c 13.084858
_cell_angle_alpha 90.000000
_cell_angle_beta 26.775751
_cell_angle_gamma 90.000000
_cell_volume 1586.078531
_symmetry_space_group_name_H-M "P 21/M"
_symmetry_group_IT_number 11
_symmetry_cell_setting 'monoclinic'
loop_
_space_group_symop_operation_xyz
x,y,z
-x,1/2+y,-z
-x,-y,-z
x,1/2-y,z
loop_
_atom_site_type_symbol
_atom_site_label
_atom_site_fract_x
_atom_site_fract_y
_atom_site_fract_z
Si Si1 0.861959 0.061557 0.874227
Si Si2 0.791025 0.556380 0.821991
Si Si3 0.594024 0.944178 0.336466
Si Si4 0.886128 0.057670 0.405736
Si Si5 0.215234 0.551302 0.571839
Si Si6 0.328027 0.057378 0.627326
Si Si7 0.600486 0.445129 0.748724
Si Si8 0.076932 0.555888 0.052795
O O1 0.884471 0.250000 0.804518
O O2 0.762446 0.043925 0.147913
O O3 0.923626 0.992285 0.828810
O O4 0.851491 0.976056 0.788227
O O5 0.789308 0.750000 0.809414
O O6 0.830060 0.474214 0.634076
O O7 0.688455 0.496364 0.075066
O O8 0.596940 0.750000 0.320712
O O9 0.602496 0.984243 0.437226
O O10 0.500000 0.000000 0.500000
O O11 0.900548 0.250000 0.360900
O O12 0.832834 0.996361 0.424799
O O13 0.983480 0.976870 0.204451
O O14 0.212054 0.750000 0.579138
O O15 0.320172 0.504451 0.349554
O O16 0.158200 0.494546 0.798608
O O17 0.305403 0.250000 0.686764
O O18 0.369721 0.018586 0.425763
O O19 0.602350 0.250000 0.737450
O O20 0.500000 0.500000 0.000000
O O21 0.089379 0.750000 0.035355
#
# Coordination Sequence:
#
# PCOD9160474 Si02
#       8
#     4   4   4   4   4   4   4   4
#     4  10  19  35  62  88 112 150 194 237 289 348
#     4  10  22  40  57  81 120 156 192 243 295 345
#     4   9  20  36  57  83 111 147 192 238 288 344
#     4  11  23  38  59  87 117 156 199 241 292 352
#     4   9  20  40  61  83 118 156 195 243 294 346
#     4  10  20  36  56  83 116 149 188 238 290 342
#     4  11  22  39  60  87 118 153 195 243 295 349
#     4  10  20  38  62  87 116 153 193 241 299 352
#
# _framework density 20.175545
#
# number of rings (size 3 to 8) (size 9 to 14) (size 15 to 20)
#    0.000    2.000    1.250    3.000    0.000    5.500 
#    0.000    6.875    0.000    0.000    0.000    0.000 
#    0.000    0.000    0.000    0.000    0.000    0.000 
#
# Total GULP energy -178639.917260 kJ/mol
# GULP energy per Si atom -5582.497414 kJ/mol
# Density = 2.012962 g / cm^3
# Si number density = 20.175545 Si / 1000 Ang^3
#
#
#
# Elastic Constant Matrix: (Units=GPa)
#
#
# Indices 1 2 3 4 5 6 
#
# 1 129.7141 0.3611 32.0772 0.0000 -20.4938 0.0000
# 2 0.3611 16.7820 -8.0802 0.0000 -4.5388 0.0000
# 3 32.0772 -8.0802 60.7229 0.0000 -11.3636 0.0000
# 4 0.0000 0.0000 0.0000 27.6717 0.0000 -3.9312
# 5 -20.4938 -4.5388 -11.3636 0.0000 32.1278 0.0000
# 6 0.0000 0.0000 0.0000 -3.9312 0.0000 24.1843
#
#
#
# Elastic Compliance Matrix: (Units=1/GPa)
#
#
# Indices 1 2 3 4 5 6 
#
# 1 0.009472 -0.001116 -0.004338 0.000000 0.004350 0.000000
# 2 -0.001116 0.069162 0.012302 0.000000 0.013410 0.000000
# 3 -0.004338 0.012302 0.021636 0.000000 0.006623 0.000000
# 4 0.000000 0.000000 0.000000 0.036992 0.000000 0.006013
# 5 0.004350 0.013410 0.006623 0.000000 0.038138 0.000000
# 6 0.000000 0.000000 0.000000 0.006013 0.000000 0.042327
#
#
# Mechanical properties :
#
#
# Convention : Reuss Voigt Hill
#
# Bulk Modulus (GPa) = 8.77451 28.43725 18.60588
# Shear Modulus (GPa) = 20.65939 28.98748 24.82343
#
# Velocity S-wave (km/s) = 3.20344 3.79458 3.51147
# Velocity P-wave (km/s) = 4.24750 5.77269 5.06780
#
# Compressibility (1/GPa) = 0.11396645
#
# Stress axis : x y z
#
# Youngs Moduli (GPa) = 105.56877 14.45885 46.21822
#
# Poissons Ratio (x) = 0.01614 0.20051
# Poissons Ratio (y) = 0.11782 -0.56859
# Poissons Ratio (z) = 0.45799 -0.17788
#
# Static dielectric constant tensor:
#      x y z
#    x 1.739100 0.000000 -0.009550 
#    y 0.000000 1.714080 0.000000 
#    z -0.009550 0.000000 1.699750 
# 
# From -- ./inp_files/45141.got.cif
#   From: 2010.05.17/outbox.cif.g08.bks.cpg/sg11_23_cif.got.tgz:45141.got - 2010.06.03 12:22:45.
