data_PCOD9160326
_publ_section_title
;
Structure prediction by ZEFSAII (Michael W. Deem and Ramdas Pophale) SiO2 
 PCOD9160326
Probable space group: P 21/M
;
_chemical_formula_sum "Si O2"
_cell_formula_units_Z 32
_cell_length_a 15.270522
_cell_length_b 13.095167
_cell_length_c 11.334483
_cell_angle_alpha 90.000000
_cell_angle_beta 38.430540
_cell_angle_gamma 90.000000
_cell_volume 1408.813434
_symmetry_space_group_name_H-M "P 21/M"
_symmetry_group_IT_number 11
_symmetry_cell_setting 'monoclinic'
loop_
_space_group_symop_operation_xyz
x,y,z
-x,1/2+y,-z
-x,-y,-z
x,1/2-y,z
loop_
_atom_site_type_symbol
_atom_site_label
_atom_site_fract_x
_atom_site_fract_y
_atom_site_fract_z
Si Si1 0.117319 0.543112 0.466487
Si Si2 0.426988 0.499382 0.392674
Si Si3 0.387583 0.868814 0.658996
Si Si4 0.874878 0.014661 0.005243
Si Si5 0.590158 0.370337 0.830246
Si Si6 0.296954 0.137646 0.251557
Si Si7 0.143003 0.126145 0.754878
Si Si8 0.145850 0.138352 0.156741
O O1 0.255203 0.606071 0.278690
O O2 0.199517 0.441859 0.421615
O O3 0.000000 0.500000 0.500000
O O4 0.021325 0.615414 0.649055
O O5 0.546089 0.415754 0.292419
O O6 0.449476 0.580432 0.475366
O O7 0.425600 0.562679 0.272813
O O8 0.286289 0.433081 0.569655
O O9 0.408576 0.750000 0.633678
O O10 0.225898 0.902732 0.829801
O O11 0.803392 0.957068 0.971628
O O12 0.896652 0.920477 0.073203
O O13 0.012675 0.076425 0.821356
O O14 0.581292 0.250000 0.809752
O O15 0.459484 0.389941 0.056688
O O16 0.289517 0.250000 0.313102
O O17 0.227102 0.140484 0.194989
O O18 0.151563 0.250000 0.742895
O O19 0.166182 0.250000 0.080732
#
# Coordination Sequence:
#
# PCOD9160326 Si02
#       8
#     4   4   4   4   4   4   4   4
#     4  10  21  37  58  83 112 142 177 233 297 349
#     4  10  21  35  57  86 112 150 194 230 273 324
#     4  10  20  36  55  80 121 157 186 227 276 328
#     4  10  20  33  54  80 105 146 191 230 273 323
#     4  11  21  37  62  87 111 144 193 241 278 330
#     4   9  20  37  58  82 109 141 177 229 291 345
#     4  10  20  34  50  74 113 150 184 226 276 327
#     4  10  19  35  58  82 108 141 188 237 279 331
#
# _framework density 22.71415
#
# number of rings (size 3 to 8) (size 9 to 14) (size 15 to 20)
#    0.000    2.000    0.000    3.750    0.000    0.500 
#    0.000   11.250    0.000   16.500    0.000    0.000 
#    0.000    0.000    0.000    0.000    0.000    0.000 
#
# Total GULP energy -178419.900805 kJ/mol
# GULP energy per Si atom -5575.621900 kJ/mol
# Density = 2.266245 g / cm^3
# Si number density = 22.714150 Si / 1000 Ang^3
#
#
#
# Elastic Constant Matrix: (Units=GPa)
#
#
# Indices 1 2 3 4 5 6 
#
# 1 64.3040 37.9824 15.4031 0.0000 -5.3597 0.0000
# 2 37.9824 182.5820 37.2940 0.0000 -6.8164 0.0000
# 3 15.4031 37.2940 79.6041 0.0000 -14.8173 0.0000
# 4 0.0000 0.0000 0.0000 30.2832 0.0000 2.9713
# 5 -5.3597 -6.8164 -14.8173 0.0000 26.8935 0.0000
# 6 0.0000 0.0000 0.0000 2.9713 0.0000 27.0116
#
#
#
# Elastic Compliance Matrix: (Units=1/GPa)
#
#
# Indices 1 2 3 4 5 6 
#
# 1 0.018074 -0.003369 -0.001568 0.000000 0.001884 0.000000
# 2 -0.003369 0.006685 -0.002551 0.000000 -0.000383 0.000000
# 3 -0.001568 -0.002551 0.015469 0.000000 0.007564 0.000000
# 4 0.000000 0.000000 0.000000 0.033382 0.000000 -0.003672
# 5 0.001884 -0.000383 0.007564 0.000000 0.041629 0.000000
# 6 0.000000 0.000000 0.000000 -0.003672 0.000000 0.037425
#
#
# Mechanical properties :
#
#
# Convention : Reuss Voigt Hill
#
# Bulk Modulus (GPa) = 39.60321 56.42766 48.01544
# Shear Modulus (GPa) = 28.39987 32.55835 30.47911
#
# Velocity S-wave (km/s) = 3.53982 3.79013 3.66711
# Velocity P-wave (km/s) = 5.84640 6.63701 6.25421
#
# Compressibility (1/GPa) = 0.02525048
#
# Stress axis : x y z
#
# Youngs Moduli (GPa) = 55.32842 149.59574 64.64715
#
# Poissons Ratio (x) = 0.50403 0.10137
# Poissons Ratio (y) = 0.18642 0.16492
# Poissons Ratio (z) = 0.08676 0.38162
#
# Static dielectric constant tensor:
#      x y z
#    x 1.938860 0.000000 0.013110 
#    y 0.000000 1.848840 0.000000 
#    z 0.013110 0.000000 1.877060 
# 
# From -- ./inp_files/53629.got.cif
#   From: 2010.05.17/outbox.cif.g08.bks.cpg/sg11_27_cif.got.tgz:53629.got - 2010.06.03 12:22:45.
