data_PCOD9160982
_publ_section_title
;
Structure prediction by ZEFSAII (Michael W. Deem and Ramdas Pophale) SiO2 
 PCOD9160982
Probable space group: P 21/M
;
_chemical_formula_sum "Si O2"
_cell_formula_units_Z 32
_cell_length_a 13.847362
_cell_length_b 13.929943
_cell_length_c 12.515427
_cell_angle_alpha 90.000000
_cell_angle_beta 44.376175
_cell_angle_gamma 90.000000
_cell_volume 1688.366344
_symmetry_space_group_name_H-M "P 21/M"
_symmetry_group_IT_number 11
_symmetry_cell_setting 'monoclinic'
loop_
_space_group_symop_operation_xyz
x,y,z
-x,1/2+y,-z
-x,-y,-z
x,1/2-y,z
loop_
_atom_site_type_symbol
_atom_site_label
_atom_site_fract_x
_atom_site_fract_y
_atom_site_fract_z
Si Si1 0.029874 0.633064 0.027621
Si Si2 0.845240 0.974839 0.586239
Si Si3 0.770188 0.866948 0.085657
Si Si4 0.158081 0.639652 0.555213
Si Si5 0.847450 0.865460 0.364054
Si Si6 0.587769 0.632980 0.424407
Si Si7 0.823212 0.637413 0.808752
Si Si8 0.723079 0.133232 0.307417
O O1 0.032696 0.750000 0.029135
O O2 0.913517 0.607777 0.031800
O O3 0.972591 0.601079 0.187804
O O4 0.177381 0.600491 0.866938
O O5 0.854271 0.905247 0.477175
O O6 0.779177 0.924194 0.740969
O O7 0.784646 0.071999 0.583493
O O8 0.000000 0.000000 0.500000
O O9 0.771659 0.750000 0.079805
O O10 0.645764 0.895017 0.262200
O O11 0.765416 0.899421 0.967427
O O12 0.197791 0.750000 0.507431
O O13 0.210447 0.609144 0.630528
O O14 0.990968 0.634286 0.686350
O O15 0.851774 0.750000 0.363633
O O16 0.705146 0.893148 0.417175
O O17 0.583692 0.750000 0.427315
O O18 0.434142 0.599414 0.571734
O O19 0.787602 0.750000 0.821881
O O20 0.722078 0.250000 0.303952
#
# Coordination Sequence:
#
# PCOD9160982 Si02
#       8
#     4   4   4   4   4   4   4   4
#     4   8  13  23  45  71 100 128 154 192 243 291
#     4  10  20  31  46  71  97 124 169 208 237 282
#     4   8  12  22  41  70 100 124 154 199 243 281
#     4   9  17  29  46  68  95 123 158 205 246 281
#     4   9  17  31  48  74 105 129 152 196 246 284
#     4   8  15  25  45  75 103 127 158 193 237 296
#     4   9  15  26  47  71  95 127 162 200 243 282
#     4   9  14  25  46  73  97 128 163 193 237 295
#
# _framework density 18.953233000000001
#
# number of rings (size 3 to 8) (size 9 to 14) (size 15 to 20)
#    0.000    3.250    1.250    1.875    0.000    0.500 
#    0.000    1.250    0.000    0.750    6.500    0.000 
#    0.000    0.000    0.000    0.000    0.000    0.250 
#
# Total GULP energy -178484.118625 kJ/mol
# GULP energy per Si atom -5577.628707 kJ/mol
# Density = 1.891009 g / cm^3
# Si number density = 18.953233 Si / 1000 Ang^3
#
#
#
# Elastic Constant Matrix: (Units=GPa)
#
#
# Indices 1 2 3 4 5 6 
#
# 1 75.5335 22.5333 70.7555 0.0000 20.2447 0.0000
# 2 22.5333 69.3385 29.5593 0.0000 7.5400 0.0000
# 3 70.7555 29.5593 142.5827 0.0000 13.3573 0.0000
# 4 0.0000 0.0000 0.0000 8.7681 0.0000 -3.2735
# 5 20.2447 7.5400 13.3573 0.0000 35.6727 0.0000
# 6 0.0000 0.0000 0.0000 -3.2735 0.0000 9.9261
#
#
#
# Elastic Compliance Matrix: (Units=1/GPa)
#
#
# Indices 1 2 3 4 5 6 
#
# 1 0.029016 -0.002773 -0.012785 0.000000 -0.011094 0.000000
# 2 -0.002773 0.016252 -0.001885 0.000000 -0.001156 0.000000
# 3 -0.012785 -0.001885 0.013505 0.000000 0.002597 0.000000
# 4 0.000000 0.000000 0.000000 0.130065 0.000000 0.042894
# 5 -0.011094 -0.001156 0.002597 0.000000 0.033600 0.000000
# 6 0.000000 0.000000 0.000000 0.042894 0.000000 0.114891
#
#
# Mechanical properties :
#
#
# Convention : Reuss Voigt Hill
#
# Bulk Modulus (GPa) = 41.86181 59.23898 50.55039
# Shear Modulus (GPa) = 13.15178 21.84714 17.49946
#
# Velocity S-wave (km/s) = 2.63707 3.39881 3.04188
# Velocity P-wave (km/s) = 5.60420 6.83562 6.25031
#
# Compressibility (1/GPa) = 0.02388812
#
# Stress axis : x y z
#
# Youngs Moduli (GPa) = 34.46423 61.52938 74.04530
#
# Poissons Ratio (x) = 0.17061 0.94664
# Poissons Ratio (y) = 0.09557 0.13958
# Poissons Ratio (z) = 0.44061 0.11599
#
# Static dielectric constant tensor:
#      x y z
#    x 1.618000 0.000000 0.000560 
#    y 0.000000 1.741230 0.000000 
#    z 0.000560 0.000000 1.657240 
# 
# From -- ./inp_files/36022.got.cif
#   From: 2010.05.17/outbox.cif.g08.bks.cpg/sg11_19_cif.got.tgz:36022.got - 2010.06.03 12:22:45.
