data_PCOD9160583
_publ_section_title
;
Structure prediction by ZEFSAII (Michael W. Deem and Ramdas Pophale) SiO2 
 PCOD9160583
Probable space group: P 21/M
;
_chemical_formula_sum "Si O2"
_cell_formula_units_Z 32
_cell_length_a 16.780846
_cell_length_b 7.776853
_cell_length_c 24.256658
_cell_angle_alpha 90.000000
_cell_angle_beta 28.052963
_cell_angle_gamma 90.000000
_cell_volume 1488.717108
_symmetry_space_group_name_H-M "P 21/M"
_symmetry_group_IT_number 11
_symmetry_cell_setting 'monoclinic'
loop_
_space_group_symop_operation_xyz
x,y,z
-x,1/2+y,-z
-x,-y,-z
x,1/2-y,z
loop_
_atom_site_type_symbol
_atom_site_label
_atom_site_fract_x
_atom_site_fract_y
_atom_site_fract_z
Si Si1 0.702954 0.449574 0.930960
Si Si2 0.471172 0.539298 0.778933
Si Si3 0.082571 0.955058 0.007793
Si Si4 0.387200 0.041753 0.189138
Si Si5 0.654605 0.045010 0.445282
Si Si6 0.997318 0.048227 0.178324
Si Si7 0.293387 0.453795 0.463674
Si Si8 0.911583 0.045082 0.700375
O O1 0.670096 0.250000 0.937822
O O2 0.802988 0.527918 0.818106
O O3 0.833987 0.458452 0.901921
O O4 0.525218 0.524322 0.060149
O O5 0.468169 0.750000 0.780224
O O6 0.276849 0.481945 0.892344
O O7 0.552994 0.486071 0.786994
O O8 0.584632 0.478000 0.658501
O O9 0.084292 0.750000 0.012264
O O10 0.000000 0.000000 0.000000
O O11 0.983684 0.025821 0.121210
O O12 0.392097 0.250000 0.185531
O O13 0.201599 0.984773 0.284256
O O14 0.666665 0.250000 0.440876
O O15 0.831868 0.980311 0.311092
O O16 0.500000 0.000000 0.500000
O O17 0.633103 0.977789 0.520179
O O18 0.015645 0.250000 0.179362
O O19 0.279380 0.250000 0.461676
O O20 0.101666 0.525602 0.580673
O O21 0.927694 0.250000 0.700196
#
# Coordination Sequence:
#
# PCOD9160583 Si02
#       8
#     4   4   4   4   4   4   4   4
#     4  10  19  36  59  85 117 156 197 241 300 356
#     4   9  20  39  61  84 115 157 197 239 292 351
#     4  11  23  41  63  89 124 158 199 245 295 355
#     4  10  20  36  58  83 116 157 196 237 295 355
#     4  11  25  42  62  90 121 155 198 244 296 355
#     4  11  23  39  62  91 121 154 197 246 298 352
#     4  10  21  40  63  85 117 157 198 245 297 350
#     4  10  21  35  56  87 118 151 196 245 296 352
#
# _framework density 21.495017000000001
#
# number of rings (size 3 to 8) (size 9 to 14) (size 15 to 20)
#    0.000    1.750    2.500    1.500    1.750    3.500 
#    0.000    1.250    0.000    0.000    0.000    0.000 
#    0.000    0.000    0.000    0.000    0.000    0.000 
#
# Total GULP energy -178856.593412 kJ/mol
# GULP energy per Si atom -5589.268544 kJ/mol
# Density = 2.144609 g / cm^3
# Si number density = 21.495017 Si / 1000 Ang^3
#
#
#
# Elastic Constant Matrix: (Units=GPa)
#
#
# Indices 1 2 3 4 5 6 
#
# 1 105.6256 -12.5386 27.9290 0.0000 6.6138 0.0000
# 2 -12.5386 32.5907 6.6062 0.0000 5.2738 0.0000
# 3 27.9290 6.6062 83.6730 0.0000 17.5467 0.0000
# 4 0.0000 0.0000 0.0000 8.0727 0.0000 -2.5128
# 5 6.6138 5.2738 17.5467 0.0000 39.0842 0.0000
# 6 0.0000 0.0000 0.0000 -2.5128 0.0000 29.5973
#
#
#
# Elastic Compliance Matrix: (Units=1/GPa)
#
#
# Indices 1 2 3 4 5 6 
#
# 1 0.011193 0.005245 -0.003979 0.000000 -0.000815 0.000000
# 2 0.005245 0.034061 -0.003632 0.000000 -0.003853 0.000000
# 3 -0.003979 -0.003632 0.014707 0.000000 -0.005439 0.000000
# 4 0.000000 0.000000 0.000000 0.127237 0.000000 0.010803
# 5 -0.000815 -0.003853 -0.005439 0.000000 0.028686 0.000000
# 6 0.000000 0.000000 0.000000 0.010803 0.000000 0.034704
#
#
# Mechanical properties :
#
#
# Convention : Reuss Voigt Hill
#
# Bulk Modulus (GPa) = 18.10649 29.54250 23.82449
# Shear Modulus (GPa) = 18.26616 28.67701 23.47159
#
# Velocity S-wave (km/s) = 2.91827 3.65653 3.30806
# Velocity P-wave (km/s) = 4.44938 5.62145 5.06940
#
# Compressibility (1/GPa) = 0.05522881
#
# Stress axis : x y z
#
# Youngs Moduli (GPa) = 89.33957 29.35892 67.99537
#
# Poissons Ratio (x) = -0.15399 0.27057
# Poissons Ratio (y) = -0.46858 0.24695
# Poissons Ratio (z) = 0.35551 0.10663
#
# Static dielectric constant tensor:
#      x y z
#    x 1.749040 0.000000 0.009640 
#    y 0.000000 1.793510 0.000000 
#    z 0.009640 0.000000 1.785550 
# 
# From -- ./inp_files/68993.got.cif
#   From: 2010.05.17/outbox.cif.g08.bks.cpg/sg11_35_cif.got.tgz:68993.got - 2010.06.03 12:22:45.
