data_PCOD9160081
_publ_section_title
;
Structure prediction by ZEFSAII (Michael W. Deem and Ramdas Pophale) SiO2 
 PCOD9160081
Probable space group: P 21/M
;
_chemical_formula_sum "Si O2"
_cell_formula_units_Z 32
_cell_length_a 31.299347
_cell_length_b 8.637440
_cell_length_c 12.091706
_cell_angle_alpha 90.000000
_cell_angle_beta 146.363834
_cell_angle_gamma 90.000000
_cell_volume 1810.726028
_symmetry_space_group_name_H-M "P 21/M"
_symmetry_group_IT_number 11
_symmetry_cell_setting 'monoclinic'
loop_
_space_group_symop_operation_xyz
x,y,z
-x,1/2+y,-z
-x,-y,-z
x,1/2-y,z
loop_
_atom_site_type_symbol
_atom_site_label
_atom_site_fract_x
_atom_site_fract_y
_atom_site_fract_z
Si Si1 0.336572 0.428790 0.901616
Si Si2 0.238364 0.061787 0.882535
Si Si3 0.176710 0.428754 0.415802
Si Si4 0.908778 0.434360 0.567083
Si Si5 0.419956 0.063230 0.872674
Si Si6 0.271185 0.933684 0.427963
Si Si7 0.210737 0.435320 0.073613
Si Si8 0.961770 0.064890 0.305191
O O1 0.358429 0.250000 0.967632
O O2 0.310571 0.494029 0.963739
O O3 0.256492 0.430551 0.659095
O O4 0.399397 0.495827 0.952864
O O5 0.231975 0.250000 0.856704
O O6 0.243274 0.026260 0.022109
O O7 0.161258 0.989226 0.663836
O O8 0.155950 0.250000 0.352324
O O9 0.114465 0.510593 0.360010
O O10 0.200210 0.509706 0.352413
O O11 0.915368 0.250000 0.577398
O O12 0.985007 0.512265 0.682174
O O13 0.420840 0.250000 0.877043
O O14 0.348946 0.009465 0.643471
O O15 0.500000 0.000000 0.000000
O O16 0.277337 0.750000 0.449311
O O17 0.256386 0.987255 0.271761
O O18 0.211801 0.250000 0.088750
O O19 0.123130 0.494980 0.888004
O O20 0.958597 0.250000 0.304340
O O21 0.000000 0.000000 0.500000
#
# Coordination Sequence:
#
# PCOD9160081 Si02
#       8
#     4   4   4   4   4   4   4   4
#     4   7  13  27  49  77 104 133 169 215 262 310
#     4   9  17  31  52  75 103 140 183 225 270 320
#     4   9  17  33  54  75 103 139 179 223 272 322
#     4  11  20  31  51  78 106 137 180 231 280 324
#     4  10  19  34  58  86 115 143 176 218 269 322
#     4  11  22  37  56  81 112 144 181 221 268 328
#     4  11  22  36  55  78 107 145 184 225 276 330
#     4  12  23  36  52  75 107 143 185 233 280 325
#
# _framework density 17.672470000000001
#
# number of rings (size 3 to 8) (size 9 to 14) (size 15 to 20)
#    0.000    2.000    1.250    6.000    0.000    0.500 
#    0.000    1.250    0.000    0.750    0.000    0.000 
#    0.000    0.000    0.000    0.000    0.000    0.000 
#
# Total GULP energy -178517.831346 kJ/mol
# GULP energy per Si atom -5578.682230 kJ/mol
# Density = 1.763225 g / cm^3
# Si number density = 17.672470 Si / 1000 Ang^3
#
#
#
# Elastic Constant Matrix: (Units=GPa)
#
#
# Indices 1 2 3 4 5 6 
#
# 1 159.0545 27.4288 42.6306 0.0000 5.4202 0.0000
# 2 27.4288 68.8859 7.6560 0.0000 -5.2621 0.0000
# 3 42.6306 7.6560 41.5905 0.0000 -1.6284 0.0000
# 4 0.0000 0.0000 0.0000 23.3095 0.0000 1.6094
# 5 5.4202 -5.2621 -1.6284 0.0000 23.6505 0.0000
# 6 0.0000 0.0000 0.0000 1.6094 0.0000 27.5570
#
#
#
# Elastic Compliance Matrix: (Units=1/GPa)
#
#
# Indices 1 2 3 4 5 6 
#
# 1 0.009386 -0.002977 -0.009208 0.000000 -0.003447 0.000000
# 2 -0.002977 0.015997 0.000274 0.000000 0.004260 0.000000
# 3 -0.009208 0.000274 0.033607 0.000000 0.004485 0.000000
# 4 0.000000 0.000000 0.000000 0.043075 0.000000 -0.002516
# 5 -0.003447 0.004260 0.004485 0.000000 0.044329 0.000000
# 6 0.000000 0.000000 0.000000 -0.002516 0.000000 0.036435
#
#
# Mechanical properties :
#
#
# Convention : Reuss Voigt Hill
#
# Bulk Modulus (GPa) = 28.43489 47.21796 37.82642
# Shear Modulus (GPa) = 22.89648 27.69110 25.29379
#
# Velocity S-wave (km/s) = 3.60335 3.96271 3.78730
# Velocity P-wave (km/s) = 5.78248 6.90752 6.36988
#
# Compressibility (1/GPa) = 0.03516807
#
# Stress axis : x y z
#
# Youngs Moduli (GPa) = 106.54250 62.51069 29.75567
#
# Poissons Ratio (x) = 0.18611 0.27398
# Poissons Ratio (y) = 0.31721 -0.00815
# Poissons Ratio (z) = 0.98100 -0.01711
#
# Static dielectric constant tensor:
#      x y z
#    x 1.642310 0.000000 -0.036540 
#    y 0.000000 1.586640 0.000000 
#    z -0.036540 0.000000 1.328200 
# 
# From -- ./inp_files/45380.got.cif
#   From: 2010.05.17/outbox.cif.g08.bks.cpg/sg11_23_cif.got.tgz:45380.got - 2010.06.03 12:22:45.
