data_PCOD9160404
_publ_section_title
;
Structure prediction by ZEFSAII (Michael W. Deem and Ramdas Pophale) SiO2 
 PCOD9160404
Probable space group: P 21/M
;
_chemical_formula_sum "Si O2"
_cell_formula_units_Z 28
_cell_length_a 12.295394
_cell_length_b 8.346271
_cell_length_c 15.506691
_cell_angle_alpha 90.000000
_cell_angle_beta 118.840227
_cell_angle_gamma 90.000000
_cell_volume 1393.934667
_symmetry_space_group_name_H-M "P 21/M"
_symmetry_group_IT_number 11
_symmetry_cell_setting 'monoclinic'
loop_
_space_group_symop_operation_xyz
x,y,z
-x,1/2+y,-z
-x,-y,-z
x,1/2-y,z
loop_
_atom_site_type_symbol
_atom_site_label
_atom_site_fract_x
_atom_site_fract_y
_atom_site_fract_z
Si Si1 0.744211 0.937189 0.687948
Si Si2 0.876108 0.557329 0.003083
Si Si3 0.996294 0.556789 0.220880
Si Si4 0.073774 0.058757 0.613901
Si Si5 0.377075 0.055074 0.182442
Si Si6 0.387017 0.935596 0.512796
Si Si7 0.648881 0.054959 0.308118
O O1 0.724654 0.750000 0.662845
O O2 0.651336 0.987202 0.728499
O O3 0.727675 0.034851 0.594047
O O4 0.882621 0.970932 0.770732
O O5 0.875048 0.750000 0.993321
O O6 0.890057 0.520573 0.110250
O O7 0.743511 0.496964 0.916077
O O8 0.000000 0.500000 0.000000
O O9 0.013708 0.750000 0.227359
O O10 0.976811 0.502674 0.311967
O O11 0.064031 0.250000 0.608933
O O12 0.218564 0.009813 0.670050
O O13 0.000000 0.000000 0.500000
O O14 0.375838 0.250000 0.178663
O O15 0.518058 0.006424 0.213453
O O16 0.409676 0.750000 0.534809
O O17 0.365281 0.004282 0.598414
O O18 0.500000 0.000000 0.500000
O O19 0.655609 0.250000 0.308516
#
# Coordination Sequence:
#
# PCOD9160404 Si02
#       7
#     4   4   4   4   4   4   4
#     4  11  20  33  54  83 115 149 190 233 282 346
#     4  10  19  35  59  86 117 153 189 234 291 347
#     4  10  22  38  57  84 117 151 190 241 296 342
#     4  11  24  42  61  84 114 152 198 242 286 342
#     4   9  18  34  55  82 115 148 182 227 284 343
#     4  11  21  33  51  79 114 148 184 230 287 347
#     4  10  21  39  58  79 113 153 192 236 286 341
#
# _framework density 20.087025000000001
#
# number of rings (size 3 to 8) (size 9 to 14) (size 15 to 20)
#    0.000    1.714    2.857    2.143    0.000    5.714 
#    0.000    1.429    0.000    0.000    0.000    0.000 
#    0.000    0.000    0.000    0.000    0.000    0.000 
#
# Total GULP energy -156114.439067 kJ/mol
# GULP energy per Si atom -5575.515681 kJ/mol
# Density = 2.004131 g / cm^3
# Si number density = 20.087025 Si / 1000 Ang^3
#
#
#
# Elastic Constant Matrix: (Units=GPa)
#
#
# Indices 1 2 3 4 5 6 
#
# 1 104.4458 5.9834 33.8543 0.0000 15.8903 0.0000
# 2 5.9834 8.1581 6.8713 0.0000 -3.4152 0.0000
# 3 33.8543 6.8713 107.0108 0.0000 16.5673 0.0000
# 4 0.0000 0.0000 0.0000 19.7320 0.0000 6.4722
# 5 15.8903 -3.4152 16.5673 0.0000 33.9762 0.0000
# 6 0.0000 0.0000 0.0000 6.4722 0.0000 28.3054
#
#
#
# Elastic Compliance Matrix: (Units=1/GPa)
#
#
# Indices 1 2 3 4 5 6 
#
# 1 0.011612 -0.008741 -0.002310 0.000000 -0.005183 0.000000
# 2 -0.008741 0.147858 -0.010452 0.000000 0.024047 0.000000
# 3 -0.002310 -0.010452 0.011619 0.000000 -0.005636 0.000000
# 4 0.000000 0.000000 0.000000 0.054788 0.000000 -0.012528
# 5 -0.005183 0.024047 -0.005636 0.000000 0.037022 0.000000
# 6 0.000000 0.000000 0.000000 -0.012528 0.000000 0.038194
#
#
# Mechanical properties :
#
#
# Convention : Reuss Voigt Hill
#
# Bulk Modulus (GPa) = 7.80738 34.78140 21.29439
# Shear Modulus (GPa) = 12.92682 27.92977 20.42830
#
# Velocity S-wave (km/s) = 2.53956 3.73290 3.19249
# Velocity P-wave (km/s) = 3.53474 5.99436 4.92071
#
# Compressibility (1/GPa) = 0.12808387
#
# Stress axis : x y z
#
# Youngs Moduli (GPa) = 86.11479 6.76327 86.06364
#
# Poissons Ratio (x) = 0.05912 0.19881
# Poissons Ratio (y) = 0.75273 0.89950
# Poissons Ratio (z) = 0.19893 0.07069
#
# Static dielectric constant tensor:
#      x y z
#    x 1.726850 0.000000 0.039360 
#    y 0.000000 1.701710 0.000000 
#    z 0.039360 0.000000 1.809840 
# 
# From -- ./inp_files/38489.got.cif
#   From: 2010.05.17/outbox.cif.g08.bks.cpg/sg11_20_cif.got.tgz:38489.got - 2010.06.03 12:22:45.
