data_PCOD9160444
_publ_section_title
;
Structure prediction by ZEFSAII (Michael W. Deem and Ramdas Pophale) SiO2 
 PCOD9160444
Probable space group: P 21/M
;
_chemical_formula_sum "Si O2"
_cell_formula_units_Z 32
_cell_length_a 14.788006
_cell_length_b 19.374568
_cell_length_c 9.294320
_cell_angle_alpha 90.000000
_cell_angle_beta 140.970538
_cell_angle_gamma 90.000000
_cell_volume 1676.898208
_symmetry_space_group_name_H-M "P 21/M"
_symmetry_group_IT_number 11
_symmetry_cell_setting 'monoclinic'
loop_
_space_group_symop_operation_xyz
x,y,z
-x,1/2+y,-z
-x,-y,-z
x,1/2-y,z
loop_
_atom_site_type_symbol
_atom_site_label
_atom_site_fract_x
_atom_site_fract_y
_atom_site_fract_z
Si Si1 0.866747 0.168401 0.447039
Si Si2 0.092060 0.170592 0.968007
Si Si3 0.289125 0.173505 0.952261
Si Si4 0.097194 0.445249 0.205574
Si Si5 0.942571 0.057974 0.317904
Si Si6 0.527543 0.329155 0.021685
Si Si7 0.688817 0.521736 0.076081
Si Si8 0.609610 0.966083 0.294024
O O1 0.887902 0.250000 0.459971
O O2 0.924620 0.128985 0.379874
O O3 0.696240 0.156750 0.248866
O O4 0.964539 0.145826 0.703055
O O5 0.063770 0.250000 0.969170
O O6 0.240091 0.168826 0.057599
O O7 0.095379 0.124045 0.110895
O O8 0.231046 0.250000 0.834929
O O9 0.448135 0.172845 0.079238
O O10 0.242616 0.098064 0.840026
O O11 0.263689 0.464090 0.435312
O O12 0.030928 0.436814 0.282309
O O13 0.000000 0.500000 0.000000
O O14 0.782569 0.028556 0.095235
O O15 0.000000 0.000000 0.500000
O O16 0.511113 0.250000 0.942722
O O17 0.452616 0.390008 0.833380
O O18 0.676935 0.502838 0.229944
O O19 0.523929 0.513336 0.824760
#
# Coordination Sequence:
#
# PCOD9160444 Si02
#       8
#     4   4   4   4   4   4   4   4
#     4  10  21  39  65  92 120 156 202 256 307 363
#     4  10  23  42  61  87 124 162 201 246 303 369
#     4   9  18  34  58  86 114 154 200 246 297 359
#     4  12  26  40  59  88 127 168 203 245 310 373
#     4  12  22  38  63  92 122 158 207 257 304 357
#     4   9  18  35  62  92 117 148 202 257 309 360
#     4  10  19  35  60  90 119 148 201 262 305 350
#     4  10  21  36  57  88 119 157 193 252 313 351
#
# _framework density 19.082851000000002
#
# number of rings (size 3 to 8) (size 9 to 14) (size 15 to 20)
#    0.000    1.750    2.500    2.250    1.750    1.000 
#    0.000    3.750    0.000    0.000    0.000    0.000 
#    0.000    0.000    0.000    0.000    0.000    0.000 
#
# Total GULP energy -178179.582666 kJ/mol
# GULP energy per Si atom -5568.111958 kJ/mol
# Density = 1.903942 g / cm^3
# Si number density = 19.082851 Si / 1000 Ang^3
#
#
#
# Elastic Constant Matrix: (Units=GPa)
#
#
# Indices 1 2 3 4 5 6 
#
# 1 93.9209 27.8109 44.7361 0.0000 11.6078 0.0000
# 2 27.8109 96.1703 36.5640 0.0000 -0.3566 0.0000
# 3 44.7361 36.5640 106.8160 0.0000 11.0132 0.0000
# 4 0.0000 0.0000 0.0000 28.1580 0.0000 -4.5379
# 5 11.6078 -0.3566 11.0132 0.0000 26.1405 0.0000
# 6 0.0000 0.0000 0.0000 -4.5379 0.0000 34.1485
#
#
#
# Elastic Compliance Matrix: (Units=1/GPa)
#
#
# Indices 1 2 3 4 5 6 
#
# 1 0.014088 -0.002318 -0.004661 0.000000 -0.004324 0.000000
# 2 -0.002318 0.012433 -0.003564 0.000000 0.002700 0.000000
# 3 -0.004661 -0.003564 0.012885 0.000000 -0.003407 0.000000
# 4 0.000000 0.000000 0.000000 0.036291 0.000000 0.004823
# 5 -0.004324 0.002700 -0.003407 0.000000 0.041647 0.000000
# 6 0.000000 0.000000 0.000000 0.004823 0.000000 0.029925
#
#
# Mechanical properties :
#
#
# Convention : Reuss Voigt Hill
#
# Bulk Modulus (GPa) = 54.58098 57.23659 55.90878
# Shear Modulus (GPa) = 28.65947 30.20916 29.43431
#
# Velocity S-wave (km/s) = 3.87957 3.98308 3.93166
# Velocity P-wave (km/s) = 6.98085 7.15626 7.06910
#
# Compressibility (1/GPa) = 0.01832140
#
# Stress axis : x y z
#
# Youngs Moduli (GPa) = 70.98165 80.42809 77.60828
#
# Poissons Ratio (x) = 0.18643 0.36174
# Poissons Ratio (y) = 0.16453 0.27657
# Poissons Ratio (z) = 0.33085 0.28662
#
# Static dielectric constant tensor:
#      x y z
#    x 1.674480 0.000000 0.057510 
#    y 0.000000 1.738470 0.000000 
#    z 0.057510 0.000000 1.702730 
# 
# From -- ./inp_files/23127.got.cif
#   From: 2010.05.17/outbox.cif.g08.bks.cpg/sg11_12_cif.got.tgz:23127.got - 2010.06.03 12:22:45.
