data_PCOD9160424
_publ_section_title
;
Structure prediction by ZEFSAII (Michael W. Deem and Ramdas Pophale) SiO2 
 PCOD9160424
Probable space group: P 21/M
;
_chemical_formula_sum "Si O2"
_cell_formula_units_Z 32
_cell_length_a 19.987442
_cell_length_b 13.937402
_cell_length_c 5.276088
_cell_angle_alpha 90.000000
_cell_angle_beta 105.305826
_cell_angle_gamma 90.000000
_cell_volume 1417.643647
_symmetry_space_group_name_H-M "P 21/M"
_symmetry_group_IT_number 11
_symmetry_cell_setting 'monoclinic'
loop_
_space_group_symop_operation_xyz
x,y,z
-x,1/2+y,-z
-x,-y,-z
x,1/2-y,z
loop_
_atom_site_type_symbol
_atom_site_label
_atom_site_fract_x
_atom_site_fract_y
_atom_site_fract_z
Si Si1 0.841641 0.141723 0.868813
Si Si2 0.407598 0.508046 0.262934
Si Si3 0.341641 0.858277 0.814471
Si Si4 0.092402 0.991954 0.447737
Si Si5 0.490231 0.858395 0.695842
Si Si6 0.009769 0.641605 0.715377
Si Si7 0.288610 0.025143 0.475401
Si Si8 0.788609 0.525143 0.101819
O O1 0.819946 0.250000 0.788620
O O2 0.797132 0.089831 0.043655
O O3 0.921548 0.145430 0.044880
O O4 0.849752 0.067139 0.646883
O O5 0.448696 0.427652 0.148699
O O6 0.461649 0.587114 0.417919
O O7 0.366919 0.456541 0.454022
O O8 0.349752 0.567140 0.052623
O O9 0.319946 0.750000 0.851272
O O10 0.421548 0.854571 0.798220
O O11 0.297132 0.910170 0.550610
O O12 0.133082 0.043459 0.720185
O O13 0.038351 0.912886 0.494619
O O14 0.051304 0.072348 0.251309
O O15 0.513086 0.750000 0.671562
O O16 0.986915 0.750000 0.645386
O O17 0.259157 0.060811 0.713854
O O18 0.240844 0.060811 0.195540
#
# Coordination Sequence:
#
# PCOD9160424 Si02
#       8
#     4   4   4   4   4   4   4   4
#     4  10  20  34  55  84 121 157 194 241 292 355
#     4  10  19  35  60  84 119 161 193 243 301 353
#     4  10  20  34  55  84 121 157 194 241 292 355
#     4  10  19  35  60  84 119 161 193 243 301 353
#     4   9  19  34  56  90 119 150 198 248 299 355
#     4   9  19  34  56  90 119 150 198 248 299 355
#     4  11  22  39  56  83 114 155 198 241 286 347
#     4  11  22  39  56  83 114 155 198 241 286 347
#
# _framework density 22.572669999999999
#
# number of rings (size 3 to 8) (size 9 to 14) (size 15 to 20)
#    0.000    2.000    2.500    1.500    0.000    2.000 
#    0.000    0.000    0.000    1.500    0.000    0.000 
#    0.000    0.000    0.000    0.000    0.000    0.000 
#
# Total GULP energy -178206.056188 kJ/mol
# GULP energy per Si atom -5568.939256 kJ/mol
# Density = 2.252129 g / cm^3
# Si number density = 22.572670 Si / 1000 Ang^3
#
#
#
# Elastic Constant Matrix: (Units=GPa)
#
#
# Indices 1 2 3 4 5 6 
#
# 1 81.6540 22.2309 17.6126 0.0000 -4.6255 0.0000
# 2 22.2309 56.3925 18.9019 0.0000 1.2429 0.0000
# 3 17.6126 18.9019 98.0955 0.0000 -1.5129 0.0000
# 4 0.0000 0.0000 0.0000 17.2185 0.0000 0.2336
# 5 -4.6255 1.2429 -1.5129 0.0000 37.0532 0.0000
# 6 0.0000 0.0000 0.0000 0.2336 0.0000 17.8445
#
#
#
# Elastic Compliance Matrix: (Units=1/GPa)
#
#
# Indices 1 2 3 4 5 6 
#
# 1 0.014062 -0.005076 -0.001518 0.000000 0.001864 0.000000
# 2 -0.005076 0.020812 -0.003121 0.000000 -0.001459 0.000000
# 3 -0.001518 -0.003121 0.011074 0.000000 0.000367 0.000000
# 4 0.000000 0.000000 0.000000 0.058087 0.000000 -0.000760
# 5 0.001864 -0.001459 0.000367 0.000000 0.027285 0.000000
# 6 0.000000 0.000000 0.000000 -0.000760 0.000000 0.056050
#
#
# Mechanical properties :
#
#
# Convention : Reuss Voigt Hill
#
# Bulk Modulus (GPa) = 37.71086 39.29255 38.50171
# Shear Modulus (GPa) = 23.18692 26.24968 24.71830
#
# Velocity S-wave (km/s) = 3.20849 3.41383 3.31275
# Velocity P-wave (km/s) = 5.51984 5.74316 5.63260
#
# Compressibility (1/GPa) = 0.02651756
#
# Stress axis : x y z
#
# Youngs Moduli (GPa) = 71.11536 48.04876 90.30302
#
# Poissons Ratio (x) = 0.24388 0.13708
# Poissons Ratio (y) = 0.36096 0.28188
# Poissons Ratio (z) = 0.10795 0.14998
#
# Static dielectric constant tensor:
#      x y z
#    x 1.952420 0.000000 -0.004900 
#    y 0.000000 1.808720 0.000000 
#    z -0.004900 0.000000 1.965540 
# 
# From -- ./inp_files/9041.got.cif
#   From: 2010.05.17/outbox.cif.g08.bks.cpg/sg11_5_cif.got.tgz:9041.got - 2010.06.03 12:22:45.
