data_PCOD9160075
_publ_section_title
;
Structure prediction by ZEFSAII (Michael W. Deem and Ramdas Pophale) SiO2 
 PCOD9160075
Probable space group: P 21/M
;
_chemical_formula_sum "Si O2"
_cell_formula_units_Z 32
_cell_length_a 12.563874
_cell_length_b 8.629554
_cell_length_c 21.037746
_cell_angle_alpha 90.000000
_cell_angle_beta 52.322115
_cell_angle_gamma 90.000000
_cell_volume 1805.260305
_symmetry_space_group_name_H-M "P 21/M"
_symmetry_group_IT_number 11
_symmetry_cell_setting 'monoclinic'
loop_
_space_group_symop_operation_xyz
x,y,z
-x,1/2+y,-z
-x,-y,-z
x,1/2-y,z
loop_
_atom_site_type_symbol
_atom_site_label
_atom_site_fract_x
_atom_site_fract_y
_atom_site_fract_z
Si Si1 0.151565 0.065116 0.258013
Si Si2 0.581924 0.934430 0.030456
Si Si3 0.582452 0.563706 0.530174
Si Si4 0.562851 0.935457 0.792102
Si Si5 0.440225 0.063759 0.707539
Si Si6 0.853728 0.435724 0.882453
Si Si7 0.132528 0.063340 0.626341
Si Si8 0.846677 0.937775 0.233387
O O1 0.152252 0.250000 0.247132
O O2 0.280592 0.024242 0.253148
O O3 0.164689 0.981918 0.184833
O O4 0.009124 0.013544 0.338832
O O5 0.570897 0.750000 0.034458
O O6 0.518987 0.001938 0.117549
O O7 0.500000 0.000000 0.000000
O O8 0.736127 0.985343 0.965045
O O9 0.500000 0.500000 0.500000
O O10 0.573244 0.750000 0.533744
O O11 0.521244 0.496644 0.616887
O O12 0.739008 0.521410 0.462668
O O13 0.552400 0.750000 0.794307
O O14 0.505188 0.004013 0.748436
O O15 0.441011 0.250000 0.706588
O O16 0.285082 0.009661 0.755809
O O17 0.843491 0.250000 0.891838
O O18 0.005846 0.486439 0.844150
O O19 0.116701 0.250000 0.631014
O O20 0.163995 0.018356 0.688255
O O21 0.846881 0.750000 0.232041
#
# Coordination Sequence:
#
# PCOD9160075 Si02
#       8
#     4   4   4   4   4   4   4   4
#     4  10  20  34  55  83 115 147 190 239 284 341
#     4  12  23  37  59  88 116 149 193 240 285 338
#     4  11  21  36  58  87 118 152 193 241 288 340
#     4  11  24  41  58  83 118 154 191 237 290 345
#     4  11  22  39  60  85 117 154 195 236 286 350
#     4  10  19  34  58  85 116 149 185 235 288 338
#     4   9  18  34  56  82 115 148 186 236 288 338
#     4   8  16  33  55  82 114 148 185 231 283 334
#
# _framework density 17.725975999999999
#
# number of rings (size 3 to 8) (size 9 to 14) (size 15 to 20)
#    0.000    1.750    2.500    3.750    0.000    2.500 
#    0.000    3.125    0.000    0.000    0.000    0.000 
#    0.000    0.000    0.000    0.000    0.000    0.000 
#
# Total GULP energy -178667.309448 kJ/mol
# GULP energy per Si atom -5583.353420 kJ/mol
# Density = 1.768563 g / cm^3
# Si number density = 17.725976 Si / 1000 Ang^3
#
#
#
# Elastic Constant Matrix: (Units=GPa)
#
#
# Indices 1 2 3 4 5 6 
#
# 1 158.1880 45.9922 95.3654 0.0000 -16.9864 0.0000
# 2 45.9922 57.4638 39.7843 0.0000 -6.0105 0.0000
# 3 95.3654 39.7843 127.7730 0.0000 -14.0723 0.0000
# 4 0.0000 0.0000 0.0000 32.4187 0.0000 -1.7476
# 5 -16.9864 -6.0105 -14.0723 0.0000 33.4913 0.0000
# 6 0.0000 0.0000 0.0000 -1.7476 0.0000 27.6956
#
#
#
# Elastic Compliance Matrix: (Units=1/GPa)
#
#
# Indices 1 2 3 4 5 6 
#
# 1 0.012496 -0.004435 -0.007691 0.000000 0.002310 0.000000
# 2 -0.004435 0.023799 -0.004066 0.000000 0.000313 0.000000
# 3 -0.007691 -0.004066 0.015018 0.000000 0.001680 0.000000
# 4 0.000000 0.000000 0.000000 0.030952 0.000000 0.001953
# 5 0.002310 0.000313 0.001680 0.000000 0.031792 0.000000
# 6 0.000000 0.000000 0.000000 0.001953 0.000000 0.036230
#
#
# Mechanical properties :
#
#
# Convention : Reuss Voigt Hill
#
# Bulk Modulus (GPa) = 52.82784 78.41207 65.61995
# Shear Modulus (GPa) = 26.45781 29.53997 27.99889
#
# Velocity S-wave (km/s) = 3.86761 4.08668 3.97865
# Velocity P-wave (km/s) = 7.05774 8.16086 7.62927
#
# Compressibility (1/GPa) = 0.01892941
#
# Stress axis : x y z
#
# Youngs Moduli (GPa) = 80.02752 42.01778 66.58783
#
# Poissons Ratio (x) = 0.18634 0.51214
# Poissons Ratio (y) = 0.35490 0.27074
# Poissons Ratio (z) = 0.61550 0.17084
#
# Static dielectric constant tensor:
#      x y z
#    x 1.596600 0.000000 -0.035640 
#    y 0.000000 1.602130 0.000000 
#    z -0.035640 0.000000 1.588320 
# 
# From -- ./inp_files/64369.got.cif
#   From: 2010.05.17/outbox.cif.g08.bks.cpg/sg11_33_cif.got.tgz:64369.got - 2010.06.03 12:22:45.
