data_PCOD9160688
_publ_section_title
;
Structure prediction by ZEFSAII (Michael W. Deem and Ramdas Pophale) SiO2 
 PCOD9160688
Probable space group: P 21/M
;
_chemical_formula_sum "Si O2"
_cell_formula_units_Z 22
_cell_length_a 6.895773
_cell_length_b 13.695458
_cell_length_c 9.386924
_cell_angle_alpha 90.000000
_cell_angle_beta 95.119693
_cell_angle_gamma 90.000000
_cell_volume 882.971559
_symmetry_space_group_name_H-M "P 21/M"
_symmetry_group_IT_number 11
_symmetry_cell_setting 'monoclinic'
loop_
_space_group_symop_operation_xyz
x,y,z
-x,1/2+y,-z
-x,-y,-z
x,1/2-y,z
loop_
_atom_site_type_symbol
_atom_site_label
_atom_site_fract_x
_atom_site_fract_y
_atom_site_fract_z
Si Si1 0.582602 0.037696 0.355089
Si Si2 0.939680 0.111144 0.504993
Si Si3 0.825784 0.356290 0.822950
Si Si4 0.217658 0.425654 0.121819
Si Si5 0.093744 0.250000 0.297504
Si Si6 0.640969 0.859224 0.179092
O O1 0.738228 0.121488 0.400404
O O2 0.409598 0.069142 0.238193
O O3 0.500000 0.000000 0.500000
O O4 0.691859 0.946251 0.289070
O O5 0.887160 0.140343 0.661443
O O6 0.097560 0.168593 0.427164
O O7 0.000000 0.000000 0.500000
O O8 0.892120 0.250000 0.884389
O O9 0.873245 0.465018 0.883222
O O10 0.592791 0.354938 0.826516
O O11 0.090468 0.338786 0.178981
O O12 0.291997 0.392537 0.972159
O O13 0.711122 0.750000 0.217865
#
# Coordination Sequence:
#
# PCOD9160688 Si02
#       6
#     4   4   4   4   2   4
#     4  11  21  41  68 102 131 171 233 287 325 403
#     4  12  23  41  61  99 145 173 213 282 351 405
#     4  10  19  36  63  94 127 169 218 275 329 382
#     4  11  22  43  69  96 134 177 229 273 337 409
#     4  12  24  40  64  92 138 186 212 274 352 404
#     4  10  21  41  70  99 131 175 230 287 332 397
#
# _framework density 24.915866000000001
#
# number of rings (size 3 to 8) (size 9 to 14) (size 15 to 20)
#    0.000    1.091    7.273    2.182    0.000    0.727 
#    6.545    0.909    2.000    0.000    0.000    0.000 
#    0.000    0.000    0.000    0.000    0.000    0.000 
#
# Total GULP energy -122559.660184 kJ/mol
# GULP energy per Si atom -5570.893645 kJ/mol
# Density = 2.485916 g / cm^3
# Si number density = 24.915866 Si / 1000 Ang^3
#
#
#
# Elastic Constant Matrix: (Units=GPa)
#
#
# Indices 1 2 3 4 5 6 
#
# 1 75.2787 10.3922 21.1657 0.0000 -1.9729 0.0000
# 2 10.3922 221.3652 48.6161 0.0000 -10.4989 0.0000
# 3 21.1657 48.6161 162.8362 0.0000 -37.2469 0.0000
# 4 0.0000 0.0000 0.0000 14.2409 0.0000 14.1518
# 5 -1.9729 -10.4989 -37.2469 0.0000 56.3907 0.0000
# 6 0.0000 0.0000 0.0000 14.1518 0.0000 -114.7340
#
#
#
# Elastic Compliance Matrix: (Units=1/GPa)
#
#
# Indices 1 2 3 4 5 6 
#
# 1 0.013836 -0.000270 -0.001907 0.000000 -0.000826 0.000000
# 2 -0.000270 0.004840 -0.001421 0.000000 -0.000047 0.000000
# 3 -0.001907 -0.001421 0.007936 0.000000 0.004911 0.000000
# 4 0.000000 0.000000 0.000000 0.062553 0.000000 0.007716
# 5 -0.000826 -0.000047 0.004911 0.000000 0.020940 0.000000
# 6 0.000000 0.000000 0.000000 0.007716 0.000000 -0.007764
#
#
# Mechanical properties :
#
#
# Convention : Reuss Voigt Hill
#
# Bulk Modulus (GPa) = 51.49950 68.86980 60.18465
# Shear Modulus (GPa) = 43.10072 16.46659 29.78365
#
# Velocity S-wave (km/s) = 4.16366 2.57356 3.46116
# Velocity P-wave (km/s) = 6.62035 6.04416 6.33880
#
# Compressibility (1/GPa) = 0.01941767
#
# Stress axis : x y z
#
# Youngs Moduli (GPa) = 72.27692 206.61732 126.00167
#
# Poissons Ratio (x) = 0.05578 0.24024
# Poissons Ratio (y) = 0.01951 0.17899
# Poissons Ratio (z) = 0.13780 0.29351
#
# Static dielectric constant tensor:
#      x y z
#    x 2.082060 0.000000 0.065700 
#    y 0.000000 1.925520 0.000000 
#    z 0.065700 0.000000 1.929100 
# 
# From -- ./inp_files/12557.got.cif
#   From: 2010.05.17/outbox.cif.g08.bks.cpg/sg11_7_cif.got.tgz:12557.got - 2010.06.03 12:22:45.
