data_PCOD9160975
_publ_section_title
;
Structure prediction by ZEFSAII (Michael W. Deem and Ramdas Pophale) SiO2 
 PCOD9160975
Probable space group: P 21/M
;
_chemical_formula_sum "Si O2"
_cell_formula_units_Z 32
_cell_length_a 17.176225
_cell_length_b 23.281669
_cell_length_c 5.492832
_cell_angle_alpha 90.000000
_cell_angle_beta 52.671173
_cell_angle_gamma 90.000000
_cell_volume 1746.615501
_symmetry_space_group_name_H-M "P 21/M"
_symmetry_group_IT_number 11
_symmetry_cell_setting 'monoclinic'
loop_
_space_group_symop_operation_xyz
x,y,z
-x,1/2+y,-z
-x,-y,-z
x,1/2-y,z
loop_
_atom_site_type_symbol
_atom_site_label
_atom_site_fract_x
_atom_site_fract_y
_atom_site_fract_z
Si Si1 0.584492 0.012854 0.035166
Si Si2 0.709753 0.680428 0.663643
Si Si3 0.351017 0.618984 0.317280
Si Si4 0.523778 0.592995 0.365789
Si Si5 0.813669 0.679779 0.964466
Si Si6 0.151313 0.680333 0.820815
Si Si7 0.519089 0.817757 0.757763
Si Si8 0.040008 0.819482 0.529964
O O1 0.529634 0.052112 0.335399
O O2 0.605669 0.949536 0.098177
O O3 0.664715 0.055748 0.770649
O O4 0.500000 0.000000 0.000000
O O5 0.714996 0.750000 0.658168
O O6 0.758086 0.660947 0.823837
O O7 0.595767 0.666608 0.827326
O O8 0.766944 0.661323 0.310758
O O9 0.434300 0.608921 0.360328
O O10 0.255402 0.649164 0.599189
O O11 0.409351 0.661055 0.021677
O O12 0.556412 0.648800 0.450526
O O13 0.810364 0.750000 0.972533
O O14 0.927095 0.661905 0.736788
O O15 0.163359 0.750000 0.800102
O O16 0.090718 0.664972 0.690489
O O17 0.097720 0.663431 0.174683
O O18 0.521965 0.750000 0.716223
O O19 0.038900 0.750000 0.527883
#
# Coordination Sequence:
#
# PCOD9160975 Si02
#       8
#     4   4   4   4   4   4   4   4
#     4   8  16  33  51  69  87 124 171 222 258 277
#     4   9  18  29  45  67  93 127 170 209 246 297
#     4  10  20  31  47  68 101 139 167 206 247 301
#     4   9  18  32  51  67  94 135 170 212 246 292
#     4   9  16  30  48  64  87 125 169 216 258 287
#     4  10  20  31  45  70 103 137 171 203 246 310
#     4  10  21  31  43  70 106 142 170 197 241 305
#     4   9  18  31  47  66  93 129 171 215 254 297
#
# _framework density 18.321148000000001
#
# number of rings (size 3 to 8) (size 9 to 14) (size 15 to 20)
#    0.000    2.750    0.000    1.125    5.250    4.000 
#    0.000    0.000    0.000    0.000    0.000    0.000 
#    0.000    6.000    0.000    0.000    0.000    0.000 
#
# Total GULP energy -178206.523817 kJ/mol
# GULP energy per Si atom -5568.953869 kJ/mol
# Density = 1.827945 g / cm^3
# Si number density = 18.321148 Si / 1000 Ang^3
#
#
#
# Elastic Constant Matrix: (Units=GPa)
#
#
# Indices 1 2 3 4 5 6 
#
# 1 77.7547 19.9525 43.1477 0.0000 7.2968 0.0000
# 2 19.9525 54.7474 10.2420 0.0000 3.6508 0.0000
# 3 43.1477 10.2420 106.5157 0.0000 -1.2378 0.0000
# 4 0.0000 0.0000 0.0000 12.1539 0.0000 7.3522
# 5 7.2968 3.6508 -1.2378 0.0000 31.7289 0.0000
# 6 0.0000 0.0000 0.0000 7.3522 0.0000 17.2968
#
#
#
# Elastic Compliance Matrix: (Units=1/GPa)
#
#
# Indices 1 2 3 4 5 6 
#
# 1 0.018448 -0.005148 -0.007023 0.000000 -0.003924 0.000000
# 2 -0.005148 0.020193 0.000130 0.000000 -0.001135 0.000000
# 3 -0.007023 0.000130 0.012245 0.000000 0.002078 0.000000
# 4 0.000000 0.000000 0.000000 0.110756 0.000000 -0.047078
# 5 -0.003924 -0.001135 0.002078 0.000000 0.032631 0.000000
# 6 0.000000 0.000000 0.000000 -0.047078 0.000000 0.077825
#
#
# Mechanical properties :
#
#
# Convention : Reuss Voigt Hill
#
# Bulk Modulus (GPa) = 37.30752 42.85580 40.08166
# Shear Modulus (GPa) = 16.38734 23.28098 19.83416
#
# Velocity S-wave (km/s) = 2.99398 3.56858 3.29383
# Velocity P-wave (km/s) = 5.68851 6.35782 6.03246
#
# Compressibility (1/GPa) = 0.02680425
#
# Stress axis : x y z
#
# Youngs Moduli (GPa) = 54.20772 49.52221 81.66610
#
# Poissons Ratio (x) = 0.25492 0.57358
# Poissons Ratio (y) = 0.27904 -0.01064
# Poissons Ratio (z) = 0.38072 -0.00645
#
# Static dielectric constant tensor:
#      x y z
#    x 1.638310 0.000000 0.044030 
#    y 0.000000 1.650020 0.000000 
#    z 0.044030 0.000000 1.723640 
# 
# From -- ./inp_files/8327.got.cif
#   From: 2010.05.17/outbox.cif.g08.bks.cpg/sg11_5_cif.got.tgz:8327.got - 2010.06.03 12:22:45.
