data_PCOD9160648
_publ_section_title
;
Structure prediction by ZEFSAII (Michael W. Deem and Ramdas Pophale) SiO2 
 PCOD9160648
Probable space group: P 21/M
;
_chemical_formula_sum "Si O2"
_cell_formula_units_Z 24
_cell_length_a 7.703196
_cell_length_b 17.041943
_cell_length_c 11.258167
_cell_angle_alpha 90.000000
_cell_angle_beta 58.251297
_cell_angle_gamma 90.000000
_cell_volume 1256.789892
_symmetry_space_group_name_H-M "P 21/M"
_symmetry_group_IT_number 11
_symmetry_cell_setting 'monoclinic'
loop_
_space_group_symop_operation_xyz
x,y,z
-x,1/2+y,-z
-x,-y,-z
x,1/2-y,z
loop_
_atom_site_type_symbol
_atom_site_label
_atom_site_fract_x
_atom_site_fract_y
_atom_site_fract_z
Si Si1 0.158116 0.409888 0.255081
Si Si2 0.155051 0.660318 0.449602
Si Si3 0.454350 0.961341 0.262781
Si Si4 0.888186 0.505147 0.167093
Si Si5 0.053183 0.837763 0.206012
Si Si6 0.517961 0.660607 0.033062
O O1 0.287772 0.479782 0.268436
O O2 0.318397 0.356338 0.126747
O O3 0.028636 0.363761 0.399082
O O4 0.002833 0.448073 0.216595
O O5 0.219760 0.750000 0.448135
O O6 0.337134 0.597232 0.393930
O O7 0.082906 0.655786 0.337724
O O8 0.646987 0.008243 0.242903
O O9 0.539178 0.904629 0.127552
O O10 0.916485 0.593428 0.205586
O O11 0.000000 0.500000 0.000000
O O12 0.980680 0.750000 0.204074
O O13 0.284080 0.847645 0.072985
O O14 0.536584 0.750000 0.071894
#
# Coordination Sequence:
#
# PCOD9160648 Si02
#       6
#     4   4   4   4   4   4
#     4  12  22  40  62  89 125 153 199 260 300 347
#     4  10  22  42  64  88 119 162 202 246 305 360
#     4  11  22  38  65  85 120 162 205 239 298 364
#     4  12  23  37  62  95 119 156 203 248 300 356
#     4   9  20  39  62  86 118 158 203 243 298 363
#     4  10  19  36  61  86 117 159 197 244 300 352
#
# _framework density 19.096271000000002
#
# number of rings (size 3 to 8) (size 9 to 14) (size 15 to 20)
#    0.000    1.333    5.000    4.000    0.000    2.000 
#    0.000    0.000    0.000    2.000    0.000    0.000 
#    0.000    0.000    0.000    0.000    0.000    0.000 
#
# Total GULP energy -134047.379256 kJ/mol
# GULP energy per Si atom -5585.307469 kJ/mol
# Density = 1.905281 g / cm^3
# Si number density = 19.096271 Si / 1000 Ang^3
#
#
#
# Elastic Constant Matrix: (Units=GPa)
#
#
# Indices 1 2 3 4 5 6 
#
# 1 69.8471 12.1857 17.2321 0.0000 -5.5119 0.0000
# 2 12.1857 49.5860 8.8693 0.0000 3.1594 0.0000
# 3 17.2321 8.8693 113.7757 0.0000 -22.7192 0.0000
# 4 0.0000 0.0000 0.0000 24.2391 0.0000 -4.9562
# 5 -5.5119 3.1594 -22.7192 0.0000 16.2255 0.0000
# 6 0.0000 0.0000 0.0000 -4.9562 0.0000 15.7520
#
#
#
# Elastic Compliance Matrix: (Units=1/GPa)
#
#
# Indices 1 2 3 4 5 6 
#
# 1 0.015640 -0.003914 -0.001181 0.000000 0.004422 0.000000
# 2 -0.003914 0.022340 -0.003169 0.000000 -0.010117 0.000000
# 3 -0.001181 -0.003169 0.012851 0.000000 0.018211 0.000000
# 4 0.000000 0.000000 0.000000 0.044092 0.000000 0.013873
# 5 0.004422 -0.010117 0.018211 0.000000 0.090603 0.000000
# 6 0.000000 0.000000 0.000000 0.013873 0.000000 0.067849
#
#
# Mechanical properties :
#
#
# Convention : Reuss Voigt Hill
#
# Bulk Modulus (GPa) = 29.15064 34.42033 31.78549
# Shear Modulus (GPa) = 17.77222 24.23810 21.00516
#
# Velocity S-wave (km/s) = 3.05399 3.56653 3.32016
# Velocity P-wave (km/s) = 5.26631 5.91810 5.60170
#
# Compressibility (1/GPa) = 0.03430456
#
# Stress axis : x y z
#
# Youngs Moduli (GPa) = 63.93821 44.76218 77.81204
#
# Poissons Ratio (x) = 0.17520 0.09187
# Poissons Ratio (y) = 0.25026 0.24658
# Poissons Ratio (z) = 0.07549 0.14185
#
# Static dielectric constant tensor:
#      x y z
#    x 1.673420 0.000000 -0.005870 
#    y 0.000000 1.665550 0.000000 
#    z -0.005870 0.000000 1.656390 
# 
# From -- ./inp_files/32186.got.cif
#   From: 2010.05.17/outbox.cif.g08.bks.cpg/sg11_17_cif.got.tgz:32186.got - 2010.06.03 12:22:45.
