data_PCOD9160949
_publ_section_title
;
Structure prediction by ZEFSAII (Michael W. Deem and Ramdas Pophale) SiO2 
 PCOD9160949
Probable space group: P 21/M
;
_chemical_formula_sum "Si O2"
_cell_formula_units_Z 28
_cell_length_a 9.659070
_cell_length_b 14.584769
_cell_length_c 13.382146
_cell_angle_alpha 90.000000
_cell_angle_beta 116.509786
_cell_angle_gamma 90.000000
_cell_volume 1686.998998
_symmetry_space_group_name_H-M "P 21/M"
_symmetry_group_IT_number 11
_symmetry_cell_setting 'monoclinic'
loop_
_space_group_symop_operation_xyz
x,y,z
-x,1/2+y,-z
-x,-y,-z
x,1/2-y,z
loop_
_atom_site_type_symbol
_atom_site_label
_atom_site_fract_x
_atom_site_fract_y
_atom_site_fract_z
Si Si1 0.869591 0.000000 0.545664
Si Si2 0.064642 0.858356 0.713797
Si Si3 0.593158 1.000000 0.925583
Si Si4 0.301825 0.500000 0.695435
Si Si5 0.863082 0.858092 0.030128
Si Si6 0.064643 0.141645 0.713797
Si Si7 0.863082 0.141908 0.030128
O O1 0.912312 0.910794 0.624299
O O2 0.715017 0.000000 0.430191
O O3 0.000000 0.000000 0.500000
O O4 0.912312 0.089207 0.624299
O O5 0.063198 0.750000 0.691619
O O6 0.208231 0.911557 0.708276
O O7 0.084319 0.872370 0.838501
O O8 0.471008 1.000000 0.796551
O O9 0.707322 0.913461 0.960523
O O10 0.500000 0.000000 0.000000
O O11 0.707321 0.086539 0.960522
O O12 0.208231 0.411558 0.708276
O O13 0.836681 0.750000 0.007393
O O14 0.915680 0.872369 0.161499
O O15 0.000000 0.886951 0.000000
O O16 0.063200 0.250000 0.691619
O O17 0.836681 0.250000 0.007394
#
# Coordination Sequence:
#
# PCOD9160949 Si02
#       7
#     4   4   4   4   4   4   4
#     4   8  17  29  43  69 101 125 166 202 236 295
#     4   9  16  30  51  70  95 130 165 205 244 284
#     4  12  20  33  52  75 107 135 158 203 263 299
#     4  10  20  30  43  75 104 126 161 201 246 303
#     4  10  21  35  53  76 100 133 173 205 243 300
#     4   9  16  30  51  70  95 130 165 205 244 284
#     4  10  21  35  53  76 100 133 173 205 243 300
#
# _framework density 16.597521
#
# number of rings (size 3 to 8) (size 9 to 14) (size 15 to 20)
#    0.000    2.571    2.857    1.286    0.000    6.857 
#    0.000    0.000    0.000    3.429    0.000    6.000 
#    0.000    0.000    0.000    0.000    0.000    0.000 
#
# Total GULP energy -155999.311078 kJ/mol
# GULP energy per Si atom -5571.403967 kJ/mol
# Density = 1.655974 g / cm^3
# Si number density = 16.597521 Si / 1000 Ang^3
#
#
#
# Elastic Constant Matrix: (Units=GPa)
#
#
# Indices 1 2 3 4 5 6 
#
# 1 81.8443 44.9236 54.6489 0.0000 16.1674 0.0000
# 2 44.9236 128.7102 75.0848 0.0000 11.6426 0.0000
# 3 54.6489 75.0848 141.2235 0.0000 36.2862 0.0000
# 4 0.0000 0.0000 0.0000 -61.0859 0.0000 -34.0089
# 5 16.1674 11.6426 36.2862 0.0000 20.6633 0.0000
# 6 0.0000 0.0000 0.0000 -34.0089 0.0000 -8.1211
#
#
#
# Elastic Compliance Matrix: (Units=1/GPa)
#
#
# Indices 1 2 3 4 5 6 
#
# 1 0.017631 -0.003648 -0.003402 0.000000 -0.005766 0.000000
# 2 -0.003648 0.012712 -0.007726 0.000000 0.009259 0.000000
# 3 -0.003402 -0.007726 0.019502 0.000000 -0.027233 0.000000
# 4 0.000000 0.000000 0.000000 0.012295 0.000000 -0.051488
# 5 -0.005766 0.009259 -0.027233 0.000000 0.095512 0.000000
# 6 0.000000 0.000000 0.000000 -0.051488 0.000000 0.092482
#
#
# Mechanical properties :
#
#
# Convention : Reuss Voigt Hill
#
# Bulk Modulus (GPa) = 49.27549 77.89918 63.58733
# Shear Modulus (GPa) = 17.45506 2.09930 9.77718
#
# Velocity S-wave (km/s) = 3.24646 1.12587 2.42972
# Velocity P-wave (km/s) = 6.61858 6.98042 6.80190
#
# Compressibility (1/GPa) = 0.02029407
#
# Stress axis : x y z
#
# Youngs Moduli (GPa) = 56.71874 78.66438 51.27572
#
# Poissons Ratio (x) = 0.28694 0.17442
# Poissons Ratio (y) = 0.20689 0.39617
# Poissons Ratio (z) = 0.19294 0.60779
#
# Static dielectric constant tensor:
#      x y z
#    x 1.533650 0.000000 0.007520 
#    y 0.000000 1.572230 0.000000 
#    z 0.007520 0.000000 1.595990 
# 
# From -- ./inp_files/31732.got.cif
#   From: 2010.05.17/outbox.cif.g08.bks.cpg/sg11_16_cif.got.tgz:31732.got - 2010.06.03 12:22:45.
