data_PCOD9160197
_publ_section_title
;
Structure prediction by ZEFSAII (Michael W. Deem and Ramdas Pophale) SiO2 
 PCOD9160197
Probable space group: P 21/M
;
_chemical_formula_sum "Si O2"
_cell_formula_units_Z 32
_cell_length_a 15.080596
_cell_length_b 8.734582
_cell_length_c 26.839985
_cell_angle_alpha 90.000000
_cell_angle_beta 150.030901
_cell_angle_gamma 90.000000
_cell_volume 1766.066131
_symmetry_space_group_name_H-M "P 21/M"
_symmetry_group_IT_number 11
_symmetry_cell_setting 'monoclinic'
loop_
_space_group_symop_operation_xyz
x,y,z
-x,1/2+y,-z
-x,-y,-z
x,1/2-y,z
loop_
_atom_site_type_symbol
_atom_site_label
_atom_site_fract_x
_atom_site_fract_y
_atom_site_fract_z
Si Si1 0.014839 0.065847 0.951880
Si Si2 0.313474 0.935095 0.390150
Si Si3 0.713392 0.566631 0.443797
Si Si4 0.281583 0.930316 0.767516
Si Si5 0.057495 0.566766 0.354286
Si Si6 0.681791 0.069383 0.324919
Si Si7 0.688351 0.064089 0.724655
Si Si8 0.391623 0.568098 0.118699
O O1 0.015295 0.250000 0.953833
O O2 0.846982 0.013088 0.837519
O O3 0.000000 0.000000 0.000000
O O4 0.200517 0.006778 0.020263
O O5 0.323690 0.750000 0.395592
O O6 0.159619 0.980914 0.353769
O O7 0.283773 0.985211 0.318862
O O8 0.500000 0.000000 0.500000
O O9 0.727846 0.750000 0.454305
O O10 0.828577 0.492087 0.543345
O O11 0.760469 0.511932 0.411190
O O12 0.507783 0.519526 0.352706
O O13 0.307772 0.750000 0.787696
O O14 0.214391 0.950574 0.677061
O O15 0.470372 0.015879 0.857002
O O16 0.137853 0.997734 0.734465
O O17 0.047884 0.750000 0.350986
O O18 0.663394 0.250000 0.325009
O O19 0.490710 0.996509 0.216667
O O20 0.690484 0.250000 0.726124
O O21 0.379461 0.750000 0.116002
#
# Coordination Sequence:
#
# PCOD9160197 Si02
#       8
#     4   4   4   4   4   4   4   4
#     4  11  21  35  57  85 116 153 192 235 285 340
#     4  10  20  38  59  82 111 149 191 237 287 335
#     4  11  20  32  53  78 111 151 188 230 280 335
#     4   9  20  37  56  78 106 147 190 232 282 339
#     4  11  22  34  55  82 109 144 187 236 287 337
#     4   9  19  34  52  76 108 144 185 228 276 332
#     4   9  20  36  55  81 114 151 191 229 280 338
#     4  10  19  35  55  78 110 144 180 227 280 336
#
# _framework density 18.119367
#
# number of rings (size 3 to 8) (size 9 to 14) (size 15 to 20)
#    0.750    1.250    1.250    3.375    0.000    2.000 
#    0.000    3.125    0.000    0.750    0.000    0.000 
#    0.000    0.000    0.000    0.000    0.000    0.000 
#
# Total GULP energy -178470.566267 kJ/mol
# GULP energy per Si atom -5577.205196 kJ/mol
# Density = 1.807813 g / cm^3
# Si number density = 18.119367 Si / 1000 Ang^3
#
#
#
# Elastic Constant Matrix: (Units=GPa)
#
#
# Indices 1 2 3 4 5 6 
#
# 1 88.6185 25.1359 27.2556 0.0000 14.3670 0.0000
# 2 25.1359 53.8588 10.1793 0.0000 5.1987 0.0000
# 3 27.2556 10.1793 71.3870 0.0000 7.2639 0.0000
# 4 0.0000 0.0000 0.0000 22.6526 0.0000 8.5659
# 5 14.3670 5.1987 7.2639 0.0000 29.7900 0.0000
# 6 0.0000 0.0000 0.0000 8.5659 0.0000 21.6127
#
#
#
# Elastic Compliance Matrix: (Units=1/GPa)
#
#
# Indices 1 2 3 4 5 6 
#
# 1 0.015110 -0.005713 -0.004424 0.000000 -0.005212 0.000000
# 2 -0.005713 0.021461 -0.000798 0.000000 -0.000795 0.000000
# 3 -0.004424 -0.000798 0.015976 0.000000 -0.001623 0.000000
# 4 0.000000 0.000000 0.000000 0.051927 0.000000 -0.020581
# 5 -0.005212 -0.000795 -0.001623 0.000000 0.036616 0.000000
# 6 0.000000 0.000000 0.000000 -0.020581 0.000000 0.054426
#
#
# Mechanical properties :
#
#
# Convention : Reuss Voigt Hill
#
# Bulk Modulus (GPa) = 32.59749 37.66732 35.13241
# Shear Modulus (GPa) = 21.96713 24.89730 23.43222
#
# Velocity S-wave (km/s) = 3.48567 3.71087 3.60003
# Velocity P-wave (km/s) = 5.85058 6.26053 6.05903
#
# Compressibility (1/GPa) = 0.03067721
#
# Stress axis : x y z
#
# Youngs Moduli (GPa) = 66.17979 46.59653 62.59301
#
# Poissons Ratio (x) = 0.26620 0.27693
# Poissons Ratio (y) = 0.37807 0.04996
# Poissons Ratio (z) = 0.29279 0.03719
#
# Static dielectric constant tensor:
#      x y z
#    x 1.640310 0.000000 0.016460 
#    y 0.000000 1.602940 0.000000 
#    z 0.016460 0.000000 1.614350 
# 
# From -- ./inp_files/71628.got.cif
#   From: 2010.05.17/outbox.cif.g08.bks.cpg/sg11_36_cif.got.tgz:71628.got - 2010.06.03 12:22:45.
