data_PCOD9160202
_publ_section_title
;
Structure prediction by ZEFSAII (Michael W. Deem and Ramdas Pophale) SiO2 
 PCOD9160202
Probable space group: P 21/M
;
_chemical_formula_sum "Si O2"
_cell_formula_units_Z 32
_cell_length_a 12.661158
_cell_length_b 8.410329
_cell_length_c 30.195997
_cell_angle_alpha 90.000000
_cell_angle_beta 146.227526
_cell_angle_gamma 90.000000
_cell_volume 1787.432269
_symmetry_space_group_name_H-M "P 21/M"
_symmetry_group_IT_number 11
_symmetry_cell_setting 'monoclinic'
loop_
_space_group_symop_operation_xyz
x,y,z
-x,1/2+y,-z
-x,-y,-z
x,1/2-y,z
loop_
_atom_site_type_symbol
_atom_site_label
_atom_site_fract_x
_atom_site_fract_y
_atom_site_fract_z
Si Si1 0.583717 0.057234 0.222291
Si Si2 0.802034 0.558420 0.484272
Si Si3 0.813300 0.942019 0.959563
Si Si4 0.685436 0.939838 0.539617
Si Si5 0.736190 0.942165 0.126107
Si Si6 0.759404 0.058564 0.374472
Si Si7 0.306659 0.442076 0.986871
Si Si8 0.929767 0.940582 0.281876
O O1 0.591390 0.250000 0.223172
O O2 0.379941 0.006020 0.132571
O O3 0.625319 0.007783 0.287368
O O4 0.753622 0.993271 0.251059
O O5 0.802517 0.750000 0.484780
O O6 0.704349 0.501404 0.495351
O O7 0.711913 0.502557 0.406782
O O8 0.023746 0.506045 0.560823
O O9 0.813832 0.750000 0.959707
O O10 0.799222 0.996676 0.005776
O O11 0.000000 0.000000 0.000000
O O12 0.678072 0.750000 0.535428
O O13 0.500000 0.000000 0.500000
O O14 0.876232 0.989865 0.631563
O O15 0.732012 0.750000 0.124962
O O16 0.775391 0.994770 0.089299
O O17 0.880397 0.993894 0.214594
O O18 0.525212 0.002038 0.064520
O O19 0.759993 0.250000 0.375872
O O20 0.307233 0.250000 0.987374
O O21 0.942863 0.750000 0.286995
#
# Coordination Sequence:
#
# PCOD9160202 Si02
#       8
#     4   4   4   4   4   4   4   4
#     4  10  19  35  55  79 108 142 182 226 267 314
#     4   9  18  33  53  78 107 138 172 217 269 316
#     4  10  21  35  54  76 106 145 181 219 266 318
#     4  11  23  40  58  79 110 146 183 222 269 324
#     4   9  18  31  51  81 110 134 172 224 267 312
#     4   9  17  31  53  79 107 136 173 221 267 314
#     4   9  17  32  53  76 104 142 179 215 268 320
#     4  11  21  33  54  84 112 140 177 225 271 320
#
# _framework density 17.902777
#
# number of rings (size 3 to 8) (size 9 to 14) (size 15 to 20)
#    0.000    2.250    2.500    0.750    0.000    3.000 
#    0.000    1.250    0.000    4.500    0.000    0.000 
#    0.000    0.000    0.000    0.000    0.000    0.000 
#
# Total GULP energy -178487.514012 kJ/mol
# GULP energy per Si atom -5577.734813 kJ/mol
# Density = 1.786203 g / cm^3
# Si number density = 17.902777 Si / 1000 Ang^3
#
#
#
# Elastic Constant Matrix: (Units=GPa)
#
#
# Indices 1 2 3 4 5 6 
#
# 1 187.4331 24.0171 100.1843 0.0000 -21.2097 0.0000
# 2 24.0171 9.7658 20.4115 0.0000 -4.1953 0.0000
# 3 100.1843 20.4115 116.5945 0.0000 -13.7639 0.0000
# 4 0.0000 0.0000 0.0000 22.6862 0.0000 3.1977
# 5 -21.2097 -4.1953 -13.7639 0.0000 34.2952 0.0000
# 6 0.0000 0.0000 0.0000 3.1977 0.0000 27.2042
#
#
#
# Elastic Compliance Matrix: (Units=1/GPa)
#
#
# Indices 1 2 3 4 5 6 
#
# 1 0.010774 -0.010545 -0.007114 0.000000 0.002518 0.000000
# 2 -0.010545 0.174395 -0.020701 0.000000 0.006503 0.000000
# 3 -0.007114 -0.020701 0.018366 0.000000 0.000439 0.000000
# 4 0.000000 0.000000 0.000000 0.044822 0.000000 -0.005269
# 5 0.002518 0.006503 0.000439 0.000000 0.031687 0.000000
# 6 0.000000 0.000000 0.000000 -0.005269 0.000000 0.037378
#
#
# Mechanical properties :
#
#
# Convention : Reuss Voigt Hill
#
# Bulk Modulus (GPa) = 7.88568 67.00214 37.44391
# Shear Modulus (GPa) = 11.45698 28.11582 19.78640
#
# Velocity S-wave (km/s) = 2.53248 3.96722 3.32808
# Velocity P-wave (km/s) = 3.60077 7.64800 5.97735
#
# Compressibility (1/GPa) = 0.12681218
#
# Stress axis : x y z
#
# Youngs Moduli (GPa) = 92.81564 5.73412 54.44974
#
# Poissons Ratio (x) = 0.06047 0.38737
# Poissons Ratio (y) = 0.97878 1.12718
# Poissons Ratio (z) = 0.66032 0.11870
#
# Static dielectric constant tensor:
#      x y z
#    x 1.619050 0.000000 -0.039700 
#    y 0.000000 1.609600 0.000000 
#    z -0.039700 0.000000 1.601270 
# 
# From -- ./inp_files/67441.got.cif
#   From: 2010.05.17/outbox.cif.g08.bks.cpg/sg11_34_cif.got.tgz:67441.got - 2010.06.03 12:22:45.
