data_PCOD9160334
_publ_section_title
;
Structure prediction by ZEFSAII (Michael W. Deem and Ramdas Pophale) SiO2 
 PCOD9160334
Probable space group: P 21/M
;
_chemical_formula_sum "Si O2"
_cell_formula_units_Z 24
_cell_length_a 10.111873
_cell_length_b 15.521863
_cell_length_c 17.141989
_cell_angle_alpha 90.000000
_cell_angle_beta 23.431480
_cell_angle_gamma 90.000000
_cell_volume 1069.891937
_symmetry_space_group_name_H-M "P 21/M"
_symmetry_group_IT_number 11
_symmetry_cell_setting 'monoclinic'
loop_
_space_group_symop_operation_xyz
x,y,z
-x,1/2+y,-z
-x,-y,-z
x,1/2-y,z
loop_
_atom_site_type_symbol
_atom_site_label
_atom_site_fract_x
_atom_site_fract_y
_atom_site_fract_z
Si Si1 0.767983 0.569481 0.436828
Si Si2 0.790983 0.562540 0.871993
Si Si3 0.668860 0.442521 0.182763
Si Si4 0.812563 0.750000 0.859657
Si Si5 0.348259 0.926544 0.251594
Si Si6 0.563580 0.750000 0.519428
Si Si7 0.509388 0.750000 0.190968
Si Si8 0.745746 0.250000 0.146558
O O1 0.444692 0.560458 0.665619
O O2 0.745062 0.659995 0.403329
O O3 0.870558 0.487727 0.329381
O O4 0.058932 0.574932 0.344742
O O5 0.772371 0.656641 0.842452
O O6 0.500000 0.500000 0.000000
O O7 0.695236 0.576509 0.014027
O O8 0.388867 0.491523 0.284047
O O9 0.705367 0.344726 0.131622
O O10 0.000000 0.500000 0.000000
O O11 0.192994 0.750000 0.684841
O O12 0.552197 0.750000 0.073241
O O13 0.330731 0.838257 0.309432
O O14 0.510973 0.750000 0.641678
O O15 0.878225 0.750000 0.025143
#
# Coordination Sequence:
#
# PCOD9160334 Si02
#       8
#     4   4   4   2   4   2   2   2
#     4  10  21  37  57  85 114 145 192 231 283 336
#     4   9  20  37  59  84 114 151 191 232 283 342
#     4  11  21  36  57  81 113 147 191 232 282 336
#     4   9  18  34  55  85 117 149 186 235 289 322
#     4  10  19  35  58  83 108 150 184 234 279 332
#     4   9  19  34  57  84 111 146 192 244 266 335
#     4   9  15  30  57  78 103 143 193 221 272 328
#     4   9  18  34  51  79 111 144 179 238 279 325
#
# _framework density 22.432174
#
# number of rings (size 3 to 8) (size 9 to 14) (size 15 to 20)
#    0.000    2.333    1.667    1.000    2.333    2.667 
#    0.000    5.833    0.000    0.000    0.000    0.000 
#    0.000    0.000    0.000    0.000    0.000    0.000 
#
# Total GULP energy -133854.838887 kJ/mol
# GULP energy per Si atom -5577.284954 kJ/mol
# Density = 2.238112 g / cm^3
# Si number density = 22.432174 Si / 1000 Ang^3
#
#
#
# Elastic Constant Matrix: (Units=GPa)
#
#
# Indices 1 2 3 4 5 6 
#
# 1 27.1320 25.8710 0.8321 0.0000 -15.0690 0.0000
# 2 25.8710 230.8002 32.2736 0.0000 -3.2739 0.0000
# 3 0.8321 32.2736 74.0071 0.0000 -3.9661 0.0000
# 4 0.0000 0.0000 0.0000 28.3681 0.0000 -4.9058
# 5 -15.0690 -3.2739 -3.9661 0.0000 27.2890 0.0000
# 6 0.0000 0.0000 0.0000 -4.9058 0.0000 29.7948
#
#
#
# Elastic Compliance Matrix: (Units=1/GPa)
#
#
# Indices 1 2 3 4 5 6 
#
# 1 0.062575 -0.007120 0.004241 0.000000 0.034316 0.000000
# 2 -0.007120 0.005426 -0.002481 0.000000 -0.003642 0.000000
# 3 0.004241 -0.002481 0.014771 0.000000 0.004191 0.000000
# 4 0.000000 0.000000 0.000000 0.036284 0.000000 0.005974
# 5 0.034316 -0.003642 0.004191 0.000000 0.055766 0.000000
# 6 0.000000 0.000000 0.000000 0.005974 0.000000 0.034547
#
#
# Mechanical properties :
#
#
# Convention : Reuss Voigt Hill
#
# Bulk Modulus (GPa) = 13.87916 49.98808 31.93362
# Shear Modulus (GPa) = 20.48265 35.28791 27.88528
#
# Velocity S-wave (km/s) = 3.02502 3.97053 3.52958
# Velocity P-wave (km/s) = 4.28971 6.58427 5.55672
#
# Compressibility (1/GPa) = 0.07205045
#
# Stress axis : x y z
#
# Youngs Moduli (GPa) = 15.98070 184.28984 67.69914
#
# Poissons Ratio (x) = 1.31223 -0.28709
# Poissons Ratio (y) = 0.11379 0.16799
# Poissons Ratio (z) = -0.06777 0.45730
#
# Static dielectric constant tensor:
#      x y z
#    x 1.841770 0.000000 0.002020 
#    y 0.000000 1.931410 0.000000 
#    z 0.002020 0.000000 1.893690 
# 
# From -- ./inp_files/22368.got.cif
#   From: 2010.05.17/outbox.cif.g08.bks.cpg/sg11_12_cif.got.tgz:22368.got - 2010.06.03 12:22:45.
