data_PCOD9160774
_publ_section_title
;
Structure prediction by ZEFSAII (Michael W. Deem and Ramdas Pophale) SiO2 
 PCOD9160774
Probable space group: P 21/M
;
_chemical_formula_sum "Si O2"
_cell_formula_units_Z 24
_cell_length_a 7.811457
_cell_length_b 16.027986
_cell_length_c 13.096378
_cell_angle_alpha 90.000000
_cell_angle_beta 40.799232
_cell_angle_gamma 90.000000
_cell_volume 1071.391713
_symmetry_space_group_name_H-M "P 21/M"
_symmetry_group_IT_number 11
_symmetry_cell_setting 'monoclinic'
loop_
_space_group_symop_operation_xyz
x,y,z
-x,1/2+y,-z
-x,-y,-z
x,1/2-y,z
loop_
_atom_site_type_symbol
_atom_site_label
_atom_site_fract_x
_atom_site_fract_y
_atom_site_fract_z
Si Si1 0.346005 0.750000 0.421241
Si Si2 0.301480 0.250000 0.421767
Si Si3 0.474347 0.589812 0.243431
Si Si4 0.774457 0.589663 0.909311
Si Si5 0.394934 0.090268 0.249742
Si Si6 0.928258 0.750000 0.258418
Si Si7 0.048963 0.586844 0.087300
Si Si8 0.879550 0.250000 0.257929
O O1 0.332162 0.667371 0.359078
O O2 0.636627 0.750000 0.340441
O O3 0.154588 0.750000 0.603933
O O4 0.283050 0.167056 0.362740
O O5 0.105891 0.250000 0.605300
O O6 0.594036 0.250000 0.337226
O O7 0.338850 0.500694 0.321907
O O8 0.767156 0.586587 0.160136
O O9 0.530817 0.598281 0.097253
O O10 0.693640 0.591734 0.827956
O O11 0.906082 0.500889 0.876091
O O12 0.963103 0.667625 0.843707
O O13 0.711915 0.096418 0.099705
O O14 0.059481 0.666363 0.156790
#
# Coordination Sequence:
#
# PCOD9160774 Si02
#       8
#     2   2   4   4   4   2   4   2
#     4   9  21  37  58  84 110 141 188 235 274 322
#     4  11  22  39  58  80 110 149 188 229 276 332
#     4  10  19  37  62  86 109 145 189 232 276 327
#     4  11  22  37  56  85 116 146 183 230 279 331
#     4  11  22  37  56  85 116 146 183 230 279 331
#     4   9  21  37  58  84 110 141 188 235 274 322
#     4  10  19  37  62  86 109 145 189 232 276 327
#     4  11  22  39  58  80 110 149 188 229 276 332
#
# _framework density 22.400770999999999
#
# number of rings (size 3 to 8) (size 9 to 14) (size 15 to 20)
#    0.000    1.667    0.000    7.500    0.000    2.667 
#    0.000   15.833    0.000    0.000    0.000    0.000 
#    0.000    0.000    0.000    0.000    0.000    0.000 
#
# Total GULP energy -134386.425819 kJ/mol
# GULP energy per Si atom -5599.434409 kJ/mol
# Density = 2.234979 g / cm^3
# Si number density = 22.400771 Si / 1000 Ang^3
#
#
#
# Elastic Constant Matrix: (Units=GPa)
#
#
# Indices 1 2 3 4 5 6 
#
# 1 103.9906 43.3466 15.8497 0.0000 12.8395 0.0000
# 2 43.3466 223.9822 87.2314 0.0000 37.6129 0.0000
# 3 15.8497 87.2314 70.5082 0.0000 18.0819 0.0000
# 4 0.0000 0.0000 0.0000 -49.1900 0.0000 25.3782
# 5 12.8395 37.6129 18.0819 0.0000 41.8293 0.0000
# 6 0.0000 0.0000 0.0000 25.3782 0.0000 26.7518
#
#
#
# Elastic Compliance Matrix: (Units=1/GPa)
#
#
# Indices 1 2 3 4 5 6 
#
# 1 0.010564 -0.001938 0.000458 0.000000 -0.001698 0.000000
# 2 -0.001938 0.009462 -0.010393 0.000000 -0.003420 0.000000
# 3 0.000458 -0.010393 0.027642 0.000000 -0.002744 0.000000
# 4 0.000000 0.000000 0.000000 -0.013649 0.000000 0.012948
# 5 -0.001698 -0.003420 -0.002744 0.000000 0.028690 0.000000
# 6 0.000000 0.000000 0.000000 0.012948 0.000000 0.025097
#
#
# Mechanical properties :
#
#
# Convention : Reuss Voigt Hill
#
# Bulk Modulus (GPa) = 41.80296 76.81515 59.30906
# Shear Modulus (GPa) = 41.83257 20.68177 31.25717
#
# Velocity S-wave (km/s) = 4.32610 3.04182 3.73951
# Velocity P-wave (km/s) = 6.60723 6.83393 6.72153
#
# Compressibility (1/GPa) = 0.02392175
#
# Stress axis : x y z
#
# Youngs Moduli (GPa) = 94.66320 105.69002 36.17745
#
# Poissons Ratio (x) = 0.20478 -0.01657
# Poissons Ratio (y) = 0.18341 0.37599
# Poissons Ratio (z) = -0.04335 1.09844
#
# Static dielectric constant tensor:
#      x y z
#    x 1.863270 0.000000 -0.014210 
#    y 0.000000 1.791490 0.000000 
#    z -0.014210 0.000000 1.776550 
# 
# From -- ./inp_files/47545.got.cif
#   From: 2010.05.17/outbox.cif.g08.bks.cpg/sg11_24_cif.got.tgz:47545.got - 2010.06.03 12:22:45.
