data_PCOD9160464
_publ_section_title
;
Structure prediction by ZEFSAII (Michael W. Deem and Ramdas Pophale) SiO2 
 PCOD9160464
Probable space group: P 21/M
;
_chemical_formula_sum "Si O2"
_cell_formula_units_Z 32
_cell_length_a 14.885966
_cell_length_b 14.431129
_cell_length_c 9.265360
_cell_angle_alpha 90.000000
_cell_angle_beta 126.015580
_cell_angle_gamma 90.000000
_cell_volume 1609.946519
_symmetry_space_group_name_H-M "P 21/M"
_symmetry_group_IT_number 11
_symmetry_cell_setting 'monoclinic'
loop_
_space_group_symop_operation_xyz
x,y,z
-x,1/2+y,-z
-x,-y,-z
x,1/2-y,z
loop_
_atom_site_type_symbol
_atom_site_label
_atom_site_fract_x
_atom_site_fract_y
_atom_site_fract_z
Si Si1 0.462629 0.481437 0.803064
Si Si2 0.608862 0.475865 0.696002
Si Si3 0.972031 0.521054 0.135886
Si Si4 0.362521 0.854865 0.539894
Si Si5 0.998207 0.595939 0.585995
Si Si6 0.751859 0.860835 0.968017
Si Si7 0.874215 0.346801 0.558532
Si Si8 0.739513 0.856723 0.302056
O O1 0.559384 0.434358 0.798138
O O2 0.444872 0.579784 0.706977
O O3 0.346973 0.424433 0.699362
O O4 0.500000 0.500000 0.000000
O O5 0.500000 0.500000 0.500000
O O6 0.667996 0.404374 0.641701
O O7 0.676990 0.568480 0.802337
O O8 0.953323 0.427940 0.211633
O O9 0.874103 0.595404 0.062461
O O10 0.078061 0.567604 0.309746
O O11 0.000000 0.500000 0.000000
O O12 0.403358 0.750000 0.553263
O O13 0.256116 0.850116 0.543220
O O14 0.080226 0.652685 0.560893
O O15 0.000000 0.500000 0.500000
O O16 0.870085 0.628927 0.464567
O O17 0.744762 0.750000 0.927346
O O18 0.727889 0.870794 0.117463
O O19 0.914778 0.250000 0.664335
O O20 0.711188 0.750000 0.306943
#
# Coordination Sequence:
#
# PCOD9160464 Si02
#       8
#     4   4   4   4   4   4   4   4
#     4  11  22  39  64  91 123 160 214 277 334 377
#     4  10  23  42  62  90 125 169 213 269 329 391
#     4  11  22  36  59  93 131 167 202 252 319 382
#     4  10  23  41  63  87 123 170 213 255 321 397
#     4  10  19  35  61  88 124 166 208 253 311 377
#     4  11  22  39  66  96 126 166 215 266 326 388
#     4  10  19  36  59  83 115 160 204 246 299 369
#     4  11  22  38  63  98 130 166 218 272 320 383
#
# _framework density 19.876436000000002
#
# number of rings (size 3 to 8) (size 9 to 14) (size 15 to 20)
#    0.000    1.500    3.750    3.000    0.000    4.000 
#    0.000    6.875    0.000    4.500    0.000    0.000 
#    0.000    0.000    0.000    0.000    0.000    0.000 
#
# Total GULP energy -178227.794247 kJ/mol
# GULP energy per Si atom -5569.618570 kJ/mol
# Density = 1.983120 g / cm^3
# Si number density = 19.876436 Si / 1000 Ang^3
#
#
#
# Elastic Constant Matrix: (Units=GPa)
#
#
# Indices 1 2 3 4 5 6 
#
# 1 86.2155 30.6448 25.2867 0.0000 -10.9503 0.0000
# 2 30.6448 113.7473 32.8982 0.0000 -10.2677 0.0000
# 3 25.2867 32.8982 83.3170 0.0000 -23.3488 0.0000
# 4 0.0000 0.0000 0.0000 28.0860 0.0000 0.1530
# 5 -10.9503 -10.2677 -23.3488 0.0000 33.4858 0.0000
# 6 0.0000 0.0000 0.0000 0.1530 0.0000 7.2506
#
#
#
# Elastic Compliance Matrix: (Units=1/GPa)
#
#
# Indices 1 2 3 4 5 6 
#
# 1 0.013548 -0.002759 -0.002508 0.000000 0.001836 0.000000
# 2 -0.002759 0.010491 -0.003301 0.000000 0.000012 0.000000
# 3 -0.002508 -0.003301 0.016845 0.000000 0.009913 0.000000
# 4 0.000000 0.000000 0.000000 0.035609 0.000000 -0.000751
# 5 0.001836 0.000012 0.009913 0.000000 0.037380 0.000000
# 6 0.000000 0.000000 0.000000 -0.000751 0.000000 0.137935
#
#
# Mechanical properties :
#
#
# Convention : Reuss Voigt Hill
#
# Bulk Modulus (GPa) = 42.11018 51.21546 46.66282
# Shear Modulus (GPa) = 18.05960 26.72782 22.39371
#
# Velocity S-wave (km/s) = 3.01756 3.67099 3.36020
# Velocity P-wave (km/s) = 5.77692 6.61748 6.21144
#
# Compressibility (1/GPa) = 0.02374723
#
# Stress axis : x y z
#
# Youngs Moduli (GPa) = 73.81023 95.32257 59.36390
#
# Poissons Ratio (x) = 0.26299 0.14889
# Poissons Ratio (y) = 0.20364 0.19599
# Poissons Ratio (z) = 0.18512 0.31470
#
# Static dielectric constant tensor:
#      x y z
#    x 1.838600 0.000000 -0.044430 
#    y 0.000000 1.820700 0.000000 
#    z -0.044430 0.000000 1.745530 
# 
# From -- ./inp_files/22225.got.cif
#   From: 2010.05.17/outbox.cif.g08.bks.cpg/sg11_12_cif.got.tgz:22225.got - 2010.06.03 12:22:45.
