data_PCOD9160800
_publ_section_title
;
Structure prediction by ZEFSAII (Michael W. Deem and Ramdas Pophale) SiO2 
 PCOD9160800
Probable space group: P 21/M
;
_chemical_formula_sum "Si O2"
_cell_formula_units_Z 32
_cell_length_a 15.554950
_cell_length_b 8.141292
_cell_length_c 25.104887
_cell_angle_alpha 90.000000
_cell_angle_beta 150.129035
_cell_angle_gamma 90.000000
_cell_volume 1583.404028
_symmetry_space_group_name_H-M "P 21/M"
_symmetry_group_IT_number 11
_symmetry_cell_setting 'monoclinic'
loop_
_space_group_symop_operation_xyz
x,y,z
-x,1/2+y,-z
-x,-y,-z
x,1/2-y,z
loop_
_atom_site_type_symbol
_atom_site_label
_atom_site_fract_x
_atom_site_fract_y
_atom_site_fract_z
Si Si1 0.040318 0.052781 0.080490
Si Si2 0.333936 0.444161 0.379569
Si Si3 0.254377 0.551321 0.584006
Si Si4 0.416251 0.448138 0.303323
Si Si5 0.377352 0.445986 0.767970
Si Si6 0.053307 0.049302 0.660896
Si Si7 0.967757 0.945506 0.227351
Si Si8 0.245255 0.445327 0.987700
O O1 0.042675 0.250000 0.088330
O O2 0.233645 0.985904 0.187526
O O3 0.906336 0.986516 0.051751
O O4 0.000000 0.000000 0.000000
O O5 0.500000 0.500000 0.500000
O O6 0.303210 0.250000 0.367486
O O7 0.400997 0.480041 0.356837
O O8 0.155658 0.526198 0.301940
O O9 0.246688 0.750000 0.579657
O O10 0.417607 0.489220 0.637591
O O11 0.298295 0.503329 0.668513
O O12 0.086447 0.496116 0.459508
O O13 0.419558 0.250000 0.297074
O O14 0.376983 0.250000 0.765505
O O15 0.571363 0.496836 0.889300
O O16 0.240967 0.499295 0.739874
O O17 0.042665 0.250000 0.656338
O O18 0.029149 0.992442 0.709423
O O19 0.939623 0.750000 0.216161
O O20 0.823477 0.009497 0.107258
O O21 0.258460 0.250000 0.990180
#
# Coordination Sequence:
#
# PCOD9160800 Si02
#       8
#     4   4   4   4   4   4   4   4
#     4  11  21  36  57  85 120 157 196 238 289 350
#     4  11  21  36  57  85 119 156 195 236 289 350
#     4  10  19  37  63  88 118 155 197 246 302 368
#     4   9  19  34  55  81 113 151 187 223 281 348
#     4  11  23  39  60  87 119 158 203 255 310 366
#     4   9  20  39  63  88 118 158 200 249 315 369
#     4  10  21  40  63  87 118 157 203 251 300 363
#     4  11  23  39  60  87 120 159 204 254 304 357
#
# _framework density 20.209624999999999
#
# number of rings (size 3 to 8) (size 9 to 14) (size 15 to 20)
#    0.000    1.750    1.250    3.375    0.000    4.000 
#    0.000    5.625    0.000    0.000    0.000    0.000 
#    0.000    0.000    0.000    0.000    0.000    0.000 
#
# Total GULP energy -178304.282570 kJ/mol
# GULP energy per Si atom -5572.008830 kJ/mol
# Density = 2.016363 g / cm^3
# Si number density = 20.209625 Si / 1000 Ang^3
#
#
#
# Elastic Constant Matrix: (Units=GPa)
#
#
# Indices 1 2 3 4 5 6 
#
# 1 132.9038 1.9624 47.6121 0.0000 -13.0320 0.0000
# 2 1.9624 23.5243 13.3787 0.0000 2.4535 0.0000
# 3 47.6121 13.3787 145.7692 0.0000 -8.2271 0.0000
# 4 0.0000 0.0000 0.0000 -206.2734 0.0000 -109.7558
# 5 -13.0320 2.4535 -8.2271 0.0000 50.4014 0.0000
# 6 0.0000 0.0000 0.0000 -109.7558 0.0000 -35.9096
#
#
#
# Elastic Compliance Matrix: (Units=1/GPa)
#
#
# Indices 1 2 3 4 5 6 
#
# 1 0.008690 0.000686 -0.002802 0.000000 0.001756 0.000000
# 2 0.000686 0.045323 -0.004540 0.000000 -0.002770 0.000000
# 3 -0.002802 -0.004540 0.008240 0.000000 0.000841 0.000000
# 4 0.000000 0.000000 0.000000 0.007741 0.000000 -0.023659
# 5 0.001756 -0.002770 0.000841 0.000000 0.020567 0.000000
# 6 0.000000 0.000000 0.000000 -0.023659 0.000000 0.044464
#
#
# Mechanical properties :
#
#
# Convention : Reuss Voigt Hill
#
# Bulk Modulus (GPa) = 20.43341 47.56708 34.00024
# Shear Modulus (GPa) = 30.36735 -22.40670 3.98032
#
# Velocity S-wave (km/s) = 3.88057 -3.33335 1.40492
# Velocity P-wave (km/s) = 5.49646 2.96192 4.41498
#
# Compressibility (1/GPa) = 0.04893945
#
# Stress axis : x y z
#
# Youngs Moduli (GPa) = 115.07194 22.06385 121.36480
#
# Poissons Ratio (x) = -0.01513 0.34010
# Poissons Ratio (y) = -0.07889 0.55100
# Poissons Ratio (z) = 0.32246 0.10017
#
# Static dielectric constant tensor:
#      x y z
#    x 1.704960 0.000000 -0.019370 
#    y 0.000000 1.766110 0.000000 
#    z -0.019370 0.000000 1.717140 
# 
# From -- ./inp_files/69153.got.cif
#   From: 2010.05.17/outbox.cif.g08.bks.cpg/sg11_35_cif.got.tgz:69153.got - 2010.06.03 12:22:45.
