data_PCOD9160024
_publ_section_title
;
Structure prediction by ZEFSAII (Michael W. Deem and Ramdas Pophale) SiO2 
 PCOD9160024
Probable space group: P 21/M
;
_chemical_formula_sum "Si O2"
_cell_formula_units_Z 24
_cell_length_a 15.848292
_cell_length_b 13.410023
_cell_length_c 9.721859
_cell_angle_alpha 90.000000
_cell_angle_beta 36.324963
_cell_angle_gamma 90.000000
_cell_volume 1223.911876
_symmetry_space_group_name_H-M "P 21/M"
_symmetry_group_IT_number 11
_symmetry_cell_setting 'monoclinic'
loop_
_space_group_symop_operation_xyz
x,y,z
-x,1/2+y,-z
-x,-y,-z
x,1/2-y,z
loop_
_atom_site_type_symbol
_atom_site_label
_atom_site_fract_x
_atom_site_fract_y
_atom_site_fract_z
Si Si1 0.622405 0.511718 0.535131
Si Si2 0.454160 0.366195 0.098290
Si Si3 0.100128 0.636764 0.369051
Si Si4 0.244718 0.638071 0.460063
Si Si5 0.614434 0.635683 0.279190
Si Si6 0.214890 0.428049 0.195582
O O1 0.550920 0.574280 0.752648
O O2 0.750169 0.448630 0.435012
O O3 0.659406 0.585398 0.362882
O O4 0.513258 0.429982 0.617613
O O5 0.423931 0.250000 0.163123
O O6 0.333987 0.409570 0.154505
O O7 0.605648 0.370521 0.821154
O O8 0.140402 0.750000 0.276484
O O9 0.124689 0.628723 0.501566
O O10 0.193027 0.545190 0.190108
O O11 0.936003 0.613758 0.554059
O O12 0.239932 0.750000 0.525225
O O13 0.571305 0.750000 0.354869
O O14 0.737138 0.628275 0.004137
#
# Coordination Sequence:
#
# PCOD9160024 Si02
#       6
#     4   4   4   4   4   4
#     4  11  21  35  55  84 115 145 189 238 282 330
#     4  11  20  34  60  87 112 146 192 238 280 333
#     4  10  21  36  59  88 117 148 188 236 285 333
#     4  10  19  34  57  84 114 147 187 236 287 333
#     4  11  23  38  56  82 118 155 189 230 288 347
#     4  11  21  38  61  85 114 154 191 232 279 341
#
# _framework density 19.609256999999999
#
# number of rings (size 3 to 8) (size 9 to 14) (size 15 to 20)
#    0.000    1.333    3.333    4.000    0.000    0.000 
#    0.000    5.000    0.000    0.000    0.000    0.000 
#    0.000    0.000    0.000    0.000    0.000    0.000 
#
# Total GULP energy -134061.899433 kJ/mol
# GULP energy per Si atom -5585.912476 kJ/mol
# Density = 1.956463 g / cm^3
# Si number density = 19.609257 Si / 1000 Ang^3
#
#
#
# Elastic Constant Matrix: (Units=GPa)
#
#
# Indices 1 2 3 4 5 6 
#
# 1 80.3338 28.7877 21.2368 0.0000 6.8662 0.0000
# 2 28.7877 160.1455 13.8233 0.0000 14.9731 0.0000
# 3 21.2368 13.8233 21.1515 0.0000 10.3871 0.0000
# 4 0.0000 0.0000 0.0000 21.3360 0.0000 5.7169
# 5 6.8662 14.9731 10.3871 0.0000 32.4333 0.0000
# 6 0.0000 0.0000 0.0000 5.7169 0.0000 28.7506
#
#
#
# Elastic Compliance Matrix: (Units=1/GPa)
#
#
# Indices 1 2 3 4 5 6 
#
# 1 0.017596 -0.001891 -0.017836 0.000000 0.002860 0.000000
# 2 -0.001891 0.006930 -0.001490 0.000000 -0.002322 0.000000
# 3 -0.017836 -0.001490 0.075906 0.000000 -0.019846 0.000000
# 4 0.000000 0.000000 0.000000 0.049507 0.000000 -0.009844
# 5 0.002860 -0.002322 -0.019846 0.000000 0.037655 0.000000
# 6 0.000000 0.000000 0.000000 -0.009844 0.000000 0.036739
#
#
# Mechanical properties :
#
#
# Convention : Reuss Voigt Hill
#
# Bulk Modulus (GPa) = 17.24210 43.25849 30.25030
# Shear Modulus (GPa) = 17.47643 29.68950 23.58297
#
# Velocity S-wave (km/s) = 2.98859 3.89531 3.47168
# Velocity P-wave (km/s) = 4.55201 6.50687 5.61517
#
# Compressibility (1/GPa) = 0.05799757
#
# Stress axis : x y z
#
# Youngs Moduli (GPa) = 56.83007 144.30129 13.17424
#
# Poissons Ratio (x) = 0.27287 0.23498
# Poissons Ratio (y) = 0.10746 0.01963
# Poissons Ratio (z) = 1.01362 0.21505
#
# Static dielectric constant tensor:
#      x y z
#    x 1.688630 0.000000 -0.010360 
#    y 0.000000 1.739320 0.000000 
#    z -0.010360 0.000000 1.664160 
# 
# From -- ./inp_files/22020.got.cif
#   From: 2010.05.17/outbox.cif.g08.bks.cpg/sg11_12_cif.got.tgz:22020.got - 2010.06.03 12:22:45.
