data_PCOD9160009
_publ_section_title
;
Structure prediction by ZEFSAII (Michael W. Deem and Ramdas Pophale) SiO2 
 PCOD9160009
Probable space group: P 21/M
;
_chemical_formula_sum "Si O2"
_cell_formula_units_Z 28
_cell_length_a 13.925228
_cell_length_b 13.522324
_cell_length_c 9.221061
_cell_angle_alpha 90.000000
_cell_angle_beta 117.682525
_cell_angle_gamma 90.000000
_cell_volume 1537.589677
_symmetry_space_group_name_H-M "P 21/M"
_symmetry_group_IT_number 11
_symmetry_cell_setting 'monoclinic'
loop_
_space_group_symop_operation_xyz
x,y,z
-x,1/2+y,-z
-x,-y,-z
x,1/2-y,z
loop_
_atom_site_type_symbol
_atom_site_label
_atom_site_fract_x
_atom_site_fract_y
_atom_site_fract_z
Si Si1 0.992962 0.982812 0.238405
Si Si2 0.947484 0.364635 0.456462
Si Si3 0.700596 0.363445 0.248232
Si Si4 0.624952 0.631942 0.620840
Si Si5 0.543173 0.495661 0.316822
Si Si6 0.818738 0.508284 0.862188
Si Si7 0.655488 0.136790 0.880363
O O1 0.995034 0.892511 0.352979
O O2 0.099426 0.991085 0.213192
O O3 0.988118 0.074451 0.346522
O O4 0.892093 0.979022 0.057389
O O5 0.956477 0.250000 0.430772
O O6 0.820319 0.389094 0.387400
O O7 0.674573 0.250000 0.273438
O O8 0.613972 0.439899 0.248116
O O9 0.702883 0.365150 0.075685
O O10 0.618513 0.750000 0.595390
O O11 0.617516 0.564759 0.470967
O O12 0.522270 0.588621 0.639096
O O13 0.736569 0.599152 0.777218
O O14 0.451452 0.569749 0.194194
O O15 0.741088 0.413896 0.833063
O O16 0.631865 0.250000 0.823584
#
# Coordination Sequence:
#
# PCOD9160009 Si02
#       7
#     4   4   4   4   4   4   4
#     4  10  21  38  58  83 112 148 191 232 288 335
#     4  10  21  37  58  84 114 147 189 238 281 336
#     4  10  19  34  57  83 111 147 186 228 280 337
#     4  10  21  36  53  79 111 146 187 231 280 336
#     4  10  20  35  56  80 113 150 183 230 282 332
#     4  10  21  37  59  82 113 152 186 238 284 337
#     4  10  20  35  57  86 113 144 188 233 277 336
#
# _framework density 18.210319999999999
#
# number of rings (size 3 to 8) (size 9 to 14) (size 15 to 20)
#    0.000    2.000    1.429    2.143    0.000    1.714 
#    0.000    6.429    0.000    1.714    0.000    0.000 
#    0.000    0.000    0.000    0.000    0.000    0.000 
#
# Total GULP energy -156188.640478 kJ/mol
# GULP energy per Si atom -5578.165731 kJ/mol
# Density = 1.816887 g / cm^3
# Si number density = 18.210320 Si / 1000 Ang^3
#
#
#
# Elastic Constant Matrix: (Units=GPa)
#
#
# Indices 1 2 3 4 5 6 
#
# 1 224.5721 102.4955 95.3816 0.0000 145.6387 0.0000
# 2 102.4955 114.6025 41.3006 0.0000 38.7633 0.0000
# 3 95.3816 41.3006 111.6782 0.0000 73.6415 0.0000
# 4 0.0000 0.0000 0.0000 17.6100 0.0000 -0.7663
# 5 145.6387 38.7633 73.6415 0.0000 177.8184 0.0000
# 6 0.0000 0.0000 0.0000 -0.7663 0.0000 17.4761
#
#
#
# Elastic Compliance Matrix: (Units=1/GPa)
#
#
# Indices 1 2 3 4 5 6 
#
# 1 0.018617 -0.011334 -0.004517 0.000000 -0.010907 0.000000
# 2 -0.011334 0.017072 -0.000414 0.000000 0.005732 0.000000
# 3 -0.004517 -0.000414 0.014398 0.000000 -0.002173 0.000000
# 4 0.000000 0.000000 0.000000 0.056895 0.000000 0.002495
# 5 -0.010907 0.005732 -0.002173 0.000000 0.014207 0.000000
# 6 0.000000 0.000000 0.000000 0.002495 0.000000 0.057330
#
#
# Mechanical properties :
#
#
# Convention : Reuss Voigt Hill
#
# Bulk Modulus (GPa) = 56.95205 103.24536 80.09871
# Shear Modulus (GPa) = 23.05186 56.69257 39.87221
#
# Velocity S-wave (km/s) = 3.56176 5.58567 4.68433
# Velocity P-wave (km/s) = 6.94675 9.92062 8.56376
#
# Compressibility (1/GPa) = 0.01755863
#
# Stress axis : x y z
#
# Youngs Moduli (GPa) = 53.71292 58.57442 69.45282
#
# Poissons Ratio (x) = 0.66386 0.31374
# Poissons Ratio (y) = 0.60876 0.02874
# Poissons Ratio (z) = 0.24264 0.02424
#
# Static dielectric constant tensor:
#      x y z
#    x 1.610400 0.000000 0.018460 
#    y 0.000000 1.608770 0.000000 
#    z 0.018460 0.000000 1.646390 
# 
# From -- ./inp_files/21295.got.cif
#   From: 2010.05.17/outbox.cif.g08.bks.cpg/sg11_11_cif.got.tgz:21295.got - 2010.06.03 12:22:45.
