data_PCOD9160035
_publ_section_title
;
Structure prediction by ZEFSAII (Michael W. Deem and Ramdas Pophale) SiO2 
 PCOD9160035
Probable space group: P 21/M
;
_chemical_formula_sum "Si O2"
_cell_formula_units_Z 32
_cell_length_a 29.555456
_cell_length_b 8.766829
_cell_length_c 12.384512
_cell_angle_alpha 90.000000
_cell_angle_beta 34.217476
_cell_angle_gamma 90.000000
_cell_volume 1804.490891
_symmetry_space_group_name_H-M "P 21/M"
_symmetry_group_IT_number 11
_symmetry_cell_setting 'monoclinic'
loop_
_space_group_symop_operation_xyz
x,y,z
-x,1/2+y,-z
-x,-y,-z
x,1/2-y,z
loop_
_atom_site_type_symbol
_atom_site_label
_atom_site_fract_x
_atom_site_fract_y
_atom_site_fract_z
Si Si1 0.767978 0.568060 0.045311
Si Si2 0.287526 0.933322 0.069105
Si Si3 0.374136 0.432216 0.503013
Si Si4 0.880869 0.431935 0.998980
Si Si5 0.204503 0.068510 0.444353
Si Si6 0.028178 0.567760 0.829668
Si Si7 0.527268 0.066104 0.331507
Si Si8 0.263147 0.569462 0.546822
O O1 0.776932 0.750000 0.017572
O O2 0.755662 0.492347 0.953855
O O3 0.688203 0.538338 0.275470
O O4 0.841380 0.498132 0.968538
O O5 0.282911 0.750000 0.083457
O O6 0.381598 0.978331 0.874915
O O7 0.247632 0.005351 0.253020
O O8 0.373382 0.250000 0.484869
O O9 0.462073 0.480094 0.369912
O O10 0.338734 0.516555 0.469030
O O11 0.891284 0.250000 0.970547
O O12 0.963243 0.511822 0.870338
O O13 0.815461 0.461650 0.223329
O O14 0.197170 0.250000 0.454389
O O15 0.116324 0.994518 0.629163
O O16 0.253182 0.018935 0.455081
O O17 0.029555 0.750000 0.833797
O O18 0.000000 0.500000 0.000000
O O19 0.524094 0.250000 0.344996
O O20 0.500000 0.000000 0.500000
O O21 0.266075 0.750000 0.520694
#
# Coordination Sequence:
#
# PCOD9160035 Si02
#       8
#     4   4   4   4   4   4   4   4
#     4  10  19  34  57  85 119 155 195 239 290 345
#     4  11  23  39  59  85 120 158 197 241 294 351
#     4   9  18  33  55  85 118 150 191 241 289 342
#     4  10  20  35  58  88 120 152 192 240 290 340
#     4  12  25  41  61  84 117 158 197 239 293 350
#     4  12  23  38  61  90 120 151 193 241 289 342
#     4  10  20  35  58  87 118 152 194 244 290 341
#     4  10  20  35  57  85 117 151 192 240 290 344
#
# _framework density 17.733533000000001
#
# number of rings (size 3 to 8) (size 9 to 14) (size 15 to 20)
#    0.000    1.500    2.500    3.750    0.000    2.500 
#    0.000    1.250    0.000    0.000    0.000    0.000 
#    0.000    0.000    0.000    0.000    0.000    0.000 
#
# Total GULP energy -178817.682257 kJ/mol
# GULP energy per Si atom -5588.052571 kJ/mol
# Density = 1.769317 g / cm^3
# Si number density = 17.733533 Si / 1000 Ang^3
#
#
#
# Elastic Constant Matrix: (Units=GPa)
#
#
# Indices 1 2 3 4 5 6 
#
# 1 172.3630 74.1554 80.7162 0.0000 -4.8406 0.0000
# 2 74.1554 96.7948 58.4739 0.0000 6.8184 0.0000
# 3 80.7162 58.4739 111.5259 0.0000 -0.5176 0.0000
# 4 0.0000 0.0000 0.0000 25.2053 0.0000 2.8112
# 5 -4.8406 6.8184 -0.5176 0.0000 22.4311 0.0000
# 6 0.0000 0.0000 0.0000 2.8112 0.0000 34.7257
#
#
#
# Elastic Compliance Matrix: (Units=1/GPa)
#
#
# Indices 1 2 3 4 5 6 
#
# 1 0.010443 -0.005434 -0.004691 0.000000 0.003797 0.000000
# 2 -0.005434 0.018478 -0.005788 0.000000 -0.006923 0.000000
# 3 -0.004691 -0.005788 0.015402 0.000000 0.001102 0.000000
# 4 0.000000 0.000000 0.000000 0.040036 0.000000 -0.003241
# 5 0.003797 -0.006923 0.001102 0.000000 0.047530 0.000000
# 6 0.000000 0.000000 0.000000 -0.003241 0.000000 0.029060
#
#
# Mechanical properties :
#
#
# Convention : Reuss Voigt Hill
#
# Bulk Modulus (GPa) = 80.02047 89.70829 84.86438
# Shear Modulus (GPa) = 25.38847 27.62829 26.50838
#
# Velocity S-wave (km/s) = 3.78784 3.95139 3.87048
# Velocity P-wave (km/s) = 8.02197 8.45663 8.24217
#
# Compressibility (1/GPa) = 0.01249680
#
# Stress axis : x y z
#
# Youngs Moduli (GPa) = 95.75639 54.11828 64.92856
#
# Poissons Ratio (x) = 0.29408 0.30461
# Poissons Ratio (y) = 0.52033 0.37578
# Poissons Ratio (z) = 0.44924 0.31321
#
# Static dielectric constant tensor:
#      x y z
#    x 1.595640 0.000000 -0.014380 
#    y 0.000000 1.586400 0.000000 
#    z -0.014380 0.000000 1.579750 
# 
# From -- ./inp_files/45229.got.cif
#   From: 2010.05.17/outbox.cif.g08.bks.cpg/sg11_23_cif.got.tgz:45229.got - 2010.06.03 12:22:45.
