data_PCOD9160278
_publ_section_title
;
Structure prediction by ZEFSAII (Michael W. Deem and Ramdas Pophale) SiO2 
 PCOD9160278
Probable space group: P 21/M
;
_chemical_formula_sum "Si O2"
_cell_formula_units_Z 32
_cell_length_a 21.538673
_cell_length_b 8.047142
_cell_length_c 27.528229
_cell_angle_alpha 90.000000
_cell_angle_beta 160.130585
_cell_angle_gamma 90.000000
_cell_volume 1621.665889
_symmetry_space_group_name_H-M "P 21/M"
_symmetry_group_IT_number 11
_symmetry_cell_setting 'monoclinic'
loop_
_space_group_symop_operation_xyz
x,y,z
-x,1/2+y,-z
-x,-y,-z
x,1/2-y,z
loop_
_atom_site_type_symbol
_atom_site_label
_atom_site_fract_x
_atom_site_fract_y
_atom_site_fract_z
Si Si1 0.916282 0.449699 0.209401
Si Si2 0.710710 0.049336 0.771200
Si Si3 0.997273 0.947640 0.442277
Si Si4 0.290207 0.552497 0.846512
Si Si5 0.640739 0.048047 0.346967
Si Si6 0.257322 0.450839 0.018686
Si Si7 0.325517 0.448327 0.516787
Si Si8 0.952256 0.549057 0.041213
O O1 0.928945 0.250000 0.223623
O O2 0.818789 0.515185 0.186517
O O3 0.123670 0.515439 0.356684
O O4 0.800095 0.488439 0.076285
O O5 0.705483 0.250000 0.764893
O O6 0.503016 0.985719 0.618805
O O7 0.849327 0.990163 0.831253
O O8 0.807671 0.002829 0.893411
O O9 0.005168 0.750000 0.446364
O O10 0.176566 0.010918 0.545745
O O11 0.818225 0.002746 0.281554
O O12 0.000000 0.000000 0.500000
O O13 0.286387 0.750000 0.847075
O O14 0.500000 0.500000 0.000000
O O15 0.641706 0.250000 0.350258
O O16 0.459360 0.997502 0.184396
O O17 0.639009 0.980957 0.400252
O O18 0.254909 0.250000 0.016225
O O19 0.116474 0.508463 0.956921
O O20 0.320766 0.250000 0.505239
O O21 0.954489 0.750000 0.043619
#
# Coordination Sequence:
#
# PCOD9160278 Si02
#       8
#     4   4   4   4   4   4   4   4
#     4  10  23  40  57  80 112 149 187 229 277 332
#     4   9  17  29  52  81 108 143 182 225 279 330
#     4  11  24  41  62  90 119 151 189 235 285 338
#     4  11  24  43  63  86 116 152 192 235 286 345
#     4  10  21  37  58  84 112 144 186 232 278 328
#     4  10  21  36  55  81 114 150 186 230 278 329
#     4  10  19  35  57  82 110 145 187 231 277 328
#     4   9  17  31  50  78 113 143 179 228 277 328
#
# _framework density 19.732794999999999
#
# number of rings (size 3 to 8) (size 9 to 14) (size 15 to 20)
#    0.000    2.000    2.500    0.750    1.750    3.000 
#    0.000    0.625    0.000    0.000    0.000    0.000 
#    0.000    0.000    0.000    0.000    0.000    0.000 
#
# Total GULP energy -178650.642074 kJ/mol
# GULP energy per Si atom -5582.832565 kJ/mol
# Density = 1.968788 g / cm^3
# Si number density = 19.732795 Si / 1000 Ang^3
#
#
#
# Elastic Constant Matrix: (Units=GPa)
#
#
# Indices 1 2 3 4 5 6 
#
# 1 76.8456 4.2821 47.9857 0.0000 6.7189 0.0000
# 2 4.2821 14.2093 6.0233 0.0000 6.8554 0.0000
# 3 47.9857 6.0233 139.3658 0.0000 9.9417 0.0000
# 4 0.0000 0.0000 0.0000 22.8911 0.0000 -5.4000
# 5 6.7189 6.8554 9.9417 0.0000 36.8685 0.0000
# 6 0.0000 0.0000 0.0000 -5.4000 0.0000 18.4654
#
#
#
# Elastic Compliance Matrix: (Units=1/GPa)
#
#
# Indices 1 2 3 4 5 6 
#
# 1 0.016718 -0.002118 -0.005583 0.000000 -0.001147 0.000000
# 2 -0.002118 0.078350 -0.001678 0.000000 -0.013730 0.000000
# 3 -0.005583 -0.001678 0.009253 0.000000 -0.001166 0.000000
# 4 0.000000 0.000000 0.000000 0.046922 0.000000 0.013722
# 5 -0.001147 -0.013730 -0.001166 0.000000 0.030200 0.000000
# 6 0.000000 0.000000 0.000000 0.013722 0.000000 0.058168
#
#
# Mechanical properties :
#
#
# Convention : Reuss Voigt Hill
#
# Bulk Modulus (GPa) = 11.68712 38.55587 25.12149
# Shear Modulus (GPa) = 17.42837 27.12031 22.27434
#
# Velocity S-wave (km/s) = 2.97512 3.71128 3.36340
# Velocity P-wave (km/s) = 4.21157 6.16005 5.27653
#
# Compressibility (1/GPa) = 0.08556429
#
# Stress axis : x y z
#
# Youngs Moduli (GPa) = 59.81746 12.76327 108.07038
#
# Poissons Ratio (x) = 0.02703 0.60332
# Poissons Ratio (y) = 0.12669 0.18129
# Poissons Ratio (z) = 0.33394 0.02141
#
# Static dielectric constant tensor:
#      x y z
#    x 1.691700 0.000000 0.052910 
#    y 0.000000 1.706990 0.000000 
#    z 0.052910 0.000000 1.687130 
# 
# From -- ./inp_files/72149.got.cif
#   From: 2010.05.17/outbox.cif.g08.bks.cpg/sg11_37_cif.got.tgz:72149.got - 2010.06.03 12:22:45.
