data_PCOD9160079
_publ_section_title
;
Structure prediction by ZEFSAII (Michael W. Deem and Ramdas Pophale) SiO2 
 PCOD9160079
Probable space group: P 21/M
;
_chemical_formula_sum "Si O2"
_cell_formula_units_Z 28
_cell_length_a 8.656957
_cell_length_b 15.762665
_cell_length_c 11.557117
_cell_angle_alpha 90.000000
_cell_angle_beta 117.628546
_cell_angle_gamma 90.000000
_cell_volume 1397.219792
_symmetry_space_group_name_H-M "P 21/M"
_symmetry_group_IT_number 11
_symmetry_cell_setting 'monoclinic'
loop_
_space_group_symop_operation_xyz
x,y,z
-x,1/2+y,-z
-x,-y,-z
x,1/2-y,z
loop_
_atom_site_type_symbol
_atom_site_label
_atom_site_fract_x
_atom_site_fract_y
_atom_site_fract_z
Si Si1 0.534336 0.155108 0.260095
Si Si2 0.483655 0.155794 0.743057
Si Si3 0.840986 0.843186 0.790868
Si Si4 0.648675 0.502399 0.153021
Si Si5 0.606710 0.088419 0.537869
Si Si6 0.057470 0.979115 0.248664
Si Si7 0.128078 0.657478 0.081141
O O1 0.585735 0.250000 0.245001
O O2 0.324232 0.147182 0.181162
O O3 0.570052 0.138259 0.407830
O O4 0.623680 0.084466 0.214420
O O5 0.404492 0.250000 0.723171
O O6 0.382076 0.079905 0.768068
O O7 0.538797 0.135820 0.629738
O O8 0.668178 0.156468 0.874000
O O9 0.822190 0.750000 0.727544
O O10 0.857914 0.927091 0.721666
O O11 0.013140 0.843569 0.927721
O O12 0.850403 0.512142 0.187623
O O13 0.500000 0.500000 0.000000
O O14 0.814728 0.071397 0.619608
O O15 0.500000 0.000000 0.500000
O O16 0.087460 0.925233 0.142074
O O17 0.092884 0.750000 0.128197
#
# Coordination Sequence:
#
# PCOD9160079 Si02
#       7
#     4   4   4   4   4   4   4
#     4  11  23  41  64  88 120 160 203 253 303 352
#     4  10  21  39  63  88 118 159 202 252 301 352
#     4  10  19  34  58  86 112 152 205 253 296 347
#     4  12  25  39  59  92 132 166 194 237 307 377
#     4  11  20  42  67  85 112 152 210 259 294 340
#     4  11  22  35  60  85 121 158 197 243 301 356
#     4   9  18  34  58  85 113 150 205 254 293 344
#
# _framework density 20.039795999999999
#
# number of rings (size 3 to 8) (size 9 to 14) (size 15 to 20)
#    0.000    1.429    2.857    3.429    0.000    2.857 
#    0.000    0.000    0.000    0.000    0.000    0.000 
#    0.000    0.000    0.000    0.000    0.000    0.000 
#
# Total GULP energy -156146.086538 kJ/mol
# GULP energy per Si atom -5576.645948 kJ/mol
# Density = 1.999418 g / cm^3
# Si number density = 20.039796 Si / 1000 Ang^3
#
#
#
# Elastic Constant Matrix: (Units=GPa)
#
#
# Indices 1 2 3 4 5 6 
#
# 1 60.3757 39.5937 -9.0621 0.0000 6.3848 0.0000
# 2 39.5937 146.6127 3.8169 0.0000 -11.2165 0.0000
# 3 -9.0621 3.8169 36.0338 0.0000 6.3232 0.0000
# 4 0.0000 0.0000 0.0000 9.2145 0.0000 7.0902
# 5 6.3848 -11.2165 6.3232 0.0000 20.8276 0.0000
# 6 0.0000 0.0000 0.0000 7.0902 0.0000 -1.4126
#
#
#
# Elastic Compliance Matrix: (Units=1/GPa)
#
#
# Indices 1 2 3 4 5 6 
#
# 1 0.024955 -0.008141 0.009771 0.000000 -0.015001 0.000000
# 2 -0.008141 0.009848 -0.004710 0.000000 0.009229 0.000000
# 3 0.009771 -0.004710 0.033461 0.000000 -0.015690 0.000000
# 4 0.000000 0.000000 0.000000 0.022320 0.000000 0.112032
# 5 -0.015001 0.009229 -0.015690 0.000000 0.062345 0.000000
# 6 0.000000 0.000000 0.000000 0.112032 0.000000 -0.145598
#
#
# Mechanical properties :
#
#
# Convention : Reuss Voigt Hill
#
# Bulk Modulus (GPa) = 16.10246 34.63546 25.36896
# Shear Modulus (GPa) = 146.22441 19.63749 82.93095
#
# Velocity S-wave (km/s) = 8.55134 3.13377 6.43995
# Velocity P-wave (km/s) = 10.27391 5.51497 8.24525
#
# Compressibility (1/GPa) = 0.06210230
#
# Stress axis : x y z
#
# Youngs Moduli (GPa) = 40.07264 101.54388 29.88539
#
# Poissons Ratio (x) = 0.82668 -0.29200
# Poissons Ratio (y) = 0.32624 0.14076
# Poissons Ratio (z) = -0.39153 0.47828
#
# Static dielectric constant tensor:
#      x y z
#    x 1.683510 0.000000 0.015270 
#    y 0.000000 1.790000 0.000000 
#    z 0.015270 0.000000 1.729260 
# 
# From -- ./inp_files/17952.got.cif
#   From: 2010.05.17/outbox.cif.g08.bks.cpg/sg11_9_cif.got.tgz:17952.got - 2010.06.03 12:22:45.
