data_PCOD9160862
_publ_section_title
;
Structure prediction by ZEFSAII (Michael W. Deem and Ramdas Pophale) SiO2 
 PCOD9160862
Probable space group: P 21/M
;
_chemical_formula_sum "Si O2"
_cell_formula_units_Z 32
_cell_length_a 11.030826
_cell_length_b 8.836334
_cell_length_c 19.792939
_cell_angle_alpha 90.000000
_cell_angle_beta 55.516434
_cell_angle_gamma 90.000000
_cell_volume 1590.265895
_symmetry_space_group_name_H-M "P 21/M"
_symmetry_group_IT_number 11
_symmetry_cell_setting 'monoclinic'
loop_
_space_group_symop_operation_xyz
x,y,z
-x,1/2+y,-z
-x,-y,-z
x,1/2-y,z
loop_
_atom_site_type_symbol
_atom_site_label
_atom_site_fract_x
_atom_site_fract_y
_atom_site_fract_z
Si Si1 0.224731 0.082298 0.485150
Si Si2 0.799834 0.075422 0.638225
Si Si3 0.948603 0.422155 0.357511
Si Si4 0.486091 0.067595 0.212853
Si Si5 0.250776 0.565221 0.772947
Si Si6 0.943906 0.573291 0.829358
Si Si7 0.553926 0.421481 0.414071
Si Si8 0.389873 0.433010 0.089590
O O1 0.165776 0.250000 0.489231
O O2 0.399202 0.088468 0.423769
O O3 0.168939 0.960624 0.449575
O O4 0.177027 0.031723 0.574755
O O5 0.821698 0.250000 0.647366
O O6 0.636205 0.022938 0.707194
O O7 0.906371 0.972303 0.648709
O O8 0.910849 0.250000 0.385260
O O9 0.987167 0.432481 0.267253
O O10 0.465248 0.250000 0.227189
O O11 0.644347 0.029861 0.196261
O O12 0.451206 0.030331 0.145399
O O13 0.246927 0.750000 0.769675
O O14 0.331025 0.514431 0.677387
O O15 0.080947 0.510852 0.830287
O O16 0.925863 0.750000 0.854397
O O17 0.777534 0.511665 0.874022
O O18 0.500000 0.500000 0.500000
O O19 0.602345 0.250000 0.415742
O O20 0.387222 0.250000 0.087127
O O21 0.500000 0.500000 0.000000
#
# Coordination Sequence:
#
# PCOD9160862 Si02
#       8
#     4   4   4   4   4   4   4   4
#     4  11  22  36  51  75 112 154 201 249 298 343
#     4  12  23  35  54  81 113 151 198 246 296 348
#     4  11  21  36  56  79 113 152 197 248 295 345
#     4  10  19  38  63  86 116 152 194 237 292 354
#     4   9  17  33  58  84 110 151 198 239 282 338
#     4   9  18  34  59  87 115 148 192 237 285 344
#     4  10  20  33  51  74 108 152 200 249 292 339
#     4  10  21  39  64  92 119 150 184 232 290 355
#
# _framework density 20.122420999999999
#
# number of rings (size 3 to 8) (size 9 to 14) (size 15 to 20)
#    0.000    1.750    2.500    3.000    0.000    2.500 
#    0.000    0.625    0.000    2.250    0.000    0.000 
#    0.000    0.000    0.000    0.000    0.000    0.000 
#
# Total GULP energy -178411.461860 kJ/mol
# GULP energy per Si atom -5575.358183 kJ/mol
# Density = 2.007662 g / cm^3
# Si number density = 20.122421 Si / 1000 Ang^3
#
#
#
# Elastic Constant Matrix: (Units=GPa)
#
#
# Indices 1 2 3 4 5 6 
#
# 1 160.9043 15.8723 51.0364 0.0000 -25.7360 0.0000
# 2 15.8723 17.0912 13.3467 0.0000 2.3641 0.0000
# 3 51.0364 13.3467 81.3839 0.0000 -9.5978 0.0000
# 4 0.0000 0.0000 0.0000 27.1634 0.0000 -0.7998
# 5 -25.7360 2.3641 -9.5978 0.0000 25.3672 0.0000
# 6 0.0000 0.0000 0.0000 -0.7998 0.0000 9.3439
#
#
#
# Elastic Compliance Matrix: (Units=1/GPa)
#
#
# Indices 1 2 3 4 5 6 
#
# 1 0.009540 -0.007161 -0.003756 0.000000 0.008925 0.000000
# 2 -0.007161 0.075490 -0.010023 0.000000 -0.018093 0.000000
# 3 -0.003756 -0.010023 0.016692 0.000000 0.003439 0.000000
# 4 0.000000 0.000000 0.000000 0.036907 0.000000 0.003159
# 5 0.008925 -0.018093 0.003439 0.000000 0.051463 0.000000
# 6 0.000000 0.000000 0.000000 0.003159 0.000000 0.107292
#
#
# Mechanical properties :
#
#
# Convention : Reuss Voigt Hill
#
# Bulk Modulus (GPa) = 16.71063 46.65447 31.68255
# Shear Modulus (GPa) = 13.91935 24.31649 19.11792
#
# Velocity S-wave (km/s) = 2.63294 3.48002 3.08568
# Velocity P-wave (km/s) = 4.19114 6.27559 5.33613
#
# Compressibility (1/GPa) = 0.05984215
#
# Stress axis : x y z
#
# Youngs Moduli (GPa) = 104.82059 13.24677 59.90908
#
# Poissons Ratio (x) = 0.09487 0.22500
# Poissons Ratio (y) = 0.75067 0.60046
# Poissons Ratio (z) = 0.39367 0.13277
#
# Static dielectric constant tensor:
#      x y z
#    x 1.826900 0.000000 -0.020860 
#    y 0.000000 1.734670 0.000000 
#    z -0.020860 0.000000 1.701200 
# 
# From -- ./inp_files/64356.got.cif
#   From: 2010.05.17/outbox.cif.g08.bks.cpg/sg11_33_cif.got.tgz:64356.got - 2010.06.03 12:22:45.
