data_PCOD9160459
_publ_section_title
;
Structure prediction by ZEFSAII (Michael W. Deem and Ramdas Pophale) SiO2 
 PCOD9160459
Probable space group: P 21/M
;
_chemical_formula_sum "Si O2"
_cell_formula_units_Z 32
_cell_length_a 12.287950
_cell_length_b 16.663863
_cell_length_c 15.889218
_cell_angle_alpha 90.000000
_cell_angle_beta 29.959573
_cell_angle_gamma 90.000000
_cell_volume 1624.787101
_symmetry_space_group_name_H-M "P 21/M"
_symmetry_group_IT_number 11
_symmetry_cell_setting 'monoclinic'
loop_
_space_group_symop_operation_xyz
x,y,z
-x,1/2+y,-z
-x,-y,-z
x,1/2-y,z
loop_
_atom_site_type_symbol
_atom_site_label
_atom_site_fract_x
_atom_site_fract_y
_atom_site_fract_z
Si Si1 0.579255 0.658286 0.166713
Si Si2 0.213003 0.104102 0.804397
Si Si3 0.121170 0.660807 0.384549
Si Si4 0.336538 0.343044 0.534839
Si Si5 0.043525 0.945137 0.279130
Si Si6 0.736944 0.078732 0.186526
Si Si7 0.152126 0.445077 0.337631
Si Si8 0.630188 0.484300 0.077174
O O1 0.651796 0.750000 0.098233
O O2 0.625801 0.639813 0.233061
O O3 0.326717 0.653154 0.308927
O O4 0.677278 0.579644 0.054637
O O5 0.272737 0.141057 0.674620
O O6 0.228793 0.006817 0.789750
O O7 0.968307 0.116962 0.004583
O O8 0.108296 0.750000 0.360983
O O9 0.150481 0.606493 0.282455
O O10 0.908573 0.639922 0.582113
O O11 0.291512 0.250000 0.544387
O O12 0.583759 0.365224 0.345026
O O13 0.189046 0.405700 0.580847
O O14 0.063217 0.034448 0.304770
O O15 0.179073 0.943496 0.103362
O O16 0.623081 0.053336 0.174822
O O17 0.402579 0.467147 0.183049
O O18 0.000000 0.500000 0.500000
#
# Coordination Sequence:
#
# PCOD9160459 Si02
#       8
#     4   4   4   4   4   4   4   4
#     4  10  21  37  62  86 119 162 202 259 319 367
#     4  10  22  43  67  91 124 166 218 264 316 375
#     4  10  21  39  59  89 123 159 205 256 315 368
#     4  12  25  41  64  96 132 166 208 269 327 374
#     4  11  22  37  62  92 123 164 208 255 308 384
#     4  10  22  42  67  95 122 168 218 262 310 389
#     4  10  19  35  61  86 117 164 202 252 302 380
#     4  11  20  39  63  91 123 165 213 248 315 379
#
# _framework density 19.694887000000001
#
# number of rings (size 3 to 8) (size 9 to 14) (size 15 to 20)
#    0.000    1.500    3.750    3.000    1.750    1.000 
#    0.000    1.875    0.000    0.000    0.000    0.000 
#    0.000    0.000    0.000    0.000    0.000    0.000 
#
# Total GULP energy -178353.404105 kJ/mol
# GULP energy per Si atom -5573.543878 kJ/mol
# Density = 1.965006 g / cm^3
# Si number density = 19.694887 Si / 1000 Ang^3
#
#
#
# Elastic Constant Matrix: (Units=GPa)
#
#
# Indices 1 2 3 4 5 6 
#
# 1 69.1431 12.2834 16.7848 0.0000 0.5273 0.0000
# 2 12.2834 57.2493 18.4297 0.0000 9.4224 0.0000
# 3 16.7848 18.4297 84.6110 0.0000 8.8588 0.0000
# 4 0.0000 0.0000 0.0000 17.3320 0.0000 -1.1727
# 5 0.5273 9.4224 8.8588 0.0000 16.3620 0.0000
# 6 0.0000 0.0000 0.0000 -1.1727 0.0000 12.0647
#
#
#
# Elastic Compliance Matrix: (Units=1/GPa)
#
#
# Indices 1 2 3 4 5 6 
#
# 1 0.015625 -0.002906 -0.002745 0.000000 0.002656 0.000000
# 2 -0.002906 0.020703 -0.002856 0.000000 -0.010282 0.000000
# 3 -0.002745 -0.002856 0.013573 0.000000 -0.005616 0.000000
# 4 0.000000 0.000000 0.000000 0.058079 0.000000 0.005645
# 5 0.002656 -0.010282 -0.005616 0.000000 0.069993 0.000000
# 6 0.000000 0.000000 0.000000 0.005645 0.000000 0.083435
#
#
# Mechanical properties :
#
#
# Convention : Reuss Voigt Hill
#
# Bulk Modulus (GPa) = 30.40727 33.99992 32.20359
# Shear Modulus (GPa) = 17.27803 20.05211 18.66507
#
# Velocity S-wave (km/s) = 2.96511 3.19429 3.08183
# Velocity P-wave (km/s) = 5.21490 5.55927 5.38984
#
# Compressibility (1/GPa) = 0.03288687
#
# Stress axis : x y z
#
# Youngs Moduli (GPa) = 63.99970 48.30271 73.67343
#
# Poissons Ratio (x) = 0.14037 0.20222
# Poissons Ratio (y) = 0.18599 0.21044
# Poissons Ratio (z) = 0.17566 0.13797
#
# Static dielectric constant tensor:
#      x y z
#    x 1.714870 0.000000 -0.008540 
#    y 0.000000 1.789170 0.000000 
#    z -0.008540 0.000000 1.679210 
# 
# From -- ./inp_files/50656.got.cif
#   From: 2010.05.17/outbox.cif.g08.bks.cpg/sg11_26_cif.got.tgz:50656.got - 2010.06.03 12:22:45.
