data_PCOD9160502
_publ_section_title
;
Structure prediction by ZEFSAII (Michael W. Deem and Ramdas Pophale) SiO2 
 PCOD9160502
Probable space group: P 21/M
;
_chemical_formula_sum "Si O2"
_cell_formula_units_Z 30
_cell_length_a 9.729272
_cell_length_b 7.815041
_cell_length_c 16.876883
_cell_angle_alpha 90.000000
_cell_angle_beta 73.142399
_cell_angle_gamma 90.000000
_cell_volume 1228.085745
_symmetry_space_group_name_H-M "P 21/M"
_symmetry_group_IT_number 11
_symmetry_cell_setting 'monoclinic'
loop_
_space_group_symop_operation_xyz
x,y,z
-x,1/2+y,-z
-x,-y,-z
x,1/2-y,z
loop_
_atom_site_type_symbol
_atom_site_label
_atom_site_fract_x
_atom_site_fract_y
_atom_site_fract_z
Si Si1 0.331275 0.046288 0.527234
Si Si2 0.117153 0.442394 0.238186
Si Si3 0.614631 0.055027 0.899835
Si Si4 0.249716 0.951933 0.367507
Si Si5 0.942487 0.750000 0.069943
Si Si6 0.220626 0.943993 0.976677
Si Si7 0.796179 0.542020 0.284652
Si Si8 0.535258 0.959155 0.225104
O O1 0.323176 0.250000 0.530558
O O2 0.254527 0.983866 0.619928
O O3 0.500000 0.000000 0.500000
O O4 0.255518 0.986950 0.459471
O O5 0.150853 0.250000 0.208098
O O6 0.240465 0.554906 0.178211
O O7 0.132721 0.460780 0.330722
O O8 0.957249 0.488212 0.240788
O O9 0.574197 0.250000 0.921601
O O10 0.501435 0.976726 0.856766
O O11 0.665553 0.989258 0.976440
O O12 0.232817 0.750000 0.358806
O O13 0.403518 0.006534 0.305257
O O14 0.072116 0.602153 0.049625
O O15 0.821872 0.597383 0.074480
O O16 0.746704 0.250000 0.059661
O O17 0.795513 0.750000 0.281518
O O18 0.679025 0.478901 0.242202
O O19 0.535474 0.750000 0.223166
#
# Coordination Sequence:
#
# PCOD9160502 Si02
#       8
#     4   4   4   4   2   4   4   4
#     4  11  21  33  53  76  94 121 160 205 254 312
#     4  11  23  35  48  72  99 130 163 208 249 296
#     4   9  17  31  52  74 101 135 167 199 248 298
#     4  10  19  36  55  72  94 121 159 203 257 306
#     4   8  14  24  42  72 108 136 166 202 242 288
#     4   8  14  25  43  70 106 140 164 200 248 291
#     4  10  20  36  52  68  95 129 164 201 249 300
#     4   8  15  30  51  71  91 123 163 202 242 297
#
# _framework density 24.428262
#
# number of rings (size 3 to 8) (size 9 to 14) (size 15 to 20)
#    0.400    2.133    1.333    2.800    0.933    1.600 
#    0.000    0.667    0.000    0.000    0.000    0.000 
#    0.000    6.400    0.000    0.400    0.000    0.000 
#
# Total GULP energy -167194.711455 kJ/mol
# GULP energy per Si atom -5573.157049 kJ/mol
# Density = 2.437266 g / cm^3
# Si number density = 24.428262 Si / 1000 Ang^3
#
#
#
# Elastic Constant Matrix: (Units=GPa)
#
#
# Indices 1 2 3 4 5 6 
#
# 1 132.0735 29.2476 40.8307 0.0000 25.7709 0.0000
# 2 29.2476 85.3696 17.3417 0.0000 -3.2384 0.0000
# 3 40.8307 17.3417 117.0335 0.0000 6.7276 0.0000
# 4 0.0000 0.0000 0.0000 31.0943 0.0000 5.6852
# 5 25.7709 -3.2384 6.7276 0.0000 28.1088 0.0000
# 6 0.0000 0.0000 0.0000 5.6852 0.0000 32.5939
#
#
#
# Elastic Compliance Matrix: (Units=1/GPa)
#
#
# Indices 1 2 3 4 5 6 
#
# 1 0.011197 -0.003649 -0.002790 0.000000 -0.010018 0.000000
# 2 -0.003649 0.013362 -0.001001 0.000000 0.005125 0.000000
# 3 -0.002790 -0.001001 0.009659 0.000000 0.000131 0.000000
# 4 0.000000 0.000000 0.000000 0.033220 0.000000 -0.005794
# 5 -0.010018 0.005125 0.000131 0.000000 0.045320 0.000000
# 6 0.000000 0.000000 0.000000 -0.005794 0.000000 0.031691
#
#
# Mechanical properties :
#
#
# Convention : Reuss Voigt Hill
#
# Bulk Modulus (GPa) = 51.71538 56.59074 54.15306
# Shear Modulus (GPa) = 30.16127 34.82985 32.49556
#
# Velocity S-wave (km/s) = 3.51762 3.78007 3.65121
# Velocity P-wave (km/s) = 6.14121 6.50141 6.32388
#
# Compressibility (1/GPa) = 0.01933661
#
# Stress axis : x y z
#
# Youngs Moduli (GPa) = 89.30946 74.83976 103.53347
#
# Poissons Ratio (x) = 0.27312 0.28883
# Poissons Ratio (y) = 0.32593 0.10367
# Poissons Ratio (z) = 0.24915 0.07494
#
# Static dielectric constant tensor:
#      x y z
#    x 1.968980 0.000000 -0.030980 
#    y 0.000000 1.921490 0.000000 
#    z -0.030980 0.000000 1.995190 
# 
# From -- ./inp_files/27270.got.cif
#   From: 2010.05.17/outbox.cif.g08.bks.cpg/sg11_14_cif.got.tgz:27270.got - 2010.06.03 12:22:45.
