data_PCOD9160594
_publ_section_title
;
Structure prediction by ZEFSAII (Michael W. Deem and Ramdas Pophale) SiO2 
 PCOD9160594
Probable space group: P 21/M
;
_chemical_formula_sum "Si O2"
_cell_formula_units_Z 24
_cell_length_a 14.602555
_cell_length_b 13.791783
_cell_length_c 5.211663
_cell_angle_alpha 90.000000
_cell_angle_beta 96.852481
_cell_angle_gamma 90.000000
_cell_volume 1042.106572
_symmetry_space_group_name_H-M "P 21/M"
_symmetry_group_IT_number 11
_symmetry_cell_setting 'monoclinic'
loop_
_space_group_symop_operation_xyz
x,y,z
-x,1/2+y,-z
-x,-y,-z
x,1/2-y,z
loop_
_atom_site_type_symbol
_atom_site_label
_atom_site_fract_x
_atom_site_fract_y
_atom_site_fract_z
Si Si1 0.512716 0.250000 0.576604
Si Si2 0.889863 0.005081 0.229942
Si Si3 0.685412 0.465646 0.032294
Si Si4 0.172357 0.353586 0.396975
Si Si5 0.369925 0.750000 0.883931
Si Si6 0.628343 0.575699 0.532516
Si Si7 0.000416 0.646461 0.010902
O O1 0.546669 0.250000 0.881398
O O2 0.453832 0.152436 0.507297
O O3 0.594587 0.250000 0.396204
O O4 0.793466 0.005742 0.037152
O O5 0.930704 0.110878 0.187826
O O6 0.853784 0.952805 0.470452
O O7 0.981051 0.938879 0.203194
O O8 0.644393 0.521458 0.266975
O O9 0.681901 0.350775 0.079441
O O10 0.627384 0.498480 0.764101
O O11 0.158499 0.250000 0.540516
O O12 0.279690 0.361829 0.377482
O O13 0.101665 0.346587 0.141471
O O14 0.029023 0.750000 0.126811
#
# Coordination Sequence:
#
# PCOD9160594 Si02
#       7
#     2   4   4   4   2   4   4
#     4  12  26  46  72 105 133 162 222 272 344 398
#     4  10  21  36  58  88 127 168 217 260 318 383
#     4  11  25  44  69  95 137 177 223 263 333 389
#     4  10  19  36  59  89 123 163 210 272 322 385
#     4  12  28  46  68  97 135 178 216 272 326 416
#     4  11  23  43  70 101 128 173 212 283 329 390
#     4  10  20  35  59  88 124 167 213 270 310 379
#
# _framework density 23.030275
#
# number of rings (size 3 to 8) (size 9 to 14) (size 15 to 20)
#    0.000    1.333    2.500    3.000    1.167    4.000 
#    1.500    0.000    0.000    0.000    0.000    0.000 
#    0.000    0.000    0.000    0.000    0.000    0.000 
#
# Total GULP energy -133825.207001 kJ/mol
# GULP energy per Si atom -5576.050292 kJ/mol
# Density = 2.297786 g / cm^3
# Si number density = 23.030275 Si / 1000 Ang^3
#
#
#
# Elastic Constant Matrix: (Units=GPa)
#
#
# Indices 1 2 3 4 5 6 
#
# 1 51.1215 30.8994 1.0038 0.0000 -0.4949 0.0000
# 2 30.8994 135.0460 10.8062 0.0000 -17.5881 0.0000
# 3 1.0038 10.8062 51.1523 0.0000 -6.6279 0.0000
# 4 0.0000 0.0000 0.0000 23.5287 0.0000 5.9155
# 5 -0.4949 -17.5881 -6.6279 0.0000 27.7915 0.0000
# 6 0.0000 0.0000 0.0000 5.9155 0.0000 -59.2209
#
#
#
# Elastic Compliance Matrix: (Units=1/GPa)
#
#
# Indices 1 2 3 4 5 6 
#
# 1 0.022961 -0.005686 0.000348 0.000000 -0.003107 0.000000
# 2 -0.005686 0.009536 -0.001170 0.000000 0.005655 0.000000
# 3 0.000348 -0.001170 0.020323 0.000000 0.004112 0.000000
# 4 0.000000 0.000000 0.000000 0.041460 0.000000 0.004141
# 5 -0.003107 0.005655 0.004112 0.000000 0.040486 0.000000
# 6 0.000000 0.000000 0.000000 0.004141 0.000000 -0.016472
#
#
# Mechanical properties :
#
#
# Convention : Reuss Voigt Hill
#
# Bulk Modulus (GPa) = 25.12353 35.85985 30.49169
# Shear Modulus (GPa) = 34.58338 11.39390 22.98864
#
# Velocity S-wave (km/s) = 3.87932 2.22668 3.16285
# Velocity P-wave (km/s) = 5.56759 4.71332 5.15817
#
# Compressibility (1/GPa) = 0.03980332
#
# Stress axis : x y z
#
# Youngs Moduli (GPa) = 43.55177 104.86583 49.20610
#
# Poissons Ratio (x) = 0.59628 -0.01713
# Poissons Ratio (y) = 0.24764 0.05759
# Poissons Ratio (z) = -0.01516 0.12272
#
# Static dielectric constant tensor:
#      x y z
#    x 1.854230 0.000000 -0.010430 
#    y 0.000000 2.033530 0.000000 
#    z -0.010430 0.000000 1.910190 
# 
# From -- ./inp_files/6484.got.cif
#   From: 2010.05.17/outbox.cif.g08.bks.cpg/sg11_4_cif.got.tgz:6484.got - 2010.06.03 12:22:45.
