data_PCOD9160368
_publ_section_title
;
Structure prediction by ZEFSAII (Michael W. Deem and Ramdas Pophale) SiO2 
 PCOD9160368
Probable space group: P 21/M
;
_chemical_formula_sum "Si O2"
_cell_formula_units_Z 32
_cell_length_a 12.342054
_cell_length_b 18.775410
_cell_length_c 8.912564
_cell_angle_alpha 90.000000
_cell_angle_beta 51.186473
_cell_angle_gamma 90.000000
_cell_volume 1609.247740
_symmetry_space_group_name_H-M "P 21/M"
_symmetry_group_IT_number 11
_symmetry_cell_setting 'monoclinic'
loop_
_space_group_symop_operation_xyz
x,y,z
-x,1/2+y,-z
-x,-y,-z
x,1/2-y,z
loop_
_atom_site_type_symbol
_atom_site_label
_atom_site_fract_x
_atom_site_fract_y
_atom_site_fract_z
Si Si1 0.095914 0.673513 0.010655
Si Si2 0.810251 0.830704 0.452596
Si Si3 0.474725 0.937283 0.141901
Si Si4 0.719617 0.974800 0.103507
Si Si5 0.981503 0.334154 0.474328
Si Si6 0.287511 0.480459 0.546843
Si Si7 0.968468 0.074302 0.193687
Si Si8 0.265369 0.616275 0.112048
O O1 0.095491 0.750000 0.933193
O O2 0.103515 0.610338 0.886687
O O3 0.221235 0.670853 0.020843
O O4 0.949407 0.667007 0.227055
O O5 0.753196 0.750000 0.488239
O O6 0.713201 0.896871 0.495004
O O7 0.872471 0.841045 0.565334
O O8 0.617547 0.920629 0.104195
O O9 0.396069 0.877973 0.110675
O O10 0.376118 0.971785 0.355557
O O11 0.500000 0.000000 0.000000
O O12 0.668521 0.988210 0.317420
O O13 0.877153 0.949180 0.981036
O O14 0.721841 0.043725 0.994243
O O15 0.944522 0.250000 0.511139
O O16 0.982897 0.366604 0.309196
O O17 0.868027 0.380111 0.663644
O O18 0.128904 0.509354 0.671154
#
# Coordination Sequence:
#
# PCOD9160368 Si02
#       8
#     4   4   4   4   4   4   4   4
#     4  10  19  35  58  88 128 160 196 253 308 361
#     4   9  20  35  56  87 121 158 193 242 315 370
#     4  10  24  40  59  90 121 161 200 250 306 366
#     4  11  23  37  59  95 127 156 198 256 314 365
#     4  10  21  35  56  88 127 162 199 253 309 357
#     4  12  21  39  64  90 122 158 204 261 300 365
#     4  12  21  34  62 100 122 150 211 259 308 355
#     4  10  19  38  58  85 121 156 209 242 299 361
#
# _framework density 19.885066999999999
#
# number of rings (size 3 to 8) (size 9 to 14) (size 15 to 20)
#    0.000    1.500    3.750    3.750    3.500    1.000 
#    0.000    0.000    0.000   10.500    0.000    0.000 
#    0.000    0.000    0.000    0.000    0.000    0.000 
#
# Total GULP energy -178415.932998 kJ/mol
# GULP energy per Si atom -5575.497906 kJ/mol
# Density = 1.983981 g / cm^3
# Si number density = 19.885067 Si / 1000 Ang^3
#
#
#
# Elastic Constant Matrix: (Units=GPa)
#
#
# Indices 1 2 3 4 5 6 
#
# 1 68.1140 31.2341 34.4766 0.0000 13.8574 0.0000
# 2 31.2341 62.4159 2.4916 0.0000 8.3891 0.0000
# 3 34.4766 2.4916 62.7789 0.0000 18.0894 0.0000
# 4 0.0000 0.0000 0.0000 14.1216 0.0000 9.5083
# 5 13.8574 8.3891 18.0894 0.0000 31.6877 0.0000
# 6 0.0000 0.0000 0.0000 9.5083 0.0000 26.3211
#
#
#
# Elastic Compliance Matrix: (Units=1/GPa)
#
#
# Indices 1 2 3 4 5 6 
#
# 1 0.028682 -0.013712 -0.015128 0.000000 -0.000277 0.000000
# 2 -0.013712 0.023196 0.007961 0.000000 -0.004689 0.000000
# 3 -0.015128 0.007961 0.027075 0.000000 -0.010948 0.000000
# 4 0.000000 0.000000 0.000000 0.093573 0.000000 -0.033803
# 5 -0.000277 -0.004689 -0.010948 0.000000 0.039171 0.000000
# 6 0.000000 0.000000 0.000000 -0.033803 0.000000 0.050203
#
#
# Mechanical properties :
#
#
# Convention : Reuss Voigt Hill
#
# Bulk Modulus (GPa) = 26.88466 36.63484 31.75975
# Shear Modulus (GPa) = 15.81992 22.76652 19.29322
#
# Velocity S-wave (km/s) = 2.82364 3.38732 3.11824
# Velocity P-wave (km/s) = 4.91731 5.81049 5.38246
#
# Compressibility (1/GPa) = 0.03719594
#
# Stress axis : x y z
#
# Youngs Moduli (GPa) = 34.86460 43.11131 36.93391
#
# Poissons Ratio (x) = 0.59115 0.55872
# Poissons Ratio (y) = 0.47807 -0.29402
# Poissons Ratio (z) = 0.52742 -0.34320
#
# Static dielectric constant tensor:
#      x y z
#    x 1.738110 0.000000 -0.002050 
#    y 0.000000 1.512090 0.000000 
#    z -0.002050 0.000000 1.696440 
# 
# From -- ./inp_files/19381.got.cif
#   From: 2010.05.17/outbox.cif.g08.bks.cpg/sg11_10_cif.got.tgz:19381.got - 2010.06.03 12:22:45.
