data_PCOD9160871
_publ_section_title
;
Structure prediction by ZEFSAII (Michael W. Deem and Ramdas Pophale) SiO2 
 PCOD9160871
Probable space group: P 21/M
;
_chemical_formula_sum "Si O2"
_cell_formula_units_Z 28
_cell_length_a 10.553727
_cell_length_b 27.422101
_cell_length_c 5.202934
_cell_angle_alpha 90.000000
_cell_angle_beta 124.747234
_cell_angle_gamma 90.000000
_cell_volume 1237.242083
_symmetry_space_group_name_H-M "P 21/M"
_symmetry_group_IT_number 11
_symmetry_cell_setting 'monoclinic'
loop_
_space_group_symop_operation_xyz
x,y,z
-x,1/2+y,-z
-x,-y,-z
x,1/2-y,z
loop_
_atom_site_type_symbol
_atom_site_label
_atom_site_fract_x
_atom_site_fract_y
_atom_site_fract_z
Si Si1 0.514240 0.892156 0.155559
Si Si2 0.241733 0.658914 0.671107
Si Si3 0.373075 0.048710 0.095309
Si Si4 0.629691 0.750000 0.833063
Si Si5 0.261745 0.148830 0.239334
Si Si6 0.694022 0.046037 0.710280
Si Si7 0.578757 0.250000 0.909750
Si Si8 0.916032 0.371809 0.997180
O O1 0.614214 0.849181 0.387134
O O2 0.395973 0.914930 0.217947
O O3 0.398059 0.872524 0.805708
O O4 0.628305 0.935199 0.201721
O O5 0.310173 0.704854 0.897499
O O6 0.166411 0.664180 0.305366
O O7 0.126675 0.635679 0.751648
O O8 0.317128 0.099689 0.156362
O O9 0.555128 0.035172 0.350016
O O10 0.280633 0.003157 0.097597
O O11 0.724618 0.699717 0.896546
O O12 0.553693 0.750000 0.024725
O O13 0.494141 0.750000 0.458826
O O14 0.094795 0.137427 0.157460
O O15 0.850483 0.075012 0.828489
#
# Coordination Sequence:
#
# PCOD9160871 Si02
#       8
#     4   4   4   2   4   4   2   4
#     4  10  19  38  64  91 124 173 218 269 319 385
#     4  11  23  42  67  91 128 167 219 268 317 381
#     4  10  19  38  66  91 128 168 226 268 325 380
#     4  12  26  42  68 100 126 167 217 272 322 382
#     4  11  26  40  63  94 134 173 212 270 330 395
#     4   9  20  36  62  97 124 170 221 274 319 385
#     4  12  24  42  74  98 120 165 233 274 318 378
#     4  11  25  43  63  97 137 171 208 266 335 391
#
# _framework density 22.630980999999998
#
# number of rings (size 3 to 8) (size 9 to 14) (size 15 to 20)
#    0.000    1.429    2.857    2.143    4.000    1.714 
#    0.000    0.714    0.000    0.000    0.000    0.000 
#    0.000    0.000    0.000    0.000    0.000    0.000 
#
# Total GULP energy -156068.740625 kJ/mol
# GULP energy per Si atom -5573.883594 kJ/mol
# Density = 2.257947 g / cm^3
# Si number density = 22.630981 Si / 1000 Ang^3
#
#
#
# Elastic Constant Matrix: (Units=GPa)
#
#
# Indices 1 2 3 4 5 6 
#
# 1 101.2651 35.3342 18.1249 0.0000 9.1602 0.0000
# 2 35.3342 98.5523 0.3168 0.0000 16.8101 0.0000
# 3 18.1249 0.3168 42.6253 0.0000 -4.4531 0.0000
# 4 0.0000 0.0000 0.0000 22.6052 0.0000 -3.8244
# 5 9.1602 16.8101 -4.4531 0.0000 26.9719 0.0000
# 6 0.0000 0.0000 0.0000 -3.8244 0.0000 27.5084
#
#
#
# Elastic Compliance Matrix: (Units=1/GPa)
#
#
# Indices 1 2 3 4 5 6 
#
# 1 0.012514 -0.004014 -0.005570 0.000000 -0.002668 0.000000
# 2 -0.004014 0.012671 0.000946 0.000000 -0.006378 0.000000
# 3 -0.005570 0.000946 0.026413 0.000000 0.005663 0.000000
# 4 0.000000 0.000000 0.000000 0.045303 0.000000 0.006298
# 5 -0.002668 -0.006378 0.005663 0.000000 0.042892 0.000000
# 6 0.000000 0.000000 0.000000 0.006298 0.000000 0.037228
#
#
# Mechanical properties :
#
#
# Convention : Reuss Voigt Hill
#
# Bulk Modulus (GPa) = 29.13499 38.88829 34.01164
# Shear Modulus (GPa) = 24.30294 27.99489 26.14891
#
# Velocity S-wave (km/s) = 3.28056 3.52094 3.40288
# Velocity P-wave (km/s) = 5.22028 5.80950 5.52276
#
# Compressibility (1/GPa) = 0.03432299
#
# Stress axis : x y z
#
# Youngs Moduli (GPa) = 79.91158 78.92219 37.85982
#
# Poissons Ratio (x) = 0.31676 0.21088
# Poissons Ratio (y) = 0.32073 -0.03582
# Poissons Ratio (z) = 0.44511 -0.07468
#
# Static dielectric constant tensor:
#      x y z
#    x 1.843840 0.000000 -0.050310 
#    y 0.000000 1.985330 0.000000 
#    z -0.050310 0.000000 1.927700 
# 
# From -- ./inp_files/3489.got.cif
#   From: 2010.05.17/outbox.cif.g08.bks.cpg/sg11_2_cif.got.tgz:3489.got - 2010.06.03 12:22:45.
