data_PCOD9160941
_publ_section_title
;
Structure prediction by ZEFSAII (Michael W. Deem and Ramdas Pophale) SiO2 
 PCOD9160941
Probable space group: P 21/M
;
_chemical_formula_sum "Si O2"
_cell_formula_units_Z 18
_cell_length_a 9.701533
_cell_length_b 5.711613
_cell_length_c 11.970261
_cell_angle_alpha 90.000000
_cell_angle_beta 92.563876
_cell_angle_gamma 90.000000
_cell_volume 662.624973
_symmetry_space_group_name_H-M "P 21/M"
_symmetry_group_IT_number 11
_symmetry_cell_setting 'monoclinic'
loop_
_space_group_symop_operation_xyz
x,y,z
-x,1/2+y,-z
-x,-y,-z
x,1/2-y,z
loop_
_atom_site_type_symbol
_atom_site_label
_atom_site_fract_x
_atom_site_fract_y
_atom_site_fract_z
Si Si1 0.467274 0.003268 0.840575
Si Si2 0.037276 0.750000 0.207903
Si Si3 0.089483 0.750000 0.853801
Si Si4 0.115632 0.250000 0.556910
Si Si5 0.848044 0.250000 0.398692
Si Si6 0.609831 0.999938 0.604236
Si Si7 0.715868 0.250000 0.927890
O O1 0.386664 0.250000 0.851553
O O2 0.519445 0.001133 0.714821
O O3 0.608307 0.035515 0.916735
O O4 0.408114 0.750000 0.863912
O O5 0.987921 0.501409 0.154011
O O6 0.979602 0.750000 0.332935
O O7 0.198244 0.750000 0.183940
O O8 0.162448 0.750000 0.734847
O O9 0.174927 0.750000 0.970575
O O10 0.200766 0.491424 0.566726
O O11 0.006561 0.250000 0.451096
O O12 0.684709 0.250000 0.600838
O O13 0.500000 0.000000 0.500000
O O14 0.687396 0.750000 0.611221
#
# Coordination Sequence:
#
# PCOD9160941 Si02
#       7
#     4   2   2   2   2   4   2
#     4   8  16  24  33  46  62  89 111 134 162 191
#     4  10  20  28  38  52  65  90 117 143 174 197
#     4  10  20  28  38  52  65  90 117 143 174 197
#     4   8  14  26  40  52  64  77 103 141 175 204
#     4   8  14  26  40  52  64  77 103 141 175 204
#     4   8  12  20  32  45  59  76 106 139 155 184
#     4  10  20  26  38  46  76  90 118 138 164 204
#
# _framework density 27.164688999999999
#
# number of rings (size 3 to 8) (size 9 to 14) (size 15 to 20)
#    0.667    2.667    0.000    0.667    3.111    0.000 
#    0.000    0.000    0.000    0.000    0.000    0.000 
#    0.000    0.000    0.000    0.000    0.000    2.222 
#
# Total GULP energy -100564.497825 kJ/mol
# GULP energy per Si atom -5586.916546 kJ/mol
# Density = 2.710286 g / cm^3
# Si number density = 27.164689 Si / 1000 Ang^3
#
#
#
# Elastic Constant Matrix: (Units=GPa)
#
#
# Indices 1 2 3 4 5 6 
#
# 1 85.6948 44.0661 37.3057 0.0000 3.1091 0.0000
# 2 44.0661 328.5756 38.1193 0.0000 -9.4659 0.0000
# 3 37.3057 38.1193 162.3945 0.0000 22.6273 0.0000
# 4 0.0000 0.0000 0.0000 29.6840 0.0000 -10.7667
# 5 3.1091 -9.4659 22.6273 0.0000 40.9686 0.0000
# 6 0.0000 0.0000 0.0000 -10.7667 0.0000 18.1453
#
#
#
# Elastic Compliance Matrix: (Units=1/GPa)
#
#
# Indices 1 2 3 4 5 6 
#
# 1 0.013658 -0.001501 -0.002809 0.000000 0.000168 0.000000
# 2 -0.001501 0.003351 -0.000613 0.000000 0.001227 0.000000
# 3 -0.002809 -0.000613 0.007515 0.000000 -0.004079 0.000000
# 4 0.000000 0.000000 0.000000 0.042927 0.000000 0.025471
# 5 0.000168 0.001227 -0.004079 0.000000 0.026933 0.000000
# 6 0.000000 0.000000 0.000000 0.025471 0.000000 0.070224
#
#
# Mechanical properties :
#
#
# Convention : Reuss Voigt Hill
#
# Bulk Modulus (GPa) = 68.12194 90.62747 79.37471
# Shear Modulus (GPa) = 27.87912 48.23783 38.05848
#
# Velocity S-wave (km/s) = 3.20707 4.21854 3.74709
# Velocity P-wave (km/s) = 6.23262 7.56061 6.92850
#
# Compressibility (1/GPa) = 0.01467956
#
# Stress axis : x y z
#
# Youngs Moduli (GPa) = 73.21867 298.40374 133.06318
#
# Poissons Ratio (x) = 0.44790 0.37371
# Poissons Ratio (y) = 0.10990 0.08153
# Poissons Ratio (z) = 0.20564 0.18284
#
# Static dielectric constant tensor:
#      x y z
#    x 2.007180 0.000000 -0.065820 
#    y 0.000000 2.227630 0.000000 
#    z -0.065820 0.000000 2.152200 
# 
# From -- ./inp_files/33285.got.cif
#   From: 2010.05.17/outbox.cif.g08.bks.cpg/sg11_17_cif.got.tgz:33285.got - 2010.06.03 12:22:45.
