data_PCOD9160108
_publ_section_title
;
Structure prediction by ZEFSAII (Michael W. Deem and Ramdas Pophale) SiO2 
 PCOD9160108
Probable space group: P 21/M
;
_chemical_formula_sum "Si O2"
_cell_formula_units_Z 32
_cell_length_a 12.713584
_cell_length_b 22.161535
_cell_length_c 19.013312
_cell_angle_alpha 90.000000
_cell_angle_beta 14.744257
_cell_angle_gamma 90.000000
_cell_volume 1363.395812
_symmetry_space_group_name_H-M "P 21/M"
_symmetry_group_IT_number 11
_symmetry_cell_setting 'monoclinic'
loop_
_space_group_symop_operation_xyz
x,y,z
-x,1/2+y,-z
-x,-y,-z
x,1/2-y,z
loop_
_atom_site_type_symbol
_atom_site_label
_atom_site_fract_x
_atom_site_fract_y
_atom_site_fract_z
Si Si1 0.111851 0.972860 0.545909
Si Si2 0.783555 0.868211 0.094035
Si Si3 0.726487 0.320758 0.685773
Si Si4 0.533275 0.453533 0.542116
Si Si5 0.655043 0.319480 0.883371
Si Si6 0.678322 0.077688 0.151063
Si Si7 0.317349 0.817976 0.527966
Si Si8 0.477947 0.118124 0.132628
O O1 0.475974 0.925691 0.289856
O O2 0.111336 0.970184 0.631040
O O3 0.705057 0.946640 0.772633
O O4 0.277643 0.036575 0.413942
O O5 0.710752 0.839126 0.065532
O O6 0.597142 0.826090 0.276609
O O7 0.224527 0.887814 0.839256
O O8 0.720531 0.250000 0.698242
O O9 0.081179 0.339098 0.402078
O O10 0.822842 0.345175 0.701188
O O11 0.500000 0.500000 0.500000
O O12 0.595432 0.381567 0.487832
O O13 0.098075 0.460464 0.865087
O O14 0.783660 0.250000 0.810388
O O15 0.737590 0.356591 0.900202
O O16 0.159598 0.320205 0.189046
O O17 0.672096 0.116286 0.083794
O O18 0.389164 0.750000 0.511155
#
# Coordination Sequence:
#
# PCOD9160108 Si02
#       8
#     4   4   4   4   4   4   4   4
#     4   9  18  36  55  79 109 156 201 234 288 365
#     4   9  17  33  59  85 109 147 195 244 296 352
#     4  10  20  35  61  86 107 150 200 243 293 356
#     4  10  20  36  57  87 120 156 201 251 307 359
#     4  10  19  34  59  85 112 151 206 250 288 352
#     4  10  21  36  55  85 116 155 194 241 309 358
#     4   9  16  32  57  82 112 148 201 253 284 350
#     4  11  20  38  57  82 122 153 196 241 305 361
#
# _framework density 23.470807000000001
#
# number of rings (size 3 to 8) (size 9 to 14) (size 15 to 20)
#    0.000    2.500    3.750    2.625    0.000    3.000 
#    2.250    6.875    0.000    0.000    0.000    0.000 
#    0.000    0.000    0.000    0.000    0.000    0.000 
#
# Total GULP energy -178449.636662 kJ/mol
# GULP energy per Si atom -5576.551146 kJ/mol
# Density = 2.341739 g / cm^3
# Si number density = 23.470807 Si / 1000 Ang^3
#
#
#
# Elastic Constant Matrix: (Units=GPa)
#
#
# Indices 1 2 3 4 5 6 
#
# 1 119.4365 39.2219 2.5901 0.0000 5.3242 0.0000
# 2 39.2219 113.7875 13.2885 0.0000 8.5070 0.0000
# 3 2.5901 13.2885 27.3676 0.0000 10.8762 0.0000
# 4 0.0000 0.0000 0.0000 6.7450 0.0000 10.4513
# 5 5.3242 8.5070 10.8762 0.0000 26.3551 0.0000
# 6 0.0000 0.0000 0.0000 10.4513 0.0000 37.0995
#
#
#
# Elastic Compliance Matrix: (Units=1/GPa)
#
#
# Indices 1 2 3 4 5 6 
#
# 1 0.009496 -0.003318 0.001255 0.000000 -0.001365 0.000000
# 2 -0.003318 0.010517 -0.004438 0.000000 -0.000893 0.000000
# 3 0.001255 -0.004438 0.045583 0.000000 -0.017632 0.000000
# 4 0.000000 0.000000 0.000000 0.263104 0.000000 -0.074119
# 5 -0.001365 -0.000893 -0.017632 0.000000 0.045784 0.000000
# 6 0.000000 0.000000 0.000000 -0.074119 0.000000 0.047835
#
#
# Mechanical properties :
#
#
# Convention : Reuss Voigt Hill
#
# Bulk Modulus (GPa) = 19.01340 41.19917 30.10629
# Shear Modulus (GPa) = 11.04119 27.73934 19.39026
#
# Velocity S-wave (km/s) = 2.17128 3.44156 2.87739
# Velocity P-wave (km/s) = 3.79531 5.77788 4.88816
#
# Compressibility (1/GPa) = 0.05259448
#
# Stress axis : x y z
#
# Youngs Moduli (GPa) = 105.31003 95.08524 21.93815
#
# Poissons Ratio (x) = 0.31546 -0.02753
# Poissons Ratio (y) = 0.34938 0.09735
# Poissons Ratio (z) = -0.13214 0.42195
#
# Static dielectric constant tensor:
#      x y z
#    x 1.964800 0.000000 -0.010610 
#    y 0.000000 1.913770 0.000000 
#    z -0.010610 0.000000 1.934580 
# 
# From -- ./inp_files/59748.got.cif
#   From: 2010.05.17/outbox.cif.g08.bks.cpg/sg11_30_cif.got.tgz:59748.got - 2010.06.03 12:22:45.
