data_PCOD9160264
_publ_section_title
;
Structure prediction by ZEFSAII (Michael W. Deem and Ramdas Pophale) SiO2 
 PCOD9160264
Probable space group: P 21/M
;
_chemical_formula_sum "Si O2"
_cell_formula_units_Z 32
_cell_length_a 18.723780
_cell_length_b 7.530965
_cell_length_c 11.943418
_cell_angle_alpha 90.000000
_cell_angle_beta 56.776832
_cell_angle_gamma 90.000000
_cell_volume 1408.837731
_symmetry_space_group_name_H-M "P 21/M"
_symmetry_group_IT_number 11
_symmetry_cell_setting 'monoclinic'
loop_
_space_group_symop_operation_xyz
x,y,z
-x,1/2+y,-z
-x,-y,-z
x,1/2-y,z
loop_
_atom_site_type_symbol
_atom_site_label
_atom_site_fract_x
_atom_site_fract_y
_atom_site_fract_z
Si Si1 0.803111 0.963832 0.215196
Si Si2 0.581117 0.963845 0.007163
Si Si3 0.036856 0.033073 0.787843
Si Si4 0.375022 0.464971 0.554121
Si Si5 0.538722 0.958435 0.290089
Si Si6 0.843390 0.041301 0.939137
Si Si7 0.760773 0.546575 0.778689
Si Si8 0.915180 0.536890 0.501422
O O1 0.804765 0.750000 0.217783
O O2 0.894575 0.029717 0.180281
O O3 0.723461 0.021716 0.359664
O O4 0.789920 0.015318 0.097801
O O5 0.590545 0.750000 0.007685
O O6 0.566499 0.032270 0.146299
O O7 0.667645 0.034937 0.876379
O O8 0.500000 0.000000 0.000000
O O9 0.035682 0.250000 0.792934
O O10 0.070375 0.976521 0.637324
O O11 0.939166 0.973996 0.882443
O O12 0.377011 0.250000 0.551734
O O13 0.415495 0.530584 0.637439
O O14 0.437752 0.523449 0.401461
O O15 0.559786 0.750000 0.270472
O O16 0.848802 0.250000 0.908464
O O17 0.803606 0.952348 0.864790
O O18 0.747618 0.750000 0.752362
O O19 0.830819 0.465579 0.635214
O O20 0.907298 0.750000 0.503988
O O21 0.000000 0.500000 0.500000
#
# Coordination Sequence:
#
# PCOD9160264 Si02
#       8
#     4   4   4   4   4   4   4   4
#     4  10  20  35  54  77 109 145 181 221 271 331
#     4  10  22  39  57  82 114 147 185 229 277 330
#     4   9  19  34  52  77 109 143 178 223 273 320
#     4   9  18  33  56  81 102 135 181 222 264 323
#     4   9  18  34  54  76 108 140 172 222 274 319
#     4  11  21  34  54  80 112 144 181 229 273 322
#     4  10  21  37  60  84 108 146 189 226 273 333
#     4  10  19  35  57  80 108 142 184 231 274 322
#
# _framework density 22.713757999999999
#
# number of rings (size 3 to 8) (size 9 to 14) (size 15 to 20)
#    0.000    2.250    1.250    1.500    0.000    4.500 
#    0.000    6.250    0.000    0.000    0.000    0.000 
#    0.000    0.000    0.000    0.000    0.000    0.000 
#
# Total GULP energy -178777.664004 kJ/mol
# GULP energy per Si atom -5586.802000 kJ/mol
# Density = 2.266206 g / cm^3
# Si number density = 22.713758 Si / 1000 Ang^3
#
#
#
# Elastic Constant Matrix: (Units=GPa)
#
#
# Indices 1 2 3 4 5 6 
#
# 1 61.8927 -6.7625 21.8036 0.0000 -23.5831 0.0000
# 2 -6.7625 61.3522 -4.5428 0.0000 -3.0870 0.0000
# 3 21.8036 -4.5428 128.6786 0.0000 -21.9346 0.0000
# 4 0.0000 0.0000 0.0000 12.4903 0.0000 -0.6050
# 5 -23.5831 -3.0870 -21.9346 0.0000 40.6764 0.0000
# 6 0.0000 0.0000 0.0000 -0.6050 0.0000 14.8294
#
#
#
# Elastic Compliance Matrix: (Units=1/GPa)
#
#
# Indices 1 2 3 4 5 6 
#
# 1 0.021532 0.002858 -0.001523 0.000000 0.011880 0.000000
# 2 0.002858 0.016830 0.000672 0.000000 0.003297 0.000000
# 3 -0.001523 0.000672 0.008712 0.000000 0.003866 0.000000
# 4 0.000000 0.000000 0.000000 0.080221 0.000000 0.003273
# 5 0.011880 0.003297 0.003866 0.000000 0.033807 0.000000
# 6 0.000000 0.000000 0.000000 0.003273 0.000000 0.067567
#
#
# Mechanical properties :
#
#
# Convention : Reuss Voigt Hill
#
# Bulk Modulus (GPa) = 19.57347 30.32443 24.94895
# Shear Modulus (GPa) = 20.68820 29.69423 25.19121
#
# Velocity S-wave (km/s) = 3.02126 3.61962 3.33389
# Velocity P-wave (km/s) = 4.56145 5.55414 5.08209
#
# Compressibility (1/GPa) = 0.05108956
#
# Stress axis : x y z
#
# Youngs Moduli (GPa) = 46.44203 59.41767 114.78375
#
# Poissons Ratio (x) = -0.16984 0.17476
# Poissons Ratio (y) = -0.13275 -0.07711
# Poissons Ratio (z) = 0.07071 -0.03992
#
# Static dielectric constant tensor:
#      x y z
#    x 1.822140 0.000000 -0.029020 
#    y 0.000000 1.865240 0.000000 
#    z -0.029020 0.000000 1.847330 
# 
# From -- ./inp_files/42780.got.cif
#   From: 2010.05.17/outbox.cif.g08.bks.cpg/sg11_22_cif.got.tgz:42780.got - 2010.06.03 12:22:45.
