data_PCOD9160768
_publ_section_title
;
Structure prediction by ZEFSAII (Michael W. Deem and Ramdas Pophale) SiO2 
 PCOD9160768
Probable space group: P 21/M
;
_chemical_formula_sum "Si O2"
_cell_formula_units_Z 20
_cell_length_a 13.397436
_cell_length_b 11.651409
_cell_length_c 5.220845
_cell_angle_alpha 90.000000
_cell_angle_beta 99.428411
_cell_angle_gamma 90.000000
_cell_volume 803.959347
_symmetry_space_group_name_H-M "P 21/M"
_symmetry_group_IT_number 11
_symmetry_cell_setting 'monoclinic'
loop_
_space_group_symop_operation_xyz
x,y,z
-x,1/2+y,-z
-x,-y,-z
x,1/2-y,z
loop_
_atom_site_type_symbol
_atom_site_label
_atom_site_fract_x
_atom_site_fract_y
_atom_site_fract_z
Si Si1 0.945616 0.879911 0.396981
Si Si2 0.726139 0.379716 0.506774
Si Si3 0.535906 0.373402 0.745179
Si Si4 0.343130 0.443152 0.892907
Si Si5 0.175566 0.076418 0.161794
O O1 0.993056 0.750000 0.420055
O O2 0.859634 0.872996 0.582824
O O3 0.908397 0.902903 0.090934
O O4 0.000000 0.000000 0.500000
O O5 0.759295 0.250000 0.480685
O O6 0.604778 0.374569 0.520117
O O7 0.730286 0.464971 0.271600
O O8 0.790811 0.445136 0.751871
O O9 0.561826 0.250000 0.880421
O O10 0.414836 0.383077 0.713032
O O11 0.582412 0.481354 0.905028
O O12 0.275326 0.374273 0.063387
#
# Coordination Sequence:
#
# PCOD9160768 Si02
#       5
#     4   4   4   4   4
#     4  12  28  52  79 109 144 180 226 288 359 438
#     4  10  20  37  63  97 142 190 243 294 346 410
#     4   9  19  32  54  90 134 189 240 291 342 402
#     4  10  19  37  61  92 140 182 239 292 347 409
#     4  11  24  46  72 105 140 180 232 288 351 419
#
# _framework density 24.876881000000001
#
# number of rings (size 3 to 8) (size 9 to 14) (size 15 to 20)
#    0.000    1.600    2.000    2.400    0.000    4.000 
#    0.000    0.000    0.000    0.000    0.000    0.000 
#    0.000    0.000    0.000    0.000    0.000    0.000 
#
# Total GULP energy -111344.971780 kJ/mol
# GULP energy per Si atom -5567.248589 kJ/mol
# Density = 2.482026 g / cm^3
# Si number density = 24.876881 Si / 1000 Ang^3
#
#
#
# Elastic Constant Matrix: (Units=GPa)
#
#
# Indices 1 2 3 4 5 6 
#
# 1 67.0859 42.2478 15.4965 0.0000 -16.8488 0.0000
# 2 42.2478 176.7081 14.5813 0.0000 -4.1131 0.0000
# 3 15.4965 14.5813 95.0730 0.0000 -16.7118 0.0000
# 4 0.0000 0.0000 0.0000 82.4552 0.0000 13.8114
# 5 -16.8488 -4.1131 -16.7118 0.0000 26.5637 0.0000
# 6 0.0000 0.0000 0.0000 13.8114 0.0000 16.1762
#
#
#
# Elastic Compliance Matrix: (Units=1/GPa)
#
#
# Indices 1 2 3 4 5 6 
#
# 1 0.021089 -0.004710 -0.000553 0.000000 0.012299 0.000000
# 2 -0.004710 0.006787 -0.000690 0.000000 -0.002371 0.000000
# 3 -0.000553 -0.000690 0.011956 0.000000 0.007064 0.000000
# 4 0.000000 0.000000 0.000000 0.014152 0.000000 -0.012083
# 5 0.012299 -0.002371 0.007064 0.000000 0.049523 0.000000
# 6 0.000000 0.000000 0.000000 -0.012083 0.000000 0.072136
#
#
# Mechanical properties :
#
#
# Convention : Reuss Voigt Hill
#
# Bulk Modulus (GPa) = 35.80933 53.72425 44.76679
# Shear Modulus (GPa) = 25.39907 42.80845 34.10376
#
# Velocity S-wave (km/s) = 3.19876 4.15277 3.70659
# Velocity P-wave (km/s) = 5.29798 6.68109 6.02933
#
# Compressibility (1/GPa) = 0.02792568
#
# Stress axis : x y z
#
# Youngs Moduli (GPa) = 47.41757 147.34239 83.64068
#
# Poissons Ratio (x) = 0.69400 0.04626
# Poissons Ratio (y) = 0.22334 0.05770
# Poissons Ratio (z) = 0.02623 0.10165
#
# Static dielectric constant tensor:
#      x y z
#    x 2.109240 0.000000 -0.022910 
#    y 0.000000 2.015610 0.000000 
#    z -0.022910 0.000000 1.947620 
# 
# From -- ./inp_files/6234.got.cif
#   From: 2010.05.17/outbox.cif.g08.bks.cpg/sg11_4_cif.got.tgz:6234.got - 2010.06.03 12:22:45.
