data_PCOD9160440
_publ_section_title
;
Structure prediction by ZEFSAII (Michael W. Deem and Ramdas Pophale) SiO2 
 PCOD9160440
Probable space group: P 21/M
;
_chemical_formula_sum "Si O2"
_cell_formula_units_Z 16
_cell_length_a 10.243085
_cell_length_b 18.247413
_cell_length_c 5.139192
_cell_angle_alpha 90.000000
_cell_angle_beta 55.368487
_cell_angle_gamma 90.000000
_cell_volume 790.376162
_symmetry_space_group_name_H-M "P 21/M"
_symmetry_group_IT_number 11
_symmetry_cell_setting 'monoclinic'
loop_
_space_group_symop_operation_xyz
x,y,z
-x,1/2+y,-z
-x,-y,-z
x,1/2-y,z
loop_
_atom_site_type_symbol
_atom_site_label
_atom_site_fract_x
_atom_site_fract_y
_atom_site_fract_z
Si Si1 0.527608 0.910816 0.711037
Si Si2 0.326404 0.337054 0.968023
Si Si3 0.964344 0.565394 0.740616
Si Si4 0.256904 0.537248 0.679676
O O1 0.556131 0.868695 0.945028
O O2 0.350190 0.924574 0.808797
O O3 0.612868 0.990870 0.628190
O O4 0.611233 0.865467 0.381872
O O5 0.321210 0.250000 0.978693
O O6 0.152225 0.371296 0.226682
O O7 0.000000 0.500000 0.500000
O O8 0.135591 0.588029 0.659328
O O9 0.856589 0.526090 0.080093
#
# Coordination Sequence:
#
# PCOD9160440 Si02
#       4
#     4   4   4   4
#     4  10  21  37  61  84 112 149 194 240 287 341
#     4  11  23  39  57  81 119 159 192 236 296 352
#     4  10  19  35  60  88 115 148 194 240 288 343
#     4   9  20  34  59  90 111 142 194 249 284 330
#
# _framework density 20.243523
#
# number of rings (size 3 to 8) (size 9 to 14) (size 15 to 20)
#    0.000    2.000    2.500    0.750    3.500    3.000 
#    0.000    2.500    0.000    0.000    0.000    0.000 
#    0.000    0.000    0.000    0.000    0.000    0.000 
#
# Total GULP energy -89270.369825 kJ/mol
# GULP energy per Si atom -5579.398114 kJ/mol
# Density = 2.019745 g / cm^3
# Si number density = 20.243523 Si / 1000 Ang^3
#
#
#
# Elastic Constant Matrix: (Units=GPa)
#
#
# Indices 1 2 3 4 5 6 
#
# 1 151.5992 54.9430 12.2550 0.0000 -24.3487 0.0000
# 2 54.9430 104.7013 11.1993 0.0000 -2.0067 0.0000
# 3 12.2550 11.1993 52.2418 0.0000 7.2841 0.0000
# 4 0.0000 0.0000 0.0000 22.3823 0.0000 -0.4802
# 5 -24.3487 -2.0067 7.2841 0.0000 29.5673 0.0000
# 6 0.0000 0.0000 0.0000 -0.4802 0.0000 23.1123
#
#
#
# Elastic Compliance Matrix: (Units=1/GPa)
#
#
# Indices 1 2 3 4 5 6 
#
# 1 0.009870 -0.004754 -0.002469 0.000000 0.008414 0.000000
# 2 -0.004754 0.012108 -0.001086 0.000000 -0.002826 0.000000
# 3 -0.002469 -0.001086 0.020968 0.000000 -0.007273 0.000000
# 4 0.000000 0.000000 0.000000 0.044698 0.000000 0.000929
# 5 0.008414 -0.002826 -0.007273 0.000000 0.042350 0.000000
# 6 0.000000 0.000000 0.000000 0.000929 0.000000 0.043286
#
#
# Mechanical properties :
#
#
# Convention : Reuss Voigt Hill
#
# Bulk Modulus (GPa) = 37.98487 51.70411 44.84449
# Shear Modulus (GPa) = 25.16663 30.35538 27.76101
#
# Velocity S-wave (km/s) = 3.52972 3.87655 3.70720
# Velocity P-wave (km/s) = 5.95118 6.75525 6.36592
#
# Compressibility (1/GPa) = 0.02632627
#
# Stress axis : x y z
#
# Youngs Moduli (GPa) = 101.31325 82.59120 47.69179
#
# Poissons Ratio (x) = 0.39265 0.11777
# Poissons Ratio (y) = 0.48166 0.05181
# Poissons Ratio (z) = 0.25018 0.08973
#
# Static dielectric constant tensor:
#      x y z
#    x 1.801640 0.000000 -0.000340 
#    y 0.000000 1.697260 0.000000 
#    z -0.000340 0.000000 1.794720 
# 
# From -- ./inp_files/1592.got.cif
#   From: 2010.05.17/outbox.cif.g08.bks.cpg/sg11_1_cif.got.tgz:1592.got - 2010.06.03 12:22:45.
