data_PCOD9160861
_publ_section_title
;
Structure prediction by ZEFSAII (Michael W. Deem and Ramdas Pophale) SiO2 
 PCOD9160861
Probable space group: P 21/M
;
_chemical_formula_sum "Si O2"
_cell_formula_units_Z 28
_cell_length_a 16.783072
_cell_length_b 15.445054
_cell_length_c 5.330534
_cell_angle_alpha 90.000000
_cell_angle_beta 69.139653
_cell_angle_gamma 90.000000
_cell_volume 1291.184205
_symmetry_space_group_name_H-M "P 21/M"
_symmetry_group_IT_number 11
_symmetry_cell_setting 'monoclinic'
loop_
_space_group_symop_operation_xyz
x,y,z
-x,1/2+y,-z
-x,-y,-z
x,1/2-y,z
loop_
_atom_site_type_symbol
_atom_site_label
_atom_site_fract_x
_atom_site_fract_y
_atom_site_fract_z
Si Si1 0.330262 0.750000 0.930272
Si Si2 0.828356 0.429337 0.162182
Si Si3 0.770086 0.250000 0.444509
Si Si4 0.581249 0.090936 0.933187
Si Si5 0.423796 0.409911 0.806350
Si Si6 0.679787 0.966853 0.466441
Si Si7 0.898424 0.998001 0.599985
Si Si8 0.239382 0.147497 0.238640
O O1 0.255443 0.750000 0.232653
O O2 0.382423 0.665391 0.937902
O O3 0.309555 0.750000 0.659452
O O4 0.817813 0.335463 0.295713
O O5 0.738390 0.478504 0.213057
O O6 0.873165 0.480621 0.341094
O O7 0.871293 0.432571 0.843202
O O8 0.506231 0.130419 0.842257
O O9 0.652952 0.043653 0.683510
O O10 0.559779 0.008983 0.129926
O O11 0.405062 0.419275 0.534430
O O12 0.331320 0.373724 0.001221
O O13 0.736814 0.890374 0.514928
O O14 0.843883 0.910938 0.736888
O O15 0.000000 0.000000 0.500000
O O16 0.223678 0.250000 0.243612
#
# Coordination Sequence:
#
# PCOD9160861 Si02
#       8
#     2   4   2   4   4   4   4   4
#     4  12  24  38  58  96 132 171 215 274 318 370
#     4  11  22  42  69  99 126 172 210 255 327 390
#     4  12  24  40  68  96 134 165 223 266 314 386
#     4  10  22  35  56  89 124 171 221 266 322 372
#     4  10  20  39  61  82 122 171 220 267 321 381
#     4  10  19  38  63  83 123 169 215 260 320 383
#     4  11  24  46  72  95 133 166 209 265 333 395
#     4  10  23  40  60  93 121 165 216 265 321 388
#
# _framework density 21.685517000000001
#
# number of rings (size 3 to 8) (size 9 to 14) (size 15 to 20)
#    0.000    1.429    2.857    2.571    3.000    0.571 
#    2.571    0.000    0.000    0.000    0.000    0.000 
#    0.000    0.000    0.000    0.000    0.000    0.000 
#
# Total GULP energy -155889.012105 kJ/mol
# GULP energy per Si atom -5567.464718 kJ/mol
# Density = 2.163616 g / cm^3
# Si number density = 21.685517 Si / 1000 Ang^3
#
#
#
# Elastic Constant Matrix: (Units=GPa)
#
#
# Indices 1 2 3 4 5 6 
#
# 1 105.2724 35.7918 7.8821 0.0000 0.8739 0.0000
# 2 35.7918 95.4307 -13.8969 0.0000 -6.5875 0.0000
# 3 7.8821 -13.8969 37.3260 0.0000 -5.5111 0.0000
# 4 0.0000 0.0000 0.0000 132.5989 0.0000 56.5366
# 5 0.8739 -6.5875 -5.5111 0.0000 33.4168 0.0000
# 6 0.0000 0.0000 0.0000 56.5366 0.0000 41.2968
#
#
#
# Elastic Compliance Matrix: (Units=1/GPa)
#
#
# Indices 1 2 3 4 5 6 
#
# 1 0.011634 -0.005193 -0.004701 0.000000 -0.002103 0.000000
# 2 -0.005193 0.013686 0.006775 0.000000 0.003951 0.000000
# 3 -0.004701 0.006775 0.031283 0.000000 0.006618 0.000000
# 4 0.000000 0.000000 0.000000 0.018116 0.000000 -0.024802
# 5 -0.002103 0.003951 0.006618 0.000000 0.031850 0.000000
# 6 0.000000 0.000000 0.000000 -0.024802 0.000000 0.058170
#
#
# Mechanical properties :
#
#
# Convention : Reuss Voigt Hill
#
# Bulk Modulus (GPa) = 19.85451 33.06478 26.45965
# Shear Modulus (GPa) = 26.62890 55.34599 40.98744
#
# Velocity S-wave (km/s) = 3.50802 5.05742 4.35223
# Velocity P-wave (km/s) = 5.05805 7.02736 6.12241
#
# Compressibility (1/GPa) = 0.05036638
#
# Stress axis : x y z
#
# Youngs Moduli (GPa) = 85.95319 73.06757 31.96591
#
# Poissons Ratio (x) = 0.37946 0.15027
# Poissons Ratio (y) = 0.44637 -0.21658
# Poissons Ratio (z) = 0.40405 -0.49507
#
# Static dielectric constant tensor:
#      x y z
#    x 1.945250 0.000000 0.038070 
#    y 0.000000 1.798000 0.000000 
#    z 0.038070 0.000000 1.937900 
# 
# From -- ./inp_files/7905.got.cif
#   From: 2010.05.17/outbox.cif.g08.bks.cpg/sg11_4_cif.got.tgz:7905.got - 2010.06.03 12:22:45.
