data_PCOD9160132
_publ_section_title
;
Structure prediction by ZEFSAII (Michael W. Deem and Ramdas Pophale) SiO2 
 PCOD9160132
Probable space group: P 21/M
;
_chemical_formula_sum "Si O2"
_cell_formula_units_Z 20
_cell_length_a 14.392053
_cell_length_b 8.741267
_cell_length_c 18.073695
_cell_angle_alpha 90.000000
_cell_angle_beta 157.127178
_cell_angle_gamma 90.000000
_cell_volume 883.779737
_symmetry_space_group_name_H-M "P 21/M"
_symmetry_group_IT_number 11
_symmetry_cell_setting 'monoclinic'
loop_
_space_group_symop_operation_xyz
x,y,z
-x,1/2+y,-z
-x,-y,-z
x,1/2-y,z
loop_
_atom_site_type_symbol
_atom_site_label
_atom_site_fract_x
_atom_site_fract_y
_atom_site_fract_z
Si Si1 0.758385 0.931663 0.173671
Si Si2 0.139469 0.072967 0.203697
Si Si3 0.741322 0.431222 0.411546
Si Si4 0.544555 0.925091 0.413932
Si Si5 0.712636 0.068485 0.985633
O O1 0.745432 0.750000 0.170293
O O2 0.983184 0.984102 0.387753
O O3 0.500000 0.000000 0.000000
O O4 0.812458 0.980892 0.129518
O O5 0.141526 0.250000 0.180882
O O6 0.288071 0.066496 0.390267
O O7 0.282225 0.971112 0.250442
O O8 0.872726 0.027525 0.031776
O O9 0.728387 0.250000 0.387323
O O10 0.643860 0.466485 0.422760
O O11 0.560459 0.521221 0.226479
O O12 0.547479 0.750000 0.388484
O O13 0.735371 0.250000 0.013795
#
# Coordination Sequence:
#
# PCOD9160132 Si02
#       5
#     4   4   4   4   4
#     4  11  25  45  69  93 122 159 202 255 313 370
#     4   9  19  35  57  88 124 163 207 252 301 358
#     4  11  24  41  63  93 127 163 205 252 306 368
#     4  10  19  34  59  89 123 165 209 253 301 356
#     4  11  23  41  66  94 126 163 206 255 306 363
#
# _framework density 22.630072999999999
#
# number of rings (size 3 to 8) (size 9 to 14) (size 15 to 20)
#    0.000    1.600    2.000    2.400    0.000    6.400 
#    0.000    0.000    0.000    0.000    0.000    0.000 
#    0.000    0.000    0.000    0.000    0.000    0.000 
#
# Total GULP energy -111910.447466 kJ/mol
# GULP energy per Si atom -5595.522373 kJ/mol
# Density = 2.257857 g / cm^3
# Si number density = 22.630073 Si / 1000 Ang^3
#
#
#
# Elastic Constant Matrix: (Units=GPa)
#
#
# Indices 1 2 3 4 5 6 
#
# 1 24.5841 -9.4249 4.5344 0.0000 5.3931 0.0000
# 2 -9.4249 31.4785 24.2742 0.0000 6.5536 0.0000
# 3 4.5344 24.2742 149.6561 0.0000 16.6180 0.0000
# 4 0.0000 0.0000 0.0000 30.8263 0.0000 3.3673
# 5 5.3931 6.5536 16.6180 0.0000 37.4892 0.0000
# 6 0.0000 0.0000 0.0000 3.3673 0.0000 32.2099
#
#
#
# Elastic Compliance Matrix: (Units=1/GPa)
#
#
# Indices 1 2 3 4 5 6 
#
# 1 0.051117 0.020145 -0.003796 0.000000 -0.009193 0.000000
# 2 0.020145 0.044808 -0.007033 0.000000 -0.007614 0.000000
# 3 -0.003796 -0.007033 0.008141 0.000000 -0.001833 0.000000
# 4 0.000000 0.000000 0.000000 0.032815 0.000000 -0.003430
# 5 -0.009193 -0.007614 -0.001833 0.000000 0.030140 0.000000
# 6 0.000000 0.000000 0.000000 -0.003430 0.000000 0.031405
#
#
# Mechanical properties :
#
#
# Convention : Reuss Voigt Hill
#
# Bulk Modulus (GPa) = 8.14998 27.16514 17.65756
# Shear Modulus (GPa) = 22.65608 32.52742 27.59175
#
# Velocity S-wave (km/s) = 3.16753 3.79536 3.49557
# Velocity P-wave (km/s) = 4.12151 5.58895 4.91036
#
# Compressibility (1/GPa) = 0.12269972
#
# Stress axis : x y z
#
# Youngs Moduli (GPa) = 19.56309 22.31762 122.83080
#
# Poissons Ratio (x) = -0.44960 0.46622
# Poissons Ratio (y) = -0.39411 0.86384
# Poissons Ratio (z) = 0.07425 0.15695
#
# Static dielectric constant tensor:
#      x y z
#    x 1.872120 0.000000 -0.027440 
#    y 0.000000 1.783200 0.000000 
#    z -0.027440 0.000000 1.911140 
# 
# From -- ./inp_files/57443.got.cif
#   From: 2010.05.17/outbox.cif.g08.bks.cpg/sg11_29_cif.got.tgz:57443.got - 2010.06.03 12:22:45.
