data_PCOD9160980
_publ_section_title
;
Structure prediction by ZEFSAII (Michael W. Deem and Ramdas Pophale) SiO2 
 PCOD9160980
Probable space group: P 21/M
;
_chemical_formula_sum "Si O2"
_cell_formula_units_Z 32
_cell_length_a 12.598685
_cell_length_b 8.639408
_cell_length_c 19.210702
_cell_angle_alpha 90.000000
_cell_angle_beta 122.128091
_cell_angle_gamma 90.000000
_cell_volume 1770.780441
_symmetry_space_group_name_H-M "P 21/M"
_symmetry_group_IT_number 11
_symmetry_cell_setting 'monoclinic'
loop_
_space_group_symop_operation_xyz
x,y,z
-x,1/2+y,-z
-x,-y,-z
x,1/2-y,z
loop_
_atom_site_type_symbol
_atom_site_label
_atom_site_fract_x
_atom_site_fract_y
_atom_site_fract_z
Si Si1 0.263177 0.562514 0.857024
Si Si2 0.685585 0.073327 0.978143
Si Si3 0.665851 0.063323 0.273162
Si Si4 0.811414 0.069137 0.765813
Si Si5 0.993933 0.062464 0.718235
Si Si6 0.929188 0.934845 0.408682
Si Si7 0.016141 0.927186 0.930555
Si Si8 0.611138 0.565379 0.802883
O O1 0.259753 0.750000 0.860587
O O2 0.328525 0.519503 0.806922
O O3 0.119705 0.504399 0.798506
O O4 0.336078 0.505854 0.951698
O O5 0.637704 0.250000 0.957371
O O6 0.649130 0.989458 0.894007
O O7 0.836954 0.078555 0.032111
O O8 0.674827 0.250000 0.279237
O O9 0.532685 0.014779 0.257695
O O10 0.786655 0.993485 0.352540
O O11 0.782583 0.250000 0.750737
O O12 0.863509 0.012060 0.709125
O O13 0.701965 0.993188 0.773333
O O14 0.936846 0.037917 0.853896
O O15 0.000206 0.250000 0.725570
O O16 0.004902 0.017760 0.641179
O O17 0.929515 0.750000 0.411591
O O18 0.000000 0.000000 0.500000
O O19 0.967556 0.750000 0.909185
O O20 0.000000 0.000000 0.000000
O O21 0.615723 0.750000 0.804685
#
# Coordination Sequence:
#
# PCOD9160980 Si02
#       8
#     4   4   4   4   4   4   4   4
#     4   9  17  32  52  72  99 135 177 224 270 309
#     4  10  20  31  46  70 100 137 182 228 270 309
#     4   9  20  38  56  77 106 139 174 215 261 312
#     4  11  21  33  50  72 102 140 179 221 262 304
#     4   9  19  33  52  80 109 133 166 211 261 307
#     4  10  20  37  63  92 113 132 158 199 254 315
#     4  11  20  30  45  68  97 134 180 231 272 305
#     4  11  23  35  49  71 103 145 187 222 260 307
#
# _framework density 18.071127000000001
#
# number of rings (size 3 to 8) (size 9 to 14) (size 15 to 20)
#    0.000    2.000    2.500    1.500    0.000    3.500 
#    0.000    0.000    0.000    0.750    0.000    0.000 
#    0.000    0.000    0.000    0.000    0.000    0.000 
#
# Total GULP energy -178348.564362 kJ/mol
# GULP energy per Si atom -5573.392636 kJ/mol
# Density = 1.803000 g / cm^3
# Si number density = 18.071127 Si / 1000 Ang^3
#
#
#
# Elastic Constant Matrix: (Units=GPa)
#
#
# Indices 1 2 3 4 5 6 
#
# 1 125.4052 28.2713 71.2930 0.0000 4.1759 0.0000
# 2 28.2713 24.6316 21.8859 0.0000 -0.9327 0.0000
# 3 71.2930 21.8859 94.1107 0.0000 -9.8930 0.0000
# 4 0.0000 0.0000 0.0000 19.4870 0.0000 2.5847
# 5 4.1759 -0.9327 -9.8930 0.0000 18.8000 0.0000
# 6 0.0000 0.0000 0.0000 2.5847 0.0000 16.2446
#
#
#
# Elastic Compliance Matrix: (Units=1/GPa)
#
#
# Indices 1 2 3 4 5 6 
#
# 1 0.017320 -0.009618 -0.012003 0.000000 -0.010640 0.000000
# 2 -0.009618 0.056790 -0.005716 0.000000 0.001946 0.000000
# 3 -0.012003 -0.005716 0.022545 0.000000 0.014246 0.000000
# 4 0.000000 0.000000 0.000000 0.052423 0.000000 -0.008341
# 5 -0.010640 0.001946 0.014246 0.000000 0.063148 0.000000
# 6 0.000000 0.000000 0.000000 -0.008341 0.000000 0.062886
#
#
# Mechanical properties :
#
#
# Convention : Reuss Voigt Hill
#
# Bulk Modulus (GPa) = 23.81980 54.11644 38.96812
# Shear Modulus (GPa) = 14.54416 19.08613 16.81514
#
# Velocity S-wave (km/s) = 2.84003 3.25340 3.05372
# Velocity P-wave (km/s) = 4.89531 6.64260 5.83473
#
# Compressibility (1/GPa) = 0.04198187
#
# Stress axis : x y z
#
# Youngs Moduli (GPa) = 57.73589 17.60872 44.35506
#
# Poissons Ratio (x) = 0.16936 0.53238
# Poissons Ratio (y) = 0.55529 0.25355
# Poissons Ratio (z) = 0.69299 0.10066
#
# Static dielectric constant tensor:
#      x y z
#    x 1.683120 0.000000 -0.030780 
#    y 0.000000 1.623010 0.000000 
#    z -0.030780 0.000000 1.599070 
# 
# From -- ./inp_files/64420.got.cif
#   From: 2010.05.17/outbox.cif.g08.bks.cpg/sg11_33_cif.got.tgz:64420.got - 2010.06.03 12:22:45.
