data_PCOD9160370
_publ_section_title
;
Structure prediction by ZEFSAII (Michael W. Deem and Ramdas Pophale) SiO2 
 PCOD9160370
Probable space group: P 21/M
;
_chemical_formula_sum "Si O2"
_cell_formula_units_Z 16
_cell_length_a 26.051918
_cell_length_b 5.410612
_cell_length_c 8.110389
_cell_angle_alpha 90.000000
_cell_angle_beta 138.777642
_cell_angle_gamma 90.000000
_cell_volume 753.359036
_symmetry_space_group_name_H-M "P 21/M"
_symmetry_group_IT_number 11
_symmetry_cell_setting 'monoclinic'
loop_
_space_group_symop_operation_xyz
x,y,z
-x,1/2+y,-z
-x,-y,-z
x,1/2-y,z
loop_
_atom_site_type_symbol
_atom_site_label
_atom_site_fract_x
_atom_site_fract_y
_atom_site_fract_z
Si Si1 0.746968 0.250000 0.699960
Si Si2 0.179161 0.250000 0.701156
Si Si3 0.409396 0.750000 0.887707
Si Si4 0.533981 0.750000 0.927328
Si Si5 0.452359 0.750000 0.424397
Si Si6 0.273751 0.750000 0.959549
Si Si7 0.950399 0.750000 0.901791
Si Si8 0.158163 0.250000 0.050324
O O1 0.667787 0.250000 0.406508
O O2 0.794984 0.501610 0.788113
O O3 0.729746 0.250000 0.851535
O O4 0.230265 0.499225 0.800608
O O5 0.113382 0.250000 0.400728
O O6 0.150193 0.250000 0.827386
O O7 0.498129 0.750000 0.023278
O O8 0.413850 0.485547 0.981284
O O9 0.456093 0.750000 0.631288
O O10 0.500000 0.500000 0.500000
O O11 0.365590 0.750000 0.147689
O O12 0.915347 0.750000 0.003638
O O13 0.000000 0.500000 0.000000
#
# Coordination Sequence:
#
# PCOD9160370 Si02
#       8
#     2   2   2   2   2   2   2   2
#     4  10  19  39  64  86 122 167 213 274 313 375
#     4  10  23  44  71  98 130 171 216 263 322 386
#     4  10  19  35  59  79 116 156 205 276 316 364
#     4  10  21  35  52  84 112 155 219 259 322 377
#     4  12  24  40  56  83 126 173 224 267 321 391
#     4  10  21  42  64  85 126 175 221 270 326 372
#     4  12  26  46  71 101 140 168 200 262 320 389
#     4  10  23  41  67 102 126 167 220 247 312 394
#
# _framework density 21.238212999999998
#
# number of rings (size 3 to 8) (size 9 to 14) (size 15 to 20)
#    0.000    1.500    1.250    3.750    0.000    1.000 
#   13.500    0.000    0.000    0.000    0.000    0.000 
#    0.000    0.000    0.000    0.000    0.000    0.000 
#
# Total GULP energy -89172.522571 kJ/mol
# GULP energy per Si atom -5573.282661 kJ/mol
# Density = 2.118987 g / cm^3
# Si number density = 21.238213 Si / 1000 Ang^3
#
#
#
# Elastic Constant Matrix: (Units=GPa)
#
#
# Indices 1 2 3 4 5 6 
#
# 1 83.1174 62.8154 24.3850 0.0000 21.3429 0.0000
# 2 62.8154 247.0512 88.3382 0.0000 21.8951 0.0000
# 3 24.3850 88.3382 162.1856 0.0000 1.2899 0.0000
# 4 0.0000 0.0000 0.0000 33.2294 0.0000 7.1552
# 5 21.3429 21.8951 1.2899 0.0000 26.8245 0.0000
# 6 0.0000 0.0000 0.0000 7.1552 0.0000 6.9031
#
#
#
# Elastic Compliance Matrix: (Units=1/GPa)
#
#
# Indices 1 2 3 4 5 6 
#
# 1 0.017587 -0.003168 -0.000828 0.000000 -0.011368 0.000000
# 2 -0.003168 0.006060 -0.002806 0.000000 -0.002290 0.000000
# 3 -0.000828 -0.002806 0.007798 0.000000 0.002574 0.000000
# 4 0.000000 0.000000 0.000000 0.038740 0.000000 -0.040155
# 5 -0.011368 -0.002290 0.002574 0.000000 0.048070 0.000000
# 6 0.000000 0.000000 0.000000 -0.040155 0.000000 0.186484
#
#
# Mechanical properties :
#
#
# Convention : Reuss Voigt Hill
#
# Bulk Modulus (GPa) = 56.05244 93.71460 74.88352
# Shear Modulus (GPa) = 15.41826 34.51244 24.96535
#
# Velocity S-wave (km/s) = 2.69730 4.03552 3.43226
# Velocity P-wave (km/s) = 6.01250 8.12005 7.14441
#
# Compressibility (1/GPa) = 0.01784044
#
# Stress axis : x y z
#
# Youngs Moduli (GPa) = 56.85857 165.02770 128.23539
#
# Poissons Ratio (x) = 0.52283 0.10622
# Poissons Ratio (y) = 0.18014 0.35982
# Poissons Ratio (z) = 0.04710 0.46306
#
# Static dielectric constant tensor:
#      x y z
#    x 1.860390 0.000000 -0.055800 
#    y 0.000000 1.913760 0.000000 
#    z -0.055800 0.000000 1.743550 
# 
# From -- ./inp_files/25385.got.cif
#   From: 2010.05.17/outbox.cif.g08.bks.cpg/sg11_13_cif.got.tgz:25385.got - 2010.06.03 12:22:45.
