data_PCOD9160876
_publ_section_title
;
Structure prediction by ZEFSAII (Michael W. Deem and Ramdas Pophale) SiO2 
 PCOD9160876
Probable space group: P 21/M
;
_chemical_formula_sum "Si O2"
_cell_formula_units_Z 32
_cell_length_a 26.638780
_cell_length_b 8.483920
_cell_length_c 20.647191
_cell_angle_alpha 90.000000
_cell_angle_beta 21.024634
_cell_angle_gamma 90.000000
_cell_volume 1674.122176
_symmetry_space_group_name_H-M "P 21/M"
_symmetry_group_IT_number 11
_symmetry_cell_setting 'monoclinic'
loop_
_space_group_symop_operation_xyz
x,y,z
-x,1/2+y,-z
-x,-y,-z
x,1/2-y,z
loop_
_atom_site_type_symbol
_atom_site_label
_atom_site_fract_x
_atom_site_fract_y
_atom_site_fract_z
Si Si1 0.326099 0.940553 0.374487
Si Si2 0.639002 0.559792 0.044425
Si Si3 0.157046 0.561586 0.311129
Si Si4 0.596910 0.941929 0.240289
Si Si5 0.654049 0.440346 0.797013
Si Si6 0.899511 0.564521 0.252375
Si Si7 0.277300 0.937963 0.651948
Si Si8 0.206305 0.062349 0.878642
O O1 0.314446 0.750000 0.393623
O O2 0.483796 0.983052 0.206078
O O3 0.306597 0.988248 0.323271
O O4 0.213464 0.015981 0.557608
O O5 0.648133 0.750000 0.031624
O O6 0.650525 0.507431 0.105153
O O7 0.755472 0.492587 0.856624
O O8 0.154932 0.750000 0.315305
O O9 0.239090 0.504642 0.276533
O O10 0.000000 0.500000 0.500000
O O11 0.597720 0.750000 0.239257
O O12 0.435512 0.989594 0.444189
O O13 0.694167 0.992883 0.182559
O O14 0.651003 0.250000 0.801251
O O15 0.500000 0.500000 0.000000
O O16 0.926368 0.750000 0.221876
O O17 0.832326 0.518475 0.264227
O O18 0.044948 0.474601 0.087520
O O19 0.268313 0.750000 0.652894
O O20 0.246170 0.979731 0.763459
O O21 0.225077 0.250000 0.848327
#
# Coordination Sequence:
#
# PCOD9160876 Si02
#       8
#     4   4   4   4   4   4   4   4
#     4  10  20  38  64  89 117 155 198 247 301 353
#     4  10  19  38  65  89 117 156 197 241 297 356
#     4  11  24  40  59  89 125 160 199 242 294 352
#     4   9  20  38  63  90 118 155 198 242 296 358
#     4  10  21  37  61  90 118 153 197 244 295 350
#     4  12  25  40  59  88 121 158 201 247 297 351
#     4  11  21  40  65  90 119 155 200 246 296 357
#     4  11  23  40  60  87 122 158 196 245 301 353
#
# _framework density 19.114494000000001
#
# number of rings (size 3 to 8) (size 9 to 14) (size 15 to 20)
#    0.000    1.500    2.500    3.000    0.000    2.500 
#    0.000    8.125    0.000    0.000    0.000    0.000 
#    0.000    0.000    0.000    0.000    0.000    0.000 
#
# Total GULP energy -178876.602469 kJ/mol
# GULP energy per Si atom -5589.893827 kJ/mol
# Density = 1.907099 g / cm^3
# Si number density = 19.114494 Si / 1000 Ang^3
#
#
#
# Elastic Constant Matrix: (Units=GPa)
#
#
# Indices 1 2 3 4 5 6 
#
# 1 68.5618 -0.4880 19.4583 0.0000 6.9215 0.0000
# 2 -0.4880 12.4060 -2.7651 0.0000 2.1194 0.0000
# 3 19.4583 -2.7651 70.8662 0.0000 2.1608 0.0000
# 4 0.0000 0.0000 0.0000 25.1783 0.0000 9.7668
# 5 6.9215 2.1194 2.1608 0.0000 38.6669 0.0000
# 6 0.0000 0.0000 0.0000 9.7668 0.0000 24.0078
#
#
#
# Elastic Compliance Matrix: (Units=1/GPa)
#
#
# Indices 1 2 3 4 5 6 
#
# 1 0.016082 0.000119 -0.004331 0.000000 -0.002643 0.000000
# 2 0.000119 0.082155 0.003317 0.000000 -0.004710 0.000000
# 3 -0.004331 0.003317 0.015438 0.000000 -0.000269 0.000000
# 4 0.000000 0.000000 0.000000 0.047159 0.000000 -0.019185
# 5 -0.002643 -0.004710 -0.000269 0.000000 0.026608 0.000000
# 6 0.000000 0.000000 0.000000 -0.019185 0.000000 0.049458
#
#
# Mechanical properties :
#
#
# Convention : Reuss Voigt Hill
#
# Bulk Modulus (GPa) = 8.93777 20.47159 14.70468
# Shear Modulus (GPa) = 18.11696 26.61253 22.36475
#
# Velocity S-wave (km/s) = 3.08200 3.73536 3.42430
# Velocity P-wave (km/s) = 4.16545 5.41638 4.83157
#
# Compressibility (1/GPa) = 0.11188467
#
# Stress axis : x y z
#
# Youngs Moduli (GPa) = 62.18091 12.17213 64.77612
#
# Poissons Ratio (x) = -0.00145 0.28052
# Poissons Ratio (y) = -0.00740 -0.21483
# Poissons Ratio (z) = 0.26928 -0.04037
#
# Static dielectric constant tensor:
#      x y z
#    x 1.662800 0.000000 -0.001120 
#    y 0.000000 1.658540 0.000000 
#    z -0.001120 0.000000 1.623090 
# 
# From -- ./inp_files/66916.got.cif
#   From: 2010.05.17/outbox.cif.g08.bks.cpg/sg11_34_cif.got.tgz:66916.got - 2010.06.03 12:22:45.
