data_PCOD9160745
_publ_section_title
;
Structure prediction by ZEFSAII (Michael W. Deem and Ramdas Pophale) SiO2 
 PCOD9160745
Probable space group: P 21/M
;
_chemical_formula_sum "Si O2"
_cell_formula_units_Z 32
_cell_length_a 14.749195
_cell_length_b 13.875642
_cell_length_c 9.273418
_cell_angle_alpha 90.000000
_cell_angle_beta 113.555824
_cell_angle_gamma 90.000000
_cell_volume 1739.701728
_symmetry_space_group_name_H-M "P 21/M"
_symmetry_group_IT_number 11
_symmetry_cell_setting 'monoclinic'
loop_
_space_group_symop_operation_xyz
x,y,z
-x,1/2+y,-z
-x,-y,-z
x,1/2-y,z
loop_
_atom_site_type_symbol
_atom_site_label
_atom_site_fract_x
_atom_site_fract_y
_atom_site_fract_z
Si Si1 0.737216 0.137565 0.379409
Si Si2 0.650559 0.639101 0.431777
Si Si3 0.450373 0.977456 0.817672
Si Si4 0.124020 0.137317 0.418496
Si Si5 0.412680 0.032557 0.337921
Si Si6 0.037890 0.865911 0.442222
Si Si7 0.930636 0.029994 0.825360
Si Si8 0.729378 0.362805 0.720347
O O1 0.734516 0.250000 0.339666
O O2 0.651318 0.082450 0.241277
O O3 0.851075 0.103777 0.437751
O O4 0.714552 0.128623 0.536818
O O5 0.621788 0.750000 0.405240
O O6 0.581334 0.574166 0.287889
O O7 0.763995 0.626639 0.454962
O O8 0.646714 0.604881 0.596394
O O9 0.532483 0.927083 0.767355
O O10 0.500000 0.000000 0.000000
O O11 0.110214 0.250000 0.371187
O O12 0.043717 0.112521 0.489724
O O13 0.110563 0.066692 0.275690
O O14 0.346727 0.938848 0.260062
O O15 0.500000 0.000000 0.500000
O O16 0.041904 0.750000 0.425548
O O17 0.017804 0.913787 0.274856
O O18 0.839942 0.098078 0.817215
O O19 0.000000 0.000000 0.000000
O O20 0.717715 0.250000 0.751183
#
# Coordination Sequence:
#
# PCOD9160745 Si02
#       8
#     4   4   4   4   4   4   4   4
#     4   9  17  34  60  83 109 146 195 241 278 336
#     4  10  20  38  61  83 111 151 198 237 277 346
#     4  11  23  38  55  84 121 149 188 242 301 350
#     4  10  20  37  60  84 114 152 197 239 282 348
#     4  10  19  37  60  85 109 147 199 239 287 342
#     4   9  19  37  61  86 111 152 201 238 283 346
#     4  11  21  35  56  86 120 153 185 239 302 350
#     4  10  19  37  62  84 110 149 199 244 280 340
#
# _framework density 18.393957
#
# number of rings (size 3 to 8) (size 9 to 14) (size 15 to 20)
#    0.000    2.000    3.750    2.250    0.000    4.000 
#    4.500    0.000    0.000    0.000    0.000    0.000 
#    0.000    0.000    0.000    0.000    0.000    0.000 
#
# Total GULP energy -178457.530341 kJ/mol
# GULP energy per Si atom -5576.797823 kJ/mol
# Density = 1.835209 g / cm^3
# Si number density = 18.393957 Si / 1000 Ang^3
#
#
#
# Elastic Constant Matrix: (Units=GPa)
#
#
# Indices 1 2 3 4 5 6 
#
# 1 91.1582 25.3557 28.9915 0.0000 0.7585 0.0000
# 2 25.3557 87.1583 35.1492 0.0000 10.5324 0.0000
# 3 28.9915 35.1492 103.8454 0.0000 12.1721 0.0000
# 4 0.0000 0.0000 0.0000 13.7741 0.0000 3.9119
# 5 0.7585 10.5324 12.1721 0.0000 15.7125 0.0000
# 6 0.0000 0.0000 0.0000 3.9119 0.0000 26.0705
#
#
#
# Elastic Compliance Matrix: (Units=1/GPa)
#
#
# Indices 1 2 3 4 5 6 
#
# 1 0.012705 -0.002936 -0.002983 0.000000 0.003665 0.000000
# 2 -0.002936 0.014494 -0.003260 0.000000 -0.007048 0.000000
# 3 -0.002983 -0.003260 0.012421 0.000000 -0.007293 0.000000
# 4 0.000000 0.000000 0.000000 0.075832 0.000000 -0.011379
# 5 0.003665 -0.007048 -0.007293 0.000000 0.073841 0.000000
# 6 0.000000 0.000000 0.000000 -0.011379 0.000000 0.040065
#
#
# Mechanical properties :
#
#
# Convention : Reuss Voigt Hill
#
# Bulk Modulus (GPa) = 47.03292 51.23941 49.13616
# Shear Modulus (GPa) = 19.62310 23.95578 21.78944
#
# Velocity S-wave (km/s) = 3.26977 3.61275 3.44553
# Velocity P-wave (km/s) = 6.31510 6.73200 6.52688
#
# Compressibility (1/GPa) = 0.02126171
#
# Stress axis : x y z
#
# Youngs Moduli (GPa) = 78.71081 68.99429 80.51100
#
# Poissons Ratio (x) = 0.20257 0.24014
# Poissons Ratio (y) = 0.23110 0.26247
# Poissons Ratio (z) = 0.23478 0.22492
#
# Static dielectric constant tensor:
#      x y z
#    x 1.686460 0.000000 -0.008880 
#    y 0.000000 1.674670 0.000000 
#    z -0.008880 0.000000 1.587640 
# 
# From -- ./inp_files/22247.got.cif
#   From: 2010.05.17/outbox.cif.g08.bks.cpg/sg11_12_cif.got.tgz:22247.got - 2010.06.03 12:22:45.
