data_PCOD9160786
_publ_section_title
;
Structure prediction by ZEFSAII (Michael W. Deem and Ramdas Pophale) SiO2 
 PCOD9160786
Probable space group: P 21/M
;
_chemical_formula_sum "Si O2"
_cell_formula_units_Z 32
_cell_length_a 14.856342
_cell_length_b 17.140438
_cell_length_c 12.358280
_cell_angle_alpha 90.000000
_cell_angle_beta 31.990383
_cell_angle_gamma 90.000000
_cell_volume 1667.189105
_symmetry_space_group_name_H-M "P 21/M"
_symmetry_group_IT_number 11
_symmetry_cell_setting 'monoclinic'
loop_
_space_group_symop_operation_xyz
x,y,z
-x,1/2+y,-z
-x,-y,-z
x,1/2-y,z
loop_
_atom_site_type_symbol
_atom_site_label
_atom_site_fract_x
_atom_site_fract_y
_atom_site_fract_z
Si Si1 0.011774 0.160728 0.482848
Si Si2 0.073498 0.838708 0.681515
Si Si3 0.462217 0.879135 0.317994
Si Si4 0.624514 0.891394 0.927503
Si Si5 0.308850 0.925158 0.105357
Si Si6 0.393383 0.160462 0.595208
Si Si7 0.884420 0.553638 0.043951
Si Si8 0.415909 0.954869 0.760070
O O1 0.967736 0.250000 0.553806
O O2 0.981227 0.148134 0.386050
O O3 0.879823 0.104916 0.678006
O O4 0.212468 0.147592 0.293716
O O5 0.024860 0.750000 0.761584
O O6 0.275971 0.847760 0.483627
O O7 0.987265 0.901471 0.846739
O O8 0.532476 0.844874 0.358190
O O9 0.458034 0.973391 0.337937
O O10 0.583932 0.862994 0.091064
O O11 0.673250 0.982797 0.887645
O O12 0.450904 0.884449 0.036216
O O13 0.357497 0.915529 0.930702
O O14 0.388232 0.250000 0.566225
O O15 0.210677 0.119472 0.789041
O O16 0.504819 0.106435 0.403162
O O17 0.740857 0.499507 0.136001
O O18 0.000000 0.500000 0.000000
#
# Coordination Sequence:
#
# PCOD9160786 Si02
#       8
#     4   4   4   4   4   4   4   4
#     4  11  23  37  58  91 127 158 195 247 308 364
#     4  11  21  34  57  91 126 155 191 249 307 358
#     4  10  19  37  62  89 118 155 201 247 301 357
#     4  10  21  38  63  89 116 157 203 250 297 355
#     4  10  21  41  61  87 118 160 207 249 290 357
#     4  11  22  38  60  86 117 155 199 248 304 363
#     4  11  22  39  60  88 120 156 201 253 302 359
#     4  10  22  40  62  85 115 161 205 247 295 358
#
# _framework density 19.193981999999998
#
# number of rings (size 3 to 8) (size 9 to 14) (size 15 to 20)
#    0.000    1.500    1.250    6.375    0.000    3.000 
#    2.250    0.625    0.000    0.000    0.000    0.000 
#    0.000    0.000    0.000    0.000    0.000    0.000 
#
# Total GULP energy -178824.281072 kJ/mol
# GULP energy per Si atom -5588.258783 kJ/mol
# Density = 1.915030 g / cm^3
# Si number density = 19.193982 Si / 1000 Ang^3
#
#
#
# Elastic Constant Matrix: (Units=GPa)
#
#
# Indices 1 2 3 4 5 6 
#
# 1 33.5070 10.3838 4.8013 0.0000 5.3401 0.0000
# 2 10.3838 67.5685 40.7381 0.0000 11.5864 0.0000
# 3 4.8013 40.7381 92.4320 0.0000 4.2968 0.0000
# 4 0.0000 0.0000 0.0000 9.6274 0.0000 -2.1410
# 5 5.3401 11.5864 4.2968 0.0000 28.2629 0.0000
# 6 0.0000 0.0000 0.0000 -2.1410 0.0000 17.5730
#
#
#
# Elastic Compliance Matrix: (Units=1/GPa)
#
#
# Indices 1 2 3 4 5 6 
#
# 1 0.031836 -0.004473 0.000516 0.000000 -0.004260 0.000000
# 2 -0.004473 0.022243 -0.009252 0.000000 -0.006867 0.000000
# 3 0.000516 -0.009252 0.014802 0.000000 0.001445 0.000000
# 4 0.000000 0.000000 0.000000 0.106762 0.000000 0.013007
# 5 -0.004260 -0.006867 0.001445 0.000000 0.038782 0.000000
# 6 0.000000 0.000000 0.000000 0.013007 0.000000 0.058490
#
#
# Mechanical properties :
#
#
# Convention : Reuss Voigt Hill
#
# Bulk Modulus (GPa) = 23.54990 33.92822 28.73906
# Shear Modulus (GPa) = 15.94961 20.26496 18.10728
#
# Velocity S-wave (km/s) = 2.88578 3.25283 3.07479
# Velocity P-wave (km/s) = 4.83732 5.64116 5.25464
#
# Compressibility (1/GPa) = 0.04246303
#
# Stress axis : x y z
#
# Youngs Moduli (GPa) = 31.41127 44.95884 67.55708
#
# Poissons Ratio (x) = 0.20110 -0.03484
# Poissons Ratio (y) = 0.14050 0.62501
# Poissons Ratio (z) = -0.01620 0.41594
#
# Static dielectric constant tensor:
#      x y z
#    x 1.664410 0.000000 -0.014670 
#    y 0.000000 1.671240 0.000000 
#    z -0.014670 0.000000 1.662810 
# 
# From -- ./inp_files/39970.got.cif
#   From: 2010.05.17/outbox.cif.g08.bks.cpg/sg11_20_cif.got.tgz:39970.got - 2010.06.03 12:22:45.
