data_PCOD9160413
_publ_section_title
;
Structure prediction by ZEFSAII (Michael W. Deem and Ramdas Pophale) SiO2 
 PCOD9160413
Probable space group: P 21/M
;
_chemical_formula_sum "Si O2"
_cell_formula_units_Z 26
_cell_length_a 11.109821
_cell_length_b 7.901004
_cell_length_c 26.717182
_cell_angle_alpha 90.000000
_cell_angle_beta 151.915935
_cell_angle_gamma 90.000000
_cell_volume 1104.041932
_symmetry_space_group_name_H-M "P 21/M"
_symmetry_group_IT_number 11
_symmetry_cell_setting 'monoclinic'
loop_
_space_group_symop_operation_xyz
x,y,z
-x,1/2+y,-z
-x,-y,-z
x,1/2-y,z
loop_
_atom_site_type_symbol
_atom_site_label
_atom_site_fract_x
_atom_site_fract_y
_atom_site_fract_z
Si Si1 0.972990 0.455883 0.619821
Si Si2 0.806317 0.563032 0.200257
Si Si3 0.561664 0.047001 0.282055
Si Si4 0.329508 0.750000 0.070920
Si Si5 0.452355 0.953671 0.610406
Si Si6 0.038689 0.554383 0.842220
Si Si7 0.989443 0.566410 0.058997
O O1 0.969057 0.250000 0.622133
O O2 0.014713 0.518789 0.691696
O O3 0.215948 0.502319 0.674804
O O4 0.723994 0.519121 0.498928
O O5 0.910490 0.750000 0.224121
O O6 0.780307 0.466934 0.138811
O O7 0.541923 0.605439 0.130810
O O8 0.516336 0.250000 0.265714
O O9 0.635104 0.994503 0.365888
O O10 0.298779 0.951993 0.172900
O O11 0.127345 0.598657 0.008789
O O12 0.427288 0.750000 0.599644
O O13 0.753629 0.987846 0.718018
O O14 0.045122 0.750000 0.862131
O O15 0.083569 0.451157 0.908533
O O16 0.896477 0.750000 0.009384
#
# Coordination Sequence:
#
# PCOD9160413 Si02
#       7
#     4   4   4   2   4   4   4
#     4  10  19  36  57  82 119 163 204 237 294 362
#     4   9  22  38  54  78 121 156 200 249 293 355
#     4  10  19  35  59  89 123 150 195 254 298 351
#     4  10  22  44  58  88 122 152 208 260 298 360
#     4   8  17  32  57  87 119 155 194 245 296 354
#     4  10  19  37  58  88 122 153 194 249 301 355
#     4  11  21  39  66  89 116 158 200 254 314 354
#
# _framework density 23.549831000000001
#
# number of rings (size 3 to 8) (size 9 to 14) (size 15 to 20)
#    0.462    1.846    1.538    2.308    0.000    2.462 
#    0.000    4.615    0.000    0.000    0.000    0.000 
#    0.000    0.000    0.000    0.000    0.000    0.000 
#
# Total GULP energy -144795.372687 kJ/mol
# GULP energy per Si atom -5569.052796 kJ/mol
# Density = 2.349623 g / cm^3
# Si number density = 23.549831 Si / 1000 Ang^3
#
#
#
# Elastic Constant Matrix: (Units=GPa)
#
#
# Indices 1 2 3 4 5 6 
#
# 1 46.7179 24.3703 26.2445 0.0000 -15.3093 0.0000
# 2 24.3703 102.5776 20.7272 0.0000 -9.1234 0.0000
# 3 26.2445 20.7272 56.2401 0.0000 -16.0174 0.0000
# 4 0.0000 0.0000 0.0000 16.2163 0.0000 0.6078
# 5 -15.3093 -9.1234 -16.0174 0.0000 22.2266 0.0000
# 6 0.0000 0.0000 0.0000 0.6078 0.0000 33.2707
#
#
#
# Elastic Compliance Matrix: (Units=1/GPa)
#
#
# Indices 1 2 3 4 5 6 
#
# 1 0.034329 -0.004828 -0.010155 0.000000 0.014346 0.000000
# 2 -0.004828 0.011278 -0.001928 0.000000 -0.000085 0.000000
# 3 -0.010155 -0.001928 0.026439 0.000000 0.011267 0.000000
# 4 0.000000 0.000000 0.000000 0.061709 0.000000 -0.001127
# 5 0.014346 -0.000085 0.011267 0.000000 0.062957 0.000000
# 6 0.000000 0.000000 0.000000 -0.001127 0.000000 0.030077
#
#
# Mechanical properties :
#
#
# Convention : Reuss Voigt Hill
#
# Bulk Modulus (GPa) = 26.16085 38.69107 32.42596
# Shear Modulus (GPa) = 18.29149 23.28895 20.79022
#
# Velocity S-wave (km/s) = 2.78998 3.14812 2.97445
# Velocity P-wave (km/s) = 4.63805 5.44788 5.05919
#
# Compressibility (1/GPa) = 0.03822505
#
# Stress axis : x y z
#
# Youngs Moduli (GPa) = 29.12973 88.67073 37.82286
#
# Poissons Ratio (x) = 0.42811 0.38408
# Poissons Ratio (y) = 0.14064 0.07291
# Poissons Ratio (z) = 0.29580 0.17093
#
# Static dielectric constant tensor:
#      x y z
#    x 1.945100 0.000000 -0.042620 
#    y 0.000000 1.871970 0.000000 
#    z -0.042620 0.000000 1.932650 
# 
# From -- ./inp_files/71346.got.cif
#   From: 2010.05.17/outbox.cif.g08.bks.cpg/sg11_36_cif.got.tgz:71346.got - 2010.06.03 12:22:45.
