data_PCOD9160256
_publ_section_title
;
Structure prediction by ZEFSAII (Michael W. Deem and Ramdas Pophale) SiO2 
 PCOD9160256
Probable space group: P 21/M
;
_chemical_formula_sum "Si O2"
_cell_formula_units_Z 28
_cell_length_a 20.531571
_cell_length_b 7.618714
_cell_length_c 16.251296
_cell_angle_alpha 90.000000
_cell_angle_beta 149.120636
_cell_angle_gamma 90.000000
_cell_volume 1304.685169
_symmetry_space_group_name_H-M "P 21/M"
_symmetry_group_IT_number 11
_symmetry_cell_setting 'monoclinic'
loop_
_space_group_symop_operation_xyz
x,y,z
-x,1/2+y,-z
-x,-y,-z
x,1/2-y,z
loop_
_atom_site_type_symbol
_atom_site_label
_atom_site_fract_x
_atom_site_fract_y
_atom_site_fract_z
Si Si1 0.180477 0.453501 0.979407
Si Si2 0.910596 0.458058 0.634780
Si Si3 0.444753 0.465373 0.194706
Si Si4 0.133201 0.458814 0.600637
Si Si5 0.288925 0.965057 0.444941
Si Si6 0.857264 0.459396 0.874271
Si Si7 0.397995 0.039460 0.959712
O O1 0.182862 0.250000 0.954828
O O2 0.313797 0.527576 0.093476
O O3 0.168831 0.461213 0.064967
O O4 0.051541 0.532875 0.802283
O O5 0.919329 0.250000 0.661188
O O6 0.868775 0.479746 0.495734
O O7 0.809191 0.525710 0.590853
O O8 0.447506 0.250000 0.199438
O O9 0.570220 0.522865 0.378734
O O10 0.444064 0.522470 0.098882
O O11 0.144187 0.250000 0.610782
O O12 0.258009 0.527981 0.783122
O O13 0.000000 0.500000 0.500000
O O14 0.288022 0.750000 0.443997
O O15 0.237392 0.020609 0.300213
O O16 0.845089 0.250000 0.869177
O O17 0.000000 0.500000 0.000000
O O18 0.388257 0.250000 0.955575
O O19 0.500000 0.000000 0.000000
#
# Coordination Sequence:
#
# PCOD9160256 Si02
#       7
#     4   4   4   4   4   4   4
#     4  10  20  36  58  83 111 147 187 229 277 332
#     4  10  19  35  57  79 108 148 190 231 279 334
#     4   9  18  34  56  80 109 146 185 223 275 335
#     4  11  23  37  55  84 116 148 190 237 285 339
#     4   9  18  33  55  81 108 142 184 225 271 333
#     4  11  21  36  57  83 113 145 184 229 278 332
#     4  10  21  38  60  84 112 149 191 236 284 340
#
# _framework density 21.461114999999999
#
# number of rings (size 3 to 8) (size 9 to 14) (size 15 to 20)
#    0.000    2.000    1.429    2.571    0.000    5.714 
#    0.000    0.714    0.000    2.571    0.000    0.000 
#    0.000    0.000    0.000    0.000    0.000    0.000 
#
# Total GULP energy -156466.950057 kJ/mol
# GULP energy per Si atom -5588.105359 kJ/mol
# Density = 2.141227 g / cm^3
# Si number density = 21.461115 Si / 1000 Ang^3
#
#
#
# Elastic Constant Matrix: (Units=GPa)
#
#
# Indices 1 2 3 4 5 6 
#
# 1 56.1247 -11.4930 21.7414 0.0000 9.5802 0.0000
# 2 -11.4930 40.0403 0.1184 0.0000 9.4395 0.0000
# 3 21.7414 0.1184 164.5652 0.0000 8.6110 0.0000
# 4 0.0000 0.0000 0.0000 13.2732 0.0000 -9.1945
# 5 9.5802 9.4395 8.6110 0.0000 39.8534 0.0000
# 6 0.0000 0.0000 0.0000 -9.1945 0.0000 19.8094
#
#
#
# Elastic Compliance Matrix: (Units=1/GPa)
#
#
# Indices 1 2 3 4 5 6 
#
# 1 0.021460 0.007685 -0.002504 0.000000 -0.006438 0.000000
# 2 0.007685 0.029220 -0.000584 0.000000 -0.008642 0.000000
# 3 -0.002504 -0.000584 0.006442 0.000000 -0.000652 0.000000
# 4 0.000000 0.000000 0.000000 0.111042 0.000000 0.051540
# 5 -0.006438 -0.008642 -0.000652 0.000000 0.028827 0.000000
# 6 0.000000 0.000000 0.000000 0.051540 0.000000 0.074403
#
#
# Mechanical properties :
#
#
# Convention : Reuss Voigt Hill
#
# Bulk Modulus (GPa) = 15.07938 31.27374 23.17656
# Shear Modulus (GPa) = 17.58673 31.27810 24.43242
#
# Velocity S-wave (km/s) = 2.86574 3.82177 3.37775
# Velocity P-wave (km/s) = 4.24165 5.83768 5.10246
#
# Compressibility (1/GPa) = 0.06631572
#
# Stress axis : x y z
#
# Youngs Moduli (GPa) = 46.59830 34.22340 155.23302
#
# Poissons Ratio (x) = -0.26300 0.38868
# Poissons Ratio (y) = -0.35811 0.09067
# Poissons Ratio (z) = 0.11667 0.01999
#
# Static dielectric constant tensor:
#      x y z
#    x 1.729340 0.000000 0.010450 
#    y 0.000000 1.803140 0.000000 
#    z 0.010450 0.000000 1.779790 
# 
# From -- ./inp_files/28395.got.cif
#   From: 2010.05.17/outbox.cif.g08.bks.cpg/sg11_15_cif.got.tgz:28395.got - 2010.06.03 12:22:45.
