data_PCOD9161070
_publ_section_title
;
Structure prediction by ZEFSAII (Michael W. Deem and Ramdas Pophale) SiO2 
 PCOD9161070
Probable space group: P 21/M
;
_chemical_formula_sum "Si O2"
_cell_formula_units_Z 32
_cell_length_a 15.995827
_cell_length_b 9.032774
_cell_length_c 15.873987
_cell_angle_alpha 90.000000
_cell_angle_beta 124.534067
_cell_angle_gamma 90.000000
_cell_volume 1889.426460
_symmetry_space_group_name_H-M "P 21/M"
_symmetry_group_IT_number 11
_symmetry_cell_setting 'monoclinic'
loop_
_space_group_symop_operation_xyz
x,y,z
-x,1/2+y,-z
-x,-y,-z
x,1/2-y,z
loop_
_atom_site_type_symbol
_atom_site_label
_atom_site_fract_x
_atom_site_fract_y
_atom_site_fract_z
Si Si1 0.153079 0.074200 0.040462
Si Si2 0.576459 0.923651 0.243153
Si Si3 0.656329 0.072369 0.931663
Si Si4 0.390751 0.075798 0.930134
Si Si5 0.919127 0.073142 0.652308
Si Si6 0.040827 0.074554 0.151208
Si Si7 0.919948 0.927291 0.390616
Si Si8 0.237852 0.573379 0.586540
O O1 0.162826 0.250000 0.032309
O O2 0.115631 0.048901 0.114783
O O3 0.257578 0.992961 0.078911
O O4 0.063658 0.009045 0.930851
O O5 0.577814 0.750000 0.266161
O O6 0.458186 0.968590 0.164613
O O7 0.627534 0.937742 0.179599
O O8 0.647288 0.014462 0.346854
O O9 0.659968 0.250000 0.937983
O O10 0.673973 0.005516 0.035424
O O11 0.394546 0.250000 0.952135
O O12 0.500000 0.000000 0.000000
O O13 0.912263 0.250000 0.662140
O O14 0.830461 0.032951 0.534433
O O15 0.028720 0.044219 0.670529
O O16 0.914232 0.986884 0.736494
O O17 0.021789 0.250000 0.145915
O O18 0.913799 0.750000 0.397515
O O19 0.817888 0.002572 0.364146
O O20 0.000000 0.000000 0.500000
O O21 0.235456 0.750000 0.592072
#
# Coordination Sequence:
#
# PCOD9161070 Si02
#       8
#     4   4   4   4   4   4   4   4
#     4  10  21  37  56  78 103 129 160 204 257 308
#     4   9  19  33  49  72 103 138 173 209 249 291
#     4  10  20  34  53  77 103 134 173 212 254 304
#     4   9  17  30  47  69  99 133 169 208 248 290
#     4   9  19  34  51  74 103 134 168 208 254 299
#     4  10  21  36  56  80 101 127 164 204 252 309
#     4   9  17  30  47  68  97 131 167 205 245 288
#     4  10  20  32  49  74 103 138 176 209 247 295
#
# _framework density 16.936357000000001
#
# number of rings (size 3 to 8) (size 9 to 14) (size 15 to 20)
#    0.000    2.500    0.000    3.750    0.000    8.500 
#    0.000    1.250    0.000    0.750    0.000    0.000 
#    0.000    0.000    0.000    0.000    0.000    0.000 
#
# Total GULP energy -178255.184599 kJ/mol
# GULP energy per Si atom -5570.474519 kJ/mol
# Density = 1.689781 g / cm^3
# Si number density = 16.936357 Si / 1000 Ang^3
#
#
#
# Elastic Constant Matrix: (Units=GPa)
#
#
# Indices 1 2 3 4 5 6 
#
# 1 93.0539 52.5905 52.3786 0.0000 10.9770 0.0000
# 2 52.5905 71.4405 59.0560 0.0000 1.0113 0.0000
# 3 52.3786 59.0560 82.0284 0.0000 4.2288 0.0000
# 4 0.0000 0.0000 0.0000 26.4679 0.0000 -0.4803
# 5 10.9770 1.0113 4.2288 0.0000 21.1191 0.0000
# 6 0.0000 0.0000 0.0000 -0.4803 0.0000 31.4088
#
#
#
# Elastic Compliance Matrix: (Units=1/GPa)
#
#
# Indices 1 2 3 4 5 6 
#
# 1 0.020936 -0.011432 -0.004653 0.000000 -0.009403 0.000000
# 2 -0.011432 0.041055 -0.022696 0.000000 0.008521 0.000000
# 3 -0.004653 -0.022696 0.031648 0.000000 -0.002832 0.000000
# 4 0.000000 0.000000 0.000000 0.037792 0.000000 0.000578
# 5 -0.009403 0.008521 -0.002832 0.000000 0.052397 0.000000
# 6 0.000000 0.000000 0.000000 0.000578 0.000000 0.031847
#
#
# Mechanical properties :
#
#
# Convention : Reuss Voigt Hill
#
# Bulk Modulus (GPa) = 62.20735 63.84143 63.02439
# Shear Modulus (GPa) = 16.74499 21.29901 19.02200
#
# Velocity S-wave (km/s) = 3.14777 3.55010 3.35497
# Velocity P-wave (km/s) = 7.07256 7.38790 7.23195
#
# Compressibility (1/GPa) = 0.01607527
#
# Stress axis : x y z
#
# Youngs Moduli (GPa) = 47.76502 24.35775 31.59721
#
# Poissons Ratio (x) = 0.27846 0.14703
# Poissons Ratio (y) = 0.54606 0.71715
# Poissons Ratio (z) = 0.22226 0.55284
#
# Static dielectric constant tensor:
#      x y z
#    x 1.580750 0.000000 -0.000090 
#    y 0.000000 1.560240 0.000000 
#    z -0.000090 0.000000 1.572730 
# 
# From -- ./inp_files/51749.got.cif
#   From: 2010.05.17/outbox.cif.g08.bks.cpg/sg11_26_cif.got.tgz:51749.got - 2010.06.03 12:22:45.
