data_PCOD9161629
_publ_section_title
;
Structure prediction by ZEFSAII (Michael W. Deem and Ramdas Pophale) SiO2 
 PCOD9161629
Probable space group: P 21/M
;
_chemical_formula_sum "Si O2"
_cell_formula_units_Z 32
_cell_length_a 20.349734
_cell_length_b 10.889074
_cell_length_c 8.850136
_cell_angle_alpha 90.000000
_cell_angle_beta 60.651069
_cell_angle_gamma 90.000000
_cell_volume 1709.394382
_symmetry_space_group_name_H-M "P 21/M"
_symmetry_group_IT_number 11
_symmetry_cell_setting 'monoclinic'
loop_
_space_group_symop_operation_xyz
x,y,z
-x,1/2+y,-z
-x,-y,-z
x,1/2-y,z
loop_
_atom_site_type_symbol
_atom_site_label
_atom_site_fract_x
_atom_site_fract_y
_atom_site_fract_z
Si Si1 0.003676 0.889931 0.874269
Si Si2 0.234469 0.891568 0.731626
Si Si3 0.773479 0.892298 0.748048
Si Si4 0.596654 0.385631 0.363779
Si Si5 0.501526 0.548828 0.245806
Si Si6 0.398313 0.112983 0.147456
Si Si7 0.834268 0.613201 0.011500
Si Si8 0.155005 0.610938 0.509806
O O1 0.010938 0.750000 0.932156
O O2 0.074612 0.905069 0.683642
O O3 0.923634 0.891915 0.878668
O O4 0.000000 0.000000 0.000000
O O5 0.218328 0.750000 0.799998
O O6 0.320337 0.922409 0.675809
O O7 0.216957 0.892876 0.573874
O O8 0.185052 0.997895 0.862447
O O9 0.789712 0.750000 0.682217
O O10 0.687113 0.920698 0.800121
O O11 0.826253 0.997351 0.618586
O O12 0.786102 0.895636 0.913451
O O13 0.602677 0.250000 0.291869
O O14 0.559827 0.468309 0.277465
O O15 0.544022 0.382871 0.571415
O O16 0.439202 0.473254 0.221713
O O17 0.551091 0.613480 0.061521
O O18 0.396507 0.250000 0.213811
O O19 0.819890 0.750000 0.095692
O O20 0.156871 0.750000 0.441072
#
# Coordination Sequence:
#
# PCOD9161629 Si02
#       8
#     4   4   4   4   4   4   4   4
#     4  10  20  36  59  84 113 143 180 224 268 320
#     4  10  20  35  56  81 111 145 182 227 276 328
#     4  10  22  38  55  80 113 146 183 226 272 324
#     4  10  20  34  52  78 108 137 177 228 276 322
#     4  10  20  34  54  77 103 139 181 223 275 324
#     4  10  20  36  55  75 104 142 182 223 268 323
#     4  10  21  37  57  83 112 144 183 226 270 321
#     4  10  21  37  56  82 112 144 182 224 270 324
#
# _framework density 18.720081
#
# number of rings (size 3 to 8) (size 9 to 14) (size 15 to 20)
#    0.000    2.000    1.250    2.250    0.000    2.000 
#    0.000    6.250    0.000    0.000    0.000    0.000 
#    0.000    0.000    0.000    0.000    0.000    0.000 
#
# Total GULP energy -178310.446843 kJ/mol
# GULP energy per Si atom -5572.201464 kJ/mol
# Density = 1.867747 g / cm^3
# Si number density = 18.720081 Si / 1000 Ang^3
#
#
#
# Elastic Constant Matrix: (Units=GPa)
#
#
# Indices 1 2 3 4 5 6 
#
# 1 47.6549 -0.4694 -10.0177 0.0000 -7.9054 0.0000
# 2 -0.4694 82.7015 29.5983 0.0000 1.8092 0.0000
# 3 -10.0177 29.5983 29.4499 0.0000 -0.8683 0.0000
# 4 0.0000 0.0000 0.0000 19.6062 0.0000 -18.6028
# 5 -7.9054 1.8092 -0.8683 0.0000 26.8702 0.0000
# 6 0.0000 0.0000 0.0000 -18.6028 0.0000 28.8802
#
#
#
# Elastic Compliance Matrix: (Units=1/GPa)
#
#
# Indices 1 2 3 4 5 6 
#
# 1 0.025200 -0.004983 0.013822 0.000000 0.008196 0.000000
# 2 -0.004983 0.019966 -0.021865 0.000000 -0.003517 0.000000
# 3 0.013822 -0.021865 0.060854 0.000000 0.007505 0.000000
# 4 0.000000 0.000000 0.000000 0.131173 0.000000 0.084493
# 5 0.008196 -0.003517 0.007505 0.000000 0.040107 0.000000
# 6 0.000000 0.000000 0.000000 0.084493 0.000000 0.089050
#
#
# Mechanical properties :
#
#
# Convention : Reuss Voigt Hill
#
# Bulk Modulus (GPa) = 12.50501 22.00318 17.25410
# Shear Modulus (GPa) = 11.93153 24.45100 18.19126
#
# Velocity S-wave (km/s) = 2.52735 3.61797 3.12067
# Velocity P-wave (km/s) = 3.90015 5.40669 4.71399
#
# Compressibility (1/GPa) = 0.07996795
#
# Stress axis : x y z
#
# Youngs Moduli (GPa) = 39.68199 50.08604 16.43276
#
# Poissons Ratio (x) = 0.24958 -0.22713
# Poissons Ratio (y) = 0.19774 0.35930
# Poissons Ratio (z) = -0.54848 1.09513
#
# Static dielectric constant tensor:
#      x y z
#    x 1.647820 0.000000 -0.022000 
#    y 0.000000 1.661280 0.000000 
#    z -0.022000 0.000000 1.620210 
# 
# From -- ./inp_files/26588.got.cif
#   From: 2010.05.17/outbox.cif.g08.bks.cpg/sg11_14_cif.got.tgz:26588.got - 2010.06.03 12:22:45.
