data_PCOD9161764
_publ_section_title
;
Structure prediction by ZEFSAII (Michael W. Deem and Ramdas Pophale) SiO2 
 PCOD9161764
Probable space group: P 21/M
;
_chemical_formula_sum "Si O2"
_cell_formula_units_Z 24
_cell_length_a 22.909791
_cell_length_b 13.584409
_cell_length_c 11.488987
_cell_angle_alpha 90.000000
_cell_angle_beta 21.135598
_cell_angle_gamma 90.000000
_cell_volume 1289.261145
_symmetry_space_group_name_H-M "P 21/M"
_symmetry_group_IT_number 11
_symmetry_cell_setting 'monoclinic'
loop_
_space_group_symop_operation_xyz
x,y,z
-x,1/2+y,-z
-x,-y,-z
x,1/2-y,z
loop_
_atom_site_type_symbol
_atom_site_label
_atom_site_fract_x
_atom_site_fract_y
_atom_site_fract_z
Si Si1 0.152547 0.515086 0.298167
Si Si2 0.456438 0.636271 0.648433
Si Si3 0.584726 0.862907 0.145420
Si Si4 0.161400 0.134360 0.690191
Si Si5 0.344575 0.479148 0.531462
Si Si6 0.979727 0.021613 0.213749
O O1 0.096018 0.559135 0.526464
O O2 0.000000 0.500000 0.500000
O O3 0.288656 0.581097 0.984164
O O4 0.240285 0.412170 0.165841
O O5 0.444077 0.750000 0.704267
O O6 0.506837 0.631317 0.419986
O O7 0.588635 0.583851 0.484574
O O8 0.589921 0.750000 0.098321
O O9 0.471342 0.933013 0.278246
O O10 0.170621 0.250000 0.650724
O O11 0.125685 0.065184 0.646672
O O12 0.315556 0.091672 0.474547
O O13 0.013868 0.106011 0.053921
O O14 0.163054 0.517041 0.896143
#
# Coordination Sequence:
#
# PCOD9161764 Si02
#       6
#     4   4   4   4   4   4
#     4  11  21  36  56  82 118 141 178 235 281 327
#     4  10  20  34  54  79 111 152 188 221 271 333
#     4  10  21  35  53  80 115 153 188 222 275 333
#     4   9  19  36  59  83 109 147 189 227 275 330
#     4   9  17  36  56  78 104 145 189 226 268 322
#     4   9  20  35  57  86 109 142 185 232 278 321
#
# _framework density 18.615313
#
# number of rings (size 3 to 8) (size 9 to 14) (size 15 to 20)
#    1.000    1.333    0.000    4.500    0.000    2.667 
#    0.000    3.333    0.000    2.000    0.000    0.000 
#    0.000    0.000    0.000    0.000    0.000    0.000 
#
# Total GULP energy -133710.097357 kJ/mol
# GULP energy per Si atom -5571.254057 kJ/mol
# Density = 1.857294 g / cm^3
# Si number density = 18.615313 Si / 1000 Ang^3
#
#
#
# Elastic Constant Matrix: (Units=GPa)
#
#
# Indices 1 2 3 4 5 6 
#
# 1 63.4030 17.4133 18.7221 0.0000 -14.0257 0.0000
# 2 17.4133 102.4655 -2.6340 0.0000 -25.1359 0.0000
# 3 18.7221 -2.6340 40.2465 0.0000 -10.8871 0.0000
# 4 0.0000 0.0000 0.0000 11.0013 0.0000 -1.5859
# 5 -14.0257 -25.1359 -10.8871 0.0000 35.8718 0.0000
# 6 0.0000 0.0000 0.0000 -1.5859 0.0000 19.1843
#
#
#
# Elastic Compliance Matrix: (Units=1/GPa)
#
#
# Indices 1 2 3 4 5 6 
#
# 1 0.019758 -0.002796 -0.008513 0.000000 0.003182 0.000000
# 2 -0.002796 0.012591 0.004592 0.000000 0.009123 0.000000
# 3 -0.008513 0.004592 0.031679 0.000000 0.009504 0.000000
# 4 0.000000 0.000000 0.000000 0.091994 0.000000 0.007605
# 5 0.003182 0.009123 0.009504 0.000000 0.038398 0.000000
# 6 0.000000 0.000000 0.000000 0.007605 0.000000 0.052755
#
#
# Mechanical properties :
#
#
# Convention : Reuss Voigt Hill
#
# Bulk Modulus (GPa) = 19.76531 30.34643 25.05587
# Shear Modulus (GPa) = 18.01982 24.71905 21.36944
#
# Velocity S-wave (km/s) = 3.11466 3.64797 3.39182
# Velocity P-wave (km/s) = 4.85548 5.83788 5.36920
#
# Compressibility (1/GPa) = 0.05059370
#
# Stress axis : x y z
#
# Youngs Moduli (GPa) = 50.61283 79.42463 31.56709
#
# Poissons Ratio (x) = 0.22206 0.26874
# Poissons Ratio (y) = 0.14151 -0.14497
# Poissons Ratio (z) = 0.43088 -0.36476
#
# Static dielectric constant tensor:
#      x y z
#    x 1.649850 0.000000 0.013740 
#    y 0.000000 1.634210 0.000000 
#    z 0.013740 0.000000 1.653880 
# 
# From -- ./inp_files/44302.got.cif
#   From: 2010.05.17/outbox.cif.g08.bks.cpg/sg11_23_cif.got.tgz:44302.got - 2010.06.03 12:22:45.
