data_PCOD9161351
_publ_section_title
;
Structure prediction by ZEFSAII (Michael W. Deem and Ramdas Pophale) SiO2 
 PCOD9161351
Probable space group: P 21/M
;
_chemical_formula_sum "Si O2"
_cell_formula_units_Z 32
_cell_length_a 15.212194
_cell_length_b 8.742017
_cell_length_c 25.127824
_cell_angle_alpha 90.000000
_cell_angle_beta 152.420026
_cell_angle_gamma 90.000000
_cell_volume 1547.128860
_symmetry_space_group_name_H-M "P 21/M"
_symmetry_group_IT_number 11
_symmetry_cell_setting 'monoclinic'
loop_
_space_group_symop_operation_xyz
x,y,z
-x,1/2+y,-z
-x,-y,-z
x,1/2-y,z
loop_
_atom_site_type_symbol
_atom_site_label
_atom_site_fract_x
_atom_site_fract_y
_atom_site_fract_z
Si Si1 0.084831 0.931929 0.321190
Si Si2 0.208512 0.429406 0.541072
Si Si3 0.460200 0.569111 0.589497
Si Si4 0.529133 0.085086 0.961291
Si Si5 0.879572 0.933918 0.775998
Si Si6 0.380582 0.581180 0.731428
Si Si7 0.150381 0.000541 0.708469
Si Si8 0.261372 0.934843 0.028331
O O1 0.035435 0.750000 0.300703
O O2 0.300233 0.950085 0.458046
O O3 0.074311 0.984200 0.254901
O O4 0.953252 0.033170 0.290431
O O5 0.156074 0.250000 0.506929
O O6 0.387220 0.470572 0.599952
O O7 0.262756 0.469864 0.630043
O O8 0.037545 0.535849 0.427079
O O9 0.463106 0.750000 0.604974
O O10 0.668350 0.525207 0.681322
O O11 0.610871 0.250000 0.017898
O O12 0.665285 0.012733 0.990676
O O13 0.325617 0.099259 0.823599
O O14 0.500000 0.000000 0.000000
O O15 0.886234 0.750000 0.770743
O O16 0.038295 0.968209 0.906162
O O17 0.387007 0.750000 0.710801
O O18 0.270911 0.591849 0.728974
O O19 0.592552 0.516198 0.853815
O O20 0.288962 0.750000 0.047066
#
# Coordination Sequence:
#
# PCOD9161351 Si02
#       8
#     4   4   4   4   4   4   4   4
#     4  10  20  33  54  85 119 152 187 229 275 328
#     4  11  23  39  61  86 111 143 184 235 288 339
#     4   9  20  38  57  82 115 149 187 232 281 333
#     4  10  20  33  52  78 113 153 189 228 272 323
#     4  10  20  36  59  83 113 152 189 231 281 330
#     4  11  23  39  60  84 111 145 184 232 285 339
#     4  10  22  37  55  83 116 151 188 223 272 333
#     4   9  20  37  54  77 109 145 186 230 276 329
#
# _framework density 20.683474
#
# number of rings (size 3 to 8) (size 9 to 14) (size 15 to 20)
#    0.000    2.000    0.000    3.000    0.000    9.000 
#    0.000    0.625    0.000    0.000    0.000    0.000 
#    0.000    0.000    0.000    0.000    0.000    0.000 
#
# Total GULP energy -178144.174563 kJ/mol
# GULP energy per Si atom -5567.005455 kJ/mol
# Density = 2.063640 g / cm^3
# Si number density = 20.683474 Si / 1000 Ang^3
#
#
#
# Elastic Constant Matrix: (Units=GPa)
#
#
# Indices 1 2 3 4 5 6 
#
# 1 56.7533 20.9704 40.4612 0.0000 8.6121 0.0000
# 2 20.9704 30.2111 28.4307 0.0000 -8.7072 0.0000
# 3 40.4612 28.4307 105.2990 0.0000 21.1175 0.0000
# 4 0.0000 0.0000 0.0000 11.9041 0.0000 -3.6599
# 5 8.6121 -8.7072 21.1175 0.0000 34.8227 0.0000
# 6 0.0000 0.0000 0.0000 -3.6599 0.0000 4.4301
#
#
#
# Elastic Compliance Matrix: (Units=1/GPa)
#
#
# Indices 1 2 3 4 5 6 
#
# 1 0.028997 -0.018930 -0.004148 0.000000 -0.009389 0.000000
# 2 -0.018930 0.075861 -0.020437 0.000000 0.036044 0.000000
# 3 -0.004148 -0.020437 0.019841 0.000000 -0.016116 0.000000
# 4 0.000000 0.000000 0.000000 0.112608 0.000000 0.093032
# 5 -0.009389 0.036044 -0.016116 0.000000 0.049825 0.000000
# 6 0.000000 0.000000 0.000000 0.093032 0.000000 0.302588
#
#
# Mechanical properties :
#
#
# Convention : Reuss Voigt Hill
#
# Bulk Modulus (GPa) = 26.54739 41.33201 33.93970
# Shear Modulus (GPa) = 7.25367 17.05811 12.15589
#
# Velocity S-wave (km/s) = 1.87473 2.87491 2.42690
# Velocity P-wave (km/s) = 4.18916 5.57195 4.92929
#
# Compressibility (1/GPa) = 0.03766848
#
# Stress axis : x y z
#
# Youngs Moduli (GPa) = 34.48661 13.18195 50.40135
#
# Poissons Ratio (x) = 0.24953 0.20906
# Poissons Ratio (y) = 0.65283 1.03006
# Poissons Ratio (z) = 0.14305 0.26940
#
# Static dielectric constant tensor:
#      x y z
#    x 1.738630 0.000000 0.007620 
#    y 0.000000 1.756030 0.000000 
#    z 0.007620 0.000000 1.749550 
# 
# From -- ./inp_files/69161.got.cif
#   From: 2010.05.17/outbox.cif.g08.bks.cpg/sg11_35_cif.got.tgz:69161.got - 2010.06.03 12:22:45.
