data_PCOD9161086
_publ_section_title
;
Structure prediction by ZEFSAII (Michael W. Deem and Ramdas Pophale) SiO2 
 PCOD9161086
Probable space group: P 21/M
;
_chemical_formula_sum "Si O2"
_cell_formula_units_Z 24
_cell_length_a 5.474459
_cell_length_b 11.591779
_cell_length_c 17.071469
_cell_angle_alpha 90.000000
_cell_angle_beta 74.268024
_cell_angle_gamma 90.000000
_cell_volume 1042.752503
_symmetry_space_group_name_H-M "P 21/M"
_symmetry_group_IT_number 11
_symmetry_cell_setting 'monoclinic'
loop_
_space_group_symop_operation_xyz
x,y,z
-x,1/2+y,-z
-x,-y,-z
x,1/2-y,z
loop_
_atom_site_type_symbol
_atom_site_label
_atom_site_fract_x
_atom_site_fract_y
_atom_site_fract_z
Si Si1 0.532622 0.460931 0.252292
Si Si2 0.784159 0.419828 0.957958
Si Si3 0.681078 0.497559 0.408865
Si Si4 0.331127 0.412130 0.903287
Si Si5 0.788655 0.750000 0.441707
Si Si6 0.806021 0.250000 0.451715
Si Si7 0.100052 0.378266 0.176341
O O1 0.512983 0.489468 0.344962
O O2 0.582122 0.572438 0.192913
O O3 0.289452 0.401821 0.233202
O O4 0.802182 0.393666 0.222206
O O5 0.549866 0.362057 0.937063
O O6 0.832930 0.529412 0.896062
O O7 0.054289 0.362255 0.934735
O O8 0.709925 0.462366 0.050506
O O9 0.500000 0.500000 0.500000
O O10 0.821913 0.623515 0.396493
O O11 0.829871 0.374278 0.404826
O O12 0.489594 0.750000 0.493153
O O13 0.985567 0.750000 0.497174
O O14 0.145765 0.250000 0.143604
#
# Coordination Sequence:
#
# PCOD9161086 Si02
#       7
#     4   4   4   4   2   2   4
#     4  10  21  34  53  81 112 154 189 244 291 352
#     4   8  14  26  45  68  98 140 177 218 272 339
#     4  10  23  42  63  90 121 160 202 248 303 361
#     4   8  14  27  46  69  97 136 184 219 274 327
#     4  10  22  42  62  84 118 152 198 242 298 356
#     4  10  22  38  64  90 114 148 198 250 294 356
#     4  10  20  32  50  80 120 146 187 238 303 348
#
# _framework density 23.016009
#
# number of rings (size 3 to 8) (size 9 to 14) (size 15 to 20)
#    0.000    2.667    0.000    1.000    2.333    5.333 
#    0.000    0.000    1.833    0.000    0.000    0.000 
#    0.000    0.000    0.000    0.000    0.000    0.000 
#
# Total GULP energy -133673.423337 kJ/mol
# GULP energy per Si atom -5569.725972 kJ/mol
# Density = 2.296362 g / cm^3
# Si number density = 23.016009 Si / 1000 Ang^3
#
#
#
# Elastic Constant Matrix: (Units=GPa)
#
#
# Indices 1 2 3 4 5 6 
#
# 1 190.3505 29.1713 28.4807 0.0000 37.8730 0.0000
# 2 29.1713 172.8394 25.9013 0.0000 22.5793 0.0000
# 3 28.4807 25.9013 131.6716 0.0000 26.3296 0.0000
# 4 0.0000 0.0000 0.0000 79.2898 0.0000 17.2164
# 5 37.8730 22.5793 26.3296 0.0000 47.2870 0.0000
# 6 0.0000 0.0000 0.0000 17.2164 0.0000 -11.7443
#
#
#
# Elastic Compliance Matrix: (Units=1/GPa)
#
#
# Indices 1 2 3 4 5 6 
#
# 1 0.006293 -0.000402 -0.000352 0.000000 -0.004653 0.000000
# 2 -0.000402 0.006255 -0.000687 0.000000 -0.002282 0.000000
# 3 -0.000352 -0.000687 0.008647 0.000000 -0.004205 0.000000
# 4 0.000000 0.000000 0.000000 0.009567 0.000000 0.014024
# 5 -0.004653 -0.002282 -0.004205 0.000000 0.028305 0.000000
# 6 0.000000 0.000000 0.000000 0.014024 0.000000 -0.064589
#
#
# Mechanical properties :
#
#
# Convention : Reuss Voigt Hill
#
# Bulk Modulus (GPa) = 54.60445 73.55200 64.07823
# Shear Modulus (GPa) = 1443.70053 50.38703 747.04378
#
# Velocity S-wave (km/s) = 25.07232 4.68398 18.03553
# Velocity P-wave (km/s) = 29.35877 7.82810 21.48507
#
# Compressibility (1/GPa) = 0.01831352
#
# Stress axis : x y z
#
# Youngs Moduli (GPa) = 158.89639 159.88170 115.65121
#
# Poissons Ratio (x) = 0.06421 0.04069
# Poissons Ratio (y) = 0.06382 0.07946
# Poissons Ratio (z) = 0.05591 0.10986
#
# Static dielectric constant tensor:
#      x y z
#    x 1.969870 0.000000 -0.045660 
#    y 0.000000 1.879070 0.000000 
#    z -0.045660 0.000000 1.846110 
# 
# From -- ./inp_files/56804.got.cif
#   From: 2010.05.17/outbox.cif.g08.bks.cpg/sg11_29_cif.got.tgz:56804.got - 2010.06.03 12:22:45.
