data_PCOD9161367
_publ_section_title
;
Structure prediction by ZEFSAII (Michael W. Deem and Ramdas Pophale) SiO2 
 PCOD9161367
Probable space group: P 21/M
;
_chemical_formula_sum "Si O2"
_cell_formula_units_Z 24
_cell_length_a 9.761826
_cell_length_b 16.418433
_cell_length_c 12.595358
_cell_angle_alpha 90.000000
_cell_angle_beta 37.613398
_cell_angle_gamma 90.000000
_cell_volume 1232.078266
_symmetry_space_group_name_H-M "P 21/M"
_symmetry_group_IT_number 11
_symmetry_cell_setting 'monoclinic'
loop_
_space_group_symop_operation_xyz
x,y,z
-x,1/2+y,-z
-x,-y,-z
x,1/2-y,z
loop_
_atom_site_type_symbol
_atom_site_label
_atom_site_fract_x
_atom_site_fract_y
_atom_site_fract_z
Si Si1 0.413932 0.654977 0.013399
Si Si2 0.291418 0.585729 0.308125
Si Si3 0.221369 0.106629 0.378171
Si Si4 0.445106 0.651954 0.645712
Si Si5 0.563160 0.651154 0.341082
Si Si6 0.079566 0.849307 0.036013
O O1 0.380002 0.750000 0.059621
O O2 0.413546 0.606213 0.122741
O O3 0.208833 0.625956 0.063890
O O4 0.635399 0.647331 0.804458
O O5 0.255949 0.489549 0.341191
O O6 0.433504 0.617307 0.319933
O O7 0.042359 0.625221 0.460713
O O8 0.336509 0.130865 0.418631
O O9 0.433407 0.750000 0.649329
O O10 0.457396 0.623069 0.517684
O O11 0.231675 0.622438 0.844068
O O12 0.557042 0.750000 0.341073
O O13 0.823499 0.625460 0.183523
O O14 0.083732 0.750000 0.033913
#
# Coordination Sequence:
#
# PCOD9161367 Si02
#       6
#     4   4   4   4   4   4
#     4  10  20  37  61  81 102 141 190 231 267 318
#     4  11  23  36  53  82 118 147 175 222 280 328
#     4  10  22  39  56  78 112 151 186 219 264 328
#     4   9  18  35  57  77 102 141 187 225 259 315
#     4  10  20  33  52  80 110 138 175 225 274 318
#     4   8  16  32  53  76 100 132 177 224 266 311
#
# _framework density 19.479282999999999
#
# number of rings (size 3 to 8) (size 9 to 14) (size 15 to 20)
#    0.000    2.333    0.000    3.500    0.000    6.000 
#    0.000    5.000    0.000    0.000    0.000    0.000 
#    0.000    0.000    0.000    0.000    0.000    0.000 
#
# Total GULP energy -133998.930902 kJ/mol
# GULP energy per Si atom -5583.288788 kJ/mol
# Density = 1.943495 g / cm^3
# Si number density = 19.479283 Si / 1000 Ang^3
#
#
#
# Elastic Constant Matrix: (Units=GPa)
#
#
# Indices 1 2 3 4 5 6 
#
# 1 91.1078 4.5258 47.0128 0.0000 51.5500 0.0000
# 2 4.5258 9.9787 4.0470 0.0000 7.2678 0.0000
# 3 47.0128 4.0470 54.8940 0.0000 32.9001 0.0000
# 4 0.0000 0.0000 0.0000 20.8270 0.0000 -1.2835
# 5 51.5500 7.2678 32.9001 0.0000 10.2806 0.0000
# 6 0.0000 0.0000 0.0000 -1.2835 0.0000 9.0959
#
#
#
# Elastic Compliance Matrix: (Units=1/GPa)
#
#
# Indices 1 2 3 4 5 6 
#
# 1 0.010557 -0.011327 -0.020392 0.000000 0.020333 0.000000
# 2 -0.011327 0.094357 -0.009459 0.000000 0.020361 0.000000
# 3 -0.020392 -0.009459 0.031496 0.000000 0.008148 0.000000
# 4 0.000000 0.000000 0.000000 0.048436 0.000000 0.006834
# 5 0.020333 0.020361 0.008148 0.000000 -0.045154 0.000000
# 6 0.000000 0.000000 0.000000 0.006834 0.000000 0.110904
#
#
# Mechanical properties :
#
#
# Convention : Reuss Voigt Hill
#
# Bulk Modulus (GPa) = 18.50017 29.68352 24.09185
# Shear Modulus (GPa) = 14.24630 14.73369 14.48999
#
# Velocity S-wave (km/s) = 2.70729 2.75322 2.73035
# Velocity P-wave (km/s) = 4.39210 5.03771 4.72594
#
# Compressibility (1/GPa) = 0.05405355
#
# Stress axis : x y z
#
# Youngs Moduli (GPa) = 94.72659 10.59804 31.75034
#
# Poissons Ratio (x) = 0.12004 0.64747
# Poissons Ratio (y) = 1.07293 0.30032
# Poissons Ratio (z) = 1.93171 0.10025
#
# Static dielectric constant tensor:
#      x y z
#    x 1.642450 0.000000 -0.006060 
#    y 0.000000 1.672400 0.000000 
#    z -0.006060 0.000000 1.690070 
# 
# From -- ./inp_files/32597.got.cif
#   From: 2010.05.17/outbox.cif.g08.bks.cpg/sg11_17_cif.got.tgz:32597.got - 2010.06.03 12:22:45.
