data_PCOD9161652
_publ_section_title
;
Structure prediction by ZEFSAII (Michael W. Deem and Ramdas Pophale) SiO2 
 PCOD9161652
Probable space group: P 21/M
;
_chemical_formula_sum "Si O2"
_cell_formula_units_Z 32
_cell_length_a 8.431897
_cell_length_b 14.643209
_cell_length_c 15.205578
_cell_angle_alpha 90.000000
_cell_angle_beta 106.096926
_cell_angle_gamma 90.000000
_cell_volume 1803.826586
_symmetry_space_group_name_H-M "P 21/M"
_symmetry_group_IT_number 11
_symmetry_cell_setting 'monoclinic'
loop_
_space_group_symop_operation_xyz
x,y,z
-x,1/2+y,-z
-x,-y,-z
x,1/2-y,z
loop_
_atom_site_type_symbol
_atom_site_label
_atom_site_fract_x
_atom_site_fract_y
_atom_site_fract_z
Si Si1 0.991570 0.997287 0.103134
Si Si2 0.564718 0.645126 0.249196
Si Si3 0.318667 0.646154 0.750839
Si Si4 0.815523 0.354874 0.750804
Si Si5 0.755728 0.997515 0.395263
Si Si6 0.860465 0.497514 0.604738
Si Si7 0.611564 0.502714 0.103134
Si Si8 0.067828 0.353846 0.249161
O O1 0.080573 0.910446 0.160684
O O2 0.072408 0.086692 0.161015
O O3 0.801764 0.995591 0.103529
O O4 0.000000 0.000000 0.000000
O O5 0.619794 0.750000 0.249474
O O6 0.374354 0.644283 0.248709
O O7 0.668193 0.589211 0.337570
O O8 0.580110 0.589555 0.160684
O O9 0.376051 0.750000 0.751109
O O10 0.322276 0.587251 0.662139
O O11 0.411394 0.586690 0.838984
O O12 0.125454 0.648644 0.750908
O O13 0.870323 0.250000 0.750529
O O14 0.830626 0.410788 0.662430
O O15 0.947518 0.995079 0.395037
O O16 0.753574 0.000000 0.500000
O O17 0.839863 0.587249 0.662140
O O18 0.500000 0.500000 0.000000
O O19 0.124943 0.250000 0.248892
#
# Coordination Sequence:
#
# PCOD9161652 Si02
#       8
#     4   4   4   4   4   4   4   4
#     4  10  20  34  53  76 102 133 170 213 261 311
#     4  10  21  36  53  74 103 140 179 218 260 305
#     4   8  15  29  48  70  97 128 161 198 243 298
#     4  10  21  36  53  74 103 140 179 218 260 305
#     4   9  18  32  52  78 104 132 168 211 259 309
#     4   9  18  32  52  78 104 132 168 211 259 309
#     4  10  20  34  53  76 102 133 170 213 261 311
#     4   8  15  29  48  70  97 128 161 198 243 298
#
# _framework density 17.740064
#
# number of rings (size 3 to 8) (size 9 to 14) (size 15 to 20)
#    0.000    2.750    0.000    3.000    0.000    4.500 
#    0.000    5.000    0.000   18.000    0.000    0.000 
#    0.000    0.000    0.000    0.000    0.000    0.000 
#
# Total GULP energy -178443.928967 kJ/mol
# GULP energy per Si atom -5576.372780 kJ/mol
# Density = 1.769969 g / cm^3
# Si number density = 17.740064 Si / 1000 Ang^3
#
#
#
# Elastic Constant Matrix: (Units=GPa)
#
#
# Indices 1 2 3 4 5 6 
#
# 1 22.3667 26.1169 27.6607 0.0000 3.8654 0.0000
# 2 26.1169 205.5320 112.5248 0.0000 5.4143 0.0000
# 3 27.6607 112.5248 203.1445 0.0000 7.4619 0.0000
# 4 0.0000 0.0000 0.0000 5.7144 0.0000 -0.8867
# 5 3.8654 5.4143 7.4619 0.0000 28.4222 0.0000
# 6 0.0000 0.0000 0.0000 -0.8867 0.0000 19.8661
#
#
#
# Elastic Compliance Matrix: (Units=1/GPa)
#
#
# Indices 1 2 3 4 5 6 
#
# 1 0.057087 -0.004253 -0.005212 0.000000 -0.005585 0.000000
# 2 -0.004253 0.007303 -0.003470 0.000000 0.000098 0.000000
# 3 -0.005212 -0.003470 0.007577 0.000000 -0.000619 0.000000
# 4 0.000000 0.000000 0.000000 0.176216 0.000000 0.007865
# 5 -0.005585 0.000098 -0.000619 0.000000 0.036087 0.000000
# 6 0.000000 0.000000 0.000000 0.007865 0.000000 0.050688
#
#
# Mechanical properties :
#
#
# Convention : Reuss Voigt Hill
#
# Bulk Modulus (GPa) = 21.69360 84.84978 53.27169
# Shear Modulus (GPa) = 13.29104 28.44992 20.87048
#
# Velocity S-wave (km/s) = 2.74014 4.00898 3.43368
# Velocity P-wave (km/s) = 4.71872 8.32842 6.76863
#
# Compressibility (1/GPa) = 0.04609654
#
# Stress axis : x y z
#
# Youngs Moduli (GPa) = 17.51723 136.93246 131.98026
#
# Poissons Ratio (x) = 0.58244 0.68786
# Poissons Ratio (y) = 0.07451 0.45792
# Poissons Ratio (z) = 0.09130 0.47510
#
# Static dielectric constant tensor:
#      x y z
#    x 1.611310 0.000000 -0.001680 
#    y 0.000000 1.597520 0.000000 
#    z -0.001680 0.000000 1.584490 
# 
# From -- ./inp_files/47463.got.cif
#   From: 2010.05.17/outbox.cif.g08.bks.cpg/sg11_24_cif.got.tgz:47463.got - 2010.06.03 12:22:45.
