data_PCOD9161260
_publ_section_title
;
Structure prediction by ZEFSAII (Michael W. Deem and Ramdas Pophale) SiO2 
 PCOD9161260
Probable space group: P 21/M
;
_chemical_formula_sum "Si O2"
_cell_formula_units_Z 32
_cell_length_a 28.725985
_cell_length_b 8.783737
_cell_length_c 21.815096
_cell_angle_alpha 90.000000
_cell_angle_beta 158.756127
_cell_angle_gamma 90.000000
_cell_volume 1994.461736
_symmetry_space_group_name_H-M "P 21/M"
_symmetry_group_IT_number 11
_symmetry_cell_setting 'monoclinic'
loop_
_space_group_symop_operation_xyz
x,y,z
-x,1/2+y,-z
-x,-y,-z
x,1/2-y,z
loop_
_atom_site_type_symbol
_atom_site_label
_atom_site_fract_x
_atom_site_fract_y
_atom_site_fract_z
Si Si1 0.022200 0.568624 0.959981
Si Si2 0.293499 0.431423 0.255929
Si Si3 0.489035 0.566099 0.713775
Si Si4 0.197377 0.934707 0.395745
Si Si5 0.465215 0.931531 0.362004
Si Si6 0.428640 0.071232 0.054779
Si Si7 0.362543 0.933012 0.852161
Si Si8 0.270513 0.570601 0.615201
O O1 0.016707 0.750000 0.956429
O O2 0.160726 0.514265 0.106423
O O3 0.000000 0.500000 0.000000
O O4 0.912249 0.506621 0.779970
O O5 0.273906 0.250000 0.230210
O O6 0.397766 0.465770 0.437234
O O7 0.358464 0.488021 0.272878
O O8 0.496989 0.750000 0.719464
O O9 0.339200 0.529034 0.543274
O O10 0.532650 0.491434 0.704388
O O11 0.571176 0.518451 0.874521
O O12 0.186264 0.750000 0.381625
O O13 0.193906 0.990401 0.462481
O O14 0.447153 0.750000 0.341824
O O15 0.397032 0.250000 0.013913
O O16 0.579369 0.058577 0.220422
O O17 0.346307 0.986577 0.902036
O O18 0.368630 0.750000 0.857641
O O19 0.265543 0.987011 0.679135
O O20 0.500000 0.000000 0.000000
O O21 0.240030 0.750000 0.580642
#
# Coordination Sequence:
#
# PCOD9161260 Si02
#       8
#     4   4   4   4   4   4   4   4
#     4  12  24  36  50  70  95 121 152 189 228 269
#     4  10  21  37  54  71  91 118 151 185 227 275
#     4   9  17  29  46  66  92 126 158 188 226 272
#     4   9  17  31  48  65  89 123 159 192 227 269
#     4  10  20  33  51  73  94 116 148 190 229 268
#     4   8  14  24  36  55  83 115 150 184 219 261
#     4   9  14  21  34  53  78 111 148 183 220 262
#     4   7  12  23  38  55  79 113 150 184 220 264
#
# _framework density 16.044429000000001
#
# number of rings (size 3 to 8) (size 9 to 14) (size 15 to 20)
#    0.000    2.750    0.000    5.250    0.000    4.500 
#    0.000    5.625    0.000    0.000    0.000    0.000 
#    0.000    1.000    0.000    3.000    0.000    5.625 
#
# Total GULP energy -178181.380494 kJ/mol
# GULP energy per Si atom -5568.168140 kJ/mol
# Density = 1.600791 g / cm^3
# Si number density = 16.044429 Si / 1000 Ang^3
#
#
#
# Elastic Constant Matrix: (Units=GPa)
#
#
# Indices 1 2 3 4 5 6 
#
# 1 133.9203 44.9785 64.4007 0.0000 -41.3992 0.0000
# 2 44.9785 49.0443 34.1334 0.0000 -13.0978 0.0000
# 3 64.4007 34.1334 72.9957 0.0000 -26.6475 0.0000
# 4 0.0000 0.0000 0.0000 19.9228 0.0000 -4.1667
# 5 -41.3992 -13.0978 -26.6475 0.0000 30.5776 0.0000
# 6 0.0000 0.0000 0.0000 -4.1667 0.0000 27.7376
#
#
#
# Elastic Compliance Matrix: (Units=1/GPa)
#
#
# Indices 1 2 3 4 5 6 
#
# 1 0.018001 -0.007795 -0.006685 0.000000 0.015207 0.000000
# 2 -0.007795 0.033620 -0.010910 0.000000 -0.005660 0.000000
# 3 -0.006685 -0.010910 0.028875 0.000000 0.011440 0.000000
# 4 0.000000 0.000000 0.000000 0.051822 0.000000 0.007785
# 5 0.015207 -0.005660 0.011440 0.000000 0.060837 0.000000
# 6 0.000000 0.000000 0.000000 0.007785 0.000000 0.037222
#
#
# Mechanical properties :
#
#
# Convention : Reuss Voigt Hill
#
# Bulk Modulus (GPa) = 33.65247 60.33172 46.99210
# Shear Modulus (GPa) = 17.17851 23.14411 20.16131
#
# Velocity S-wave (km/s) = 3.27568 3.80215 3.54869
# Velocity P-wave (km/s) = 5.94364 7.54716 6.79288
#
# Compressibility (1/GPa) = 0.02971550
#
# Stress axis : x y z
#
# Youngs Moduli (GPa) = 55.55343 29.74432 34.63177
#
# Poissons Ratio (x) = 0.23185 0.23151
# Poissons Ratio (y) = 0.43303 0.37784
# Poissons Ratio (z) = 0.37138 0.32452
#
# Static dielectric constant tensor:
#      x y z
#    x 1.564770 0.000000 -0.039180 
#    y 0.000000 1.542010 0.000000 
#    z -0.039180 0.000000 1.529070 
# 
# From -- ./inp_files/67172.got.cif
#   From: 2010.05.17/outbox.cif.g08.bks.cpg/sg11_34_cif.got.tgz:67172.got - 2010.06.03 12:22:45.
