data_PCOD9161998
_publ_section_title
;
Structure prediction by ZEFSAII (Michael W. Deem and Ramdas Pophale) SiO2 
 PCOD9161998
Probable space group: P 21/M
;
_chemical_formula_sum "Si O2"
_cell_formula_units_Z 32
_cell_length_a 14.397000
_cell_length_b 16.776966
_cell_length_c 5.374096
_cell_angle_alpha 90.000000
_cell_angle_beta 91.168713
_cell_angle_gamma 90.000000
_cell_volume 1297.778257
_symmetry_space_group_name_H-M "P 21/M"
_symmetry_group_IT_number 11
_symmetry_cell_setting 'monoclinic'
loop_
_space_group_symop_operation_xyz
x,y,z
-x,1/2+y,-z
-x,-y,-z
x,1/2-y,z
loop_
_atom_site_type_symbol
_atom_site_label
_atom_site_fract_x
_atom_site_fract_y
_atom_site_fract_z
Si Si1 0.751286 0.131646 0.735682
Si Si2 0.064967 0.449078 0.257304
Si Si3 0.957216 0.125413 0.877165
Si Si4 0.357135 0.663360 0.753762
Si Si5 0.581007 0.506520 0.205778
Si Si6 0.655601 0.842782 0.450832
Si Si7 0.744680 0.546567 0.861385
Si Si8 0.143149 0.334696 0.653039
O O1 0.855725 0.157119 0.815884
O O2 0.718690 0.165365 0.470907
O O3 0.749225 0.035353 0.699928
O O4 0.686489 0.153314 0.970485
O O5 0.040275 0.540829 0.269821
O O6 0.148116 0.442698 0.053758
O O7 0.120146 0.408560 0.478644
O O8 0.975749 0.400050 0.163659
O O9 0.050224 0.171116 0.811955
O O10 0.406226 0.750000 0.753405
O O11 0.414262 0.583264 0.687711
O O12 0.581636 0.589522 0.360554
O O13 0.500000 0.500000 0.000000
O O14 0.678874 0.517802 0.075430
O O15 0.624802 0.750000 0.470773
O O16 0.697752 0.881044 0.707484
O O17 0.747509 0.840330 0.272799
O O18 0.142762 0.250000 0.504739
#
# Coordination Sequence:
#
# PCOD9161998 Si02
#       8
#     4   4   4   4   4   4   4   4
#     4  10  22  40  67  93 133 182 229 274 332 398
#     4   9  19  35  55  83 115 162 212 257 317 381
#     4  10  20  34  56  86 118 164 217 268 308 365
#     4  11  24  45  67  97 136 181 221 273 341 408
#     4  11  24  42  71  97 128 162 215 279 339 411
#     4  10  21  40  64  93 129 172 216 266 333 405
#     4   9  19  40  63  90 126 172 213 267 341 403
#     4  10  21  34  54  83 120 160 203 264 317 373
#
# _framework density 24.657523999999999
#
# number of rings (size 3 to 8) (size 9 to 14) (size 15 to 20)
#    0.000    2.000    1.250    1.500    1.750    4.000 
#    0.000    2.500    0.000    0.000    0.000    0.000 
#    0.000    0.000    0.000    0.000    0.000    0.000 
#
# Total GULP energy -178222.429849 kJ/mol
# GULP energy per Si atom -5569.450933 kJ/mol
# Density = 2.460140 g / cm^3
# Si number density = 24.657524 Si / 1000 Ang^3
#
#
#
# Elastic Constant Matrix: (Units=GPa)
#
#
# Indices 1 2 3 4 5 6 
#
# 1 85.0905 49.3882 22.4992 0.0000 6.1878 0.0000
# 2 49.3882 222.5867 30.3326 0.0000 20.6168 0.0000
# 3 22.4992 30.3326 61.3528 0.0000 15.5213 0.0000
# 4 0.0000 0.0000 0.0000 -16.1563 0.0000 -10.5217
# 5 6.1878 20.6168 15.5213 0.0000 46.9538 0.0000
# 6 0.0000 0.0000 0.0000 -10.5217 0.0000 -68.0901
#
#
#
# Elastic Compliance Matrix: (Units=1/GPa)
#
#
# Indices 1 2 3 4 5 6 
#
# 1 0.014347 -0.002685 -0.004096 0.000000 0.000642 0.000000
# 2 -0.002685 0.005412 -0.001287 0.000000 -0.001597 0.000000
# 3 -0.004096 -0.001287 0.019815 0.000000 -0.005445 0.000000
# 4 0.000000 0.000000 0.000000 -0.068821 0.000000 0.010635
# 5 0.000642 -0.001597 -0.005445 0.000000 0.023714 0.000000
# 6 0.000000 0.000000 0.000000 0.010635 0.000000 -0.016330
#
#
# Mechanical properties :
#
#
# Convention : Reuss Voigt Hill
#
# Bulk Modulus (GPa) = 42.66644 63.71889 53.19266
# Shear Modulus (GPa) = 2397.45054 10.32881 1203.88968
#
# Velocity S-wave (km/s) = 31.21555 2.04890 22.12022
# Velocity P-wave (km/s) = 36.28437 5.61204 25.96199
#
# Compressibility (1/GPa) = 0.02343763
#
# Stress axis : x y z
#
# Youngs Moduli (GPa) = 69.70180 184.78871 50.46615
#
# Poissons Ratio (x) = 0.49608 0.20673
# Poissons Ratio (y) = 0.18712 0.06495
# Poissons Ratio (z) = 0.28553 0.23782
#
# Static dielectric constant tensor:
#      x y z
#    x 1.958870 0.000000 -0.078100 
#    y 0.000000 2.074910 0.000000 
#    z -0.078100 0.000000 2.151790 
# 
# From -- ./inp_files/6850.got.cif
#   From: 2010.05.17/outbox.cif.g08.bks.cpg/sg11_4_cif.got.tgz:6850.got - 2010.06.03 12:22:45.
