data_PCOD9161220
_publ_section_title
;
Structure prediction by ZEFSAII (Michael W. Deem and Ramdas Pophale) SiO2 
 PCOD9161220
Probable space group: P 21/M
;
_chemical_formula_sum "Si O2"
_cell_formula_units_Z 32
_cell_length_a 19.412188
_cell_length_b 14.795732
_cell_length_c 10.192674
_cell_angle_alpha 90.000000
_cell_angle_beta 156.347972
_cell_angle_gamma 90.000000
_cell_volume 1174.463200
_symmetry_space_group_name_H-M "P 21/M"
_symmetry_group_IT_number 11
_symmetry_cell_setting 'monoclinic'
loop_
_space_group_symop_operation_xyz
x,y,z
-x,1/2+y,-z
-x,-y,-z
x,1/2-y,z
loop_
_atom_site_type_symbol
_atom_site_label
_atom_site_fract_x
_atom_site_fract_y
_atom_site_fract_z
Si Si1 0.190049 0.358341 0.283911
Si Si2 0.526964 0.859809 0.407579
Si Si3 0.304988 0.407476 0.746319
Si Si4 0.224867 0.857586 0.227400
Si Si5 0.629153 0.856596 0.860756
Si Si6 0.858104 0.138272 0.198296
Si Si7 0.674193 0.392118 0.312622
Si Si8 0.977218 0.148315 0.674044
O O1 0.175396 0.250000 0.251976
O O2 0.379308 0.386637 0.562357
O O3 0.168290 0.379890 0.397703
O O4 0.071869 0.397032 0.962071
O O5 0.522728 0.750000 0.404078
O O6 0.641209 0.889927 0.732257
O O7 0.333883 0.890475 0.092244
O O8 0.338802 0.510675 0.774871
O O9 0.271159 0.394237 0.840056
O O10 0.485521 0.357276 0.024638
O O11 0.192232 0.750000 0.186631
O O12 0.425729 0.868112 0.536265
O O13 0.220801 0.897561 0.366357
O O14 0.123311 0.889869 0.920617
O O15 0.664850 0.750000 0.924042
O O16 0.862596 0.250000 0.205225
O O17 0.974633 0.108232 0.523895
O O18 0.784763 0.341536 0.396297
O O19 0.047958 0.250000 0.782212
#
# Coordination Sequence:
#
# PCOD9161220 Si02
#       8
#     4   4   4   4   4   4   4   4
#     4  10  20  33  50  73  99 127 160 198 242 292
#     4   8  14  27  49  73  93 117 154 200 245 285
#     4  10  20  33  50  73 100 131 166 202 242 288
#     4   8  14  27  49  74  96 120 156 202 245 284
#     4   8  14  27  49  74  96 120 156 202 245 284
#     4   8  14  27  49  73  93 117 154 200 245 285
#     4  10  20  33  50  73 100 131 166 202 242 288
#     4  10  20  33  50  73  99 127 160 198 242 292
#
# _framework density 27.246489
#
# number of rings (size 3 to 8) (size 9 to 14) (size 15 to 20)
#    0.000    3.000    0.000    3.000    0.000    3.000 
#    0.000    2.500    0.000   12.000    0.000    0.000 
#    0.000    0.000    0.000    0.000    0.000    0.000 
#
# Total GULP energy -178908.844059 kJ/mol
# GULP energy per Si atom -5590.901377 kJ/mol
# Density = 2.718448 g / cm^3
# Si number density = 27.246489 Si / 1000 Ang^3
#
#
#
# Elastic Constant Matrix: (Units=GPa)
#
#
# Indices 1 2 3 4 5 6 
#
# 1 162.3124 3.9906 58.9050 0.0000 -36.8541 0.0000
# 2 3.9906 39.9294 15.9877 0.0000 -11.9897 0.0000
# 3 58.9050 15.9877 189.1116 0.0000 -61.0525 0.0000
# 4 0.0000 0.0000 0.0000 98.5125 0.0000 -34.4763
# 5 -36.8541 -11.9897 -61.0525 0.0000 56.4570 0.0000
# 6 0.0000 0.0000 0.0000 -34.4763 0.0000 18.2774
#
#
#
# Elastic Compliance Matrix: (Units=1/GPa)
#
#
# Indices 1 2 3 4 5 6 
#
# 1 0.007418 0.000856 -0.001169 0.000000 0.003760 0.000000
# 2 0.000856 0.026902 -0.000793 0.000000 0.005414 0.000000
# 3 -0.001169 -0.000793 0.008325 0.000000 0.008071 0.000000
# 4 0.000000 0.000000 0.000000 0.029868 0.000000 0.056339
# 5 0.003760 0.005414 0.008071 0.000000 0.030044 0.000000
# 6 0.000000 0.000000 0.000000 0.056339 0.000000 0.160984
#
#
# Mechanical properties :
#
#
# Convention : Reuss Voigt Hill
#
# Bulk Modulus (GPa) = 24.73304 61.01333 42.87318
# Shear Modulus (GPa) = 17.90638 55.48073 36.69355
#
# Velocity S-wave (km/s) = 2.56637 4.51738 3.67376
# Velocity P-wave (km/s) = 4.22834 7.04632 5.81075
#
# Compressibility (1/GPa) = 0.04043175
#
# Stress axis : x y z
#
# Youngs Moduli (GPa) = 134.80973 37.17202 120.12607
#
# Poissons Ratio (x) = -0.03181 0.14044
# Poissons Ratio (y) = -0.11536 0.09525
# Poissons Ratio (z) = 0.15761 0.02947
#
# Static dielectric constant tensor:
#      x y z
#    x 2.096170 0.000000 0.076180 
#    y 0.000000 2.047610 0.000000 
#    z 0.076180 0.000000 2.219790 
# 
# From -- ./inp_files/27133.got.cif
#   From: 2010.05.17/outbox.cif.g08.bks.cpg/sg11_14_cif.got.tgz:27133.got - 2010.06.03 12:22:45.
