data_PCOD9161879
_publ_section_title
;
Structure prediction by ZEFSAII (Michael W. Deem and Ramdas Pophale) SiO2 
 PCOD9161879
Probable space group: P 21/M
;
_chemical_formula_sum "Si O2"
_cell_formula_units_Z 28
_cell_length_a 11.111385
_cell_length_b 13.387716
_cell_length_c 20.332014
_cell_angle_alpha 90.000000
_cell_angle_beta 150.856577
_cell_angle_gamma 90.000000
_cell_volume 1472.928868
_symmetry_space_group_name_H-M "P 21/M"
_symmetry_group_IT_number 11
_symmetry_cell_setting 'monoclinic'
loop_
_space_group_symop_operation_xyz
x,y,z
-x,1/2+y,-z
-x,-y,-z
x,1/2-y,z
loop_
_atom_site_type_symbol
_atom_site_label
_atom_site_fract_x
_atom_site_fract_y
_atom_site_fract_z
Si Si1 0.800000 0.522463 0.999988
Si Si2 0.841991 0.860682 0.461001
Si Si3 0.320923 0.952892 0.203069
Si Si4 0.983003 0.134830 0.196213
Si Si5 0.482030 0.366264 0.371543
Si Si6 0.358874 0.961208 0.868495
Si Si7 0.985578 0.561463 0.388403
O O1 0.056646 0.578359 0.106796
O O2 0.871127 0.436267 0.086257
O O3 0.714622 0.473075 0.890999
O O4 0.570930 0.582147 0.922050
O O5 0.908364 0.750000 0.514710
O O6 0.547992 0.879672 0.324294
O O7 0.918754 0.876065 0.421435
O O8 0.968556 0.948995 0.562597
O O9 0.397571 0.058550 0.273364
O O10 0.930287 0.250000 0.155858
O O11 0.279325 0.120832 0.332402
O O12 0.859021 0.106661 0.206159
O O13 0.475087 0.250000 0.348130
O O14 0.761271 0.396987 0.521197
O O15 0.231502 0.051306 0.767684
O O16 0.500000 0.000000 0.000000
#
# Coordination Sequence:
#
# PCOD9161879 Si02
#       7
#     4   4   4   4   4   4   4
#     4   9  17  33  53  75 109 145 176 222 276 328
#     4  10  20  34  55  82 111 141 180 229 280 333
#     4   9  17  32  55  81 109 141 179 223 282 329
#     4   9  19  34  53  76 103 144 192 225 263 324
#     4   9  18  34  55  80 108 139 183 228 269 327
#     4  10  20  36  54  75 107 146 182 222 269 322
#     4  10  20  35  54  81 110 145 183 224 282 326
#
# _framework density 19.009744000000001
#
# number of rings (size 3 to 8) (size 9 to 14) (size 15 to 20)
#    0.000    2.571    1.429    0.429    0.000    1.714 
#    0.000    4.286    0.000    0.000    0.000    1.000 
#    0.000    0.000    0.000    0.000    0.000    0.000 
#
# Total GULP energy -155983.577566 kJ/mol
# GULP energy per Si atom -5570.842056 kJ/mol
# Density = 1.896648 g / cm^3
# Si number density = 19.009744 Si / 1000 Ang^3
#
#
#
# Elastic Constant Matrix: (Units=GPa)
#
#
# Indices 1 2 3 4 5 6 
#
# 1 127.2294 20.1258 32.4015 0.0000 29.9183 0.0000
# 2 20.1258 62.1829 -6.7196 0.0000 13.3534 0.0000
# 3 32.4015 -6.7196 61.1193 0.0000 13.2488 0.0000
# 4 0.0000 0.0000 0.0000 6.8175 0.0000 4.9582
# 5 29.9183 13.3534 13.2488 0.0000 30.4115 0.0000
# 6 0.0000 0.0000 0.0000 4.9582 0.0000 17.9216
#
#
#
# Elastic Compliance Matrix: (Units=1/GPa)
#
#
# Indices 1 2 3 4 5 6 
#
# 1 0.011287 -0.002401 -0.004493 0.000000 -0.008092 0.000000
# 2 -0.002401 0.019209 0.005191 0.000000 -0.008334 0.000000
# 3 -0.004493 0.005191 0.020816 0.000000 -0.006927 0.000000
# 4 0.000000 0.000000 0.000000 0.183631 0.000000 -0.050804
# 5 -0.008092 -0.008334 -0.006927 0.000000 0.047520 0.000000
# 6 0.000000 0.000000 0.000000 -0.050804 0.000000 0.069854
#
#
# Mechanical properties :
#
#
# Convention : Reuss Voigt Hill
#
# Bulk Modulus (GPa) = 20.87409 38.01632 29.44521
# Shear Modulus (GPa) = 13.45197 24.67837 19.06517
#
# Velocity S-wave (km/s) = 2.66303 3.60696 3.17032
# Velocity P-wave (km/s) = 4.52329 6.11462 5.37814
#
# Compressibility (1/GPa) = 0.04790627
#
# Stress axis : x y z
#
# Youngs Moduli (GPa) = 88.59926 52.05786 48.04005
#
# Poissons Ratio (x) = 0.12499 0.21586
# Poissons Ratio (y) = 0.21272 -0.24939
# Poissons Ratio (z) = 0.39811 -0.27025
#
# Static dielectric constant tensor:
#      x y z
#    x 1.697290 0.000000 0.047350 
#    y 0.000000 1.639590 0.000000 
#    z 0.047350 0.000000 1.682850 
# 
# From -- ./inp_files/64685.got.cif
#   From: 2010.05.17/outbox.cif.g08.bks.cpg/sg11_33_cif.got.tgz:64685.got - 2010.06.03 12:22:45.
