data_PCOD9161483
_publ_section_title
;
Structure prediction by ZEFSAII (Michael W. Deem and Ramdas Pophale) SiO2 
 PCOD9161483
Probable space group: P 21/M
;
_chemical_formula_sum "Si O2"
_cell_formula_units_Z 28
_cell_length_a 15.943712
_cell_length_b 8.619205
_cell_length_c 20.405334
_cell_angle_alpha 90.000000
_cell_angle_beta 149.124391
_cell_angle_gamma 90.000000
_cell_volume 1439.019345
_symmetry_space_group_name_H-M "P 21/M"
_symmetry_group_IT_number 11
_symmetry_cell_setting 'monoclinic'
loop_
_space_group_symop_operation_xyz
x,y,z
-x,1/2+y,-z
-x,-y,-z
x,1/2-y,z
loop_
_atom_site_type_symbol
_atom_site_label
_atom_site_fract_x
_atom_site_fract_y
_atom_site_fract_z
Si Si1 0.611997 0.563391 0.133497
Si Si2 0.440652 0.563255 0.155806
Si Si3 0.465398 0.572928 0.547247
Si Si4 0.219414 0.573404 0.198469
Si Si5 0.023442 0.063688 0.589423
Si Si6 0.871340 0.568296 0.997181
Si Si7 0.703590 0.935100 0.443942
O O1 0.612636 0.750000 0.129003
O O2 0.532775 0.522904 0.150605
O O3 0.801606 0.511588 0.263531
O O4 0.500000 0.500000 0.000000
O O5 0.418403 0.750000 0.143106
O O6 0.266110 0.479703 0.043598
O O7 0.556052 0.519614 0.295013
O O8 0.500000 0.500000 0.500000
O O9 0.415224 0.750000 0.507036
O O10 0.641980 0.551897 0.698673
O O11 0.342499 0.486658 0.513767
O O12 0.283134 0.750000 0.247969
O O13 0.158526 0.546697 0.083836
O O14 0.063762 0.552854 0.141546
O O15 0.025818 0.250000 0.587430
O O16 0.870672 0.008691 0.530053
O O17 0.000000 0.000000 0.500000
O O18 0.850388 0.750000 0.964957
O O19 0.716860 0.750000 0.449402
#
# Coordination Sequence:
#
# PCOD9161483 Si02
#       7
#     4   4   4   4   4   4   4
#     4  10  23  43  63  90 126 166 205 255 316 376
#     4  10  20  37  61  87 122 159 199 254 311 370
#     4  12  25  42  63  88 120 162 208 258 318 379
#     4  10  20  36  56  82 118 155 194 246 300 354
#     4  11  22  40  66  97 131 168 215 268 319 382
#     4  10  20  33  56  88 116 150 197 246 298 355
#     4  11  22  40  65  94 125 161 208 263 318 378
#
# _framework density 19.457695999999999
#
# number of rings (size 3 to 8) (size 9 to 14) (size 15 to 20)
#    0.000    1.429    2.857    3.000    0.000    4.000 
#    2.571    0.000    0.000    0.000    0.000    0.000 
#    0.000    0.000    0.000    0.000    0.000    0.000 
#
# Total GULP energy -156297.915459 kJ/mol
# GULP energy per Si atom -5582.068409 kJ/mol
# Density = 1.941341 g / cm^3
# Si number density = 19.457696 Si / 1000 Ang^3
#
#
#
# Elastic Constant Matrix: (Units=GPa)
#
#
# Indices 1 2 3 4 5 6 
#
# 1 133.3592 33.5463 50.0934 0.0000 18.5428 0.0000
# 2 33.5463 56.6916 22.9767 0.0000 8.5310 0.0000
# 3 50.0934 22.9767 72.4067 0.0000 16.7080 0.0000
# 4 0.0000 0.0000 0.0000 29.5121 0.0000 3.2198
# 5 18.5428 8.5310 16.7080 0.0000 39.1722 0.0000
# 6 0.0000 0.0000 0.0000 3.2198 0.0000 35.9253
#
#
#
# Elastic Compliance Matrix: (Units=1/GPa)
#
#
# Indices 1 2 3 4 5 6 
#
# 1 0.010938 -0.003789 -0.005945 0.000000 -0.001816 0.000000
# 2 -0.003789 0.021677 -0.003973 0.000000 -0.001233 0.000000
# 3 -0.005945 -0.003973 0.020337 0.000000 -0.004995 0.000000
# 4 0.000000 0.000000 0.000000 0.034219 0.000000 -0.003067
# 5 -0.001816 -0.001233 -0.004995 0.000000 0.028787 0.000000
# 6 0.000000 0.000000 0.000000 -0.003067 0.000000 0.028110
#
#
# Mechanical properties :
#
#
# Convention : Reuss Voigt Hill
#
# Bulk Modulus (GPa) = 39.15852 52.85447 46.00649
# Shear Modulus (GPa) = 27.77844 31.31133 29.54489
#
# Velocity S-wave (km/s) = 3.78250 4.01584 3.90091
# Velocity P-wave (km/s) = 6.26459 6.98035 6.63213
#
# Compressibility (1/GPa) = 0.02553723
#
# Stress axis : x y z
#
# Youngs Moduli (GPa) = 91.42851 46.13153 49.17046
#
# Poissons Ratio (x) = 0.17480 0.29234
# Poissons Ratio (y) = 0.34643 0.19535
# Poissons Ratio (z) = 0.54358 0.18328
#
# Static dielectric constant tensor:
#      x y z
#    x 1.698690 0.000000 -0.007630 
#    y 0.000000 1.658530 0.000000 
#    z -0.007630 0.000000 1.750360 
# 
# From -- ./inp_files/65456.got.cif
#   From: 2010.05.17/outbox.cif.g08.bks.cpg/sg11_33_cif.got.tgz:65456.got - 2010.06.03 12:22:45.
