data_PCOD9161985
_publ_section_title
;
Structure prediction by ZEFSAII (Michael W. Deem and Ramdas Pophale) SiO2 
 PCOD9161985
Probable space group: P 21/M
;
_chemical_formula_sum "Si O2"
_cell_formula_units_Z 32
_cell_length_a 31.175045
_cell_length_b 9.679447
_cell_length_c 11.515900
_cell_angle_alpha 90.000000
_cell_angle_beta 28.496509
_cell_angle_gamma 90.000000
_cell_volume 1657.943332
_symmetry_space_group_name_H-M "P 21/M"
_symmetry_group_IT_number 11
_symmetry_cell_setting 'monoclinic'
loop_
_space_group_symop_operation_xyz
x,y,z
-x,1/2+y,-z
-x,-y,-z
x,1/2-y,z
loop_
_atom_site_type_symbol
_atom_site_label
_atom_site_fract_x
_atom_site_fract_y
_atom_site_fract_z
Si Si1 0.331775 0.907962 0.109878
Si Si2 0.579961 0.088471 0.860916
Si Si3 0.595494 0.580905 0.273334
Si Si4 0.263479 0.407864 0.613775
Si Si5 0.847885 0.484851 0.323111
Si Si6 0.941910 0.918339 0.545192
Si Si7 0.979514 0.598769 0.205525
Si Si8 0.746802 0.584672 0.093090
O O1 0.337025 0.750000 0.052316
O O2 0.406997 0.925134 0.031440
O O3 0.237589 0.924520 0.404085
O O4 0.349101 0.020749 0.969272
O O5 0.571108 0.250000 0.855785
O O6 0.666726 0.021537 0.595521
O O7 0.500000 0.000000 0.000000
O O8 0.500000 0.500000 0.500000
O O9 0.585344 0.750000 0.292492
O O10 0.655555 0.541482 0.244017
O O11 0.299463 0.250000 0.530969
O O12 0.188438 0.413685 0.691313
O O13 0.240538 0.448020 0.800688
O O14 0.912865 0.542797 0.267530
O O15 0.919060 0.394365 0.081908
O O16 0.952443 0.750000 0.534928
O O17 0.974259 0.971115 0.342492
O O18 0.837040 0.955378 0.810747
O O19 0.000000 0.000000 0.500000
O O20 0.943621 0.750000 0.315741
O O21 0.743424 0.750000 0.096293
#
# Coordination Sequence:
#
# PCOD9161985 Si02
#       8
#     4   4   4   4   4   4   4   4
#     4  10  22  40  60  83 118 155 192 244 301 354
#     4  10  22  38  58  85 115 147 187 238 295 353
#     4  11  24  42  64  89 119 157 204 252 302 363
#     4  10  20  36  59  84 114 152 195 240 294 358
#     4  10  20  35  58  88 118 155 202 247 297 358
#     4  10  20  37  59  86 121 160 202 244 295 354
#     4  10  20  34  56  85 121 159 200 249 301 355
#     4   9  20  38  59  84 119 161 197 242 302 358
#
# _framework density 19.301022
#
# number of rings (size 3 to 8) (size 9 to 14) (size 15 to 20)
#    0.000    2.000    0.000    3.000    1.750    4.500 
#    0.000    6.875    0.000    0.000    0.000    0.000 
#    0.000    0.000    0.000    0.000    0.000    0.000 
#
# Total GULP energy -178141.173156 kJ/mol
# GULP energy per Si atom -5566.911661 kJ/mol
# Density = 1.925709 g / cm^3
# Si number density = 19.301022 Si / 1000 Ang^3
#
#
#
# Elastic Constant Matrix: (Units=GPa)
#
#
# Indices 1 2 3 4 5 6 
#
# 1 130.2054 44.8659 57.8830 0.0000 4.2232 0.0000
# 2 44.8659 82.9863 26.7710 0.0000 -0.7228 0.0000
# 3 57.8830 26.7710 81.6046 0.0000 0.4405 0.0000
# 4 0.0000 0.0000 0.0000 10.8134 0.0000 21.7914
# 5 4.2232 -0.7228 0.4405 0.0000 35.8007 0.0000
# 6 0.0000 0.0000 0.0000 21.7914 0.0000 -6.6548
#
#
#
# Elastic Compliance Matrix: (Units=1/GPa)
#
#
# Indices 1 2 3 4 5 6 
#
# 1 0.012558 -0.004397 -0.007457 0.000000 -0.001478 0.000000
# 2 -0.004397 0.015020 -0.001813 0.000000 0.000844 0.000000
# 3 -0.007457 -0.001813 0.018135 0.000000 0.000620 0.000000
# 4 0.000000 0.000000 0.000000 0.012170 0.000000 0.039851
# 5 -0.001478 0.000844 0.000620 0.000000 0.028116 0.000000
# 6 0.000000 0.000000 0.000000 0.039851 0.000000 -0.019775
#
#
# Mechanical properties :
#
#
# Convention : Reuss Voigt Hill
#
# Bulk Modulus (GPa) = 54.41128 61.53737 57.97433
# Shear Modulus (GPa) = 50.15785 19.01028 34.58407
#
# Velocity S-wave (km/s) = 5.10329 3.14177 4.23759
# Velocity P-wave (km/s) = 7.93579 6.71663 7.35153
#
# Compressibility (1/GPa) = 0.01837854
#
# Stress axis : x y z
#
# Youngs Moduli (GPa) = 79.62831 66.58004 55.14102
#
# Poissons Ratio (x) = 0.29273 0.41121
# Poissons Ratio (y) = 0.35010 0.09998
# Poissons Ratio (z) = 0.59382 0.12072
#
# Static dielectric constant tensor:
#      x y z
#    x 1.737460 0.000000 0.016870 
#    y 0.000000 1.689610 0.000000 
#    z 0.016870 0.000000 1.744630 
# 
# From -- ./inp_files/45169.got.cif
#   From: 2010.05.17/outbox.cif.g08.bks.cpg/sg11_23_cif.got.tgz:45169.got - 2010.06.03 12:22:45.
