data_PCOD9161581
_publ_section_title
;
Structure prediction by ZEFSAII (Michael W. Deem and Ramdas Pophale) SiO2 
 PCOD9161581
Probable space group: P 21/M
;
_chemical_formula_sum "Si O2"
_cell_formula_units_Z 32
_cell_length_a 15.260765
_cell_length_b 8.879172
_cell_length_c 31.429188
_cell_angle_alpha 90.000000
_cell_angle_beta 151.526705
_cell_angle_gamma 90.000000
_cell_volume 2030.354239
_symmetry_space_group_name_H-M "P 21/M"
_symmetry_group_IT_number 11
_symmetry_cell_setting 'monoclinic'
loop_
_space_group_symop_operation_xyz
x,y,z
-x,1/2+y,-z
-x,-y,-z
x,1/2-y,z
loop_
_atom_site_type_symbol
_atom_site_label
_atom_site_fract_x
_atom_site_fract_y
_atom_site_fract_z
Si Si1 0.047399 0.429359 0.087395
Si Si2 0.709368 0.070435 0.883796
Si Si3 0.614472 0.429918 0.371491
Si Si4 0.671544 0.069887 0.296260
Si Si5 0.667387 0.570641 0.627391
Si Si6 0.238808 0.570822 0.246269
Si Si7 0.267346 0.429565 0.441775
Si Si8 0.954310 0.430113 0.579025
O O1 0.076027 0.250000 0.102068
O O2 0.191436 0.497514 0.114891
O O3 0.088103 0.504069 0.149857
O O4 0.846466 0.458086 0.981784
O O5 0.696302 0.250000 0.872042
O O6 0.509520 0.998829 0.802723
O O7 0.578538 0.250000 0.359513
O O8 0.655028 0.465233 0.339623
O O9 0.435990 0.516424 0.311997
O O10 0.791187 0.465233 0.475782
O O11 0.673738 0.250000 0.292699
O O12 0.856364 1.000000 0.356364
O O13 0.654149 0.750000 0.628109
O O14 0.773365 0.495931 0.711611
O O15 0.461801 0.502486 0.538346
O O16 0.752420 0.541914 0.617102
O O17 0.231502 0.750000 0.243834
O O18 0.276478 0.250000 0.452218
O O19 0.110870 0.501171 0.404074
O O20 0.969378 0.250000 0.588340
#
# Coordination Sequence:
#
# PCOD9161581 Si02
#       8
#     4   4   4   4   4   4   4   4
#     4  10  20  34  52  73 103 135 167 210 259 308
#     4  10  20  34  52  75 100 132 173 213 255 304
#     4  10  21  35  49  70 102 140 176 211 252 295
#     4  11  22  35  52  72 102 140 178 217 254 300
#     4  10  20  34  52  73 103 135 167 210 259 308
#     4  12  22  31  51  78 104 136 173 211 252 309
#     4  10  20  34  52  75 100 132 173 213 255 304
#     4  11  22  35  52  72 102 140 178 217 254 300
#
# _framework density 15.760797
#
# number of rings (size 3 to 8) (size 9 to 14) (size 15 to 20)
#    0.000    1.500    2.500    3.750    0.000    4.000 
#    0.000    0.000    0.000    0.000    0.000    0.875 
#    0.000    0.000    0.000    0.000    0.000    0.000 
#
# Total GULP energy -178764.355113 kJ/mol
# GULP energy per Si atom -5586.386097 kJ/mol
# Density = 1.572493 g / cm^3
# Si number density = 15.760797 Si / 1000 Ang^3
#
#
#
# Elastic Constant Matrix: (Units=GPa)
#
#
# Indices 1 2 3 4 5 6 
#
# 1 87.4376 55.0893 56.6240 0.0000 -10.7599 0.0000
# 2 55.0893 88.1077 60.9592 0.0000 -10.6138 0.0000
# 3 56.6240 60.9592 101.9572 0.0000 -15.4943 0.0000
# 4 0.0000 0.0000 0.0000 26.3368 0.0000 0.8641
# 5 -10.7599 -10.6138 -15.4943 0.0000 26.9429 0.0000
# 6 0.0000 0.0000 0.0000 0.8641 0.0000 26.8147
#
#
#
# Elastic Compliance Matrix: (Units=1/GPa)
#
#
# Indices 1 2 3 4 5 6 
#
# 1 0.021205 -0.008680 -0.006377 0.000000 0.001382 0.000000
# 2 -0.008680 0.022938 -0.008818 0.000000 0.000499 0.000000
# 3 -0.006377 -0.008818 0.019403 0.000000 0.005138 0.000000
# 4 0.000000 0.000000 0.000000 0.038010 0.000000 -0.001225
# 5 0.001382 0.000499 0.005138 0.000000 0.040818 0.000000
# 6 0.000000 0.000000 0.000000 -0.001225 0.000000 0.037332
#
#
# Mechanical properties :
#
#
# Convention : Reuss Voigt Hill
#
# Bulk Modulus (GPa) = 63.30851 69.20528 66.25690
# Shear Modulus (GPa) = 21.48487 23.00753 22.24620
#
# Velocity S-wave (km/s) = 3.69614 3.82487 3.76106
# Velocity P-wave (km/s) = 7.64662 7.96940 7.80968
#
# Compressibility (1/GPa) = 0.01579566
#
# Stress axis : x y z
#
# Youngs Moduli (GPa) = 47.15801 43.59601 51.53949
#
# Poissons Ratio (x) = 0.37841 0.32867
# Poissons Ratio (y) = 0.40933 0.45447
# Poissons Ratio (z) = 0.30073 0.38443
#
# Static dielectric constant tensor:
#      x y z
#    x 1.509020 0.000000 -0.021660 
#    y 0.000000 1.522620 0.000000 
#    z -0.021660 0.000000 1.521000 
# 
# From -- ./inp_files/73321.got.cif
#   From: 2010.05.17/outbox.cif.g08.bks.cpg/sg11_37_cif.got.tgz:73321.got - 2010.06.03 12:22:45.
