data_PCOD9161944
_publ_section_title
;
Structure prediction by ZEFSAII (Michael W. Deem and Ramdas Pophale) SiO2 
 PCOD9161944
Probable space group: P 21/M
;
_chemical_formula_sum "Si O2"
_cell_formula_units_Z 28
_cell_length_a 16.688928
_cell_length_b 8.689042
_cell_length_c 12.964924
_cell_angle_alpha 90.000000
_cell_angle_beta 55.554771
_cell_angle_gamma 90.000000
_cell_volume 1550.418941
_symmetry_space_group_name_H-M "P 21/M"
_symmetry_group_IT_number 11
_symmetry_cell_setting 'monoclinic'
loop_
_space_group_symop_operation_xyz
x,y,z
-x,1/2+y,-z
-x,-y,-z
x,1/2-y,z
loop_
_atom_site_type_symbol
_atom_site_label
_atom_site_fract_x
_atom_site_fract_y
_atom_site_fract_z
Si Si1 0.705589 0.934738 0.236970
Si Si2 0.448654 0.933550 0.936846
Si Si3 0.716911 0.064737 0.445525
Si Si4 0.910493 0.065903 0.702469
Si Si5 0.241081 0.434533 0.030157
Si Si6 0.508114 0.063730 0.677038
Si Si7 0.877515 0.064080 0.493648
O O1 0.708376 0.750000 0.242772
O O2 0.592172 0.982106 0.305986
O O3 0.746322 0.005515 0.311722
O O4 0.758042 0.978906 0.091731
O O5 0.449829 0.750000 0.937712
O O6 0.502061 0.996190 0.795992
O O7 0.500000 0.000000 0.000000
O O8 0.338137 0.992843 0.008270
O O9 0.716717 0.250000 0.444376
O O10 0.606866 0.013043 0.550233
O O11 0.789874 0.015488 0.483157
O O12 0.907717 0.250000 0.714164
O O13 0.864837 0.023592 0.623622
O O14 0.850603 0.990688 0.838395
O O15 0.021261 0.008514 0.617006
O O16 0.249244 0.250000 0.028730
O O17 0.507961 0.250000 0.683968
O O18 0.885833 0.250000 0.482715
#
# Coordination Sequence:
#
# PCOD9161944 Si02
#       7
#     4   4   4   4   4   4   4
#     4   9  19  35  53  78 112 146 182 225 272 326
#     4  11  22  35  52  79 112 146 185 227 268 324
#     4  10  20  34  56  81 109 145 185 228 275 324
#     4  10  20  36  59  84 108 141 182 225 278 336
#     4  10  21  38  58  80 109 146 182 224 279 327
#     4   9  19  35  53  77 111 149 183 224 275 321
#     4   9  20  37  55  81 112 142 177 226 280 328
#
# _framework density 18.059633000000002
#
# number of rings (size 3 to 8) (size 9 to 14) (size 15 to 20)
#    0.000    2.286    0.000    3.429    2.000    4.571 
#    0.000    0.714    0.000    0.000    0.000    0.000 
#    0.000    0.000    0.000    0.000    0.000    0.000 
#
# Total GULP energy -156281.155459 kJ/mol
# GULP energy per Si atom -5581.469838 kJ/mol
# Density = 1.801853 g / cm^3
# Si number density = 18.059633 Si / 1000 Ang^3
#
#
#
# Elastic Constant Matrix: (Units=GPa)
#
#
# Indices 1 2 3 4 5 6 
#
# 1 67.6795 15.6014 50.1340 0.0000 16.5690 0.0000
# 2 15.6014 25.0703 21.0283 0.0000 0.7972 0.0000
# 3 50.1340 21.0283 110.9584 0.0000 -1.7000 0.0000
# 4 0.0000 0.0000 0.0000 31.2226 0.0000 1.9154
# 5 16.5690 0.7972 -1.7000 0.0000 19.2924 0.0000
# 6 0.0000 0.0000 0.0000 1.9154 0.0000 26.4657
#
#
#
# Elastic Compliance Matrix: (Units=1/GPa)
#
#
# Indices 1 2 3 4 5 6 
#
# 1 0.035470 -0.008594 -0.014879 0.000000 -0.031419 0.000000
# 2 -0.008594 0.049656 -0.005453 0.000000 0.004848 0.000000
# 3 -0.014879 -0.005453 0.016991 0.000000 0.014501 0.000000
# 4 0.000000 0.000000 0.000000 0.032171 0.000000 -0.002328
# 5 -0.031419 0.004848 0.014501 0.000000 0.079895 0.000000
# 6 0.000000 0.000000 0.000000 -0.002328 0.000000 0.037953
#
#
# Mechanical properties :
#
#
# Convention : Reuss Voigt Hill
#
# Bulk Modulus (GPa) = 22.59165 41.91506 32.25335
# Shear Modulus (GPa) = 15.39676 23.19243 19.29460
#
# Velocity S-wave (km/s) = 2.92302 3.58748 3.27216
# Velocity P-wave (km/s) = 4.89169 6.35765 5.67223
#
# Compressibility (1/GPa) = 0.04426414
#
# Stress axis : x y z
#
# Youngs Moduli (GPa) = 28.19261 20.13862 58.85530
#
# Poissons Ratio (x) = 0.17307 0.87572
# Poissons Ratio (y) = 0.24229 0.32095
# Poissons Ratio (z) = 0.41948 0.10982
#
# Static dielectric constant tensor:
#      x y z
#    x 1.606610 0.000000 0.001650 
#    y 0.000000 1.608730 0.000000 
#    z 0.001650 0.000000 1.611520 
# 
# From -- ./inp_files/37769.got.cif
#   From: 2010.05.17/outbox.cif.g08.bks.cpg/sg11_19_cif.got.tgz:37769.got - 2010.06.03 12:22:45.
