data_PCOD9161421
_publ_section_title
;
Structure prediction by ZEFSAII (Michael W. Deem and Ramdas Pophale) SiO2 
 PCOD9161421
Probable space group: P 21/M
;
_chemical_formula_sum "Si O2"
_cell_formula_units_Z 28
_cell_length_a 15.135138
_cell_length_b 9.097954
_cell_length_c 9.964252
_cell_angle_alpha 90.000000
_cell_angle_beta 112.790477
_cell_angle_gamma 90.000000
_cell_volume 1264.944922
_symmetry_space_group_name_H-M "P 21/M"
_symmetry_group_IT_number 11
_symmetry_cell_setting 'monoclinic'
loop_
_space_group_symop_operation_xyz
x,y,z
-x,1/2+y,-z
-x,-y,-z
x,1/2-y,z
loop_
_atom_site_type_symbol
_atom_site_label
_atom_site_fract_x
_atom_site_fract_y
_atom_site_fract_z
Si Si1 0.706747 0.915133 0.300637
Si Si2 0.797656 0.580438 0.728694
Si Si3 0.139219 0.913768 0.745681
Si Si4 0.273011 0.912165 0.080232
Si Si5 0.420174 0.085305 0.033794
Si Si6 0.012951 0.925414 0.156876
Si Si7 0.411854 0.423956 0.524296
O O1 0.730497 0.750000 0.364308
O O2 0.662806 0.898741 0.126904
O O3 0.621047 0.974151 0.345473
O O4 0.802838 0.010046 0.341766
O O5 0.824556 0.750000 0.727597
O O6 0.881762 0.474563 0.730320
O O7 0.690893 0.556019 0.609828
O O8 0.785068 0.535671 0.875821
O O9 0.102979 0.750000 0.690129
O O10 0.219835 0.894346 0.908318
O O11 0.060256 0.011639 0.774969
O O12 0.273568 0.750000 0.145844
O O13 0.378386 0.978007 0.121919
O O14 0.445953 0.250000 0.095114
O O15 0.500000 0.000000 0.000000
O O16 0.005150 0.750000 0.137395
O O17 0.000000 0.000000 0.000000
O O18 0.500000 0.500000 0.500000
O O19 0.433763 0.250000 0.542497
#
# Coordination Sequence:
#
# PCOD9161421 Si02
#       7
#     4   4   4   4   4   4   4
#     4   9  20  40  60  82 116 158 202 250 304 361
#     4  11  23  39  60  89 124 160 206 256 302 360
#     4  10  20  36  60  91 123 157 196 243 301 363
#     4  10  20  34  54  82 118 156 194 240 300 362
#     4  10  20  33  53  81 114 149 193 247 308 365
#     4  12  23  37  61  93 128 165 201 246 307 370
#     4  10  24  44  65  89 119 163 212 259 306 357
#
# _framework density 22.135351
#
# number of rings (size 3 to 8) (size 9 to 14) (size 15 to 20)
#    0.000    1.714    1.429    3.000    2.000    3.429 
#    0.000    0.714    0.000    0.000    0.000    0.000 
#    0.000    0.000    0.000    0.000    0.000    0.000 
#
# Total GULP energy -156113.396750 kJ/mol
# GULP energy per Si atom -5575.478455 kJ/mol
# Density = 2.208497 g / cm^3
# Si number density = 22.135351 Si / 1000 Ang^3
#
#
#
# Elastic Constant Matrix: (Units=GPa)
#
#
# Indices 1 2 3 4 5 6 
#
# 1 166.7957 81.3136 2.0640 0.0000 -12.0245 0.0000
# 2 81.3136 148.5395 11.6091 0.0000 0.3591 0.0000
# 3 2.0640 11.6091 28.9171 0.0000 -8.2218 0.0000
# 4 0.0000 0.0000 0.0000 10.4988 0.0000 0.4610
# 5 -12.0245 0.3591 -8.2218 0.0000 21.1032 0.0000
# 6 0.0000 0.0000 0.0000 0.4610 0.0000 40.2390
#
#
#
# Elastic Compliance Matrix: (Units=1/GPa)
#
#
# Indices 1 2 3 4 5 6 
#
# 1 0.008938 -0.005164 0.003270 0.000000 0.006455 0.000000
# 2 -0.005164 0.009968 -0.005081 0.000000 -0.005091 0.000000
# 3 0.003270 -0.005081 0.041544 0.000000 0.018135 0.000000
# 4 0.000000 0.000000 0.000000 0.095297 0.000000 -0.001092
# 5 0.006455 -0.005091 0.018135 0.000000 0.058216 0.000000
# 6 0.000000 0.000000 0.000000 -0.001092 0.000000 0.024864
#
#
# Mechanical properties :
#
#
# Convention : Reuss Voigt Hill
#
# Bulk Modulus (GPa) = 21.50475 59.35842 40.43158
# Shear Modulus (GPa) = 18.63746 30.98592 24.81169
#
# Velocity S-wave (km/s) = 2.90483 3.74550 3.35163
# Velocity P-wave (km/s) = 4.58115 6.75125 5.76916
#
# Compressibility (1/GPa) = 0.04650135
#
# Stress axis : x y z
#
# Youngs Moduli (GPa) = 111.88700 100.31693 24.07068
#
# Poissons Ratio (x) = 0.51802 -0.07872
# Poissons Ratio (y) = 0.57776 0.12230
# Poissons Ratio (z) = -0.36591 0.50971
#
# Static dielectric constant tensor:
#      x y z
#    x 1.910650 0.000000 0.023990 
#    y 0.000000 1.848340 0.000000 
#    z 0.023990 0.000000 1.918080 
# 
# From -- ./inp_files/37695.got.cif
#   From: 2010.05.17/outbox.cif.g08.bks.cpg/sg11_19_cif.got.tgz:37695.got - 2010.06.03 12:22:45.
