data_PCOD9161272
_publ_section_title
;
Structure prediction by ZEFSAII (Michael W. Deem and Ramdas Pophale) SiO2 
 PCOD9161272
Probable space group: P 21/M
;
_chemical_formula_sum "Si O2"
_cell_formula_units_Z 32
_cell_length_a 24.905445
_cell_length_b 7.522082
_cell_length_c 20.882854
_cell_angle_alpha 90.000000
_cell_angle_beta 17.241393
_cell_angle_gamma 90.000000
_cell_volume 1159.571810
_symmetry_space_group_name_H-M "P 21/M"
_symmetry_group_IT_number 11
_symmetry_cell_setting 'monoclinic'
loop_
_space_group_symop_operation_xyz
x,y,z
-x,1/2+y,-z
-x,-y,-z
x,1/2-y,z
loop_
_atom_site_type_symbol
_atom_site_label
_atom_site_fract_x
_atom_site_fract_y
_atom_site_fract_z
Si Si1 0.624430 0.459549 0.418415
Si Si2 0.125563 0.537305 0.419138
Si Si3 0.544825 0.041739 0.032052
Si Si4 0.941769 0.456966 0.978052
Si Si5 0.334513 0.039450 0.493666
Si Si6 0.170936 0.454583 0.031930
Si Si7 0.241958 0.032461 0.462821
Si Si8 0.209902 0.033242 0.123858
O O1 0.500000 0.500000 0.500000
O O2 0.642375 0.250000 0.401325
O O3 0.553100 0.514399 0.569313
O O4 0.817831 0.537925 0.174807
O O5 0.140752 0.750000 0.407690
O O6 0.323858 0.465203 0.172810
O O7 0.000000 0.500000 0.500000
O O8 0.994444 0.470567 0.624855
O O9 0.523275 0.250000 0.044342
O O10 0.664091 0.027286 0.961621
O O11 0.351600 0.967025 0.275549
O O12 0.968657 0.250000 0.961335
O O13 0.138078 0.536550 0.740131
O O14 0.834793 0.463896 0.032003
O O15 0.318130 0.250000 0.504603
O O16 0.354912 0.973623 0.398025
O O17 0.226967 0.250000 0.960743
O O18 0.958450 0.462251 0.295852
O O19 0.262240 0.530146 0.992878
O O20 0.234547 0.250000 0.468636
O O21 0.210041 0.250000 0.122767
#
# Coordination Sequence:
#
# PCOD9161272 Si02
#       8
#     4   4   4   4   4   4   4   4
#     4  11  23  37  54  78 106 133 162 200 245 290
#     4   8  14  27  46  67  94 127 163 203 245 290
#     4   9  17  30  51  74  94 127 172 207 241 293
#     4   9  20  38  57  75  98 131 167 203 244 289
#     4   9  18  35  56  75  98 129 165 205 247 291
#     4  10  20  33  51  75 101 131 166 202 244 295
#     4   9  19  35  52  73 102 132 164 204 246 289
#     4   9  18  31  47  71 102 130 160 206 256 293
#
# _framework density 27.596395000000001
#
# number of rings (size 3 to 8) (size 9 to 14) (size 15 to 20)
#    0.000    2.750    0.000    1.875    0.000    5.500 
#    0.000    4.375    0.000    0.000    0.000    0.000 
#    0.000    0.000    0.000    0.000    0.000    0.000 
#
# Total GULP energy -178926.373588 kJ/mol
# GULP energy per Si atom -5591.449175 kJ/mol
# Density = 2.753358 g / cm^3
# Si number density = 27.596395 Si / 1000 Ang^3
#
#
#
# Elastic Constant Matrix: (Units=GPa)
#
#
# Indices 1 2 3 4 5 6 
#
# 1 143.3132 13.4626 9.9795 0.0000 33.8057 0.0000
# 2 13.4626 108.4949 4.2845 0.0000 8.7114 0.0000
# 3 9.9795 4.2845 118.9826 0.0000 36.3590 0.0000
# 4 0.0000 0.0000 0.0000 14.3532 0.0000 -3.9031
# 5 33.8057 8.7114 36.3590 0.0000 70.3174 0.0000
# 6 0.0000 0.0000 0.0000 -3.9031 0.0000 33.1447
#
#
#
# Elastic Compliance Matrix: (Units=1/GPa)
#
#
# Indices 1 2 3 4 5 6 
#
# 1 0.007955 -0.000686 0.000594 0.000000 -0.004047 0.000000
# 2 -0.000686 0.009369 -0.000031 0.000000 -0.000815 0.000000
# 3 0.000594 -0.000031 0.010026 0.000000 -0.005466 0.000000
# 4 0.000000 0.000000 0.000000 0.071976 0.000000 0.008476
# 5 -0.004047 -0.000815 -0.005466 0.000000 0.019094 0.000000
# 6 0.000000 0.000000 0.000000 0.008476 0.000000 0.031169
#
#
# Mechanical properties :
#
#
# Convention : Reuss Voigt Hill
#
# Bulk Modulus (GPa) = 36.89269 47.36044 42.12656
# Shear Modulus (GPa) = 31.47250 46.43399 38.95325
#
# Velocity S-wave (km/s) = 3.38073 4.10641 3.76111
# Velocity P-wave (km/s) = 5.35134 6.29941 5.84463
#
# Compressibility (1/GPa) = 0.02710564
#
# Stress axis : x y z
#
# Youngs Moduli (GPa) = 125.70127 106.73764 99.73869
#
# Poissons Ratio (x) = 0.07319 -0.05925
# Poissons Ratio (y) = 0.08619 0.00307
# Poissons Ratio (z) = -0.07468 0.00328
#
# Static dielectric constant tensor:
#      x y z
#    x 2.229800 0.000000 -0.142630 
#    y 0.000000 1.973070 0.000000 
#    z -0.142630 0.000000 2.205860 
# 
# From -- ./inp_files/67007.got.cif
#   From: 2010.05.17/outbox.cif.g08.bks.cpg/sg11_34_cif.got.tgz:67007.got - 2010.06.03 12:22:45.
