data_PCOD9161651
_publ_section_title
;
Structure prediction by ZEFSAII (Michael W. Deem and Ramdas Pophale) SiO2 
 PCOD9161651
Probable space group: P 21/M
;
_chemical_formula_sum "Si O2"
_cell_formula_units_Z 28
_cell_length_a 16.068310
_cell_length_b 9.147360
_cell_length_c 18.547625
_cell_angle_alpha 90.000000
_cell_angle_beta 144.059463
_cell_angle_gamma 90.000000
_cell_volume 1600.117674
_symmetry_space_group_name_H-M "P 21/M"
_symmetry_group_IT_number 11
_symmetry_cell_setting 'monoclinic'
loop_
_space_group_symop_operation_xyz
x,y,z
-x,1/2+y,-z
-x,-y,-z
x,1/2-y,z
loop_
_atom_site_type_symbol
_atom_site_label
_atom_site_fract_x
_atom_site_fract_y
_atom_site_fract_z
Si Si1 0.341060 0.927112 0.590965
Si Si2 0.829037 0.416751 0.948860
Si Si3 0.389663 0.418953 0.129601
Si Si4 0.637203 0.425567 0.559802
Si Si5 0.846381 0.071834 0.403735
Si Si6 0.832731 0.582081 0.805800
Si Si7 0.420970 0.919022 0.879858
O O1 0.337505 0.750000 0.589326
O O2 0.493358 0.969184 0.730252
O O3 0.335156 0.972851 0.503684
O O4 0.222309 0.971670 0.566595
O O5 0.789448 0.250000 0.905145
O O6 0.745183 0.478762 0.957976
O O7 0.791871 0.519519 0.855256
O O8 0.997180 0.422015 0.078079
O O9 0.350810 0.250000 0.116575
O O10 0.470516 0.424050 0.110966
O O11 0.500000 0.500000 0.500000
O O12 0.621907 0.250000 0.550401
O O13 0.766944 0.479668 0.699279
O O14 0.856421 0.250000 0.409606
O O15 0.730057 0.029570 0.260288
O O16 0.000000 0.000000 0.500000
O O17 0.784763 0.750000 0.764230
O O18 0.399913 0.750000 0.885970
O O19 0.500000 0.000000 0.000000
#
# Coordination Sequence:
#
# PCOD9161651 Si02
#       7
#     4   4   4   4   4   4   4
#     4   8  17  34  54  75 103 137 173 213 259 316
#     4  10  20  34  53  76 101 135 176 218 265 312
#     4   9  17  33  56  77 100 135 174 213 264 319
#     4  11  21  34  54  79 106 139 177 219 266 315
#     4   9  18  36  58  80 107 142 182 224 274 328
#     4  10  21  36  51  71 105 141 173 215 261 312
#     4   9  19  35  55  80 110 142 179 224 274 329
#
# _framework density 17.498714
#
# number of rings (size 3 to 8) (size 9 to 14) (size 15 to 20)
#    0.000    2.571    0.000    3.857    0.000    4.000 
#    2.571    4.286    0.000    0.000    0.000    0.000 
#    0.000    0.000    0.000    0.000    0.000    0.000 
#
# Total GULP energy -156023.027696 kJ/mol
# GULP energy per Si atom -5572.250989 kJ/mol
# Density = 1.745889 g / cm^3
# Si number density = 17.498714 Si / 1000 Ang^3
#
#
#
# Elastic Constant Matrix: (Units=GPa)
#
#
# Indices 1 2 3 4 5 6 
#
# 1 80.3241 38.3717 52.9804 0.0000 9.0775 0.0000
# 2 38.3717 58.9122 38.8494 0.0000 2.5633 0.0000
# 3 52.9804 38.8494 82.9277 0.0000 -17.5357 0.0000
# 4 0.0000 0.0000 0.0000 31.2213 0.0000 2.4091
# 5 9.0775 2.5633 -17.5357 0.0000 28.7194 0.0000
# 6 0.0000 0.0000 0.0000 2.4091 0.0000 30.1566
#
#
#
# Elastic Compliance Matrix: (Units=1/GPa)
#
#
# Indices 1 2 3 4 5 6 
#
# 1 0.034026 -0.004540 -0.025032 0.000000 -0.025634 0.000000
# 2 -0.004540 0.028331 -0.012175 0.000000 -0.008528 0.000000
# 3 -0.025032 -0.012175 0.040944 0.000000 0.033998 0.000000
# 4 0.000000 0.000000 0.000000 0.032228 0.000000 -0.002575
# 5 -0.025634 -0.008528 0.033998 0.000000 0.064442 0.000000
# 6 0.000000 0.000000 0.000000 -0.002575 0.000000 0.033366
#
#
# Mechanical properties :
#
#
# Convention : Reuss Voigt Hill
#
# Bulk Modulus (GPa) = 50.48709 53.61855 52.05282
# Shear Modulus (GPa) = 15.45915 24.15031 19.80473
#
# Velocity S-wave (km/s) = 2.97550 3.71903 3.36785
# Velocity P-wave (km/s) = 6.38117 7.01067 6.70331
#
# Compressibility (1/GPa) = 0.01980705
#
# Stress axis : x y z
#
# Youngs Moduli (GPa) = 29.38960 35.29652 24.42365
#
# Poissons Ratio (x) = 0.16024 0.61137
# Poissons Ratio (y) = 0.13342 0.29737
# Poissons Ratio (z) = 0.73567 0.42975
#
# Static dielectric constant tensor:
#      x y z
#    x 1.595440 0.000000 0.000550 
#    y 0.000000 1.595860 0.000000 
#    z 0.000550 0.000000 1.604240 
# 
# From -- ./inp_files/60155.got.cif
#   From: 2010.05.17/outbox.cif.g08.bks.cpg/sg11_31_cif.got.tgz:60155.got - 2010.06.03 12:22:45.
