data_PCOD9161695
_publ_section_title
;
Structure prediction by ZEFSAII (Michael W. Deem and Ramdas Pophale) SiO2 
 PCOD9161695
Probable space group: P 21/M
;
_chemical_formula_sum "Si O2"
_cell_formula_units_Z 32
_cell_length_a 11.498661
_cell_length_b 14.230494
_cell_length_c 15.543425
_cell_angle_alpha 90.000000
_cell_angle_beta 137.675076
_cell_angle_gamma 90.000000
_cell_volume 1712.555436
_symmetry_space_group_name_H-M "P 21/M"
_symmetry_group_IT_number 11
_symmetry_cell_setting 'monoclinic'
loop_
_space_group_symop_operation_xyz
x,y,z
-x,1/2+y,-z
-x,-y,-z
x,1/2-y,z
loop_
_atom_site_type_symbol
_atom_site_label
_atom_site_fract_x
_atom_site_fract_y
_atom_site_fract_z
Si Si1 0.803501 0.139505 0.515395
Si Si2 0.679003 0.359636 0.250242
Si Si3 0.726274 0.639434 0.015643
Si Si4 0.510615 0.858720 0.524218
Si Si5 0.232108 0.855397 0.249107
Si Si6 0.111937 0.007258 0.749633
Si Si7 0.129923 0.045058 0.250548
Si Si8 0.041398 0.141242 0.026051
O O1 0.849545 0.250000 0.554038
O O2 0.730606 0.130054 0.378775
O O3 0.641699 0.119151 0.491139
O O4 0.968066 0.072327 0.622924
O O5 0.723189 0.250000 0.250583
O O6 0.774531 0.442693 0.250867
O O7 0.474115 0.369948 0.120698
O O8 0.757965 0.750000 0.054117
O O9 0.777547 0.572500 0.123673
O O10 0.838582 0.618572 0.990603
O O11 0.557606 0.750000 0.564312
O O12 0.429416 0.867267 0.384084
O O13 0.678514 0.920035 0.626515
O O14 0.184092 0.750000 0.249323
O O15 0.134126 0.932649 0.249802
O O16 0.158012 0.867265 0.113569
O O17 0.005436 0.932770 0.750215
O O18 0.078677 0.080401 0.128934
O O19 0.075347 0.250000 0.065997
#
# Coordination Sequence:
#
# PCOD9161695 Si02
#       8
#     4   4   4   4   4   4   4   4
#     4  10  20  39  63  84 107 142 190 241 272 312
#     4  10  23  40  57  80 114 148 185 229 279 330
#     4  10  20  39  63  84 107 142 190 241 272 312
#     4  10  20  36  57  84 110 145 188 228 274 322
#     4  10  20  34  53  78 114 147 185 227 268 321
#     4  12  23  35  59  87 115 145 183 224 285 339
#     4  12  22  33  55  85 119 146 177 228 276 334
#     4  10  20  36  57  84 110 145 188 228 274 322
#
# _framework density 18.685524999999998
#
# number of rings (size 3 to 8) (size 9 to 14) (size 15 to 20)
#    0.000    1.500    2.500    3.000    0.000    3.000 
#    0.000    0.000    0.000    0.000    0.000    0.000 
#    0.000    0.000    0.000    0.000    0.000    0.000 
#
# Total GULP energy -178385.004681 kJ/mol
# GULP energy per Si atom -5574.531396 kJ/mol
# Density = 1.864300 g / cm^3
# Si number density = 18.685525 Si / 1000 Ang^3
#
#
#
# Elastic Constant Matrix: (Units=GPa)
#
#
# Indices 1 2 3 4 5 6 
#
# 1 73.8229 48.7080 61.4248 0.0000 5.3532 0.0000
# 2 48.7080 86.5887 68.9395 0.0000 6.7477 0.0000
# 3 61.4248 68.9395 163.5253 0.0000 11.4719 0.0000
# 4 0.0000 0.0000 0.0000 34.5081 0.0000 0.5200
# 5 5.3532 6.7477 11.4719 0.0000 -1.3901 0.0000
# 6 0.0000 0.0000 0.0000 0.5200 0.0000 21.1213
#
#
#
# Elastic Compliance Matrix: (Units=1/GPa)
#
#
# Indices 1 2 3 4 5 6 
#
# 1 0.023958 -0.009602 -0.005164 0.000000 0.003035 0.000000
# 2 -0.009602 0.020743 -0.006085 0.000000 0.013496 0.000000
# 3 -0.005164 -0.006085 0.008922 0.000000 0.024207 0.000000
# 4 0.000000 0.000000 0.000000 0.028989 0.000000 -0.000714
# 5 0.003035 0.013496 0.024207 0.000000 -0.442415 0.000000
# 6 0.000000 0.000000 0.000000 -0.000714 0.000000 0.047363
#
#
# Mechanical properties :
#
#
# Convention : Reuss Voigt Hill
#
# Bulk Modulus (GPa) = 83.88451 75.78683 79.83567
# Shear Modulus (GPa) = -18.74318 20.50550 0.88116
#
# Velocity S-wave (km/s) = -3.17059 3.31630 0.68746
# Velocity P-wave (km/s) = 5.62021 7.43713 6.59157
#
# Compressibility (1/GPa) = 0.01192115
#
# Stress axis : x y z
#
# Youngs Moduli (GPa) = 41.73964 48.20890 112.07951
#
# Poissons Ratio (x) = 0.46289 0.57881
# Poissons Ratio (y) = 0.40077 0.68201
# Poissons Ratio (z) = 0.21556 0.29335
#
# Static dielectric constant tensor:
#      x y z
#    x 1.604550 0.000000 0.002440 
#    y 0.000000 1.686230 0.000000 
#    z 0.002440 0.000000 1.692680 
# 
# From -- ./inp_files/50393.got.cif
#   From: 2010.05.17/outbox.cif.g08.bks.cpg/sg11_26_cif.got.tgz:50393.got - 2010.06.03 12:22:45.
