data_PCOD9161396
_publ_section_title
;
Structure prediction by ZEFSAII (Michael W. Deem and Ramdas Pophale) SiO2 
 PCOD9161396
Probable space group: P 21/M
;
_chemical_formula_sum "Si O2"
_cell_formula_units_Z 32
_cell_length_a 5.725365
_cell_length_b 9.700817
_cell_length_c 27.381714
_cell_angle_alpha 90.000000
_cell_angle_beta 93.220160
_cell_angle_gamma 90.000000
_cell_volume 1518.398809
_symmetry_space_group_name_H-M "P 21/M"
_symmetry_group_IT_number 11
_symmetry_cell_setting 'monoclinic'
loop_
_space_group_symop_operation_xyz
x,y,z
-x,1/2+y,-z
-x,-y,-z
x,1/2-y,z
loop_
_atom_site_type_symbol
_atom_site_label
_atom_site_fract_x
_atom_site_fract_y
_atom_site_fract_z
Si Si1 0.309673 0.584647 0.171985
Si Si2 0.186514 0.596695 0.976326
Si Si3 0.174615 0.085710 0.786501
Si Si4 0.356157 0.592351 0.536702
Si Si5 0.381992 0.402154 0.688550
Si Si6 0.053340 0.095180 0.593002
Si Si7 0.324323 0.404378 0.362715
Si Si8 0.487799 0.098078 0.926206
O O1 0.309087 0.750000 0.181123
O O2 0.567229 0.534120 0.193103
O O3 0.326247 0.565166 0.113793
O O4 0.067929 0.530855 0.193088
O O5 0.097798 0.750000 0.964260
O O6 0.294477 0.518627 0.931156
O O7 0.384781 0.609958 0.020402
O O8 0.000000 0.500000 0.000000
O O9 0.174671 0.250000 0.797198
O O10 0.191282 0.071278 0.728141
O O11 0.500000 0.500000 0.500000
O O12 0.313332 0.750000 0.519591
O O13 0.131977 0.503200 0.550041
O O14 0.500159 0.606027 0.589042
O O15 0.489796 0.250000 0.700749
O O16 0.262658 0.391421 0.634407
O O17 0.556452 0.529138 0.683595
O O18 0.987504 0.250000 0.577375
O O19 0.858188 0.015867 0.620697
O O20 0.230629 0.250000 0.353025
O O21 0.384662 0.250000 0.913469
#
# Coordination Sequence:
#
# PCOD9161396 Si02
#       8
#     4   4   4   4   4   4   4   4
#     4   9  18  31  52  82 114 146 184 234 289 342
#     4  10  20  33  53  79 107 142 186 232 284 337
#     4   9  18  31  52  83 114 144 184 235 290 339
#     4  10  21  37  55  77 108 142 180 223 271 328
#     4   9  19  34  55  81 108 137 177 228 274 323
#     4  10  20  34  55  81 107 139 179 222 273 325
#     4  10  21  36  55  79 107 142 180 221 273 327
#     4   9  19  34  53  78 108 143 186 233 283 339
#
# _framework density 21.074831
#
# number of rings (size 3 to 8) (size 9 to 14) (size 15 to 20)
#    0.000    2.500    0.000    1.500    3.500    3.000 
#    0.000    0.000    0.000    1.500    0.000    0.000 
#    0.000    0.000    0.000    0.000    0.000    0.000 
#
# Total GULP energy -178242.010331 kJ/mol
# GULP energy per Si atom -5570.062823 kJ/mol
# Density = 2.102686 g / cm^3
# Si number density = 21.074831 Si / 1000 Ang^3
#
#
#
# Elastic Constant Matrix: (Units=GPa)
#
#
# Indices 1 2 3 4 5 6 
#
# 1 87.9786 49.7728 26.9202 0.0000 -36.5711 0.0000
# 2 49.7728 158.3162 28.0886 0.0000 -34.6021 0.0000
# 3 26.9202 28.0886 81.7158 0.0000 -29.4212 0.0000
# 4 0.0000 0.0000 0.0000 10.9615 0.0000 -14.6080
# 5 -36.5711 -34.6021 -29.4212 0.0000 40.6170 0.0000
# 6 0.0000 0.0000 0.0000 -14.6080 0.0000 21.0053
#
#
#
# Elastic Compliance Matrix: (Units=1/GPa)
#
#
# Indices 1 2 3 4 5 6 
#
# 1 0.019098 -0.002760 0.000002 0.000000 0.014847 0.000000
# 2 -0.002760 0.008170 -0.000389 0.000000 0.004193 0.000000
# 3 0.000002 -0.000389 0.016575 0.000000 0.011676 0.000000
# 4 0.000000 0.000000 0.000000 1.246147 0.000000 0.866624
# 5 0.014847 0.004193 0.011676 0.000000 0.050018 0.000000
# 6 0.000000 0.000000 0.000000 0.866624 0.000000 0.650295
#
#
# Mechanical properties :
#
#
# Convention : Reuss Voigt Hill
#
# Bulk Modulus (GPa) = 26.63195 59.73040 43.18117
# Shear Modulus (GPa) = 2.48866 29.39870 15.94368
#
# Velocity S-wave (km/s) = 1.08786 3.73898 2.75349
# Velocity P-wave (km/s) = 3.77388 6.85883 5.53560
#
# Compressibility (1/GPa) = 0.03754889
#
# Stress axis : x y z
#
# Youngs Moduli (GPa) = 52.36021 122.40483 60.33326
#
# Poissons Ratio (x) = 0.33782 -0.00014
# Poissons Ratio (y) = 0.14451 0.02349
# Poissons Ratio (z) = -0.00012 0.04766
#
# Static dielectric constant tensor:
#      x y z
#    x 1.836620 0.000000 0.038050 
#    y 0.000000 1.797460 0.000000 
#    z 0.038050 0.000000 1.792100 
# 
# From -- ./inp_files/72585.got.cif
#   From: 2010.05.17/outbox.cif.g08.bks.cpg/sg11_37_cif.got.tgz:72585.got - 2010.06.03 12:22:45.
