data_PCOD9161584
_publ_section_title
;
Structure prediction by ZEFSAII (Michael W. Deem and Ramdas Pophale) SiO2 
 PCOD9161584
Probable space group: P 21/M
;
_chemical_formula_sum "Si O2"
_cell_formula_units_Z 32
_cell_length_a 24.373362
_cell_length_b 7.586733
_cell_length_c 29.982461
_cell_angle_alpha 90.000000
_cell_angle_beta 12.489948
_cell_angle_gamma 90.000000
_cell_volume 1199.031080
_symmetry_space_group_name_H-M "P 21/M"
_symmetry_group_IT_number 11
_symmetry_cell_setting 'monoclinic'
loop_
_space_group_symop_operation_xyz
x,y,z
-x,1/2+y,-z
-x,-y,-z
x,1/2-y,z
loop_
_atom_site_type_symbol
_atom_site_label
_atom_site_fract_x
_atom_site_fract_y
_atom_site_fract_z
Si Si1 0.878556 0.460557 0.207182
Si Si2 0.002507 0.452383 0.201510
Si Si3 0.890601 0.040760 0.691245
Si Si4 0.286447 0.458023 0.755934
Si Si5 0.964419 0.462226 0.330901
Si Si6 0.549012 0.545637 0.776869
Si Si7 0.708097 0.459996 0.745876
Si Si8 0.425095 0.465029 0.740059
O O1 0.894387 0.250000 0.199744
O O2 0.852698 0.529853 0.278152
O O3 0.697642 0.486506 0.308198
O O4 0.154852 0.528426 0.971990
O O5 0.915276 0.250000 0.276099
O O6 0.002154 0.533011 0.251021
O O7 0.303506 0.451692 0.951701
O O8 0.902303 0.250000 0.674337
O O9 0.176119 0.970101 0.454975
O O10 0.705317 0.972182 0.799383
O O11 0.854424 0.012752 0.772356
O O12 0.317995 0.250000 0.729394
O O13 0.450058 0.522419 0.668267
O O14 0.000000 0.500000 0.000000
O O15 0.979943 0.250000 0.316878
O O16 0.671865 0.516997 0.571792
O O17 0.534741 0.750000 0.775560
O O18 0.548531 0.534632 0.831451
O O19 0.660710 0.250000 0.782962
O O20 0.000000 0.500000 0.500000
O O21 0.415714 0.250000 0.747538
#
# Coordination Sequence:
#
# PCOD9161584 Si02
#       8
#     4   4   4   4   4   4   4   4
#     4   9  17  31  50  72  99 130 165 206 252 300
#     4  10  21  35  51  73 102 136 172 210 253 302
#     4   9  19  34  52  77 104 129 161 205 253 298
#     4   9  16  28  48  73  99 126 161 206 253 299
#     4  10  20  34  52  73  99 135 175 209 247 300
#     4  10  20  34  54  79 104 132 169 211 255 303
#     4   9  17  31  52  78 106 132 164 208 256 304
#     4   8  15  29  49  71  95 126 162 201 246 294
#
# _framework density 26.688216000000001
#
# number of rings (size 3 to 8) (size 9 to 14) (size 15 to 20)
#    0.000    2.750    0.000    3.375    0.000    5.000 
#    0.000    5.625    0.000    0.000    0.000    0.000 
#    0.000    0.000    0.000    0.000    0.000    0.000 
#
# Total GULP energy -178809.452640 kJ/mol
# GULP energy per Si atom -5587.795395 kJ/mol
# Density = 2.662747 g / cm^3
# Si number density = 26.688216 Si / 1000 Ang^3
#
#
#
# Elastic Constant Matrix: (Units=GPa)
#
#
# Indices 1 2 3 4 5 6 
#
# 1 263.3693 -1.1312 48.5448 0.0000 -15.5908 0.0000
# 2 -1.1312 69.7357 -3.2752 0.0000 -0.3702 0.0000
# 3 48.5448 -3.2752 83.3713 0.0000 -23.0763 0.0000
# 4 0.0000 0.0000 0.0000 -3.6410 0.0000 0.8727
# 5 -15.5908 -0.3702 -23.0763 0.0000 56.9155 0.0000
# 6 0.0000 0.0000 0.0000 0.8727 0.0000 27.5212
#
#
#
# Elastic Compliance Matrix: (Units=1/GPa)
#
#
# Indices 1 2 3 4 5 6 
#
# 1 0.004255 -0.000044 -0.002430 0.000000 0.000180 0.000000
# 2 -0.000044 0.014373 0.000690 0.000000 0.000361 0.000000
# 3 -0.002430 0.000690 0.014929 0.000000 0.005392 0.000000
# 4 0.000000 0.000000 0.000000 -0.272577 0.000000 0.008643
# 5 0.000180 0.000361 0.005392 0.000000 0.019808 0.000000
# 6 0.000000 0.000000 0.000000 0.008643 0.000000 0.036062
#
#
# Mechanical properties :
#
#
# Convention : Reuss Voigt Hill
#
# Bulk Modulus (GPa) = 33.34355 56.08369 44.71362
# Shear Modulus (GPa) = -29.48343 40.98166 5.74912
#
# Velocity S-wave (km/s) = -3.32736 3.92289 1.46930
# Velocity P-wave (km/s) = 1.49697 6.44816 4.43496
#
# Compressibility (1/GPa) = 0.02999081
#
# Stress axis : x y z
#
# Youngs Moduli (GPa) = 235.00373 69.57255 66.98505
#
# Poissons Ratio (x) = 0.00307 0.16274
# Poissons Ratio (y) = 0.01037 -0.04624
# Poissons Ratio (z) = 0.57095 -0.04803
#
# Static dielectric constant tensor:
#      x y z
#    x 2.137100 0.000000 0.082580 
#    y 0.000000 2.007420 0.000000 
#    z 0.082580 0.000000 2.164790 
# 
# From -- ./inp_files/72099.got.cif
#   From: 2010.05.17/outbox.cif.g08.bks.cpg/sg11_37_cif.got.tgz:72099.got - 2010.06.03 12:22:45.
