data_PCOD9161693
_publ_section_title
;
Structure prediction by ZEFSAII (Michael W. Deem and Ramdas Pophale) SiO2 
 PCOD9161693
Probable space group: P 21/M
;
_chemical_formula_sum "Si O2"
_cell_formula_units_Z 28
_cell_length_a 29.052317
_cell_length_b 8.360390
_cell_length_c 8.064081
_cell_angle_alpha 90.000000
_cell_angle_beta 135.018495
_cell_angle_gamma 90.000000
_cell_volume 1384.544632
_symmetry_space_group_name_H-M "P 21/M"
_symmetry_group_IT_number 11
_symmetry_cell_setting 'monoclinic'
loop_
_space_group_symop_operation_xyz
x,y,z
-x,1/2+y,-z
-x,-y,-z
x,1/2-y,z
loop_
_atom_site_type_symbol
_atom_site_label
_atom_site_fract_x
_atom_site_fract_y
_atom_site_fract_z
Si Si1 0.348574 0.558820 0.946658
Si Si2 0.790245 0.056011 0.534377
Si Si3 0.066982 0.057521 0.748904
Si Si4 0.208171 0.057482 0.080114
Si Si5 0.655716 0.943149 0.706546
Si Si6 0.069900 0.935774 0.125947
Si Si7 0.573749 0.941567 0.175943
O O1 0.348276 0.750000 0.943432
O O2 0.274411 0.500735 0.724075
O O3 0.392466 0.500155 0.906540
O O4 0.369893 0.501700 0.182197
O O5 0.791801 0.250000 0.536462
O O6 0.859653 0.996665 0.637654
O O7 0.784871 0.002651 0.712693
O O8 0.064849 0.250000 0.767238
O O9 0.135265 0.017201 0.832022
O O10 0.000000 0.000000 0.500000
O O11 0.072245 0.967491 0.936277
O O12 0.211708 0.250000 0.095424
O O13 0.269742 0.999819 0.132000
O O14 0.655353 0.750000 0.707373
O O15 0.614154 0.996723 0.441143
O O16 0.069445 0.750000 0.166942
O O17 0.000000 0.000000 0.000000
O O18 0.575058 0.750000 0.179302
O O19 0.500000 0.000000 0.000000
#
# Coordination Sequence:
#
# PCOD9161693 Si02
#       7
#     4   4   4   4   4   4   4
#     4  11  23  39  63  95 126 160 204 250 302 363
#     4   9  19  35  56  82 114 152 196 248 305 360
#     4  10  20  34  53  78 111 151 196 246 301 359
#     4   9  18  35  58  82 110 151 201 249 300 359
#     4  10  22  40  63  92 123 159 204 249 299 359
#     4  10  20  35  53  77 111 152 198 247 301 359
#     4  11  24  44  69  94 126 164 201 249 305 361
#
# _framework density 20.223255000000002
#
# number of rings (size 3 to 8) (size 9 to 14) (size 15 to 20)
#    0.000    2.000    1.429    1.714    0.000    5.143 
#    0.000    2.857    0.000    0.000    0.000    0.000 
#    0.000    0.000    0.000    0.000    0.000    0.000 
#
# Total GULP energy -156208.629196 kJ/mol
# GULP energy per Si atom -5578.879614 kJ/mol
# Density = 2.017723 g / cm^3
# Si number density = 20.223255 Si / 1000 Ang^3
#
#
#
# Elastic Constant Matrix: (Units=GPa)
#
#
# Indices 1 2 3 4 5 6 
#
# 1 151.7968 21.7573 84.7273 0.0000 14.5962 0.0000
# 2 21.7573 17.0857 13.8309 0.0000 8.4720 0.0000
# 3 84.7273 13.8309 104.6345 0.0000 15.8240 0.0000
# 4 0.0000 0.0000 0.0000 24.4012 0.0000 0.7919
# 5 14.5962 8.4720 15.8240 0.0000 34.7960 0.0000
# 6 0.0000 0.0000 0.0000 0.7919 0.0000 28.3185
#
#
#
# Elastic Compliance Matrix: (Units=1/GPa)
#
#
# Indices 1 2 3 4 5 6 
#
# 1 0.013219 -0.009636 -0.009607 0.000000 0.001170 0.000000
# 2 -0.009636 0.078447 -0.000311 0.000000 -0.014917 0.000000
# 3 -0.009607 -0.000311 0.017994 0.000000 -0.004078 0.000000
# 4 0.000000 0.000000 0.000000 0.041019 0.000000 -0.001147
# 5 0.001170 -0.014917 -0.004078 0.000000 0.033734 0.000000
# 6 0.000000 0.000000 0.000000 -0.001147 0.000000 0.035345
#
#
# Mechanical properties :
#
#
# Convention : Reuss Voigt Hill
#
# Bulk Modulus (GPa) = 14.17390 57.12758 35.65074
# Shear Modulus (GPa) = 17.70645 27.71657 22.71151
#
# Velocity S-wave (km/s) = 2.96218 3.70608 3.35481
# Velocity P-wave (km/s) = 4.32704 6.82812 5.71605
#
# Compressibility (1/GPa) = 0.07055223
#
# Stress axis : x y z
#
# Youngs Moduli (GPa) = 75.65040 12.74741 55.57414
#
# Poissons Ratio (x) = 0.12284 0.53390
# Poissons Ratio (y) = 0.72900 0.01726
# Poissons Ratio (z) = 0.72677 0.00396
#
# Static dielectric constant tensor:
#      x y z
#    x 1.674560 0.000000 0.055780 
#    y 0.000000 1.687460 0.000000 
#    z 0.055780 0.000000 1.742560 
# 
# From -- ./inp_files/29078.got.cif
#   From: 2010.05.17/outbox.cif.g08.bks.cpg/sg11_15_cif.got.tgz:29078.got - 2010.06.03 12:22:45.
