data_PCOD9161585
_publ_section_title
;
Structure prediction by ZEFSAII (Michael W. Deem and Ramdas Pophale) SiO2 
 PCOD9161585
Probable space group: P 21/M
;
_chemical_formula_sum "Si O2"
_cell_formula_units_Z 32
_cell_length_a 8.268613
_cell_length_b 14.642975
_cell_length_c 25.304554
_cell_angle_alpha 90.000000
_cell_angle_beta 35.223451
_cell_angle_gamma 90.000000
_cell_volume 1767.098952
_symmetry_space_group_name_H-M "P 21/M"
_symmetry_group_IT_number 11
_symmetry_cell_setting 'monoclinic'
loop_
_space_group_symop_operation_xyz
x,y,z
-x,1/2+y,-z
-x,-y,-z
x,1/2-y,z
loop_
_atom_site_type_symbol
_atom_site_label
_atom_site_fract_x
_atom_site_fract_y
_atom_site_fract_z
Si Si1 0.296492 0.495380 0.104034
Si Si2 0.068166 0.145953 0.750870
Si Si3 0.820177 0.146129 0.249996
Si Si4 0.677481 0.354047 0.750871
Si Si5 0.429844 0.353871 0.249996
Si Si6 0.934025 0.495784 0.604618
Si Si7 0.316660 0.504620 0.895967
Si Si8 0.457116 0.995784 0.395382
O O1 0.485243 0.495206 0.105903
O O2 0.088287 0.582417 0.164387
O O3 0.101287 0.406054 0.157748
O O4 0.500000 0.500000 0.000000
O O5 0.113638 0.250000 0.756015
O O6 0.351534 0.093991 0.659050
O O7 0.868271 0.147384 0.752691
O O8 0.867987 0.250000 0.254602
O O9 0.617556 0.148190 0.252978
O O10 0.664763 0.082387 0.334440
O O11 0.606284 0.250000 0.756016
O O12 0.853211 0.406008 0.659050
O O13 0.410220 0.417583 0.835613
O O14 0.359004 0.250000 0.254602
O O15 0.163040 0.417613 0.334439
O O16 0.609972 0.406054 0.157748
O O17 0.740301 0.496635 0.603879
O O18 0.252406 0.500000 0.500000
O O19 0.000000 0.500000 0.000000
#
# Coordination Sequence:
#
# PCOD9161585 Si02
#       8
#     4   4   4   4   4   4   4   4
#     4  10  20  34  52  74 100 129 164 206 250 296
#     4   9  19  35  52  71  98 132 167 202 243 292
#     4   9  18  33  51  71  99 134 168 203 246 294
#     4   9  19  35  52  71  98 132 167 202 243 292
#     4   9  18  33  51  71  99 134 168 203 246 294
#     4   9  18  32  51  76 103 130 163 204 247 290
#     4  10  20  34  52  74 100 129 164 206 250 296
#     4   9  18  32  51  76 103 130 163 204 247 290
#
# _framework density 18.108778000000001
#
# number of rings (size 3 to 8) (size 9 to 14) (size 15 to 20)
#    0.000    2.750    0.000    0.750    0.000    4.500 
#    0.000    5.000    0.000    0.000    0.000    0.000 
#    0.000    0.000    0.000    0.000    0.000    0.000 
#
# Total GULP energy -178456.801478 kJ/mol
# GULP energy per Si atom -5576.775046 kJ/mol
# Density = 1.806756 g / cm^3
# Si number density = 18.108778 Si / 1000 Ang^3
#
#
#
# Elastic Constant Matrix: (Units=GPa)
#
#
# Indices 1 2 3 4 5 6 
#
# 1 5.6185 13.5523 8.0449 0.0000 1.5068 0.0000
# 2 13.5523 175.1083 80.0980 0.0000 2.0006 0.0000
# 3 8.0449 80.0980 165.4792 0.0000 3.2990 0.0000
# 4 0.0000 0.0000 0.0000 7.1392 0.0000 -0.5216
# 5 1.5068 2.0006 3.2990 0.0000 23.9023 0.0000
# 6 0.0000 0.0000 0.0000 -0.5216 0.0000 24.4869
#
#
#
# Elastic Compliance Matrix: (Units=1/GPa)
#
#
# Indices 1 2 3 4 5 6 
#
# 1 0.223694 -0.015810 -0.002976 0.000000 -0.012367 0.000000
# 2 -0.015810 0.008452 -0.003338 0.000000 0.000750 0.000000
# 3 -0.002976 -0.003338 0.007815 0.000000 -0.000612 0.000000
# 4 0.000000 0.000000 0.000000 0.140291 0.000000 0.002988
# 5 -0.012367 0.000750 -0.000612 0.000000 0.042638 0.000000
# 6 0.000000 0.000000 0.000000 0.002988 0.000000 0.040902
#
#
# Mechanical properties :
#
#
# Convention : Reuss Voigt Hill
#
# Bulk Modulus (GPa) = 5.10946 61.06625 33.08785
# Shear Modulus (GPa) = 8.72176 27.40641 18.06408
#
# Velocity S-wave (km/s) = 2.19699 3.89451 3.16180
# Velocity P-wave (km/s) = 3.04358 7.34969 5.62501
#
# Compressibility (1/GPa) = 0.19571537
#
# Stress axis : x y z
#
# Youngs Moduli (GPa) = 4.47038 118.30833 127.95136
#
# Poissons Ratio (x) = 1.87046 0.38076
# Poissons Ratio (y) = 0.07068 0.42706
# Poissons Ratio (z) = 0.01330 0.39487
#
# Static dielectric constant tensor:
#      x y z
#    x 1.637270 0.000000 -0.001200 
#    y 0.000000 1.618470 0.000000 
#    z -0.001200 0.000000 1.597450 
# 
# From -- ./inp_files/47464.got.cif
#   From: 2010.05.17/outbox.cif.g08.bks.cpg/sg11_24_cif.got.tgz:47464.got - 2010.06.03 12:22:45.
