data_PCOD9161528
_publ_section_title
;
Structure prediction by ZEFSAII (Michael W. Deem and Ramdas Pophale) SiO2 
 PCOD9161528
Probable space group: P 21/M
;
_chemical_formula_sum "Si O2"
_cell_formula_units_Z 32
_cell_length_a 15.417954
_cell_length_b 13.921706
_cell_length_c 18.068293
_cell_angle_alpha 90.000000
_cell_angle_beta 25.419004
_cell_angle_gamma 90.000000
_cell_volume 1664.681613
_symmetry_space_group_name_H-M "P 21/M"
_symmetry_group_IT_number 11
_symmetry_cell_setting 'monoclinic'
loop_
_space_group_symop_operation_xyz
x,y,z
-x,1/2+y,-z
-x,-y,-z
x,1/2-y,z
loop_
_atom_site_type_symbol
_atom_site_label
_atom_site_fract_x
_atom_site_fract_y
_atom_site_fract_z
Si Si1 0.913620 0.535156 0.488885
Si Si2 0.806758 0.858762 0.183774
Si Si3 0.098068 0.637051 0.214515
Si Si4 0.658889 0.146025 0.428838
Si Si5 0.485713 0.637035 0.809340
Si Si6 0.282501 0.856498 0.439316
Si Si7 0.312166 0.043205 0.873478
Si Si8 0.071634 0.024356 0.781132
O O1 0.710255 0.599482 0.656037
O O2 0.851437 0.439854 0.491305
O O3 0.000000 0.500000 0.500000
O O4 0.072722 0.592554 0.315204
O O5 0.859345 0.750000 0.121022
O O6 0.582171 0.855031 0.392219
O O7 0.780322 0.926806 0.133716
O O8 0.953390 0.900143 0.132925
O O9 0.056938 0.750000 0.248328
O O10 0.928182 0.584850 0.294056
O O11 0.316050 0.625157 0.005390
O O12 0.732052 0.250000 0.343336
O O13 0.712573 0.142249 0.475117
O O14 0.753168 0.047388 0.328665
O O15 0.488460 0.750000 0.787431
O O16 0.412039 0.562528 0.802445
O O17 0.225414 0.750000 0.458635
O O18 0.513667 0.881945 0.240668
O O19 0.125354 0.042301 0.072965
#
# Coordination Sequence:
#
# PCOD9161528 Si02
#       8
#     4   4   4   4   4   4   4   4
#     4  11  22  37  62  89 115 148 189 233 289 349
#     4  10  20  34  50  74 109 150 190 235 286 331
#     4  10  21  38  60  86 117 154 192 235 286 344
#     4   9  18  32  50  71 104 142 182 230 277 327
#     4   9  20  39  60  86 121 153 190 236 284 341
#     4   9  18  36  55  74 106 147 181 225 284 340
#     4   9  19  33  54  78 105 147 188 232 280 333
#     4  11  19  33  54  80 108 145 193 236 284 335
#
# _framework density 19.222895999999999
#
# number of rings (size 3 to 8) (size 9 to 14) (size 15 to 20)
#    0.000    2.250    1.250    2.625    0.000    3.000 
#    0.000    0.625    0.000    0.000    0.000    0.000 
#    0.000    0.000    0.000    0.000    0.000    0.000 
#
# Total GULP energy -178246.306695 kJ/mol
# GULP energy per Si atom -5570.197084 kJ/mol
# Density = 1.917914 g / cm^3
# Si number density = 19.222896 Si / 1000 Ang^3
#
#
#
# Elastic Constant Matrix: (Units=GPa)
#
#
# Indices 1 2 3 4 5 6 
#
# 1 57.4519 30.8615 4.3196 0.0000 5.8369 0.0000
# 2 30.8615 126.2565 32.0773 0.0000 10.5672 0.0000
# 3 4.3196 32.0773 35.0305 0.0000 2.4140 0.0000
# 4 0.0000 0.0000 0.0000 23.4921 0.0000 5.5459
# 5 5.8369 10.5672 2.4140 0.0000 15.7161 0.0000
# 6 0.0000 0.0000 0.0000 5.5459 0.0000 20.2105
#
#
#
# Elastic Compliance Matrix: (Units=1/GPa)
#
#
# Indices 1 2 3 4 5 6 
#
# 1 0.020513 -0.005313 0.002642 0.000000 -0.004452 0.000000
# 2 -0.005313 0.012199 -0.010194 0.000000 -0.004664 0.000000
# 3 0.002642 -0.010194 0.037549 0.000000 0.000106 0.000000
# 4 0.000000 0.000000 0.000000 0.045516 0.000000 -0.012490
# 5 -0.004452 -0.004664 0.000106 0.000000 0.068402 0.000000
# 6 0.000000 0.000000 0.000000 -0.012490 0.000000 0.052907
#
#
# Mechanical properties :
#
#
# Convention : Reuss Voigt Hill
#
# Bulk Modulus (GPa) = 22.45611 39.25060 30.85336
# Shear Modulus (GPa) = 18.00763 21.98244 19.99503
#
# Velocity S-wave (km/s) = 3.06401 3.38532 3.22866
# Velocity P-wave (km/s) = 4.92187 5.97859 5.47578
#
# Compressibility (1/GPa) = 0.04453130
#
# Stress axis : x y z
#
# Youngs Moduli (GPa) = 48.74845 81.97108 26.63222
#
# Poissons Ratio (x) = 0.43550 -0.07037
# Poissons Ratio (y) = 0.25900 0.27150
# Poissons Ratio (z) = -0.12881 0.83565
#
# Static dielectric constant tensor:
#      x y z
#    x 1.642190 0.000000 0.010960 
#    y 0.000000 1.703290 0.000000 
#    z 0.010960 0.000000 1.731950 
# 
# From -- ./inp_files/47224.got.cif
#   From: 2010.05.17/outbox.cif.g08.bks.cpg/sg11_24_cif.got.tgz:47224.got - 2010.06.03 12:22:45.
