data_PCOD9161902
_publ_section_title
;
Structure prediction by ZEFSAII (Michael W. Deem and Ramdas Pophale) SiO2 
 PCOD9161902
Probable space group: P 21/M
;
_chemical_formula_sum "Si O2"
_cell_formula_units_Z 28
_cell_length_a 21.358002
_cell_length_b 8.816952
_cell_length_c 16.099713
_cell_angle_alpha 90.000000
_cell_angle_beta 28.276333
_cell_angle_gamma 90.000000
_cell_volume 1436.226892
_symmetry_space_group_name_H-M "P 21/M"
_symmetry_group_IT_number 11
_symmetry_cell_setting 'monoclinic'
loop_
_space_group_symop_operation_xyz
x,y,z
-x,1/2+y,-z
-x,-y,-z
x,1/2-y,z
loop_
_atom_site_type_symbol
_atom_site_label
_atom_site_fract_x
_atom_site_fract_y
_atom_site_fract_z
Si Si1 0.930991 0.568329 0.343261
Si Si2 0.184148 0.068784 0.117471
Si Si3 0.654683 0.931185 0.399454
Si Si4 0.634554 0.567462 0.939136
Si Si5 0.334231 0.930499 0.279109
Si Si6 0.077763 0.431519 0.831898
Si Si7 0.649154 0.430845 0.226929
O O1 0.936677 0.750000 0.338975
O O2 0.784357 0.513794 0.536152
O O3 0.965127 0.516656 0.209282
O O4 0.038497 0.500753 0.280239
O O5 0.175658 0.250000 0.125695
O O6 0.265128 0.024206 0.105197
O O7 0.265524 0.010772 0.942855
O O8 0.656981 0.750000 0.380973
O O9 0.767625 0.966607 0.333797
O O10 0.506488 0.969894 0.600669
O O11 0.685155 0.015076 0.277532
O O12 0.642756 0.750000 0.916447
O O13 0.481616 0.533104 0.140229
O O14 0.665761 0.483986 0.816738
O O15 0.315321 0.750000 0.306238
O O16 0.062001 0.250000 0.853047
O O17 0.000000 0.500000 0.000000
O O18 0.665872 0.250000 0.201143
#
# Coordination Sequence:
#
# PCOD9161902 Si02
#       7
#     4   4   4   4   4   4   4
#     4  11  24  40  60  88 122 158 200 244 293 352
#     4  11  23  39  59  85 119 157 195 241 293 349
#     4   9  19  36  55  77 109 151 195 241 295 349
#     4   9  21  41  64  90 120 155 195 241 294 353
#     4  10  21  40  65  93 120 151 194 242 297 354
#     4  10  22  38  56  80 112 154 198 241 290 344
#     4  10  20  34  55  83 114 147 193 245 295 350
#
# _framework density 19.495528
#
# number of rings (size 3 to 8) (size 9 to 14) (size 15 to 20)
#    0.000    2.000    0.000    2.571    2.000    6.857 
#    0.000    0.000    0.000    0.000    0.000    0.000 
#    0.000    0.000    0.000    0.000    0.000    0.000 
#
# Total GULP energy -156439.679307 kJ/mol
# GULP energy per Si atom -5587.131404 kJ/mol
# Density = 1.945116 g / cm^3
# Si number density = 19.495528 Si / 1000 Ang^3
#
#
#
# Elastic Constant Matrix: (Units=GPa)
#
#
# Indices 1 2 3 4 5 6 
#
# 1 118.4969 31.6611 28.3703 0.0000 -20.7034 0.0000
# 2 31.6611 30.6232 18.3372 0.0000 -7.4030 0.0000
# 3 28.3703 18.3372 63.9907 0.0000 -3.6955 0.0000
# 4 0.0000 0.0000 0.0000 37.6046 0.0000 -0.3838
# 5 -20.7034 -7.4030 -3.6955 0.0000 17.6594 0.0000
# 6 0.0000 0.0000 0.0000 -0.3838 0.0000 25.1867
#
#
#
# Elastic Compliance Matrix: (Units=1/GPa)
#
#
# Indices 1 2 3 4 5 6 
#
# 1 0.013673 -0.009841 -0.002586 0.000000 0.011363 0.000000
# 2 -0.009841 0.050445 -0.009654 0.000000 0.007590 0.000000
# 3 -0.002586 -0.009654 0.019365 0.000000 -0.003026 0.000000
# 4 0.000000 0.000000 0.000000 0.026597 0.000000 0.000405
# 5 0.011363 0.007590 -0.003026 0.000000 0.072498 0.000000
# 6 0.000000 0.000000 0.000000 0.000405 0.000000 0.039710
#
#
# Mechanical properties :
#
#
# Convention : Reuss Voigt Hill
#
# Bulk Modulus (GPa) = 25.43125 41.09423 33.26274
# Shear Modulus (GPa) = 17.88549 25.07295 21.47922
#
# Velocity S-wave (km/s) = 3.03217 3.59010 3.32286
# Velocity P-wave (km/s) = 5.03306 6.18948 5.64098
#
# Compressibility (1/GPa) = 0.03932171
#
# Stress axis : x y z
#
# Youngs Moduli (GPa) = 73.13780 19.82348 51.63853
#
# Poissons Ratio (x) = 0.19508 0.13352
# Poissons Ratio (y) = 0.71975 0.49853
# Poissons Ratio (z) = 0.18910 0.19138
#
# Static dielectric constant tensor:
#      x y z
#    x 1.679200 0.000000 -0.028090 
#    y 0.000000 1.638730 0.000000 
#    z -0.028090 0.000000 1.673470 
# 
# From -- ./inp_files/54479.got.cif
#   From: 2010.05.17/outbox.cif.g08.bks.cpg/sg11_28_cif.got.tgz:54479.got - 2010.06.03 12:22:45.
