data_PCOD9161989
_publ_section_title
;
Structure prediction by ZEFSAII (Michael W. Deem and Ramdas Pophale) SiO2 
 PCOD9161989
Probable space group: P 21/M
;
_chemical_formula_sum "Si O2"
_cell_formula_units_Z 32
_cell_length_a 19.835192
_cell_length_b 9.097497
_cell_length_c 11.370869
_cell_angle_alpha 90.000000
_cell_angle_beta 55.716617
_cell_angle_gamma 90.000000
_cell_volume 1695.389953
_symmetry_space_group_name_H-M "P 21/M"
_symmetry_group_IT_number 11
_symmetry_cell_setting 'monoclinic'
loop_
_space_group_symop_operation_xyz
x,y,z
-x,1/2+y,-z
-x,-y,-z
x,1/2-y,z
loop_
_atom_site_type_symbol
_atom_site_label
_atom_site_fract_x
_atom_site_fract_y
_atom_site_fract_z
Si Si1 0.122055 0.079022 0.819144
Si Si2 0.671371 0.573338 0.113186
Si Si3 0.418014 0.424556 0.039321
Si Si4 0.023648 0.423116 0.159728
Si Si5 0.164518 0.428645 0.185252
Si Si6 0.749338 0.927157 0.665099
Si Si7 0.411653 0.925927 0.583653
Si Si8 0.266986 0.924805 0.566926
O O1 0.139076 0.250000 0.780719
O O2 0.203762 0.986537 0.724770
O O3 0.081585 0.065995 0.987462
O O4 0.055895 0.016624 0.791929
O O5 0.673035 0.750000 0.133999
O O6 0.608055 0.544602 0.069103
O O7 0.641057 0.487171 0.255925
O O8 0.760145 0.530201 0.974581
O O9 0.427971 0.250000 0.039131
O O10 0.500000 0.500000 0.000000
O O11 0.339936 0.464832 0.195309
O O12 0.002521 0.250000 0.194014
O O13 0.078496 0.474970 0.215141
O O14 0.164497 0.250000 0.184570
O O15 0.186937 0.473870 0.295753
O O16 0.754273 0.750000 0.648712
O O17 0.757249 0.002096 0.532084
O O18 0.419766 0.750000 0.583022
O O19 0.358642 0.961349 0.519209
O O20 0.500000 0.000000 0.500000
O O21 0.260082 0.750000 0.566081
#
# Coordination Sequence:
#
# PCOD9161989 Si02
#       8
#     4   4   4   4   4   4   4   4
#     4  10  20  34  56  86 114 147 182 217 268 328
#     4   9  18  35  56  79 108 139 176 221 270 323
#     4   9  19  33  53  79 106 137 176 225 272 318
#     4   9  17  32  57  86 115 143 177 224 271 319
#     4   8  15  32  58  83 108 141 180 222 271 321
#     4   9  19  36  56  79 105 142 186 224 268 327
#     4  11  25  40  55  78 107 141 181 226 274 326
#     4  11  24  40  56  77 110 146 182 227 275 323
#
# _framework density 18.874713
#
# number of rings (size 3 to 8) (size 9 to 14) (size 15 to 20)
#    0.000    2.500    0.000    3.375    1.750    4.500 
#    0.000    3.750    0.000    0.000    0.000    0.000 
#    0.000    0.000    0.000    0.000    0.000    0.000 
#
# Total GULP energy -178573.904297 kJ/mol
# GULP energy per Si atom -5580.434509 kJ/mol
# Density = 1.883175 g / cm^3
# Si number density = 18.874713 Si / 1000 Ang^3
#
#
#
# Elastic Constant Matrix: (Units=GPa)
#
#
# Indices 1 2 3 4 5 6 
#
# 1 94.6915 27.7801 7.7338 0.0000 -12.6280 0.0000
# 2 27.7801 28.3225 15.5657 0.0000 1.3952 0.0000
# 3 7.7338 15.5657 33.3699 0.0000 6.2303 0.0000
# 4 0.0000 0.0000 0.0000 25.4899 0.0000 -1.8327
# 5 -12.6280 1.3952 6.2303 0.0000 15.8965 0.0000
# 6 0.0000 0.0000 0.0000 -1.8327 0.0000 27.0401
#
#
#
# Elastic Compliance Matrix: (Units=1/GPa)
#
#
# Indices 1 2 3 4 5 6 
#
# 1 0.018266 -0.019858 0.002153 0.000000 0.015409 0.000000
# 2 -0.019858 0.069421 -0.025568 0.000000 -0.011847 0.000000
# 3 0.002153 -0.025568 0.043866 0.000000 -0.013238 0.000000
# 4 0.000000 0.000000 0.000000 0.039423 0.000000 0.002672
# 5 0.015409 -0.011847 -0.013238 0.000000 0.081376 0.000000
# 6 0.000000 0.000000 0.000000 0.002672 0.000000 0.037163
#
#
# Mechanical properties :
#
#
# Convention : Reuss Voigt Hill
#
# Bulk Modulus (GPa) = 22.21898 28.72700 25.47299
# Shear Modulus (GPa) = 12.78567 20.70559 16.74563
#
# Velocity S-wave (km/s) = 2.60551 3.31569 2.98182
# Velocity P-wave (km/s) = 4.56606 5.46912 5.03787
#
# Compressibility (1/GPa) = 0.04500656
#
# Stress axis : x y z
#
# Youngs Moduli (GPa) = 54.74777 14.40494 22.79668
#
# Poissons Ratio (x) = 0.28605 -0.04908
# Poissons Ratio (y) = 1.08718 0.58286
# Poissons Ratio (z) = -0.11786 0.36830
#
# Static dielectric constant tensor:
#      x y z
#    x 1.685370 0.000000 0.006610 
#    y 0.000000 1.624760 0.000000 
#    z 0.006610 0.000000 1.651940 
# 
# From -- ./inp_files/42755.got.cif
#   From: 2010.05.17/outbox.cif.g08.bks.cpg/sg11_22_cif.got.tgz:42755.got - 2010.06.03 12:22:45.
