data_PCOD9161588
_publ_section_title
;
Structure prediction by ZEFSAII (Michael W. Deem and Ramdas Pophale) SiO2 
 PCOD9161588
Probable space group: P 21/M
;
_chemical_formula_sum "Si O2"
_cell_formula_units_Z 32
_cell_length_a 11.858639
_cell_length_b 9.150160
_cell_length_c 17.664860
_cell_angle_alpha 90.000000
_cell_angle_beta 91.969474
_cell_angle_gamma 90.000000
_cell_volume 1915.654190
_symmetry_space_group_name_H-M "P 21/M"
_symmetry_group_IT_number 11
_symmetry_cell_setting 'monoclinic'
loop_
_space_group_symop_operation_xyz
x,y,z
-x,1/2+y,-z
-x,-y,-z
x,1/2-y,z
loop_
_atom_site_type_symbol
_atom_site_label
_atom_site_fract_x
_atom_site_fract_y
_atom_site_fract_z
Si Si1 0.118482 0.073977 0.517872
Si Si2 0.348054 0.415596 0.058784
Si Si3 0.231975 0.426140 0.682029
Si Si4 0.460344 0.082346 0.614757
Si Si5 0.226016 0.575605 0.834674
Si Si6 0.117089 0.426809 0.978826
Si Si7 0.555484 0.584311 0.111158
Si Si8 0.659684 0.581916 0.553780
O O1 0.111310 0.250000 0.510709
O O2 0.162287 0.044177 0.603948
O O3 0.215943 0.022347 0.461679
O O4 0.000000 0.000000 0.500000
O O5 0.353181 0.250000 0.089019
O O6 0.428660 0.522957 0.107161
O O7 0.218172 0.457968 0.041323
O O8 0.401738 0.410832 0.975267
O O9 0.231043 0.250000 0.694289
O O10 0.361660 0.471993 0.667528
O O11 0.187677 0.512417 0.753175
O O12 0.483095 0.250000 0.634389
O O13 0.402162 0.079945 0.529929
O O14 0.577325 0.998685 0.609460
O O15 0.216973 0.750000 0.839702
O O16 0.158285 0.497130 0.900844
O O17 0.355750 0.522632 0.847304
O O18 0.109251 0.250000 0.972198
O O19 0.000000 0.500000 0.000000
O O20 0.563016 0.750000 0.141149
O O21 0.669922 0.750000 0.577020
#
# Coordination Sequence:
#
# PCOD9161588 Si02
#       8
#     4   4   4   4   4   4   4   4
#     4   9  18  31  48  70  97 130 166 205 246 291
#     4   8  15  27  44  68  95 121 151 189 231 277
#     4   9  18  33  49  68  97 128 159 201 252 300
#     4   8  14  25  43  65  88 116 147 181 227 281
#     4  11  21  32  49  73  99 128 164 206 253 302
#     4  10  20  34  52  74 101 133 169 208 248 293
#     4   9  16  27  45  68  94 123 152 187 235 286
#     4   8  14  25  41  64  92 117 144 183 230 274
#
# _framework density 16.704477000000001
#
# number of rings (size 3 to 8) (size 9 to 14) (size 15 to 20)
#    0.000    3.000    0.000    4.125    0.000    5.000 
#    0.000    2.500    0.000    1.500    0.000    7.000 
#    0.000    0.000    0.000    0.000    0.000    0.000 
#
# Total GULP energy -178159.050529 kJ/mol
# GULP energy per Si atom -5567.470329 kJ/mol
# Density = 1.666646 g / cm^3
# Si number density = 16.704477 Si / 1000 Ang^3
#
#
#
# Elastic Constant Matrix: (Units=GPa)
#
#
# Indices 1 2 3 4 5 6 
#
# 1 145.6098 58.2740 34.2326 0.0000 -6.1647 0.0000
# 2 58.2740 72.7275 32.3263 0.0000 -2.9015 0.0000
# 3 34.2326 32.3263 47.2955 0.0000 -7.1441 0.0000
# 4 0.0000 0.0000 0.0000 18.5588 0.0000 -0.8280
# 5 -6.1647 -2.9015 -7.1441 0.0000 12.9803 0.0000
# 6 0.0000 0.0000 0.0000 -0.8280 0.0000 31.7557
#
#
#
# Elastic Compliance Matrix: (Units=1/GPa)
#
#
# Indices 1 2 3 4 5 6 
#
# 1 0.010380 -0.007231 -0.002258 0.000000 0.002071 0.000000
# 2 -0.007231 0.024917 -0.012515 0.000000 -0.004752 0.000000
# 3 -0.002258 -0.012515 0.033535 0.000000 0.014587 0.000000
# 4 0.000000 0.000000 0.000000 0.053946 0.000000 0.001407
# 5 0.002071 -0.004752 0.014587 0.000000 0.084989 0.000000
# 6 0.000000 0.000000 0.000000 0.001407 0.000000 0.031527
#
#
# Mechanical properties :
#
#
# Convention : Reuss Voigt Hill
#
# Bulk Modulus (GPa) = 40.28211 57.25539 48.76875
# Shear Modulus (GPa) = 17.14814 22.04560 19.59687
#
# Velocity S-wave (km/s) = 3.20747 3.63677 3.42885
# Velocity P-wave (km/s) = 6.15500 7.21004 6.70331
#
# Compressibility (1/GPa) = 0.02482492
#
# Stress axis : x y z
#
# Youngs Moduli (GPa) = 96.33860 40.13346 29.81933
#
# Poissons Ratio (x) = 0.29020 0.06733
# Poissons Ratio (y) = 0.69662 0.37318
# Poissons Ratio (z) = 0.21753 0.50226
#
# Static dielectric constant tensor:
#      x y z
#    x 1.573770 0.000000 -0.000030 
#    y 0.000000 1.560820 0.000000 
#    z -0.000030 0.000000 1.575410 
# 
# From -- ./inp_files/58713.got.cif
#   From: 2010.05.17/outbox.cif.g08.bks.cpg/sg11_30_cif.got.tgz:58713.got - 2010.06.03 12:22:45.
