data_PCOD9161844
_publ_section_title
;
Structure prediction by ZEFSAII (Michael W. Deem and Ramdas Pophale) SiO2 
 PCOD9161844
Probable space group: P 21/M
;
_chemical_formula_sum "Si O2"
_cell_formula_units_Z 32
_cell_length_a 8.984330
_cell_length_b 14.056675
_cell_length_c 23.760128
_cell_angle_alpha 90.000000
_cell_angle_beta 32.805594
_cell_angle_gamma 90.000000
_cell_volume 1625.729479
_symmetry_space_group_name_H-M "P 21/M"
_symmetry_group_IT_number 11
_symmetry_cell_setting 'monoclinic'
loop_
_space_group_symop_operation_xyz
x,y,z
-x,1/2+y,-z
-x,-y,-z
x,1/2-y,z
loop_
_atom_site_type_symbol
_atom_site_label
_atom_site_fract_x
_atom_site_fract_y
_atom_site_fract_z
Si Si1 0.767018 0.863454 0.563776
Si Si2 0.780481 0.860604 0.246094
Si Si3 0.716388 0.465538 0.336969
Si Si4 0.973541 0.863078 0.863447
Si Si5 0.713520 0.362852 0.667997
Si Si6 0.507707 0.363112 0.230101
Si Si7 0.196096 0.506416 0.256361
Si Si8 0.631522 0.362672 0.903242
O O1 0.722794 0.750000 0.573589
O O2 0.571416 0.913253 0.579958
O O3 0.670626 0.889944 0.657264
O O4 0.082013 0.883174 0.448969
O O5 0.722693 0.750000 0.275191
O O6 0.596040 0.889080 0.251565
O O7 0.108179 0.871647 0.137580
O O8 0.686161 0.925243 0.327849
O O9 0.907656 0.418202 0.227669
O O10 0.897834 0.463888 0.335224
O O11 0.993936 0.750000 0.845463
O O12 0.178809 0.881848 0.850435
O O13 0.660016 0.885954 0.976738
O O14 0.723594 0.250000 0.676067
O O15 0.815567 0.420406 0.688649
O O16 0.477153 0.250000 0.230425
O O17 0.399029 0.423433 0.212525
O O18 0.305558 0.567000 0.168401
O O19 0.623351 0.250000 0.888466
#
# Coordination Sequence:
#
# PCOD9161844 Si02
#       8
#     4   4   4   4   4   4   4   4
#     4   9  19  37  59  78 101 138 180 217 255 308
#     4   9  19  34  52  74 102 139 180 214 247 302
#     4  10  20  34  55  80 106 136 175 217 261 313
#     4   9  18  36  60  78 100 140 182 217 256 308
#     4  10  20  36  57  79 104 137 176 217 262 311
#     4   9  19  35  53  78 108 138 177 220 260 306
#     4  11  22  32  51  80 113 142 166 213 269 314
#     4   9  19  37  57  78 106 139 176 218 262 308
#
# _framework density 19.683471999999998
#
# number of rings (size 3 to 8) (size 9 to 14) (size 15 to 20)
#    0.000    2.500    0.000    3.000    0.000    6.500 
#    0.000    2.500    0.000   11.250    0.000    0.000 
#    0.000    0.000    0.000    0.000    0.000    0.000 
#
# Total GULP energy -178533.584763 kJ/mol
# GULP energy per Si atom -5579.174524 kJ/mol
# Density = 1.963867 g / cm^3
# Si number density = 19.683472 Si / 1000 Ang^3
#
#
#
# Elastic Constant Matrix: (Units=GPa)
#
#
# Indices 1 2 3 4 5 6 
#
# 1 120.4242 35.5347 29.0630 0.0000 -24.4984 0.0000
# 2 35.5347 64.2413 21.6443 0.0000 -12.4439 0.0000
# 3 29.0630 21.6443 62.8841 0.0000 -17.0896 0.0000
# 4 0.0000 0.0000 0.0000 17.4205 0.0000 -5.2259
# 5 -24.4984 -12.4439 -17.0896 0.0000 18.0743 0.0000
# 6 0.0000 0.0000 0.0000 -5.2259 0.0000 34.9161
#
#
#
# Elastic Compliance Matrix: (Units=1/GPa)
#
#
# Indices 1 2 3 4 5 6 
#
# 1 0.012375 -0.004023 -0.000712 0.000000 0.013330 0.000000
# 2 -0.004023 0.019970 -0.003714 0.000000 0.004784 0.000000
# 3 -0.000712 -0.003714 0.022277 0.000000 0.017541 0.000000
# 4 0.000000 0.000000 0.000000 0.060102 0.000000 0.008996
# 5 0.013330 0.004784 0.017541 0.000000 0.093274 0.000000
# 6 0.000000 0.000000 0.000000 0.008996 0.000000 0.029986
#
#
# Mechanical properties :
#
#
# Convention : Reuss Voigt Hill
#
# Bulk Modulus (GPa) = 26.50877 46.67037 36.58957
# Shear Modulus (GPa) = 18.69467 24.83603 21.76535
#
# Velocity S-wave (km/s) = 3.08517 3.55599 3.32892
# Velocity P-wave (km/s) = 5.11740 6.37354 5.77970
#
# Compressibility (1/GPa) = 0.03772337
#
# Stress axis : x y z
#
# Youngs Moduli (GPa) = 80.81016 50.07590 44.89017
#
# Poissons Ratio (x) = 0.20146 0.03195
# Poissons Ratio (y) = 0.32510 0.16672
# Poissons Ratio (z) = 0.05752 0.18598
#
# Static dielectric constant tensor:
#      x y z
#    x 1.688540 0.000000 -0.031100 
#    y 0.000000 1.731000 0.000000 
#    z -0.031100 0.000000 1.685750 
# 
# From -- ./inp_files/68136.got.cif
#   From: 2010.05.17/outbox.cif.g08.bks.cpg/sg11_35_cif.got.tgz:68136.got - 2010.06.03 12:22:45.
