data_PCOD9161771
_publ_section_title
;
Structure prediction by ZEFSAII (Michael W. Deem and Ramdas Pophale) SiO2 
 PCOD9161771
Probable space group: P 21/M
;
_chemical_formula_sum "Si O2"
_cell_formula_units_Z 32
_cell_length_a 16.316983
_cell_length_b 8.792901
_cell_length_c 26.434126
_cell_angle_alpha 90.000000
_cell_angle_beta 28.834787
_cell_angle_gamma 90.000000
_cell_volume 1829.116321
_symmetry_space_group_name_H-M "P 21/M"
_symmetry_group_IT_number 11
_symmetry_cell_setting 'monoclinic'
loop_
_space_group_symop_operation_xyz
x,y,z
-x,1/2+y,-z
-x,-y,-z
x,1/2-y,z
loop_
_atom_site_type_symbol
_atom_site_label
_atom_site_fract_x
_atom_site_fract_y
_atom_site_fract_z
Si Si1 0.164017 0.432686 0.849512
Si Si2 0.341365 0.067252 0.648885
Si Si3 0.480032 0.932428 0.165865
Si Si4 0.599067 0.931877 0.898844
Si Si5 0.230045 0.931246 0.920847
Si Si6 0.733357 0.068704 0.417313
Si Si7 0.098683 0.932021 0.399476
Si Si8 0.034255 0.932531 0.320337
O O1 0.181137 0.250000 0.846338
O O2 0.254174 0.477074 0.748618
O O3 0.241744 0.512798 0.856658
O O4 0.962863 0.467793 0.957471
O O5 0.324173 0.250000 0.652278
O O6 0.542359 0.031658 0.539563
O O7 0.259771 0.987442 0.644321
O O8 0.482463 0.750000 0.158677
O O9 0.297811 0.975176 0.289081
O O10 0.483162 0.008556 0.108986
O O11 0.632867 0.987654 0.118138
O O12 0.596645 0.750000 0.901575
O O13 0.792481 0.992547 0.793581
O O14 0.500000 0.000000 0.000000
O O15 0.252461 0.750000 0.911412
O O16 0.755492 0.250000 0.407683
O O17 0.874393 0.988248 0.374926
O O18 0.091020 0.750000 0.407270
O O19 0.021017 0.975675 0.386862
O O20 0.000000 0.000000 0.500000
O O21 0.051196 0.750000 0.308454
#
# Coordination Sequence:
#
# PCOD9161771 Si02
#       8
#     4   4   4   4   4   4   4   4
#     4   9  19  36  55  76 105 140 177 218 266 317
#     4   9  19  36  55  75 105 143 179 220 270 323
#     4  10  21  38  56  78 110 145 180 220 268 319
#     4  11  22  38  59  83 110 141 179 222 267 317
#     4  10  20  34  54  80 107 138 178 222 268 316
#     4  10  20  34  54  80 106 137 179 223 269 320
#     4   9  20  36  55  78 105 139 177 220 268 317
#     4  10  21  38  56  78 110 145 179 219 269 321
#
# _framework density 17.494786999999999
#
# number of rings (size 3 to 8) (size 9 to 14) (size 15 to 20)
#    0.000    2.250    0.000    3.375    0.000    6.500 
#    0.000    7.500    0.000    0.000    0.000    0.000 
#    0.000    0.000    0.000    0.000    0.000    0.000 
#
# Total GULP energy -178644.104744 kJ/mol
# GULP energy per Si atom -5582.628273 kJ/mol
# Density = 1.745497 g / cm^3
# Si number density = 17.494787 Si / 1000 Ang^3
#
#
#
# Elastic Constant Matrix: (Units=GPa)
#
#
# Indices 1 2 3 4 5 6 
#
# 1 160.8438 72.8238 100.3673 0.0000 -2.3541 0.0000
# 2 72.8238 77.7814 57.4590 0.0000 2.5585 0.0000
# 3 100.3673 57.4590 123.0000 0.0000 31.4776 0.0000
# 4 0.0000 0.0000 0.0000 29.2790 0.0000 1.1760
# 5 -2.3541 2.5585 31.4776 0.0000 30.4658 0.0000
# 6 0.0000 0.0000 0.0000 1.1760 0.0000 37.5421
#
#
#
# Elastic Compliance Matrix: (Units=1/GPa)
#
#
# Indices 1 2 3 4 5 6 
#
# 1 0.024236 -0.005868 -0.023982 0.000000 0.027144 0.000000
# 2 -0.005868 0.023966 -0.007852 0.000000 0.005647 0.000000
# 3 -0.023982 -0.007852 0.043057 0.000000 -0.045681 0.000000
# 4 0.000000 0.000000 0.000000 0.034197 0.000000 -0.001071
# 5 0.027144 0.005647 -0.045681 0.000000 0.081645 0.000000
# 6 0.000000 0.000000 0.000000 -0.001071 0.000000 0.026670
#
#
# Mechanical properties :
#
#
# Convention : Reuss Voigt Hill
#
# Bulk Modulus (GPa) = 63.07039 91.43613 77.25326
# Shear Modulus (GPa) = 15.90026 28.18905 22.04466
#
# Velocity S-wave (km/s) = 3.01800 4.01843 3.55360
# Velocity P-wave (km/s) = 6.94792 8.59701 7.81608
#
# Compressibility (1/GPa) = 0.01585530
#
# Stress axis : x y z
#
# Youngs Moduli (GPa) = 41.26076 41.72652 23.22486
#
# Poissons Ratio (x) = 0.24487 0.55697
# Poissons Ratio (y) = 0.24214 0.18236
# Poissons Ratio (z) = 0.98950 0.32763
#
# Static dielectric constant tensor:
#      x y z
#    x 1.564270 0.000000 -0.000920 
#    y 0.000000 1.586920 0.000000 
#    z -0.000920 0.000000 1.579940 
# 
# From -- ./inp_files/69023.got.cif
#   From: 2010.05.17/outbox.cif.g08.bks.cpg/sg11_35_cif.got.tgz:69023.got - 2010.06.03 12:22:45.
