data_PCOD9161180
_publ_section_title
;
Structure prediction by ZEFSAII (Michael W. Deem and Ramdas Pophale) SiO2 
 PCOD9161180
Probable space group: P 21/M
;
_chemical_formula_sum "Si O2"
_cell_formula_units_Z 24
_cell_length_a 22.084793
_cell_length_b 7.541640
_cell_length_c 23.332752
_cell_angle_alpha 90.000000
_cell_angle_beta 18.304920
_cell_angle_gamma 90.000000
_cell_volume 1220.554164
_symmetry_space_group_name_H-M "P 21/M"
_symmetry_group_IT_number 11
_symmetry_cell_setting 'monoclinic'
loop_
_space_group_symop_operation_xyz
x,y,z
-x,1/2+y,-z
-x,-y,-z
x,1/2-y,z
loop_
_atom_site_type_symbol
_atom_site_label
_atom_site_fract_x
_atom_site_fract_y
_atom_site_fract_z
Si Si1 0.872394 0.966530 0.293316
Si Si2 0.540389 0.466819 0.292162
Si Si3 0.068524 0.961922 0.002166
Si Si4 0.612310 0.041718 0.986443
Si Si5 0.217304 0.538947 0.285618
Si Si6 0.266547 0.966499 0.998321
O O1 0.868024 0.750000 0.297162
O O2 0.666415 0.028565 0.500485
O O3 0.926382 0.025283 0.180435
O O4 0.050539 0.018081 0.173952
O O5 0.537485 0.250000 0.295305
O O6 0.716761 0.524916 0.174421
O O7 0.594687 0.520753 0.178699
O O8 0.074532 0.750000 0.002329
O O9 0.000000 0.000000 0.000000
O O10 0.660094 0.250000 0.945663
O O11 0.384847 0.026132 0.177709
O O12 0.725223 0.968070 0.829349
O O13 0.670805 0.967993 0.995633
O O14 0.238426 0.750000 0.264812
O O15 0.000000 0.500000 0.500000
O O16 0.271179 0.750000 0.994731
#
# Coordination Sequence:
#
# PCOD9161180 Si02
#       6
#     4   4   4   4   4   4
#     4   8  14  25  41  63  89 112 138 178 223 262
#     4   8  14  25  42  64  89 113 140 180 224 262
#     4   9  17  28  42  62  86 113 145 178 215 259
#     4   9  18  32  50  73  97 121 154 195 237 280
#     4  10  20  33  49  70  98 129 159 193 232 276
#     4   8  14  25  43  67  89 110 143 185 225 265
#
# _framework density 19.6632
#
# number of rings (size 3 to 8) (size 9 to 14) (size 15 to 20)
#    0.000    3.333    0.000    2.500    0.000    2.667 
#    0.000    5.000    0.000    4.000    0.000    0.000 
#    0.000    0.000    0.000    0.000    0.000    0.000 
#
# Total GULP energy -133786.765999 kJ/mol
# GULP energy per Si atom -5574.448583 kJ/mol
# Density = 1.961845 g / cm^3
# Si number density = 19.663200 Si / 1000 Ang^3
#
#
#
# Elastic Constant Matrix: (Units=GPa)
#
#
# Indices 1 2 3 4 5 6 
#
# 1 213.5686 1.2578 114.4567 0.0000 11.1686 0.0000
# 2 1.2578 44.2293 -2.3479 0.0000 3.3452 0.0000
# 3 114.4567 -2.3479 203.3791 0.0000 -2.4510 0.0000
# 4 0.0000 0.0000 0.0000 2.3395 0.0000 -3.4301
# 5 11.1686 3.3452 -2.4510 0.0000 8.4557 0.0000
# 6 0.0000 0.0000 0.0000 -3.4301 0.0000 16.0047
#
#
#
# Elastic Compliance Matrix: (Units=1/GPa)
#
#
# Indices 1 2 3 4 5 6 
#
# 1 0.007672 0.000422 -0.004453 0.000000 -0.011592 0.000000
# 2 0.000422 0.023335 -0.000086 0.000000 -0.009814 0.000000
# 3 -0.004453 -0.000086 0.007519 0.000000 0.008095 0.000000
# 4 0.000000 0.000000 0.000000 0.623274 0.000000 0.133578
# 5 -0.011592 -0.009814 0.008095 0.000000 0.139803 0.000000
# 6 0.000000 0.000000 0.000000 0.133578 0.000000 0.091109
#
#
# Mechanical properties :
#
#
# Convention : Reuss Voigt Hill
#
# Bulk Modulus (GPa) = 33.01099 76.43446 54.72273
# Shear Modulus (GPa) = 5.48820 28.54735 17.01778
#
# Velocity S-wave (km/s) = 1.67247 3.81440 2.94507
# Velocity P-wave (km/s) = 4.53367 7.63910 6.28132
#
# Compressibility (1/GPa) = 0.03029294
#
# Stress axis : x y z
#
# Youngs Moduli (GPa) = 130.33912 42.85377 132.99109
#
# Poissons Ratio (x) = -0.01809 0.59216
# Poissons Ratio (y) = -0.05502 0.01150
# Poissons Ratio (z) = 0.58035 0.00371
#
# Static dielectric constant tensor:
#      x y z
#    x 1.680350 0.000000 0.015900 
#    y 0.000000 1.754900 0.000000 
#    z 0.015900 0.000000 1.673200 
# 
# From -- ./inp_files/66385.got.cif
#   From: 2010.05.17/outbox.cif.g08.bks.cpg/sg11_34_cif.got.tgz:66385.got - 2010.06.03 12:22:45.
