data_PCOD9161243
_publ_section_title
;
Structure prediction by ZEFSAII (Michael W. Deem and Ramdas Pophale) SiO2 
 PCOD9161243
Probable space group: P 21/M
;
_chemical_formula_sum "Si O2"
_cell_formula_units_Z 32
_cell_length_a 15.852377
_cell_length_b 8.834979
_cell_length_c 23.001170
_cell_angle_alpha 90.000000
_cell_angle_beta 32.663475
_cell_angle_gamma 90.000000
_cell_volume 1738.622469
_symmetry_space_group_name_H-M "P 21/M"
_symmetry_group_IT_number 11
_symmetry_cell_setting 'monoclinic'
loop_
_space_group_symop_operation_xyz
x,y,z
-x,1/2+y,-z
-x,-y,-z
x,1/2-y,z
loop_
_atom_site_type_symbol
_atom_site_label
_atom_site_fract_x
_atom_site_fract_y
_atom_site_fract_z
Si Si1 0.227764 0.417562 0.516523
Si Si2 0.455509 0.071714 0.686213
Si Si3 0.458191 0.575203 0.238380
Si Si4 0.899420 0.422569 0.509585
Si Si5 0.359753 0.570095 0.622336
Si Si6 0.068003 0.420755 0.732807
Si Si7 0.748673 0.930800 0.873098
Si Si8 0.459146 0.431072 0.111521
O O1 0.285906 0.250000 0.464974
O O2 0.363312 0.540749 0.434255
O O3 0.094713 0.474936 0.550783
O O4 0.163407 0.408425 0.617706
O O5 0.420711 0.250000 0.703058
O O6 0.443135 0.024243 0.761568
O O7 0.374158 0.983008 0.681062
O O8 0.501906 0.750000 0.200413
O O9 0.279200 0.575912 0.364323
O O10 0.460602 0.480701 0.177851
O O11 0.946329 0.250000 0.470800
O O12 0.000000 0.500000 0.500000
O O13 0.500000 0.500000 0.500000
O O14 0.377073 0.750000 0.608174
O O15 0.187647 0.517273 0.702099
O O16 0.045478 0.250000 0.769415
O O17 0.903451 0.493303 0.809722
O O18 0.766219 0.750000 0.865762
O O19 0.695536 0.969971 0.837396
O O20 0.602789 0.985645 0.996610
O O21 0.478865 0.250000 0.095876
#
# Coordination Sequence:
#
# PCOD9161243 Si02
#       8
#     4   4   4   4   4   4   4   4
#     4  10  20  33  50  74 107 147 187 227 275 326
#     4  10  20  36  56  80 112 149 190 232 274 330
#     4   9  20  36  55  79 108 146 185 228 279 332
#     4  10  21  34  48  71 106 146 187 229 275 329
#     4  12  23  36  57  83 115 154 193 235 283 338
#     4  11  23  37  56  83 114 150 189 235 285 337
#     4  10  22  39  59  85 115 148 188 236 286 339
#     4  10  21  38  61  87 112 146 188 235 286 339
#
# _framework density 18.405376
#
# number of rings (size 3 to 8) (size 9 to 14) (size 15 to 20)
#    0.000    1.750    1.250    4.125    1.750    6.000 
#    0.000    0.000    0.000    0.750    0.000    0.000 
#    0.000    0.000    0.000    0.000    0.000    0.000 
#
# Total GULP energy -178363.102055 kJ/mol
# GULP energy per Si atom -5573.846939 kJ/mol
# Density = 1.836348 g / cm^3
# Si number density = 18.405376 Si / 1000 Ang^3
#
#
#
# Elastic Constant Matrix: (Units=GPa)
#
#
# Indices 1 2 3 4 5 6 
#
# 1 166.0168 59.9453 30.7337 0.0000 -10.8679 0.0000
# 2 59.9453 96.1954 18.8678 0.0000 -1.9984 0.0000
# 3 30.7337 18.8678 34.5454 0.0000 -10.2198 0.0000
# 4 0.0000 0.0000 0.0000 26.4910 0.0000 0.0408
# 5 -10.8679 -1.9984 -10.2198 0.0000 25.7370 0.0000
# 6 0.0000 0.0000 0.0000 0.0408 0.0000 32.5436
#
#
#
# Elastic Compliance Matrix: (Units=1/GPa)
#
#
# Indices 1 2 3 4 5 6 
#
# 1 0.008590 -0.004373 -0.004851 0.000000 0.001361 0.000000
# 2 -0.004373 0.013946 -0.004479 0.000000 -0.002542 0.000000
# 3 -0.004851 -0.004479 0.039659 0.000000 0.013352 0.000000
# 4 0.000000 0.000000 0.000000 0.037749 0.000000 -0.000047
# 5 0.001361 -0.002542 0.013352 0.000000 0.044534 0.000000
# 6 0.000000 0.000000 0.000000 -0.000047 0.000000 0.030728
#
#
# Mechanical properties :
#
#
# Convention : Reuss Voigt Hill
#
# Bulk Modulus (GPa) = 28.74369 57.31680 43.03025
# Shear Modulus (GPa) = 23.34194 29.43504 26.38849
#
# Velocity S-wave (km/s) = 3.56506 4.00342 3.79058
# Velocity P-wave (km/s) = 5.70939 7.25112 6.52594
#
# Compressibility (1/GPa) = 0.03479024
#
# Stress axis : x y z
#
# Youngs Moduli (GPa) = 116.42009 71.70397 25.21498
#
# Poissons Ratio (x) = 0.31356 0.12231
# Poissons Ratio (y) = 0.50911 0.11293
# Poissons Ratio (z) = 0.56471 0.32114
#
# Static dielectric constant tensor:
#      x y z
#    x 1.677940 0.000000 -0.001030 
#    y 0.000000 1.670890 0.000000 
#    z -0.001030 0.000000 1.616200 
# 
# From -- ./inp_files/68974.got.cif
#   From: 2010.05.17/outbox.cif.g08.bks.cpg/sg11_35_cif.got.tgz:68974.got - 2010.06.03 12:22:45.
