data_PCOD9161083
_publ_section_title
;
Structure prediction by ZEFSAII (Michael W. Deem and Ramdas Pophale) SiO2 
 PCOD9161083
Probable space group: P 21/M
;
_chemical_formula_sum "Si O2"
_cell_formula_units_Z 24
_cell_length_a 5.147630
_cell_length_b 15.563492
_cell_length_c 14.737312
_cell_angle_alpha 90.000000
_cell_angle_beta 92.487276
_cell_angle_gamma 90.000000
_cell_volume 1179.568861
_symmetry_space_group_name_H-M "P 21/M"
_symmetry_group_IT_number 11
_symmetry_cell_setting 'monoclinic'
loop_
_space_group_symop_operation_xyz
x,y,z
-x,1/2+y,-z
-x,-y,-z
x,1/2-y,z
loop_
_atom_site_type_symbol
_atom_site_label
_atom_site_fract_x
_atom_site_fract_y
_atom_site_fract_z
Si Si1 0.754837 0.948946 0.035734
Si Si2 0.821823 0.448921 0.199760
Si Si3 0.548368 0.750000 0.604964
Si Si4 0.811559 0.065224 0.550702
Si Si5 0.971365 0.250000 0.517850
Si Si6 0.688732 0.848945 0.868699
Si Si7 0.504567 0.433593 0.365559
O O1 0.781511 0.961885 0.144014
O O2 0.740920 0.862143 0.977823
O O3 0.500000 0.000000 0.000000
O O4 0.000000 0.000000 0.000000
O O5 0.599252 0.384542 0.157111
O O6 0.743993 0.454876 0.303673
O O7 0.099837 0.408639 0.179689
O O8 0.247903 0.750000 0.566126
O O9 0.597729 0.838449 0.659299
O O10 0.748069 0.750000 0.524382
O O11 0.930357 0.159493 0.568932
O O12 0.588402 0.079968 0.471501
O O13 0.691445 0.013401 0.633041
O O14 0.000000 0.000000 0.500000
O O15 0.718898 0.750000 0.846325
#
# Coordination Sequence:
#
# PCOD9161083 Si02
#       7
#     4   4   2   4   2   4   4
#     4   8  16  33  51  70 100 139 171 197 252 314
#     4  10  21  34  52  80 110 141 173 221 264 323
#     4  10  20  32  50  78 108 132 169 229 276 320
#     4  10  20  37  55  76 106 150 187 223 275 326
#     4  10  20  36  54  74  98 138 185 225 266 320
#     4  10  20  33  53  82 110 139 171 215 269 325
#     4  10  22  34  53  81 111 144 183 225 277 324
#
# _framework density 20.346418
#
# number of rings (size 3 to 8) (size 9 to 14) (size 15 to 20)
#    0.000    2.333    1.667    0.500    4.667    0.000 
#    0.000    0.000    1.833    0.000    0.000    0.000 
#    0.000    0.000    0.000    0.000    0.000    0.000 
#
# Total GULP energy -133703.131615 kJ/mol
# GULP energy per Si atom -5570.963817 kJ/mol
# Density = 2.030011 g / cm^3
# Si number density = 20.346418 Si / 1000 Ang^3
#
#
#
# Elastic Constant Matrix: (Units=GPa)
#
#
# Indices 1 2 3 4 5 6 
#
# 1 78.3461 10.8946 -1.4597 0.0000 -5.7317 0.0000
# 2 10.8946 108.4488 28.0356 0.0000 -9.1462 0.0000
# 3 -1.4597 28.0356 66.7633 0.0000 -11.4749 0.0000
# 4 0.0000 0.0000 0.0000 28.2985 0.0000 -5.3312
# 5 -5.7317 -9.1462 -11.4749 0.0000 29.3073 0.0000
# 6 0.0000 0.0000 0.0000 -5.3312 0.0000 22.5958
#
#
#
# Elastic Compliance Matrix: (Units=1/GPa)
#
#
# Indices 1 2 3 4 5 6 
#
# 1 0.013185 -0.001451 0.001354 0.000000 0.002656 0.000000
# 2 -0.001451 0.010577 -0.004240 0.000000 0.001357 0.000000
# 3 0.001354 -0.004240 0.017805 0.000000 0.005913 0.000000
# 4 0.000000 0.000000 0.000000 0.036981 0.000000 0.008725
# 5 0.002656 0.001357 0.005913 0.000000 0.037379 0.000000
# 6 0.000000 0.000000 0.000000 0.008725 0.000000 0.046315
#
#
# Mechanical properties :
#
#
# Convention : Reuss Voigt Hill
#
# Bulk Modulus (GPa) = 30.40114 36.49992 33.45053
# Shear Modulus (GPa) = 27.49058 30.44615 28.96836
#
# Velocity S-wave (km/s) = 3.67975 3.87251 3.77736
# Velocity P-wave (km/s) = 5.74703 6.16225 5.95826
#
# Compressibility (1/GPa) = 0.03289350
#
# Stress axis : x y z
#
# Youngs Moduli (GPa) = 75.84307 94.54253 56.16506
#
# Poissons Ratio (x) = 0.13714 -0.07604
# Poissons Ratio (y) = 0.11002 0.23815
# Poissons Ratio (z) = -0.10268 0.40087
#
# Static dielectric constant tensor:
#      x y z
#    x 1.746510 0.000000 0.050280 
#    y 0.000000 1.765500 0.000000 
#    z 0.050280 0.000000 1.814130 
# 
# From -- ./inp_files/4643.got.cif
#   From: 2010.05.17/outbox.cif.g08.bks.cpg/sg11_3_cif.got.tgz:4643.got - 2010.06.03 12:22:45.
