data_PCOD9161660
_publ_section_title
;
Structure prediction by ZEFSAII (Michael W. Deem and Ramdas Pophale) SiO2 
 PCOD9161660
Probable space group: P 21/M
;
_chemical_formula_sum "Si O2"
_cell_formula_units_Z 32
_cell_length_a 26.808289
_cell_length_b 8.888580
_cell_length_c 13.217578
_cell_angle_alpha 90.000000
_cell_angle_beta 147.335913
_cell_angle_gamma 90.000000
_cell_volume 1699.871319
_symmetry_space_group_name_H-M "P 21/M"
_symmetry_group_IT_number 11
_symmetry_cell_setting 'monoclinic'
loop_
_space_group_symop_operation_xyz
x,y,z
-x,1/2+y,-z
-x,-y,-z
x,1/2-y,z
loop_
_atom_site_type_symbol
_atom_site_label
_atom_site_fract_x
_atom_site_fract_y
_atom_site_fract_z
Si Si1 0.097853 0.569898 0.863789
Si Si2 0.078541 0.932560 0.061028
Si Si3 0.375082 0.425668 0.033597
Si Si4 0.528567 0.928586 0.158315
Si Si5 0.764150 0.081347 0.344765
Si Si6 0.723453 0.076654 0.511681
Si Si7 0.758291 0.070430 0.042813
Si Si8 0.074234 0.922332 0.513963
O O1 0.102662 0.750000 0.874441
O O2 0.196239 0.518276 0.985299
O O3 0.015023 0.524170 0.647215
O O4 0.073542 0.518051 0.935192
O O5 0.071223 0.750000 0.053214
O O6 0.182442 0.973095 0.273730
O O7 0.000000 0.000000 0.000000
O O8 0.394540 0.250000 0.076160
O O9 0.295668 0.457597 0.814261
O O10 0.330554 0.490222 0.060956
O O11 0.461431 0.511610 0.132048
O O12 0.520058 0.750000 0.133474
O O13 0.632044 0.977554 0.364476
O O14 0.500000 0.000000 0.000000
O O15 0.044957 0.750000 0.479747
O O16 0.746793 0.077468 0.432726
O O17 0.870775 0.064971 0.498300
O O18 0.703147 0.250000 0.507730
O O19 0.741449 0.250000 0.010157
O O20 0.843619 0.045079 0.266967
O O21 0.263695 0.750000 0.740940
#
# Coordination Sequence:
#
# PCOD9161660 Si02
#       8
#     4   4   4   4   4   4   4   4
#     4  10  20  34  53  76 104 141 186 233 278 327
#     4  10  22  39  58  82 112 150 192 234 279 325
#     4  11  21  33  52  80 110 141 176 218 271 330
#     4  12  23  36  56  84 116 147 181 223 276 335
#     4   9  17  30  48  71 105 145 179 217 269 326
#     4  10  20  35  55  78 110 150 189 229 277 329
#     4   9  19  35  52  73 106 145 182 226 281 333
#     4   9  17  29  48  75 106 142 180 221 277 331
#
# _framework density 18.824954000000002
#
# number of rings (size 3 to 8) (size 9 to 14) (size 15 to 20)
#    0.000    2.000    1.250    4.125    0.000    4.500 
#    0.000    0.000    0.000    0.750    0.000    0.000 
#    0.000    0.000    0.000    0.000    0.000    0.000 
#
# Total GULP energy -178424.594704 kJ/mol
# GULP energy per Si atom -5575.768584 kJ/mol
# Density = 1.878211 g / cm^3
# Si number density = 18.824954 Si / 1000 Ang^3
#
#
#
# Elastic Constant Matrix: (Units=GPa)
#
#
# Indices 1 2 3 4 5 6 
#
# 1 124.6117 50.1912 32.2162 0.0000 29.4277 0.0000
# 2 50.1912 74.5425 35.4670 0.0000 18.8438 0.0000
# 3 32.2162 35.4670 68.7342 0.0000 18.9622 0.0000
# 4 0.0000 0.0000 0.0000 23.5789 0.0000 9.4377
# 5 29.4277 18.8438 18.9622 0.0000 27.7115 0.0000
# 6 0.0000 0.0000 0.0000 9.4377 0.0000 24.0135
#
#
#
# Elastic Compliance Matrix: (Units=1/GPa)
#
#
# Indices 1 2 3 4 5 6 
#
# 1 0.012725 -0.006120 -0.000279 0.000000 -0.009161 0.000000
# 2 -0.006120 0.021958 -0.007563 0.000000 -0.003257 0.000000
# 3 -0.000279 -0.007563 0.021057 0.000000 -0.008969 0.000000
# 4 0.000000 0.000000 0.000000 0.050328 0.000000 -0.019780
# 5 -0.009161 -0.003257 -0.008969 0.000000 0.054166 0.000000
# 6 0.000000 0.000000 0.000000 -0.019780 0.000000 0.049417
#
#
# Mechanical properties :
#
#
# Convention : Reuss Voigt Hill
#
# Bulk Modulus (GPa) = 35.95169 55.95970 45.95570
# Shear Modulus (GPa) = 20.25543 25.06170 22.65857
#
# Velocity S-wave (km/s) = 3.28378 3.65266 3.47312
# Velocity P-wave (km/s) = 5.78939 6.89783 6.36777
#
# Compressibility (1/GPa) = 0.02781510
#
# Stress axis : x y z
#
# Youngs Moduli (GPa) = 78.58280 45.54238 47.49070
#
# Poissons Ratio (x) = 0.27870 0.01327
# Poissons Ratio (y) = 0.48089 0.35919
# Poissons Ratio (z) = 0.02196 0.34445
#
# Static dielectric constant tensor:
#      x y z
#    x 1.715890 0.000000 0.002450 
#    y 0.000000 1.653880 0.000000 
#    z 0.002450 0.000000 1.651740 
# 
# From -- ./inp_files/56194.got.cif
#   From: 2010.05.17/outbox.cif.g08.bks.cpg/sg11_29_cif.got.tgz:56194.got - 2010.06.03 12:22:45.
