data_PCOD9161700
_publ_section_title
;
Structure prediction by ZEFSAII (Michael W. Deem and Ramdas Pophale) SiO2 
 PCOD9161700
Probable space group: P 21/M
;
_chemical_formula_sum "Si O2"
_cell_formula_units_Z 32
_cell_length_a 14.342783
_cell_length_b 12.024563
_cell_length_c 14.510818
_cell_angle_alpha 90.000000
_cell_angle_beta 138.813990
_cell_angle_gamma 90.000000
_cell_volume 1647.988505
_symmetry_space_group_name_H-M "P 21/M"
_symmetry_group_IT_number 11
_symmetry_cell_setting 'monoclinic'
loop_
_space_group_symop_operation_xyz
x,y,z
-x,1/2+y,-z
-x,-y,-z
x,1/2-y,z
loop_
_atom_site_type_symbol
_atom_site_label
_atom_site_fract_x
_atom_site_fract_y
_atom_site_fract_z
Si Si1 0.741002 0.379881 0.079848
Si Si2 0.721797 0.927326 0.702734
Si Si3 0.461686 0.118280 0.755546
Si Si4 0.538218 0.374664 0.612987
Si Si5 0.051120 0.377391 0.995582
Si Si6 0.233038 0.005374 0.715503
Si Si7 0.954303 0.377504 0.564720
Si Si8 0.027481 0.495613 0.236486
O O1 0.745150 0.250000 0.107114
O O2 0.710984 0.452037 0.148582
O O3 0.891978 0.417980 0.152514
O O4 0.618210 0.396227 0.913797
O O5 0.579880 0.875832 0.554630
O O6 0.789633 0.876625 0.845099
O O7 0.672691 0.052758 0.686627
O O8 0.846115 0.929608 0.719399
O O9 0.426744 0.250000 0.731015
O O10 0.466227 0.080017 0.652823
O O11 0.352411 0.054461 0.738643
O O12 0.583795 0.250000 0.666887
O O13 0.995733 0.250000 0.975639
O O14 0.000000 0.500000 0.000000
O O15 0.024019 0.403930 0.868516
O O16 0.115930 0.097625 0.655114
O O17 0.145300 0.913307 0.593477
O O18 0.934400 0.250000 0.573944
O O19 0.924724 0.455613 0.630322
#
# Coordination Sequence:
#
# PCOD9161700 Si02
#       8
#     4   4   4   4   4   4   4   4
#     4  10  21  36  57  86 114 145 187 232 280 340
#     4  10  21  37  56  81 114 149 188 237 288 340
#     4  10  20  36  57  80 110 147 188 233 282 337
#     4  10  21  36  56  82 111 148 194 239 286 346
#     4  10  21  36  56  82 112 148 189 233 282 337
#     4  10  20  35  55  80 111 144 181 228 280 334
#     4  10  20  34  53  79 109 142 182 226 276 335
#     4  10  21  36  57  82 113 148 186 233 283 339
#
# _framework density 19.417611000000001
#
# number of rings (size 3 to 8) (size 9 to 14) (size 15 to 20)
#    0.000    2.000    0.000    3.375    0.000    5.000 
#    0.000    4.375    0.000   10.500    0.000    0.000 
#    0.000    0.000    0.000    0.000    0.000    0.000 
#
# Total GULP energy -178396.341259 kJ/mol
# GULP energy per Si atom -5574.885664 kJ/mol
# Density = 1.937342 g / cm^3
# Si number density = 19.417611 Si / 1000 Ang^3
#
#
#
# Elastic Constant Matrix: (Units=GPa)
#
#
# Indices 1 2 3 4 5 6 
#
# 1 42.9268 -6.3163 -15.7179 0.0000 1.2497 0.0000
# 2 -6.3163 57.1441 -3.7377 0.0000 6.0506 0.0000
# 3 -15.7179 -3.7377 56.6918 0.0000 -8.7427 0.0000
# 4 0.0000 0.0000 0.0000 -0.4581 0.0000 -3.4069
# 5 1.2497 6.0506 -8.7427 0.0000 23.4281 0.0000
# 6 0.0000 0.0000 0.0000 -3.4069 0.0000 17.0586
#
#
#
# Elastic Compliance Matrix: (Units=1/GPa)
#
#
# Indices 1 2 3 4 5 6 
#
# 1 0.026590 0.003381 0.007684 0.000000 0.000576 0.000000
# 2 0.003381 0.018435 0.001476 0.000000 -0.004391 0.000000
# 3 0.007684 0.001476 0.020951 0.000000 0.007027 0.000000
# 4 0.000000 0.000000 0.000000 -0.878368 0.000000 -0.175426
# 5 0.000576 -0.004391 0.007027 0.000000 0.046409 0.000000
# 6 0.000000 0.000000 0.000000 -0.175426 0.000000 0.023586
#
#
# Mechanical properties :
#
#
# Convention : Reuss Voigt Hill
#
# Bulk Modulus (GPa) = 10.98244 11.69101 11.33672
# Shear Modulus (GPa) = -6.78310 20.17469 6.69579
#
# Velocity S-wave (km/s) = -1.87106 3.22683 1.85898
# Velocity P-wave (km/s) = 1.00019 4.46287 3.23400
#
# Compressibility (1/GPa) = 0.09105444
#
# Stress axis : x y z
#
# Youngs Moduli (GPa) = 37.60877 54.24556 47.73151
#
# Poissons Ratio (x) = -0.18338 -0.36675
# Poissons Ratio (y) = -0.12714 -0.07043
# Poissons Ratio (z) = -0.28897 -0.08004
#
# Static dielectric constant tensor:
#      x y z
#    x 1.667910 0.000000 -0.012150 
#    y 0.000000 1.691630 0.000000 
#    z -0.012150 0.000000 1.680860 
# 
# From -- ./inp_files/52318.got.cif
#   From: 2010.05.17/outbox.cif.g08.bks.cpg/sg11_27_cif.got.tgz:52318.got - 2010.06.03 12:22:45.
