data_PCOD9161098
_publ_section_title
;
Structure prediction by ZEFSAII (Michael W. Deem and Ramdas Pophale) SiO2 
 PCOD9161098
Probable space group: P 21/M
;
_chemical_formula_sum "Si O2"
_cell_formula_units_Z 32
_cell_length_a 22.397254
_cell_length_b 7.382469
_cell_length_c 13.680973
_cell_angle_alpha 90.000000
_cell_angle_beta 34.199482
_cell_angle_gamma 90.000000
_cell_volume 1271.476559
_symmetry_space_group_name_H-M "P 21/M"
_symmetry_group_IT_number 11
_symmetry_cell_setting 'monoclinic'
loop_
_space_group_symop_operation_xyz
x,y,z
-x,1/2+y,-z
-x,-y,-z
x,1/2-y,z
loop_
_atom_site_type_symbol
_atom_site_label
_atom_site_fract_x
_atom_site_fract_y
_atom_site_fract_z
Si Si1 0.275137 0.029512 0.753556
Si Si2 0.067570 0.533834 0.312098
Si Si3 0.469857 0.531452 0.183629
Si Si4 0.117110 0.034179 0.799145
Si Si5 0.514805 0.540401 0.621785
Si Si6 0.885285 0.527505 0.420629
Si Si7 0.675686 0.957032 0.803663
Si Si8 0.282320 0.542437 0.959538
O O1 0.274325 0.250000 0.756280
O O2 0.201657 0.966628 0.764069
O O3 0.396247 0.966215 0.570813
O O4 0.238251 0.961839 0.908451
O O5 0.078395 0.750000 0.286528
O O6 0.000000 0.500000 0.500000
O O7 0.996302 0.469593 0.317753
O O8 0.187759 0.461208 0.151777
O O9 0.468977 0.750000 0.179810
O O10 0.436367 0.469740 0.335643
O O11 0.391776 0.460977 0.205949
O O12 0.590300 0.466401 0.996153
O O13 0.132364 0.250000 0.772865
O O14 0.128063 0.966611 0.673125
O O15 0.000000 0.000000 0.000000
O O16 0.500458 0.750000 0.614403
O O17 0.398527 0.455082 0.792124
O O18 0.882095 0.750000 0.425196
O O19 0.789133 0.463702 0.620909
O O20 0.693987 0.750000 0.808413
O O21 0.299548 0.750000 0.967526
#
# Coordination Sequence:
#
# PCOD9161098 Si02
#       8
#     4   4   4   4   4   4   4   4
#     4  10  21  37  59  86 114 150 192 231 282 343
#     4  10  22  39  59  84 113 149 191 233 282 334
#     4  10  20  32  51  82 111 141 185 232 280 330
#     4  10  20  35  57  83 110 144 184 227 279 336
#     4  10  21  37  57  80 113 153 190 229 281 340
#     4   9  18  35  58  78 104 145 186 218 266 339
#     4   9  18  34  54  75 105 145 185 226 276 334
#     4  10  22  39  59  84 114 150 191 237 289 334
#
# _framework density 25.167589
#
# number of rings (size 3 to 8) (size 9 to 14) (size 15 to 20)
#    0.000    2.250    0.000    2.250    1.750    5.500 
#    0.000    3.125    0.000    0.000    0.000    0.000 
#    0.000    0.000    0.000    0.000    0.000    0.000 
#
# Total GULP energy -178990.475158 kJ/mol
# GULP energy per Si atom -5593.452349 kJ/mol
# Density = 2.511031 g / cm^3
# Si number density = 25.167589 Si / 1000 Ang^3
#
#
#
# Elastic Constant Matrix: (Units=GPa)
#
#
# Indices 1 2 3 4 5 6 
#
# 1 83.4846 6.6976 11.9722 0.0000 1.8266 0.0000
# 2 6.6976 107.0382 1.3005 0.0000 -5.6286 0.0000
# 3 11.9722 1.3005 159.4138 0.0000 -15.0671 0.0000
# 4 0.0000 0.0000 0.0000 11.6844 0.0000 3.2173
# 5 1.8266 -5.6286 -15.0671 0.0000 48.5072 0.0000
# 6 0.0000 0.0000 0.0000 3.2173 0.0000 15.8815
#
#
#
# Elastic Compliance Matrix: (Units=1/GPa)
#
#
# Indices 1 2 3 4 5 6 
#
# 1 0.012203 -0.000797 -0.000991 0.000000 -0.000860 0.000000
# 2 -0.000797 0.009452 0.000092 0.000000 0.001155 0.000000
# 3 -0.000991 0.000092 0.006543 0.000000 0.002080 0.000000
# 4 0.000000 0.000000 0.000000 0.090640 0.000000 -0.018362
# 5 -0.000860 0.001155 0.002080 0.000000 0.021428 0.000000
# 6 0.000000 0.000000 0.000000 -0.018362 0.000000 0.066686
#
#
# Mechanical properties :
#
#
# Convention : Reuss Voigt Hill
#
# Bulk Modulus (GPa) = 40.31242 43.31971 41.81606
# Shear Modulus (GPa) = 22.87137 37.21237 30.04187
#
# Velocity S-wave (km/s) = 3.01784 3.84941 3.45871
# Velocity P-wave (km/s) = 5.30994 6.08335 5.70976
#
# Compressibility (1/GPa) = 0.02480625
#
# Stress axis : x y z
#
# Youngs Moduli (GPa) = 81.94614 105.79831 152.82784
#
# Poissons Ratio (x) = 0.08429 0.15149
# Poissons Ratio (y) = 0.06529 -0.01405
# Poissons Ratio (z) = 0.08123 -0.00973
#
# Static dielectric constant tensor:
#      x y z
#    x 1.977200 0.000000 -0.029940 
#    y 0.000000 1.955770 0.000000 
#    z -0.029940 0.000000 1.988500 
# 
# From -- ./inp_files/55533.got.cif
#   From: 2010.05.17/outbox.cif.g08.bks.cpg/sg11_28_cif.got.tgz:55533.got - 2010.06.03 12:22:45.
