data_PCOD9161274
_publ_section_title
;
Structure prediction by ZEFSAII (Michael W. Deem and Ramdas Pophale) SiO2 
 PCOD9161274
Probable space group: P 21/M
;
_chemical_formula_sum "Si O2"
_cell_formula_units_Z 28
_cell_length_a 9.742840
_cell_length_b 8.080626
_cell_length_c 26.216593
_cell_angle_alpha 90.000000
_cell_angle_beta 139.418639
_cell_angle_gamma 90.000000
_cell_volume 1342.679251
_symmetry_space_group_name_H-M "P 21/M"
_symmetry_group_IT_number 11
_symmetry_cell_setting 'monoclinic'
loop_
_space_group_symop_operation_xyz
x,y,z
-x,1/2+y,-z
-x,-y,-z
x,1/2-y,z
loop_
_atom_site_type_symbol
_atom_site_label
_atom_site_fract_x
_atom_site_fract_y
_atom_site_fract_z
Si Si1 0.910944 0.946547 0.248268
Si Si2 0.370971 0.451110 0.737673
Si Si3 0.199579 0.054982 0.181384
Si Si4 0.852132 0.447863 0.004827
Si Si5 0.772964 0.550736 0.415950
Si Si6 0.576710 0.440992 0.076976
Si Si7 0.662238 0.443194 0.670452
O O1 0.932437 0.750000 0.262403
O O2 0.772143 0.011246 0.256077
O O3 0.147114 0.017195 0.308873
O O4 0.776128 0.971185 0.158810
O O5 0.386795 0.250000 0.744448
O O6 0.607212 0.521461 0.802824
O O7 0.267566 0.498787 0.654189
O O8 0.193298 0.250000 0.191844
O O9 0.983147 0.008258 0.092838
O O10 0.254282 0.956099 0.247771
O O11 0.822607 0.250000 0.995291
O O12 0.624400 0.530430 0.943056
O O13 0.000000 0.500000 0.000000
O O14 0.760889 0.750000 0.413337
O O15 0.574303 0.485527 0.393265
O O16 0.000000 0.500000 0.500000
O O17 0.631636 0.250000 0.088635
O O18 0.500000 0.500000 0.000000
O O19 0.642397 0.250000 0.650962
#
# Coordination Sequence:
#
# PCOD9161274 Si02
#       7
#     4   4   4   4   4   4   4
#     4  10  20  37  59  80 105 140 181 227 276 326
#     4   9  19  35  56  80 107 140 177 217 267 324
#     4  10  20  33  51  75 102 134 177 223 264 311
#     4  11  23  37  53  77 107 141 183 232 282 330
#     4   9  18  34  55  81 110 140 174 212 256 314
#     4  12  25  39  55  78 110 148 189 234 281 331
#     4   9  19  35  56  79 103 135 174 213 261 320
#
# _framework density 20.853826000000002
#
# number of rings (size 3 to 8) (size 9 to 14) (size 15 to 20)
#    0.000    2.000    0.000    4.714    0.000   10.286 
#    0.000    0.714    0.000    0.000    0.000    0.000 
#    0.000    0.000    0.000    0.000    0.000    0.000 
#
# Total GULP energy -156384.288645 kJ/mol
# GULP energy per Si atom -5585.153166 kJ/mol
# Density = 2.080636 g / cm^3
# Si number density = 20.853826 Si / 1000 Ang^3
#
#
#
# Elastic Constant Matrix: (Units=GPa)
#
#
# Indices 1 2 3 4 5 6 
#
# 1 107.0772 -3.8566 23.9531 0.0000 28.9205 0.0000
# 2 -3.8566 13.9520 -0.9904 0.0000 0.9483 0.0000
# 3 23.9531 -0.9904 90.3250 0.0000 31.1749 0.0000
# 4 0.0000 0.0000 0.0000 25.1180 0.0000 3.9282
# 5 28.9205 0.9483 31.1749 0.0000 33.4391 0.0000
# 6 0.0000 0.0000 0.0000 3.9282 0.0000 16.6576
#
#
#
# Elastic Compliance Matrix: (Units=1/GPa)
#
#
# Indices 1 2 3 4 5 6 
#
# 1 0.012457 0.004284 0.000743 0.000000 -0.011588 0.000000
# 2 0.004284 0.073583 0.002462 0.000000 -0.008087 0.000000
# 3 0.000743 0.002462 0.016435 0.000000 -0.016035 0.000000
# 4 0.000000 0.000000 0.000000 0.041337 0.000000 -0.009748
# 5 -0.011588 -0.008087 -0.016035 0.000000 0.055106 0.000000
# 6 0.000000 0.000000 0.000000 -0.009748 0.000000 0.062332
#
#
# Mechanical properties :
#
#
# Convention : Reuss Voigt Hill
#
# Bulk Modulus (GPa) = 8.51410 27.72961 18.12185
# Shear Modulus (GPa) = 17.51789 27.85947 22.68868
#
# Velocity S-wave (km/s) = 2.90148 3.65902 3.30204
# Velocity P-wave (km/s) = 3.91361 5.58366 4.82149
#
# Compressibility (1/GPa) = 0.11745229
#
# Stress axis : x y z
#
# Youngs Moduli (GPa) = 80.27693 13.59012 60.84416
#
# Poissons Ratio (x) = -0.05822 -0.04520
# Poissons Ratio (y) = -0.34388 -0.14979
# Poissons Ratio (z) = -0.05964 -0.03346
#
# Static dielectric constant tensor:
#      x y z
#    x 1.807740 0.000000 0.022570 
#    y 0.000000 1.740530 0.000000 
#    z 0.022570 0.000000 1.694650 
# 
# From -- ./inp_files/28289.got.cif
#   From: 2010.05.17/outbox.cif.g08.bks.cpg/sg11_15_cif.got.tgz:28289.got - 2010.06.03 12:22:45.
