data_PCOD9161049
_publ_section_title
;
Structure prediction by ZEFSAII (Michael W. Deem and Ramdas Pophale) SiO2 
 PCOD9161049
Probable space group: P 21/M
;
_chemical_formula_sum "Si O2"
_cell_formula_units_Z 32
_cell_length_a 14.706167
_cell_length_b 8.921060
_cell_length_c 26.771135
_cell_angle_alpha 90.000000
_cell_angle_beta 144.646148
_cell_angle_gamma 90.000000
_cell_volume 2032.261176
_symmetry_space_group_name_H-M "P 21/M"
_symmetry_group_IT_number 11
_symmetry_cell_setting 'monoclinic'
loop_
_space_group_symop_operation_xyz
x,y,z
-x,1/2+y,-z
-x,-y,-z
x,1/2-y,z
loop_
_atom_site_type_symbol
_atom_site_label
_atom_site_fract_x
_atom_site_fract_y
_atom_site_fract_z
Si Si1 0.326275 0.428291 0.415304
Si Si2 0.514123 0.078514 0.349895
Si Si3 0.200110 0.427136 0.467653
Si Si4 0.565038 0.075664 0.254042
Si Si5 0.079398 0.570327 0.584971
Si Si6 0.781651 0.427032 0.734776
Si Si7 0.050596 0.428205 0.101530
Si Si8 0.755163 0.427690 0.901732
O O1 0.500000 0.500000 0.500000
O O2 0.345857 0.250000 0.417370
O O3 0.225434 0.453554 0.420368
O O4 0.240378 0.498442 0.329094
O O5 0.472451 0.250000 0.344594
O O6 0.537396 0.070527 0.301261
O O7 0.674086 0.028707 0.447608
O O8 0.379143 0.968821 0.308373
O O9 0.235390 0.250000 0.492449
O O10 0.031915 0.457056 0.417266
O O11 0.557069 0.250000 0.234717
O O12 0.742243 0.017674 0.325785
O O13 0.419510 0.985843 0.166010
O O14 0.088201 0.750000 0.580601
O O15 0.000000 0.500000 0.500000
O O16 0.799205 0.250000 0.738026
O O17 0.915307 0.496018 0.830228
O O18 0.074109 0.250000 0.116011
O O19 0.172154 0.491226 0.114501
O O20 0.878340 0.457740 0.001537
O O21 0.753994 0.250000 0.891690
#
# Coordination Sequence:
#
# PCOD9161049 Si02
#       8
#     4   4   4   4   4   4   4   4
#     4  11  22  35  51  73 100 133 170 211 252 296
#     4  11  20  30  48  72 101 135 168 206 247 290
#     4  10  21  35  51  70  98 133 172 211 248 291
#     4  10  20  32  48  72 103 137 170 202 246 294
#     4  10  20  34  50  72  99 132 170 207 244 292
#     4  12  23  34  50  73  99 135 173 206 248 298
#     4  10  20  34  50  72 101 132 165 205 250 297
#     4  10  20  32  50  74 101 132 166 203 247 299
#
# _framework density 15.746009000000001
#
# number of rings (size 3 to 8) (size 9 to 14) (size 15 to 20)
#    0.000    1.500    3.750    2.625    0.000    3.000 
#    0.000    0.000    0.000    0.000    0.000    0.875 
#    0.000    0.000    0.000    0.000    0.000    0.000 
#
# Total GULP energy -178607.750615 kJ/mol
# GULP energy per Si atom -5581.492207 kJ/mol
# Density = 1.571017 g / cm^3
# Si number density = 15.746009 Si / 1000 Ang^3
#
#
#
# Elastic Constant Matrix: (Units=GPa)
#
#
# Indices 1 2 3 4 5 6 
#
# 1 82.1657 38.9212 52.8297 0.0000 3.3239 0.0000
# 2 38.9212 75.9377 62.1329 0.0000 -6.8281 0.0000
# 3 52.8297 62.1329 132.5043 0.0000 1.0074 0.0000
# 4 0.0000 0.0000 0.0000 27.6659 0.0000 0.8813
# 5 3.3239 -6.8281 1.0074 0.0000 22.8190 0.0000
# 6 0.0000 0.0000 0.0000 0.8813 0.0000 14.2266
#
#
#
# Elastic Compliance Matrix: (Units=1/GPa)
#
#
# Indices 1 2 3 4 5 6 
#
# 1 0.017982 -0.006100 -0.004277 0.000000 -0.004256 0.000000
# 2 -0.006100 0.024558 -0.009149 0.000000 0.008641 0.000000
# 3 -0.004277 -0.009149 0.013563 0.000000 -0.002714 0.000000
# 4 0.000000 0.000000 0.000000 0.036217 0.000000 -0.002243
# 5 -0.004256 0.008641 -0.002714 0.000000 0.047148 0.000000
# 6 0.000000 0.000000 0.000000 -0.002243 0.000000 0.070430
#
#
# Mechanical properties :
#
#
# Convention : Reuss Voigt Hill
#
# Bulk Modulus (GPa) = 58.64706 66.48615 62.56661
# Shear Modulus (GPa) = 19.63603 22.05722 20.84662
#
# Velocity S-wave (km/s) = 3.53519 3.74680 3.64253
# Velocity P-wave (km/s) = 7.34778 7.81242 7.58366
#
# Compressibility (1/GPa) = 0.01705115
#
# Stress axis : x y z
#
# Youngs Moduli (GPa) = 55.61126 40.71974 73.73041
#
# Poissons Ratio (x) = 0.24839 0.31533
# Poissons Ratio (y) = 0.33922 0.67458
# Poissons Ratio (z) = 0.23784 0.37256
#
# Static dielectric constant tensor:
#      x y z
#    x 1.514710 0.000000 0.007060 
#    y 0.000000 1.534690 0.000000 
#    z 0.007060 0.000000 1.535470 
# 
# From -- ./inp_files/56461.got.cif
#   From: 2010.05.17/outbox.cif.g08.bks.cpg/sg11_29_cif.got.tgz:56461.got - 2010.06.03 12:22:45.
