data_PCOD9161402
_publ_section_title
;
Structure prediction by ZEFSAII (Michael W. Deem and Ramdas Pophale) SiO2 
 PCOD9161402
Probable space group: P 21/M
;
_chemical_formula_sum "Si O2"
_cell_formula_units_Z 24
_cell_length_a 9.210271
_cell_length_b 22.260330
_cell_length_c 7.504378
_cell_angle_alpha 90.000000
_cell_angle_beta 36.924511
_cell_angle_gamma 90.000000
_cell_volume 924.317895
_symmetry_space_group_name_H-M "P 21/M"
_symmetry_group_IT_number 11
_symmetry_cell_setting 'monoclinic'
loop_
_space_group_symop_operation_xyz
x,y,z
-x,1/2+y,-z
-x,-y,-z
x,1/2-y,z
loop_
_atom_site_type_symbol
_atom_site_label
_atom_site_fract_x
_atom_site_fract_y
_atom_site_fract_z
Si Si1 0.360115 0.984522 0.903303
Si Si2 0.880347 0.423938 0.155012
Si Si3 0.620878 0.679672 0.962105
Si Si4 0.754110 0.621442 0.500554
Si Si5 0.498433 0.815686 0.463657
Si Si6 0.255283 0.577913 0.343584
O O1 0.240789 0.981363 0.825159
O O2 0.568583 0.933388 0.698353
O O3 0.502255 0.043861 0.818226
O O4 0.192339 0.957898 0.225623
O O5 0.685213 0.370411 0.363599
O O6 0.936142 0.432348 0.308907
O O7 0.057084 0.399368 0.831666
O O8 0.602684 0.750000 0.935603
O O9 0.804543 0.645386 0.649650
O O10 0.675582 0.677197 0.119819
O O11 0.362833 0.644253 0.197719
O O12 0.626096 0.677155 0.526875
O O13 0.383590 0.750000 0.557888
#
# Coordination Sequence:
#
# PCOD9161402 Si02
#       6
#     4   4   4   4   4   4
#     4   9  19  36  53  76 109 141 173 213 263 311
#     4  10  20  33  54  80 104 137 177 216 262 313
#     4   9  18  34  54  74 101 138 174 213 263 311
#     4  10  20  33  53  80 106 135 173 218 264 312
#     4   9  19  35  52  72 103 139 174 216 263 312
#     4   9  18  35  55  76 107 141 175 216 259 311
#
# _framework density 25.965091999999999
#
# number of rings (size 3 to 8) (size 9 to 14) (size 15 to 20)
#    0.000    2.667    0.000    1.000    0.000    3.333 
#    0.000    7.500    0.000    8.000    0.000    0.000 
#    0.000    0.000    0.000    0.000    0.000    0.000 
#
# Total GULP energy -134143.627344 kJ/mol
# GULP energy per Si atom -5589.317806 kJ/mol
# Density = 2.590599 g / cm^3
# Si number density = 25.965092 Si / 1000 Ang^3
#
#
#
# Elastic Constant Matrix: (Units=GPa)
#
#
# Indices 1 2 3 4 5 6 
#
# 1 90.1607 18.5789 22.3516 0.0000 36.7845 0.0000
# 2 18.5789 129.3380 40.3710 0.0000 18.6880 0.0000
# 3 22.3516 40.3710 166.4698 0.0000 51.8943 0.0000
# 4 0.0000 0.0000 0.0000 38.4857 0.0000 17.5454
# 5 36.7845 18.6880 51.8943 0.0000 39.0659 0.0000
# 6 0.0000 0.0000 0.0000 17.5454 0.0000 26.5605
#
#
#
# Elastic Compliance Matrix: (Units=1/GPa)
#
#
# Indices 1 2 3 4 5 6 
#
# 1 0.020795 -0.000918 0.005799 0.000000 -0.026845 0.000000
# 2 -0.000918 0.008521 -0.001608 0.000000 -0.001076 0.000000
# 3 0.005799 -0.001608 0.012085 0.000000 -0.020745 0.000000
# 4 0.000000 0.000000 0.000000 0.037181 0.000000 -0.024561
# 5 -0.026845 -0.001076 -0.020745 0.000000 0.078947 0.000000
# 6 0.000000 0.000000 0.000000 -0.024561 0.000000 0.053875
#
#
# Mechanical properties :
#
#
# Convention : Reuss Voigt Hill
#
# Bulk Modulus (GPa) = 20.85628 60.95239 40.90434
# Shear Modulus (GPa) = 22.64074 41.13353 31.88713
#
# Velocity S-wave (km/s) = 2.95611 3.98450 3.50819
# Velocity P-wave (km/s) = 4.43862 6.68536 5.67430
#
# Compressibility (1/GPa) = 0.04794718
#
# Stress axis : x y z
#
# Youngs Moduli (GPa) = 48.08762 117.35883 82.74481
#
# Poissons Ratio (x) = 0.10779 -0.47984
# Poissons Ratio (y) = 0.04417 0.13304
# Poissons Ratio (z) = -0.27886 0.18869
#
# Static dielectric constant tensor:
#      x y z
#    x 2.100140 0.000000 -0.003610 
#    y 0.000000 1.994680 0.000000 
#    z -0.003610 0.000000 2.108030 
# 
# From -- ./inp_files/14219.got.cif
#   From: 2010.05.17/outbox.cif.g08.bks.cpg/sg11_8_cif.got.tgz:14219.got - 2010.06.03 12:22:45.
