data_PCOD9161130
_publ_section_title
;
Structure prediction by ZEFSAII (Michael W. Deem and Ramdas Pophale) SiO2 
 PCOD9161130
Probable space group: P 21/M
;
_chemical_formula_sum "Si O2"
_cell_formula_units_Z 32
_cell_length_a 15.486542
_cell_length_b 8.879725
_cell_length_c 15.336402
_cell_angle_alpha 90.000000
_cell_angle_beta 100.746293
_cell_angle_gamma 90.000000
_cell_volume 2072.017510
_symmetry_space_group_name_H-M "P 21/M"
_symmetry_group_IT_number 11
_symmetry_cell_setting 'monoclinic'
loop_
_space_group_symop_operation_xyz
x,y,z
-x,1/2+y,-z
-x,-y,-z
x,1/2-y,z
loop_
_atom_site_type_symbol
_atom_site_label
_atom_site_fract_x
_atom_site_fract_y
_atom_site_fract_z
Si Si1 0.875669 0.070431 0.913833
Si Si2 0.875107 0.069427 0.627795
Si Si3 0.078146 0.429808 0.705296
Si Si4 0.611776 0.068549 0.439947
Si Si5 0.058197 0.570213 0.884671
Si Si6 0.416540 0.068683 0.375536
Si Si7 0.246257 0.430187 0.244807
Si Si8 0.802496 0.431121 0.421704
O O1 0.878583 0.250000 0.902898
O O2 0.791593 0.003606 0.849681
O O3 0.884610 0.036333 0.018229
O O4 0.962208 0.000179 0.884905
O O5 0.864469 0.250000 0.638197
O O6 0.843852 0.032707 0.524198
O O7 0.977444 0.031871 0.660217
O O8 0.816001 0.985760 0.687899
O O9 0.084163 0.250000 0.712146
O O10 0.094950 0.502158 0.802753
O O11 0.143461 0.491323 0.644481
O O12 0.614141 0.250000 0.448265
O O13 0.518272 0.025660 0.379843
O O14 0.700058 0.023109 0.406714
O O15 0.611431 0.001155 0.537113
O O16 0.049583 0.750000 0.875699
O O17 0.413267 0.250000 0.383022
O O18 0.345370 0.025013 0.289752
O O19 0.241293 0.250000 0.237337
O O20 0.807461 0.250000 0.411929
#
# Coordination Sequence:
#
# PCOD9161130 Si02
#       8
#     4   4   4   4   4   4   4   4
#     4  10  20  33  50  71  97 125 158 197 238 287
#     4  10  20  33  46  66  96 131 168 199 231 275
#     4  11  22  33  48  69  97 131 164 202 239 279
#     4   9  17  31  49  68  93 127 162 200 242 282
#     4  10  20  34  51  71  94 124 160 199 240 283
#     4   9  18  30  46  71  98 123 158 200 243 286
#     4  11  20  29  47  73 100 131 160 195 239 287
#     4  10  20  33  49  67  93 132 171 202 234 280
#
# _framework density 15.443884000000001
#
# number of rings (size 3 to 8) (size 9 to 14) (size 15 to 20)
#    0.000    2.000    2.500    1.875    0.000    3.500 
#    0.000    0.000    0.000    0.000    0.000    0.875 
#    0.000    0.000    0.000    0.000    0.000    0.000 
#
# Total GULP energy -178540.693031 kJ/mol
# GULP energy per Si atom -5579.396657 kJ/mol
# Density = 1.540873 g / cm^3
# Si number density = 15.443884 Si / 1000 Ang^3
#
#
#
# Elastic Constant Matrix: (Units=GPa)
#
#
# Indices 1 2 3 4 5 6 
#
# 1 101.8259 36.8732 66.1480 0.0000 16.5068 0.0000
# 2 36.8732 32.3666 41.6207 0.0000 6.1958 0.0000
# 3 66.1480 41.6207 108.1944 0.0000 16.7222 0.0000
# 4 0.0000 0.0000 0.0000 26.5460 0.0000 -1.6791
# 5 16.5068 6.1958 16.7222 0.0000 26.3175 0.0000
# 6 0.0000 0.0000 0.0000 -1.6791 0.0000 15.9379
#
#
#
# Elastic Compliance Matrix: (Units=1/GPa)
#
#
# Indices 1 2 3 4 5 6 
#
# 1 0.019362 -0.013603 -0.005791 0.000000 -0.005262 0.000000
# 2 -0.013603 0.070707 -0.019549 0.000000 0.004308 0.000000
# 3 -0.005791 -0.019549 0.021103 0.000000 -0.005174 0.000000
# 4 0.000000 0.000000 0.000000 0.037923 0.000000 0.003995
# 5 -0.005262 0.004308 -0.005174 0.000000 0.043572 0.000000
# 6 0.000000 0.000000 0.000000 0.003995 0.000000 0.063164
#
#
# Mechanical properties :
#
#
# Convention : Reuss Voigt Hill
#
# Bulk Modulus (GPa) = 30.04335 59.07452 44.55894
# Shear Modulus (GPa) = 14.50061 20.27662 17.38861
#
# Velocity S-wave (km/s) = 3.06751 3.62736 3.35912
# Velocity P-wave (km/s) = 5.66053 7.47514 6.63021
#
# Compressibility (1/GPa) = 0.03328523
#
# Stress axis : x y z
#
# Youngs Moduli (GPa) = 51.64814 14.14283 47.38651
#
# Poissons Ratio (x) = 0.19239 0.27442
# Poissons Ratio (y) = 0.70259 0.92635
# Poissons Ratio (z) = 0.29910 0.27648
#
# Static dielectric constant tensor:
#      x y z
#    x 1.511790 0.000000 0.029120 
#    y 0.000000 1.514150 0.000000 
#    z 0.029120 0.000000 1.504110 
# 
# From -- ./inp_files/51186.got.cif
#   From: 2010.05.17/outbox.cif.g08.bks.cpg/sg11_26_cif.got.tgz:51186.got - 2010.06.03 12:22:45.
