data_PCOD9161005
_publ_section_title
;
Structure prediction by ZEFSAII (Michael W. Deem and Ramdas Pophale) SiO2 
 PCOD9161005
Probable space group: P 21/M
;
_chemical_formula_sum "Si O2"
_cell_formula_units_Z 28
_cell_length_a 21.698775
_cell_length_b 9.402161
_cell_length_c 11.416793
_cell_angle_alpha 90.000000
_cell_angle_beta 49.820231
_cell_angle_gamma 90.000000
_cell_volume 1779.565452
_symmetry_space_group_name_H-M "P 21/M"
_symmetry_group_IT_number 11
_symmetry_cell_setting 'monoclinic'
loop_
_space_group_symop_operation_xyz
x,y,z
-x,1/2+y,-z
-x,-y,-z
x,1/2-y,z
loop_
_atom_site_type_symbol
_atom_site_label
_atom_site_fract_x
_atom_site_fract_y
_atom_site_fract_z
Si Si1 0.781991 0.418386 0.968437
Si Si2 0.060009 0.086129 0.264950
Si Si3 0.095511 0.086115 0.502079
Si Si4 0.573114 0.079539 0.847620
Si Si5 0.616876 0.079659 0.287927
Si Si6 0.468113 0.919327 0.366372
Si Si7 0.746943 0.081573 0.736294
O O1 0.798800 0.250000 0.962886
O O2 0.863098 0.508047 0.885131
O O3 0.752991 0.437783 0.869252
O O4 0.707511 0.460708 0.142136
O O5 0.052793 0.250000 0.237425
O O6 0.076685 0.085352 0.385124
O O7 0.977493 0.999566 0.349148
O O8 0.098297 0.250000 0.536227
O O9 0.180713 0.007131 0.409749
O O10 0.563969 0.250000 0.873906
O O11 0.568685 0.047831 0.714759
O O12 0.659285 0.039462 0.796758
O O13 0.500000 0.000000 0.000000
O O14 0.610400 0.250000 0.278847
O O15 0.591387 0.046608 0.452545
O O16 0.551018 0.002592 0.287715
O O17 0.484075 0.750000 0.351505
O O18 0.758729 0.250000 0.698859
#
# Coordination Sequence:
#
# PCOD9161005 Si02
#       7
#     4   4   4   4   4   4   4
#     4   9  16  26  41  61  85 113 144 176 212 257
#     4   9  16  25  39  60  86 113 139 171 212 256
#     4   9  16  26  40  59  84 113 143 173 208 254
#     4  10  20  32  46  65  90 119 150 184 220 260
#     4   9  17  30  47  65  87 116 148 183 223 263
#     4   9  18  31  46  65  88 115 149 186 222 260
#     4   9  17  28  41  59  85 116 146 175 212 257
#
# _framework density 15.734178999999999
#
# number of rings (size 3 to 8) (size 9 to 14) (size 15 to 20)
#    0.000    2.857    0.000    1.714    0.000    6.286 
#    0.000    2.857    0.000    0.000    0.000    1.000 
#    0.000    0.000    0.000    0.000    0.000    0.000 
#
# Total GULP energy -156017.136637 kJ/mol
# GULP energy per Si atom -5572.040594 kJ/mol
# Density = 1.569837 g / cm^3
# Si number density = 15.734179 Si / 1000 Ang^3
#
#
#
# Elastic Constant Matrix: (Units=GPa)
#
#
# Indices 1 2 3 4 5 6 
#
# 1 75.4555 45.9979 48.5300 0.0000 -28.1825 0.0000
# 2 45.9979 66.7273 58.7380 0.0000 -26.1582 0.0000
# 3 48.5300 58.7380 103.7362 0.0000 -41.0832 0.0000
# 4 0.0000 0.0000 0.0000 25.2113 0.0000 -9.8574
# 5 -28.1825 -26.1582 -41.0832 0.0000 30.7250 0.0000
# 6 0.0000 0.0000 0.0000 -9.8574 0.0000 21.5363
#
#
#
# Elastic Compliance Matrix: (Units=1/GPa)
#
#
# Indices 1 2 3 4 5 6 
#
# 1 0.025846 -0.013142 0.000654 0.000000 0.013393 0.000000
# 2 -0.013142 0.037089 -0.015137 0.000000 -0.000719 0.000000
# 3 0.000654 -0.015137 0.027715 0.000000 0.024772 0.000000
# 4 0.000000 0.000000 0.000000 0.048311 0.000000 0.022112
# 5 0.013393 -0.000719 0.024772 0.000000 0.077343 0.000000
# 6 0.000000 0.000000 0.000000 0.022112 0.000000 0.056554
#
#
# Mechanical properties :
#
#
# Convention : Reuss Voigt Hill
#
# Bulk Modulus (GPa) = 28.24852 61.38343 44.81598
# Shear Modulus (GPa) = 14.70992 21.67141 18.19066
#
# Velocity S-wave (km/s) = 3.06093 3.71529 3.40387
# Velocity P-wave (km/s) = 5.52132 7.58301 6.63276
#
# Compressibility (1/GPa) = 0.03540008
#
# Stress axis : x y z
#
# Youngs Moduli (GPa) = 38.69089 26.96235 36.08154
#
# Poissons Ratio (x) = 0.35435 -0.02362
# Poissons Ratio (y) = 0.50849 0.54616
# Poissons Ratio (z) = -0.02532 0.40813
#
# Static dielectric constant tensor:
#      x y z
#    x 1.501020 0.000000 0.001450 
#    y 0.000000 1.527170 0.000000 
#    z 0.001450 0.000000 1.519120 
# 
# From -- ./inp_files/37693.got.cif
#   From: 2010.05.17/outbox.cif.g08.bks.cpg/sg11_19_cif.got.tgz:37693.got - 2010.06.03 12:22:45.
