data_PCOD9161873
_publ_section_title
;
Structure prediction by ZEFSAII (Michael W. Deem and Ramdas Pophale) SiO2 
 PCOD9161873
Probable space group: P 21/M
;
_chemical_formula_sum "Si O2"
_cell_formula_units_Z 28
_cell_length_a 11.552568
_cell_length_b 13.876204
_cell_length_c 9.079745
_cell_angle_alpha 90.000000
_cell_angle_beta 114.465438
_cell_angle_gamma 90.000000
_cell_volume 1324.844977
_symmetry_space_group_name_H-M "P 21/M"
_symmetry_group_IT_number 11
_symmetry_cell_setting 'monoclinic'
loop_
_space_group_symop_operation_xyz
x,y,z
-x,1/2+y,-z
-x,-y,-z
x,1/2-y,z
loop_
_atom_site_type_symbol
_atom_site_label
_atom_site_fract_x
_atom_site_fract_y
_atom_site_fract_z
Si Si1 0.233108 0.357333 0.607946
Si Si2 0.087588 0.361861 0.843205
Si Si3 0.277859 0.465715 0.147178
Si Si4 0.249958 0.637010 0.914508
Si Si5 0.363808 0.989133 0.502307
Si Si6 0.455789 0.638647 0.773453
Si Si7 0.006994 0.453827 0.341927
O O1 0.283254 0.250000 0.615801
O O2 0.179347 0.366279 0.745909
O O3 0.337191 0.435869 0.619613
O O4 0.119461 0.377827 0.431497
O O5 0.042817 0.250000 0.829814
O O6 0.990442 0.450687 0.761665
O O7 0.170578 0.393659 0.027739
O O8 0.274496 0.485308 0.318927
O O9 0.414908 0.421894 0.172736
O O10 0.261968 0.567933 0.059778
O O11 0.243084 0.750000 0.945127
O O12 0.371005 0.620225 0.872434
O O13 0.121374 0.602508 0.765685
O O14 0.500000 0.000000 0.500000
O O15 0.366056 0.887543 0.586201
O O16 0.491433 0.750000 0.789596
O O17 0.000000 0.500000 0.500000
#
# Coordination Sequence:
#
# PCOD9161873 Si02
#       7
#     4   4   4   4   4   4   4
#     4  10  20  36  58  80 106 145 186 221 264 321
#     4   9  18  33  56  85 112 140 179 226 270 315
#     4  10  20  35  54  77 109 143 178 220 267 324
#     4  10  20  34  55  82 109 138 174 223 276 320
#     4  10  22  37  53  76 105 139 179 223 266 316
#     4  10  20  35  55  77 105 141 180 221 268 321
#     4   9  17  32  55  81 110 138 177 226 265 315
#
# _framework density 21.134549
#
# number of rings (size 3 to 8) (size 9 to 14) (size 15 to 20)
#    0.000    2.286    0.000    3.857    0.000    5.143 
#    0.000    8.571    0.000    1.714    0.000    0.000 
#    0.000    0.000    0.000    0.000    0.000    0.000 
#
# Total GULP energy -156095.084666 kJ/mol
# GULP energy per Si atom -5574.824452 kJ/mol
# Density = 2.108645 g / cm^3
# Si number density = 21.134549 Si / 1000 Ang^3
#
#
#
# Elastic Constant Matrix: (Units=GPa)
#
#
# Indices 1 2 3 4 5 6 
#
# 1 27.1707 -3.2438 -18.3288 0.0000 6.5328 0.0000
# 2 -3.2438 76.7700 4.6013 0.0000 2.3596 0.0000
# 3 -18.3288 4.6013 75.7571 0.0000 2.4413 0.0000
# 4 0.0000 0.0000 0.0000 25.4414 0.0000 1.3193
# 5 6.5328 2.3596 2.4413 0.0000 15.0193 0.0000
# 6 0.0000 0.0000 0.0000 1.3193 0.0000 8.8871
#
#
#
# Elastic Compliance Matrix: (Units=1/GPa)
#
#
# Indices 1 2 3 4 5 6 
#
# 1 0.052065 0.002177 0.013275 0.000000 -0.025146 0.000000
# 2 0.002177 0.013221 -0.000180 0.000000 -0.002995 0.000000
# 3 0.013275 -0.000180 0.016695 0.000000 -0.008460 0.000000
# 4 0.000000 0.000000 0.000000 0.039611 0.000000 -0.005880
# 5 -0.025146 -0.002995 -0.008460 0.000000 0.079364 0.000000
# 6 0.000000 0.000000 0.000000 -0.005880 0.000000 0.113395
#
#
# Mechanical properties :
#
#
# Convention : Reuss Voigt Hill
#
# Bulk Modulus (GPa) = 8.88680 16.19500 12.54090
# Shear Modulus (GPa) = 15.56101 22.98084 19.27093
#
# Velocity S-wave (km/s) = 2.71640 3.30109 3.02291
# Velocity P-wave (km/s) = 3.74866 4.71265 4.25802
#
# Compressibility (1/GPa) = 0.11252641
#
# Stress axis : x y z
#
# Youngs Moduli (GPa) = 19.20660 75.63869 59.89682
#
# Poissons Ratio (x) = -0.16468 -0.79513
# Poissons Ratio (y) = -0.04182 0.01076
# Poissons Ratio (z) = -0.25497 0.01359
#
# Static dielectric constant tensor:
#      x y z
#    x 2.213370 0.000000 -0.300440 
#    y 0.000000 1.708240 0.000000 
#    z -0.300440 0.000000 2.041820 
# 
# From -- ./inp_files/21951.got.cif
#   From: 2010.05.17/outbox.cif.g08.bks.cpg/sg11_11_cif.got.tgz:21951.got - 2010.06.03 12:22:45.
