data_PCOD9161207
_publ_section_title
;
Structure prediction by ZEFSAII (Michael W. Deem and Ramdas Pophale) SiO2 
 PCOD9161207
Probable space group: P 21/M
;
_chemical_formula_sum "Si O2"
_cell_formula_units_Z 32
_cell_length_a 13.143207
_cell_length_b 7.747443
_cell_length_c 17.800444
_cell_angle_alpha 90.000000
_cell_angle_beta 88.702055
_cell_angle_gamma 90.000000
_cell_volume 1812.087348
_symmetry_space_group_name_H-M "P 21/M"
_symmetry_group_IT_number 11
_symmetry_cell_setting 'monoclinic'
loop_
_space_group_symop_operation_xyz
x,y,z
-x,1/2+y,-z
-x,-y,-z
x,1/2-y,z
loop_
_atom_site_type_symbol
_atom_site_label
_atom_site_fract_x
_atom_site_fract_y
_atom_site_fract_z
Si Si1 0.379920 0.957464 0.503048
Si Si2 0.884010 0.951313 0.069952
Si Si3 0.623669 0.457363 0.659960
Si Si4 0.383922 0.541184 0.666474
Si Si5 0.299550 0.951716 0.823944
Si Si6 0.892840 0.450304 0.904136
Si Si7 0.499724 0.043789 0.912195
Si Si8 0.299705 0.962214 0.182016
O O1 0.368120 0.750000 0.503254
O O2 0.341332 0.023048 0.422839
O O3 0.344285 0.020642 0.585524
O O4 0.500000 0.000000 0.500000
O O5 0.899922 0.750000 0.051259
O O6 0.992433 0.023019 0.097349
O O7 0.794604 0.966149 0.131142
O O8 0.856902 0.039308 0.991394
O O9 0.633672 0.250000 0.658550
O O10 0.503402 0.495507 0.671088
O O11 0.681678 0.519908 0.732850
O O12 0.378782 0.750000 0.667084
O O13 0.325009 0.476716 0.740763
O O14 0.275475 0.750000 0.816840
O O15 0.401359 0.969698 0.871909
O O16 0.902618 0.250000 0.882043
O O17 0.805236 0.525125 0.852862
O O18 0.494153 0.250000 0.904258
O O19 0.603382 0.984622 0.869842
O O20 0.500000 0.000000 0.000000
O O21 0.299004 0.750000 0.181020
#
# Coordination Sequence:
#
# PCOD9161207 Si02
#       8
#     4   4   4   4   4   4   4   4
#     4   8  14  24  40  61  86 115 147 179 215 262
#     4  10  20  33  50  69  87 113 154 198 234 272
#     4   9  15  26  44  65  89 117 146 179 221 271
#     4   9  17  28  41  62  91 121 150 182 219 261
#     4  11  21  32  46  64  92 126 156 188 226 265
#     4   9  18  34  52  68  89 115 147 191 239 279
#     4  11  21  32  46  66  94 123 153 183 222 278
#     4   9  17  29  46  67  90 116 144 180 225 273
#
# _framework density 17.659192999999998
#
# number of rings (size 3 to 8) (size 9 to 14) (size 15 to 20)
#    0.000    2.500    1.250    1.875    0.000    2.000 
#    0.000    1.250    0.000    0.000    0.000    0.875 
#    0.000    0.000    0.000    0.000    0.000    0.000 
#
# Total GULP energy -178347.729296 kJ/mol
# GULP energy per Si atom -5573.366541 kJ/mol
# Density = 1.761900 g / cm^3
# Si number density = 17.659193 Si / 1000 Ang^3
#
#
#
# Elastic Constant Matrix: (Units=GPa)
#
#
# Indices 1 2 3 4 5 6 
#
# 1 78.1079 -1.5528 65.5269 0.0000 12.5618 0.0000
# 2 -1.5528 28.3783 -7.3215 0.0000 2.8258 0.0000
# 3 65.5269 -7.3215 166.6267 0.0000 16.3407 0.0000
# 4 0.0000 0.0000 0.0000 8.7258 0.0000 5.3662
# 5 12.5618 2.8258 16.3407 0.0000 20.6211 0.0000
# 6 0.0000 0.0000 0.0000 5.3662 0.0000 -1.8309
#
#
#
# Elastic Compliance Matrix: (Units=1/GPa)
#
#
# Indices 1 2 3 4 5 6 
#
# 1 0.019858 -0.000133 -0.007189 0.000000 -0.006382 0.000000
# 2 -0.000133 0.036502 0.002319 0.000000 -0.006759 0.000000
# 3 -0.007189 0.002319 0.009251 0.000000 -0.003269 0.000000
# 4 0.000000 0.000000 0.000000 0.040895 0.000000 0.119855
# 5 -0.006382 -0.006759 -0.003269 0.000000 0.055898 0.000000
# 6 0.000000 0.000000 0.000000 0.119855 0.000000 -0.194894
#
#
# Mechanical properties :
#
#
# Convention : Reuss Voigt Hill
#
# Bulk Modulus (GPa) = 17.98397 42.93532 30.45964
# Shear Modulus (GPa) = -1266.18527 19.93389 -623.12569
#
# Velocity S-wave (km/s) = -26.80613 3.36342 -18.80500
# Velocity P-wave (km/s) = 30.78775 6.28089 21.31239
#
# Compressibility (1/GPa) = 0.05560509
#
# Stress axis : x y z
#
# Youngs Moduli (GPa) = 50.35840 27.39557 108.09528
#
# Poissons Ratio (x) = 0.00364 0.77711
# Poissons Ratio (y) = 0.00668 -0.25066
# Poissons Ratio (z) = 0.36203 -0.06353
#
# Static dielectric constant tensor:
#      x y z
#    x 1.595430 0.000000 0.006170 
#    y 0.000000 1.660310 0.000000 
#    z 0.006170 0.000000 1.644680 
# 
# From -- ./inp_files/58714.got.cif
#   From: 2010.05.17/outbox.cif.g08.bks.cpg/sg11_30_cif.got.tgz:58714.got - 2010.06.03 12:22:45.
