data_PCOD9161888
_publ_section_title
;
Structure prediction by ZEFSAII (Michael W. Deem and Ramdas Pophale) SiO2 
 PCOD9161888
Probable space group: P 21/M
;
_chemical_formula_sum "Si O2"
_cell_formula_units_Z 28
_cell_length_a 9.663497
_cell_length_b 8.931266
_cell_length_c 25.767151
_cell_angle_alpha 90.000000
_cell_angle_beta 140.232001
_cell_angle_gamma 90.000000
_cell_volume 1422.580502
_symmetry_space_group_name_H-M "P 21/M"
_symmetry_group_IT_number 11
_symmetry_cell_setting 'monoclinic'
loop_
_space_group_symop_operation_xyz
x,y,z
-x,1/2+y,-z
-x,-y,-z
x,1/2-y,z
loop_
_atom_site_type_symbol
_atom_site_label
_atom_site_fract_x
_atom_site_fract_y
_atom_site_fract_z
Si Si1 0.662912 0.069995 0.004644
Si Si2 0.563717 0.923658 0.684053
Si Si3 0.922840 0.421178 0.426306
Si Si4 0.529579 0.429897 0.848279
Si Si5 0.137525 0.570953 0.147030
Si Si6 0.605907 0.928797 0.581311
Si Si7 0.073554 0.569596 0.685443
O O1 0.662105 0.250000 0.009688
O O2 0.590783 0.031703 0.924996
O O3 0.500000 0.000000 0.000000
O O4 0.905078 0.007351 0.080640
O O5 0.639840 0.750000 0.703410
O O6 0.337215 0.924088 0.648769
O O7 0.515222 0.974702 0.611237
O O8 0.731998 0.022420 0.764048
O O9 0.997899 0.250000 0.450375
O O10 0.989476 0.487027 0.390377
O O11 0.000000 0.500000 0.500000
O O12 0.512727 0.250000 0.839633
O O13 0.714452 0.476016 0.859986
O O14 0.297598 0.499648 0.767902
O O15 0.110924 0.750000 0.137391
O O16 0.580752 0.750000 0.568747
O O17 0.862537 0.962401 0.658486
O O18 0.500000 0.000000 0.500000
O O19 0.100598 0.750000 0.690340
#
# Coordination Sequence:
#
# PCOD9161888 Si02
#       7
#     4   4   4   4   4   4   4
#     4  11  25  44  66  95 128 161 200 247 299 361
#     4  10  21  38  58  85 121 160 202 248 302 360
#     4  10  20  34  55  82 115 154 199 250 300 352
#     4  10  23  42  64  92 124 159 203 249 300 360
#     4  11  23  41  65  94 124 160 204 249 303 362
#     4  10  22  38  57  84 118 159 204 250 306 363
#     4  10  21  37  58  86 119 157 202 247 298 360
#
# _framework density 19.682539999999999
#
# number of rings (size 3 to 8) (size 9 to 14) (size 15 to 20)
#    0.000    1.714    1.429    2.143    2.000    4.000 
#    0.000    0.000    0.000    0.000    0.000    0.000 
#    0.000    0.000    0.000    0.000    0.000    0.000 
#
# Total GULP energy -156357.436534 kJ/mol
# GULP energy per Si atom -5584.194162 kJ/mol
# Density = 1.963774 g / cm^3
# Si number density = 19.682540 Si / 1000 Ang^3
#
#
#
# Elastic Constant Matrix: (Units=GPa)
#
#
# Indices 1 2 3 4 5 6 
#
# 1 97.6055 21.7799 22.4397 0.0000 -3.3737 0.0000
# 2 21.7799 35.8732 32.3275 0.0000 -3.7794 0.0000
# 3 22.4397 32.3275 95.5769 0.0000 -4.0785 0.0000
# 4 0.0000 0.0000 0.0000 38.9459 0.0000 -0.2184
# 5 -3.3737 -3.7794 -4.0785 0.0000 33.5794 0.0000
# 6 0.0000 0.0000 0.0000 -0.2184 0.0000 25.2696
#
#
#
# Elastic Compliance Matrix: (Units=1/GPa)
#
#
# Indices 1 2 3 4 5 6 
#
# 1 0.011872 -0.006719 -0.000499 0.000000 0.000376 0.000000
# 2 -0.006719 0.044180 -0.013251 0.000000 0.002688 0.000000
# 3 -0.000499 -0.013251 0.015074 0.000000 0.000289 0.000000
# 4 0.000000 0.000000 0.000000 0.025678 0.000000 0.000222
# 5 0.000376 0.002688 0.000289 0.000000 0.030156 0.000000
# 6 0.000000 0.000000 0.000000 0.000222 0.000000 0.039575
#
#
# Mechanical properties :
#
#
# Convention : Reuss Voigt Hill
#
# Bulk Modulus (GPa) = 33.12488 42.46109 37.79299
# Shear Modulus (GPa) = 22.98477 29.72622 26.35550
#
# Velocity S-wave (km/s) = 3.42098 3.89045 3.66324
# Velocity P-wave (km/s) = 5.69827 6.46534 6.09389
#
# Compressibility (1/GPa) = 0.03018878
#
# Stress axis : x y z
#
# Youngs Moduli (GPa) = 84.22985 22.63476 66.33864
#
# Poissons Ratio (x) = 0.15208 0.03309
# Poissons Ratio (y) = 0.56594 0.87905
# Poissons Ratio (z) = 0.04201 0.29993
#
# Static dielectric constant tensor:
#      x y z
#    x 1.693050 0.000000 -0.010570 
#    y 0.000000 1.676090 0.000000 
#    z -0.010570 0.000000 1.661300 
# 
# From -- ./inp_files/70736.got.cif
#   From: 2010.05.17/outbox.cif.g08.bks.cpg/sg11_36_cif.got.tgz:70736.got - 2010.06.03 12:22:45.
