data_PCOD9161670
_publ_section_title
;
Structure prediction by ZEFSAII (Michael W. Deem and Ramdas Pophale) SiO2 
 PCOD9161670
Probable space group: P 21/M
;
_chemical_formula_sum "Si O2"
_cell_formula_units_Z 32
_cell_length_a 23.389898
_cell_length_b 7.924460
_cell_length_c 28.514318
_cell_angle_alpha 90.000000
_cell_angle_beta 17.594484
_cell_angle_gamma 90.000000
_cell_volume 1597.598748
_symmetry_space_group_name_H-M "P 21/M"
_symmetry_group_IT_number 11
_symmetry_cell_setting 'monoclinic'
loop_
_space_group_symop_operation_xyz
x,y,z
-x,1/2+y,-z
-x,-y,-z
x,1/2-y,z
loop_
_atom_site_type_symbol
_atom_site_label
_atom_site_fract_x
_atom_site_fract_y
_atom_site_fract_z
Si Si1 0.720105 0.043167 0.596715
Si Si2 0.047177 0.456833 0.269644
Si Si3 0.019232 0.952164 0.784059
Si Si4 0.464558 0.453483 0.973941
Si Si5 0.306068 0.047836 0.890641
Si Si6 0.031527 0.549106 0.028749
Si Si7 0.789439 0.453483 0.649060
Si Si8 0.709579 0.950894 0.350697
O O1 0.720303 0.250000 0.596484
O O2 0.516620 0.986132 0.736486
O O3 0.749117 0.987871 0.627628
O O4 0.891430 0.989014 0.429285
O O5 0.046845 0.250000 0.269942
O O6 0.995806 0.513867 0.257301
O O7 0.257863 0.512129 0.118882
O O8 0.999684 0.750000 0.797547
O O9 0.847742 0.017735 0.951129
O O10 0.213890 0.990470 0.658727
O O11 0.463599 0.250000 0.971560
O O12 0.631801 0.516034 0.809099
O O13 0.500000 0.500000 0.000000
O O14 0.310762 0.250000 0.892008
O O15 0.223423 0.009533 0.903960
O O16 0.028844 0.750000 0.033510
O O17 0.860012 0.480441 0.194994
O O18 0.000000 0.500000 0.000000
O O19 0.777035 0.250000 0.658124
O O20 0.000000 0.500000 0.500000
O O21 0.720571 0.750000 0.341782
O O22 0.500000 0.000000 0.500000
#
# Coordination Sequence:
#
# PCOD9161670 Si02
#       8
#     4   4   4   4   4   4   4   4
#     4   9  17  30  50  75 101 131 170 214 258 306
#     4   9  17  30  50  75 101 131 170 214 258 306
#     4   9  17  31  51  73  98 130 168 210 257 308
#     4  10  20  34  53  77 105 138 176 216 258 306
#     4   9  17  31  51  73  98 130 168 210 257 308
#     4  10  21  36  54  77 105 137 173 212 255 305
#     4  10  20  34  53  77 105 138 176 216 258 306
#     4  10  21  36  54  77 105 137 173 212 255 305
#
# _framework density 20.030061
#
# number of rings (size 3 to 8) (size 9 to 14) (size 15 to 20)
#    0.000    2.500    0.000    2.250    0.000    7.000 
#    0.000    3.750    0.000    4.500    0.000    0.000 
#    0.000    0.000    0.000    0.000    0.000    0.000 
#
# Total GULP energy -178626.898788 kJ/mol
# GULP energy per Si atom -5582.090587 kJ/mol
# Density = 1.998447 g / cm^3
# Si number density = 20.030061 Si / 1000 Ang^3
#
#
#
# Elastic Constant Matrix: (Units=GPa)
#
#
# Indices 1 2 3 4 5 6 
#
# 1 224.4385 5.7343 124.9151 0.0000 -12.0374 0.0000
# 2 5.7343 17.8155 7.6731 0.0000 1.3342 0.0000
# 3 124.9151 7.6731 178.4987 0.0000 -19.5878 0.0000
# 4 0.0000 0.0000 0.0000 16.6890 0.0000 -5.1209
# 5 -12.0374 1.3342 -19.5878 0.0000 35.8210 0.0000
# 6 0.0000 0.0000 0.0000 -5.1209 0.0000 24.1271
#
#
#
# Elastic Compliance Matrix: (Units=1/GPa)
#
#
# Indices 1 2 3 4 5 6 
#
# 1 0.007303 -0.000108 -0.005145 0.000000 -0.000355 0.000000
# 2 -0.000108 0.057655 -0.002811 0.000000 -0.003721 0.000000
# 3 -0.005145 -0.002811 0.009729 0.000000 0.003696 0.000000
# 4 0.000000 0.000000 0.000000 0.064094 0.000000 0.013604
# 5 -0.000355 -0.003721 0.003696 0.000000 0.029957 0.000000
# 6 0.000000 0.000000 0.000000 0.013604 0.000000 0.044334
#
#
# Mechanical properties :
#
#
# Convention : Reuss Voigt Hill
#
# Bulk Modulus (GPa) = 17.07683 77.48863 47.28273
# Shear Modulus (GPa) = 20.10295 34.15610 27.12952
#
# Velocity S-wave (km/s) = 3.17146 4.13394 3.68426
# Velocity P-wave (km/s) = 4.68562 7.84577 6.46185
#
# Compressibility (1/GPa) = 0.05855887
#
# Stress axis : x y z
#
# Youngs Moduli (GPa) = 136.93505 17.34452 102.78417
#
# Poissons Ratio (x) = 0.00187 0.52881
# Poissons Ratio (y) = 0.01480 0.28894
# Poissons Ratio (z) = 0.70451 0.04876
#
# Static dielectric constant tensor:
#      x y z
#    x 1.676530 0.000000 -0.008910 
#    y 0.000000 1.730980 0.000000 
#    z -0.008910 0.000000 1.663580 
# 
# From -- ./inp_files/71979.got.cif
#   From: 2010.05.17/outbox.cif.g08.bks.cpg/sg11_36_cif.got.tgz:71979.got - 2010.06.03 12:22:45.
