data_PCOD9161382
_publ_section_title
;
Structure prediction by ZEFSAII (Michael W. Deem and Ramdas Pophale) SiO2 
 PCOD9161382
Probable space group: P 21/M
;
_chemical_formula_sum "Si O2"
_cell_formula_units_Z 32
_cell_length_a 20.772628
_cell_length_b 8.863915
_cell_length_c 26.056956
_cell_angle_alpha 90.000000
_cell_angle_beta 159.898296
_cell_angle_gamma 90.000000
_cell_volume 1648.939035
_symmetry_space_group_name_H-M "P 21/M"
_symmetry_group_IT_number 11
_symmetry_cell_setting 'monoclinic'
loop_
_space_group_symop_operation_xyz
x,y,z
-x,1/2+y,-z
-x,-y,-z
x,1/2-y,z
loop_
_atom_site_type_symbol
_atom_site_label
_atom_site_fract_x
_atom_site_fract_y
_atom_site_fract_z
Si Si1 0.526878 0.930658 0.264716
Si Si2 0.089207 0.928238 0.427994
Si Si3 0.293434 0.427679 0.181903
Si Si4 0.343217 0.076876 0.415276
Si Si5 0.904929 0.924867 0.866093
Si Si6 0.669707 0.568960 0.095161
Si Si7 0.296490 0.572754 0.991573
Si Si8 0.869292 0.571060 0.649984
O O1 0.524856 0.750000 0.265565
O O2 0.739340 0.988401 0.415947
O O3 0.437525 0.990280 0.251433
O O4 0.401406 0.979178 0.121699
O O5 0.102104 0.750000 0.446918
O O6 0.871648 0.976638 0.271181
O O7 0.125354 0.969688 0.395815
O O8 0.331579 0.250000 0.207252
O O9 0.262021 0.467659 0.218888
O O10 0.084185 0.469974 0.005970
O O11 0.395148 0.250000 0.462570
O O12 0.165542 0.072922 0.244475
O O13 0.286336 0.013590 0.427390
O O14 0.500000 0.000000 0.500000
O O15 0.956415 0.750000 0.917270
O O16 0.663151 0.750000 0.090783
O O17 0.658906 0.512543 0.028133
O O18 0.500000 0.500000 0.000000
O O19 0.342837 0.750000 0.018887
O O20 0.072072 0.562618 0.828630
O O21 0.839771 0.750000 0.615185
#
# Coordination Sequence:
#
# PCOD9161382 Si02
#       8
#     4   4   4   4   4   4   4   4
#     4  11  22  36  57  84 116 151 187 231 284 337
#     4  10  22  38  57  85 118 149 187 233 279 330
#     4  10  20  33  53  77 103 139 182 231 283 339
#     4  10  21  34  49  71 101 138 184 235 286 337
#     4   9  19  36  51  69 100 138 183 233 288 343
#     4  10  21  39  65  93 121 153 187 226 271 327
#     4   9  19  37  61  86 113 147 189 232 276 330
#     4   9  18  35  56  77 104 144 190 235 285 341
#
# _framework density 19.406417999999999
#
# number of rings (size 3 to 8) (size 9 to 14) (size 15 to 20)
#    0.000    2.250    0.000    2.250    1.750    6.000 
#    0.000    3.125    0.000    0.000    0.000    0.000 
#    0.000    0.000    0.000    0.000    0.000    0.000 
#
# Total GULP energy -178456.078435 kJ/mol
# GULP energy per Si atom -5576.752451 kJ/mol
# Density = 1.936225 g / cm^3
# Si number density = 19.406418 Si / 1000 Ang^3
#
#
#
# Elastic Constant Matrix: (Units=GPa)
#
#
# Indices 1 2 3 4 5 6 
#
# 1 62.0000 10.6651 14.6620 0.0000 21.9828 0.0000
# 2 10.6651 22.9955 10.2325 0.0000 6.0949 0.0000
# 3 14.6620 10.2325 69.0362 0.0000 6.4410 0.0000
# 4 0.0000 0.0000 0.0000 31.0475 0.0000 4.2894
# 5 21.9828 6.0949 6.4410 0.0000 29.9990 0.0000
# 6 0.0000 0.0000 0.0000 4.2894 0.0000 26.3433
#
#
#
# Elastic Compliance Matrix: (Units=1/GPa)
#
#
# Indices 1 2 3 4 5 6 
#
# 1 0.023111 -0.005488 -0.002672 0.000000 -0.015246 0.000000
# 2 -0.005488 0.049894 -0.005775 0.000000 -0.004875 0.000000
# 3 -0.002672 -0.005775 0.015936 0.000000 -0.000290 0.000000
# 4 0.000000 0.000000 0.000000 0.032950 0.000000 -0.005365
# 5 -0.015246 -0.004875 -0.000290 0.000000 0.045560 0.000000
# 6 0.000000 0.000000 0.000000 -0.005365 0.000000 0.038834
#
#
# Mechanical properties :
#
#
# Convention : Reuss Voigt Hill
#
# Bulk Modulus (GPa) = 16.37481 25.01679 20.69580
# Shear Modulus (GPa) = 19.64546 25.37610 22.51078
#
# Velocity S-wave (km/s) = 3.18515 3.62002 3.40952
# Velocity P-wave (km/s) = 4.68861 5.51286 5.11736
#
# Compressibility (1/GPa) = 0.06106943
#
# Stress axis : x y z
#
# Youngs Moduli (GPa) = 43.26961 20.04246 62.75216
#
# Poissons Ratio (x) = 0.11000 0.16770
# Poissons Ratio (y) = 0.23748 0.36238
# Poissons Ratio (z) = 0.11563 0.11574
#
# Static dielectric constant tensor:
#      x y z
#    x 1.693660 0.000000 0.001090 
#    y 0.000000 1.733590 0.000000 
#    z 0.001090 0.000000 1.730730 
# 
# From -- ./inp_files/72215.got.cif
#   From: 2010.05.17/outbox.cif.g08.bks.cpg/sg11_37_cif.got.tgz:72215.got - 2010.06.03 12:22:45.
