data_PCOD9161905
_publ_section_title
;
Structure prediction by ZEFSAII (Michael W. Deem and Ramdas Pophale) SiO2 
 PCOD9161905
Probable space group: P 21/M
;
_chemical_formula_sum "Si O2"
_cell_formula_units_Z 32
_cell_length_a 14.568948
_cell_length_b 7.680051
_cell_length_c 23.314985
_cell_angle_alpha 90.000000
_cell_angle_beta 148.106501
_cell_angle_gamma 90.000000
_cell_volume 1378.296256
_symmetry_space_group_name_H-M "P 21/M"
_symmetry_group_IT_number 11
_symmetry_cell_setting 'monoclinic'
loop_
_space_group_symop_operation_xyz
x,y,z
-x,1/2+y,-z
-x,-y,-z
x,1/2-y,z
loop_
_atom_site_type_symbol
_atom_site_label
_atom_site_fract_x
_atom_site_fract_y
_atom_site_fract_z
Si Si1 0.342869 0.960060 0.995232
Si Si2 0.685059 0.441712 0.574604
Si Si3 0.280612 0.036242 0.775670
Si Si4 0.763601 0.548368 0.816704
Si Si5 0.952362 0.955196 0.250336
Si Si6 0.382907 0.450828 0.587175
Si Si7 0.796367 0.958863 0.391928
Si Si8 0.849893 0.038821 0.991224
O O1 0.340803 0.750000 0.990047
O O2 0.267852 0.008230 0.017728
O O3 0.210529 0.029053 0.878114
O O4 0.542113 0.018792 0.098954
O O5 0.500000 0.500000 0.500000
O O6 0.702474 0.250000 0.608922
O O7 0.668795 0.447099 0.497085
O O8 0.871380 0.533887 0.682772
O O9 0.278979 0.250000 0.774569
O O10 0.114191 0.975366 0.723694
O O11 0.278204 0.978090 0.708497
O O12 0.746546 0.750000 0.790853
O O13 0.590707 0.455441 0.704460
O O14 0.950278 0.481921 0.893842
O O15 0.779968 0.533634 0.894261
O O16 0.987249 0.750000 0.277633
O O17 0.327967 0.250000 0.550082
O O18 0.297429 0.522946 0.600213
O O19 0.772374 0.750000 0.379625
O O20 0.000000 0.000000 0.500000
O O21 0.851515 0.250000 0.986562
#
# Coordination Sequence:
#
# PCOD9161905 Si02
#       8
#     4   4   4   4   4   4   4   4
#     4  10  20  35  59  85 115 157 200 241 291 355
#     4  11  25  44  64  87 118 158 205 257 309 365
#     4   9  18  36  60  86 120 159 195 237 295 357
#     4  10  20  34  55  83 115 154 197 244 295 351
#     4  10  22  39  59  85 117 153 197 250 304 355
#     4  11  23  39  61  89 120 155 197 245 300 365
#     4  10  21  38  62  89 120 158 200 246 302 362
#     4   9  19  35  53  80 115 153 196 242 296 353
#
# _framework density 23.21707
#
# number of rings (size 3 to 8) (size 9 to 14) (size 15 to 20)
#    0.000    2.000    0.000    3.000    1.750    6.000 
#    0.000    1.250    0.000    0.000    0.000    0.000 
#    0.000    0.000    0.000    0.000    0.000    0.000 
#
# Total GULP energy -178834.740459 kJ/mol
# GULP energy per Si atom -5588.585639 kJ/mol
# Density = 2.316423 g / cm^3
# Si number density = 23.217070 Si / 1000 Ang^3
#
#
#
# Elastic Constant Matrix: (Units=GPa)
#
#
# Indices 1 2 3 4 5 6 
#
# 1 102.3256 8.5544 30.8049 0.0000 27.2692 0.0000
# 2 8.5544 40.1496 -5.7468 0.0000 4.1229 0.0000
# 3 30.8049 -5.7468 112.2486 0.0000 16.4897 0.0000
# 4 0.0000 0.0000 0.0000 26.3662 0.0000 -1.0193
# 5 27.2692 4.1229 16.4897 0.0000 28.4807 0.0000
# 6 0.0000 0.0000 0.0000 -1.0193 0.0000 14.1199
#
#
#
# Elastic Compliance Matrix: (Units=1/GPa)
#
#
# Indices 1 2 3 4 5 6 
#
# 1 0.013669 -0.002036 -0.002160 0.000000 -0.011542 0.000000
# 2 -0.002036 0.026005 0.002357 0.000000 -0.003180 0.000000
# 3 -0.002160 0.002357 0.010239 0.000000 -0.004202 0.000000
# 4 0.000000 0.000000 0.000000 0.038033 0.000000 0.002746
# 5 -0.011542 -0.003180 -0.004202 0.000000 0.049056 0.000000
# 6 0.000000 0.000000 0.000000 0.002746 0.000000 0.071020
#
#
# Mechanical properties :
#
#
# Convention : Reuss Voigt Hill
#
# Bulk Modulus (GPa) = 21.62844 35.77210 28.70027
# Shear Modulus (GPa) = 22.01551 28.53411 25.27481
#
# Velocity S-wave (km/s) = 3.08270 3.50953 3.30302
# Velocity P-wave (km/s) = 4.69113 5.64478 5.18991
#
# Compressibility (1/GPa) = 0.04623541
#
# Stress axis : x y z
#
# Youngs Moduli (GPa) = 73.15715 38.45472 97.66130
#
# Poissons Ratio (x) = 0.07830 0.21094
# Poissons Ratio (y) = 0.14897 -0.23021
# Poissons Ratio (z) = 0.15801 -0.09065
#
# Static dielectric constant tensor:
#      x y z
#    x 2.983910 0.000000 0.762450 
#    y 0.000000 1.482330 0.000000 
#    z 0.762450 0.000000 2.343210 
# 
# From -- ./inp_files/69141.got.cif
#   From: 2010.05.17/outbox.cif.g08.bks.cpg/sg11_35_cif.got.tgz:69141.got - 2010.06.03 12:22:45.
