data_PCOD9161488
_publ_section_title
;
Structure prediction by ZEFSAII (Michael W. Deem and Ramdas Pophale) SiO2 
 PCOD9161488
Probable space group: P 21/M
;
_chemical_formula_sum "Si O2"
_cell_formula_units_Z 32
_cell_length_a 13.242667
_cell_length_b 27.511528
_cell_length_c 9.591098
_cell_angle_alpha 90.000000
_cell_angle_beta 151.716708
_cell_angle_gamma 90.000000
_cell_volume 1655.702737
_symmetry_space_group_name_H-M "P 21/M"
_symmetry_group_IT_number 11
_symmetry_cell_setting 'monoclinic'
loop_
_space_group_symop_operation_xyz
x,y,z
-x,1/2+y,-z
-x,-y,-z
x,1/2-y,z
loop_
_atom_site_type_symbol
_atom_site_label
_atom_site_fract_x
_atom_site_fract_y
_atom_site_fract_z
Si Si1 0.009766 0.192812 0.904170
Si Si2 0.453344 0.445547 0.784891
Si Si3 0.454837 0.802943 0.774788
Si Si4 0.484673 0.303838 0.833973
Si Si5 0.775434 0.528445 0.200189
Si Si6 0.185392 0.869218 0.838116
Si Si7 0.869130 0.874559 0.688296
Si Si8 0.160251 0.132347 0.819351
O O1 0.080031 0.250000 0.997055
O O2 0.094352 0.162799 0.874136
O O3 0.755968 0.194264 0.572381
O O4 0.071029 0.159272 0.109539
O O5 0.322671 0.452460 0.770882
O O6 0.279492 0.421973 0.468635
O O7 0.583736 0.494536 0.910361
O O8 0.649042 0.407227 0.028651
O O9 0.560578 0.750000 0.876940
O O10 0.408870 0.803701 0.884024
O O11 0.608813 0.847247 0.935852
O O12 0.412465 0.250000 0.712158
O O13 0.285906 0.339768 0.590917
O O14 0.665273 0.323077 0.949402
O O15 0.826105 0.573928 0.162172
O O16 0.000000 0.500000 0.500000
O O17 0.071424 0.887488 0.839058
O O18 0.005510 0.857388 0.506709
#
# Coordination Sequence:
#
# PCOD9161488 Si02
#       8
#     4   4   4   4   4   4   4   4
#     4  11  26  42  59  89 133 173 210 260 323 382
#     4  10  21  37  64  98 127 154 210 270 317 382
#     4  10  21  37  58  88 121 160 211 261 310 372
#     4  10  20  33  57  89 116 153 213 269 309 372
#     4  11  21  37  67 104 130 160 209 271 331 379
#     4  11  20  36  62  91 120 162 214 260 313 372
#     4  11  22  41  60  87 127 168 210 264 320 378
#     4  12  21  38  64  92 123 168 211 261 318 381
#
# _framework density 19.327141999999998
#
# number of rings (size 3 to 8) (size 9 to 14) (size 15 to 20)
#    0.000    1.250    5.000    1.500    0.000    3.500 
#    0.000    1.875    0.000    3.750    0.000    0.000 
#    0.000    0.000    0.000    0.000    0.000    0.000 
#
# Total GULP energy -178263.596979 kJ/mol
# GULP energy per Si atom -5570.737406 kJ/mol
# Density = 1.928315 g / cm^3
# Si number density = 19.327142 Si / 1000 Ang^3
#
#
#
# Elastic Constant Matrix: (Units=GPa)
#
#
# Indices 1 2 3 4 5 6 
#
# 1 75.6900 34.2588 37.0369 0.0000 8.9375 0.0000
# 2 34.2588 111.7784 33.4040 0.0000 11.5257 0.0000
# 3 37.0369 33.4040 67.0465 0.0000 5.4858 0.0000
# 4 0.0000 0.0000 0.0000 38.7095 0.0000 5.6477
# 5 8.9375 11.5257 5.4858 0.0000 29.8913 0.0000
# 6 0.0000 0.0000 0.0000 5.6477 0.0000 30.1401
#
#
#
# Elastic Compliance Matrix: (Units=1/GPa)
#
#
# Indices 1 2 3 4 5 6 
#
# 1 0.019263 -0.002924 -0.008939 0.000000 -0.002992 0.000000
# 2 -0.002924 0.011253 -0.003765 0.000000 -0.002774 0.000000
# 3 -0.008939 -0.003765 0.021717 0.000000 0.000139 0.000000
# 4 0.000000 0.000000 0.000000 0.026560 0.000000 -0.004977
# 5 -0.002992 -0.002774 0.000139 0.000000 0.035393 0.000000
# 6 0.000000 0.000000 0.000000 -0.004977 0.000000 0.034111
#
#
# Mechanical properties :
#
#
# Convention : Reuss Voigt Hill
#
# Bulk Modulus (GPa) = 47.66901 51.54605 49.60753
# Shear Modulus (GPa) = 26.80313 29.73586 28.26949
#
# Velocity S-wave (km/s) = 3.72803 3.92670 3.82865
# Velocity P-wave (km/s) = 6.57638 6.87654 6.72813
#
# Compressibility (1/GPa) = 0.02097799
#
# Stress axis : x y z
#
# Youngs Moduli (GPa) = 51.91389 88.86163 46.04605
#
# Poissons Ratio (x) = 0.25982 0.41162
# Poissons Ratio (y) = 0.15179 0.17334
# Poissons Ratio (z) = 0.46407 0.33452
#
# Static dielectric constant tensor:
#      x y z
#    x 1.705800 0.000000 0.013510 
#    y 0.000000 1.766140 0.000000 
#    z 0.013510 0.000000 1.662360 
# 
# From -- ./inp_files/19893.got.cif
#   From: 2010.05.17/outbox.cif.g08.bks.cpg/sg11_10_cif.got.tgz:19893.got - 2010.06.03 12:22:45.
