data_PCOD9161509
_publ_section_title
;
Structure prediction by ZEFSAII (Michael W. Deem and Ramdas Pophale) SiO2 
 PCOD9161509
Probable space group: P 21/M
;
_chemical_formula_sum "Si O2"
_cell_formula_units_Z 32
_cell_length_a 12.051791
_cell_length_b 8.547093
_cell_length_c 18.856137
_cell_angle_alpha 90.000000
_cell_angle_beta 90.624759
_cell_angle_gamma 90.000000
_cell_volume 1942.213314
_symmetry_space_group_name_H-M "P 21/M"
_symmetry_group_IT_number 11
_symmetry_cell_setting 'monoclinic'
loop_
_space_group_symop_operation_xyz
x,y,z
-x,1/2+y,-z
-x,-y,-z
x,1/2-y,z
loop_
_atom_site_type_symbol
_atom_site_label
_atom_site_fract_x
_atom_site_fract_y
_atom_site_fract_z
Si Si1 0.866236 0.065596 0.577606
Si Si2 0.115858 0.561037 0.574864
Si Si3 0.870083 0.562135 0.727639
Si Si4 0.128902 0.561917 0.732500
Si Si5 0.124113 0.061336 0.999754
Si Si6 0.733868 0.937144 0.135294
Si Si7 0.502160 0.437629 0.080767
Si Si8 0.734197 0.559069 0.862736
O O1 0.850468 0.250000 0.585355
O O2 0.824112 0.018599 0.498568
O O3 0.827369 0.984996 0.649464
O O4 0.997227 0.024550 0.574968
O O5 0.095760 0.750000 0.572593
O O6 0.167200 0.526792 0.652022
O O7 0.873535 0.750000 0.730322
O O8 0.791476 0.504925 0.790449
O O9 0.999119 0.510339 0.738068
O O10 0.130498 0.750000 0.741342
O O11 0.206430 0.487480 0.792102
O O12 0.122077 0.250000 0.999735
O O13 0.190441 0.010607 0.070131
O O14 0.189063 0.009631 0.929929
O O15 0.000000 0.000000 0.000000
O O16 0.725510 0.750000 0.132350
O O17 0.612627 0.007088 0.121152
O O18 0.500396 0.250000 0.077127
O O19 0.391269 0.490414 0.121448
O O20 0.500000 0.500000 0.000000
O O21 0.734139 0.750000 0.861014
#
# Coordination Sequence:
#
# PCOD9161509 Si02
#       8
#     4   4   4   4   4   4   4   4
#     4   9  15  24  41  66  96 127 160 196 233 276
#     4   8  15  27  42  62  93 132 165 191 228 284
#     4   9  17  30  48  69  98 131 161 193 235 290
#     4   9  17  30  48  70  97 130 164 192 231 288
#     4  10  20  34  49  68  95 125 157 191 231 285
#     4  11  22  35  50  71  98 125 159 203 247 285
#     4  11  21  37  57  73  92 122 163 207 247 286
#     4   9  18  34  52  68  92 126 160 195 236 284
#
# _framework density 16.476047999999999
#
# number of rings (size 3 to 8) (size 9 to 14) (size 15 to 20)
#    0.000    2.500    1.250    2.625    0.000    4.500 
#    0.000    1.875    0.000    0.000    0.000    0.875 
#    0.000    0.000    0.000    0.000    0.000    0.000 
#
# Total GULP energy -178275.341034 kJ/mol
# GULP energy per Si atom -5571.104407 kJ/mol
# Density = 1.643855 g / cm^3
# Si number density = 16.476048 Si / 1000 Ang^3
#
#
#
# Elastic Constant Matrix: (Units=GPa)
#
#
# Indices 1 2 3 4 5 6 
#
# 1 110.3717 20.5651 76.3477 0.0000 -2.8038 0.0000
# 2 20.5651 14.2527 26.5981 0.0000 1.0122 0.0000
# 3 76.3477 26.5981 170.7625 0.0000 -2.4451 0.0000
# 4 0.0000 0.0000 0.0000 27.6485 0.0000 2.7015
# 5 -2.8038 1.0122 -2.4451 0.0000 1.8892 0.0000
# 6 0.0000 0.0000 0.0000 2.7015 0.0000 18.7900
#
#
#
# Elastic Compliance Matrix: (Units=1/GPa)
#
#
# Indices 1 2 3 4 5 6 
#
# 1 0.015694 -0.017244 -0.003938 0.000000 0.027434 0.000000
# 2 -0.017244 0.129282 -0.014046 0.000000 -0.113034 0.000000
# 3 -0.003938 -0.014046 0.010014 0.000000 0.014641 0.000000
# 4 0.000000 0.000000 0.000000 0.036684 0.000000 -0.005274
# 5 0.027434 -0.113034 0.014641 0.000000 0.649539 0.000000
# 6 0.000000 0.000000 0.000000 -0.005274 0.000000 0.053978
#
#
# Mechanical properties :
#
#
# Convention : Reuss Voigt Hill
#
# Bulk Modulus (GPa) = 11.82945 60.26765 36.04855
# Shear Modulus (GPa) = 5.03106 21.12396 13.07751
#
# Velocity S-wave (km/s) = 1.74934 3.58453 2.82038
# Velocity P-wave (km/s) = 3.35792 7.33418 5.70376
#
# Compressibility (1/GPa) = 0.08453476
#
# Stress axis : x y z
#
# Youngs Moduli (GPa) = 63.71708 7.73501 99.85761
#
# Poissons Ratio (x) = 0.13338 0.39325
# Poissons Ratio (y) = 1.09875 1.40258
# Poissons Ratio (z) = 0.25093 0.10864
#
# Static dielectric constant tensor:
#      x y z
#    x 1.523340 0.000000 -0.013360 
#    y 0.000000 1.570970 0.000000 
#    z -0.013360 0.000000 1.589050 
# 
# From -- ./inp_files/40606.got.cif
#   From: 2010.05.17/outbox.cif.g08.bks.cpg/sg11_21_cif.got.tgz:40606.got - 2010.06.03 12:22:45.
