data_PCOD9161022
_publ_section_title
;
Structure prediction by ZEFSAII (Michael W. Deem and Ramdas Pophale) SiO2 
 PCOD9161022
Probable space group: P 21/M
;
_chemical_formula_sum "Si O2"
_cell_formula_units_Z 32
_cell_length_a 18.144651
_cell_length_b 18.205070
_cell_length_c 12.376253
_cell_angle_alpha 90.000000
_cell_angle_beta 151.412542
_cell_angle_gamma 90.000000
_cell_volume 1956.193366
_symmetry_space_group_name_H-M "P 21/M"
_symmetry_group_IT_number 11
_symmetry_cell_setting 'monoclinic'
loop_
_space_group_symop_operation_xyz
x,y,z
-x,1/2+y,-z
-x,-y,-z
x,1/2-y,z
loop_
_atom_site_type_symbol
_atom_site_label
_atom_site_fract_x
_atom_site_fract_y
_atom_site_fract_z
Si Si1 0.494835 0.048665 0.159182
Si Si2 0.570664 0.110348 0.035727
Si Si3 0.780059 0.167478 0.998434
Si Si4 0.561683 0.667478 0.343308
Si Si5 0.101370 0.974982 0.968080
Si Si6 0.105600 0.610348 0.640537
Si Si7 0.830489 0.548665 0.166143
Si Si8 0.765341 0.525018 0.632052
O O1 0.523440 0.105539 0.099120
O O2 0.644855 0.031646 0.423337
O O3 0.346487 0.067811 0.039462
O O4 0.456800 0.970809 0.051273
O O5 0.750406 0.127946 0.251217
O O6 0.473372 0.161266 0.830106
O O7 0.788810 0.250000 0.965777
O O8 0.834302 0.103640 0.988660
O O9 0.883362 0.161266 0.240097
O O10 0.604370 0.153576 0.813108
O O11 0.611842 0.750000 0.434875
O O12 0.679943 0.603640 0.525585
O O13 0.919321 0.970294 0.757964
O O14 0.133627 0.031646 0.912108
O O15 0.184235 0.000000 0.184234
O O16 0.137672 0.529190 0.732144
O O17 0.947760 0.605539 0.372080
#
# Coordination Sequence:
#
# PCOD9161022 Si02
#       8
#     4   4   4   4   4   4   4   4
#     4   9  16  26  43  66  90 117 149 186 227 270
#     4   8  14  25  42  65  92 117 142 178 226 277
#     4   9  18  32  50  72  96 123 156 195 242 293
#     4   9  18  32  50  72  96 123 156 195 242 293
#     4  10  20  32  47  69  96 127 165 204 240 282
#     4   8  14  25  42  65  92 117 142 178 226 277
#     4   9  16  26  43  66  90 117 149 186 227 270
#     4  10  20  32  47  69  96 127 165 204 240 282
#
# _framework density 16.358301999999998
#
# number of rings (size 3 to 8) (size 9 to 14) (size 15 to 20)
#    0.000    3.000    0.000    3.000    0.000    8.500 
#    0.000    0.000    0.000    1.500    0.000    3.500 
#    0.000    0.000    0.000    0.000    0.000    0.000 
#
# Total GULP energy -178183.536289 kJ/mol
# GULP energy per Si atom -5568.235509 kJ/mol
# Density = 1.632107 g / cm^3
# Si number density = 16.358302 Si / 1000 Ang^3
#
#
#
# Elastic Constant Matrix: (Units=GPa)
#
#
# Indices 1 2 3 4 5 6 
#
# 1 116.9667 36.4534 59.6608 0.0000 3.1542 0.0000
# 2 36.4534 52.6720 33.6433 0.0000 5.0757 0.0000
# 3 59.6608 33.6433 109.0142 0.0000 11.2112 0.0000
# 4 0.0000 0.0000 0.0000 13.7299 0.0000 1.5139
# 5 3.1542 5.0757 11.2112 0.0000 13.2255 0.0000
# 6 0.0000 0.0000 0.0000 1.5139 0.0000 14.5677
#
#
#
# Elastic Compliance Matrix: (Units=1/GPa)
#
#
# Indices 1 2 3 4 5 6 
#
# 1 0.013245 -0.005805 -0.005874 0.000000 0.004048 0.000000
# 2 -0.005805 0.026313 -0.004434 0.000000 -0.004955 0.000000
# 3 -0.005874 -0.004434 0.014720 0.000000 -0.009376 0.000000
# 4 0.000000 0.000000 0.000000 0.073678 0.000000 -0.007657
# 5 0.004048 -0.004955 -0.009376 0.000000 0.084495 0.000000
# 6 0.000000 0.000000 0.000000 -0.007657 0.000000 0.069441
#
#
# Mechanical properties :
#
#
# Convention : Reuss Voigt Hill
#
# Bulk Modulus (GPa) = 45.34551 59.79641 52.57096
# Shear Modulus (GPa) = 15.55361 18.23100 16.89230
#
# Velocity S-wave (km/s) = 3.08686 3.34200 3.21696
# Velocity P-wave (km/s) = 6.36281 7.17813 6.78273
#
# Compressibility (1/GPa) = 0.02205290
#
# Stress axis : x y z
#
# Youngs Moduli (GPa) = 75.49734 38.00449 67.93419
#
# Poissons Ratio (x) = 0.22063 0.39902
# Poissons Ratio (y) = 0.43829 0.30120
# Poissons Ratio (z) = 0.44344 0.16850
#
# Static dielectric constant tensor:
#      x y z
#    x 1.551470 0.000000 0.008160 
#    y 0.000000 1.560660 0.000000 
#    z 0.008160 0.000000 1.546950 
# 
# From -- ./inp_files/41964.got.cif
#   From: 2010.05.17/outbox.cif.g08.bks.cpg/sg11_21_cif.got.tgz:41964.got - 2010.06.03 12:22:45.
