data_PCOD9161140
_publ_section_title
;
Structure prediction by ZEFSAII (Michael W. Deem and Ramdas Pophale) SiO2 
 PCOD9161140
Probable space group: P 21/M
;
_chemical_formula_sum "Si O2"
_cell_formula_units_Z 32
_cell_length_a 23.194752
_cell_length_b 9.042231
_cell_length_c 12.140175
_cell_angle_alpha 90.000000
_cell_angle_beta 47.135474
_cell_angle_gamma 90.000000
_cell_volume 1866.263886
_symmetry_space_group_name_H-M "P 21/M"
_symmetry_group_IT_number 11
_symmetry_cell_setting 'monoclinic'
loop_
_space_group_symop_operation_xyz
x,y,z
-x,1/2+y,-z
-x,-y,-z
x,1/2-y,z
loop_
_atom_site_type_symbol
_atom_site_label
_atom_site_fract_x
_atom_site_fract_y
_atom_site_fract_z
Si Si1 0.655696 0.927061 0.399936
Si Si2 0.680541 0.928567 0.125319
Si Si3 0.500146 0.079313 0.668916
Si Si4 0.438853 0.921198 0.159558
Si Si5 0.284228 0.072769 0.439007
Si Si6 0.147039 0.573906 0.487336
Si Si7 0.819622 0.426835 0.813487
Si Si8 0.022925 0.072760 0.353622
O O1 0.650487 0.750000 0.408711
O O2 0.696792 0.967955 0.231964
O O3 0.699438 0.973828 0.455292
O O4 0.567034 0.989009 0.518859
O O5 0.686919 0.750000 0.103461
O O6 0.589620 0.971084 0.223781
O O7 0.739696 0.008752 0.966615
O O8 0.503007 0.250000 0.627898
O O9 0.525147 0.074213 0.764394
O O10 0.427442 0.750000 0.143018
O O11 0.355549 0.004078 0.275200
O O12 0.500000 0.000000 0.000000
O O13 0.287439 0.250000 0.429125
O O14 0.202850 0.013246 0.497086
O O15 0.158479 0.750000 0.486443
O O16 0.170859 0.538328 0.329369
O O17 0.053842 0.542403 0.620888
O O18 0.823554 0.250000 0.819060
O O19 0.893101 0.501710 0.781719
O O20 0.029881 0.250000 0.355654
O O21 0.000000 0.000000 0.500000
#
# Coordination Sequence:
#
# PCOD9161140 Si02
#       8
#     4   4   4   4   4   4   4   4
#     4   9  19  35  52  72  99 132 171 212 255 297
#     4  10  20  34  52  74 102 133 167 212 257 298
#     4   9  19  33  50  72  95 128 173 212 251 300
#     4  10  20  33  47  68 100 134 168 208 253 297
#     4  10  20  33  51  74  98 132 172 207 248 298
#     4   9  19  34  52  77 105 132 164 203 246 298
#     4  10  21  34  50  78 108 133 165 203 253 304
#     4   9  17  32  53  76 104 135 164 199 249 302
#
# _framework density 17.146557999999999
#
# number of rings (size 3 to 8) (size 9 to 14) (size 15 to 20)
#    0.000    2.500    0.000    2.625    1.750    5.000 
#    0.000    0.000    0.000    0.750    0.000    0.000 
#    0.000    0.000    0.000    0.000    0.000    0.000 
#
# Total GULP energy -178425.043327 kJ/mol
# GULP energy per Si atom -5575.782604 kJ/mol
# Density = 1.710753 g / cm^3
# Si number density = 17.146558 Si / 1000 Ang^3
#
#
#
# Elastic Constant Matrix: (Units=GPa)
#
#
# Indices 1 2 3 4 5 6 
#
# 1 102.7258 38.1632 19.1890 0.0000 -19.9466 0.0000
# 2 38.1632 41.3216 15.5934 0.0000 -4.0072 0.0000
# 3 19.1890 15.5934 40.0235 0.0000 -6.2068 0.0000
# 4 0.0000 0.0000 0.0000 25.3286 0.0000 -8.7898
# 5 -19.9466 -4.0072 -6.2068 0.0000 15.4031 0.0000
# 6 0.0000 0.0000 0.0000 -8.7898 0.0000 27.5019
#
#
#
# Elastic Compliance Matrix: (Units=1/GPa)
#
#
# Indices 1 2 3 4 5 6 
#
# 1 0.020040 -0.016468 0.000179 0.000000 0.021740 0.000000
# 2 -0.016468 0.042045 -0.010769 0.000000 -0.014727 0.000000
# 3 0.000179 -0.010769 0.030610 0.000000 0.009764 0.000000
# 4 0.000000 0.000000 0.000000 0.044406 0.000000 0.014193
# 5 0.021740 -0.014727 0.009764 0.000000 0.093178 0.000000
# 6 0.000000 0.000000 0.000000 0.014193 0.000000 0.040897
#
#
# Mechanical properties :
#
#
# Convention : Reuss Voigt Hill
#
# Bulk Modulus (GPa) = 25.92099 36.66246 31.29173
# Shear Modulus (GPa) = 14.78622 21.05507 17.92065
#
# Velocity S-wave (km/s) = 2.93975 3.50801 3.23638
# Velocity P-wave (km/s) = 5.16459 6.15113 5.67932
#
# Compressibility (1/GPa) = 0.03857877
#
# Stress axis : x y z
#
# Youngs Moduli (GPa) = 49.89929 23.78378 32.66956
#
# Poissons Ratio (x) = 0.39167 -0.00585
# Poissons Ratio (y) = 0.82174 0.35183
# Poissons Ratio (z) = -0.00894 0.25614
#
# Static dielectric constant tensor:
#      x y z
#    x 1.604460 0.000000 0.003680 
#    y 0.000000 1.575270 0.000000 
#    z 0.003680 0.000000 1.563690 
# 
# From -- ./inp_files/43778.got.cif
#   From: 2010.05.17/outbox.cif.g08.bks.cpg/sg11_22_cif.got.tgz:43778.got - 2010.06.03 12:22:45.
