data_PCOD9161958
_publ_section_title
;
Structure prediction by ZEFSAII (Michael W. Deem and Ramdas Pophale) SiO2 
 PCOD9161958
Probable space group: P 21/M
;
_chemical_formula_sum "Si O2"
_cell_formula_units_Z 30
_cell_length_a 11.326992
_cell_length_b 7.491991
_cell_length_c 19.576446
_cell_angle_alpha 90.000000
_cell_angle_beta 50.894252
_cell_angle_gamma 90.000000
_cell_volume 1289.133733
_symmetry_space_group_name_H-M "P 21/M"
_symmetry_group_IT_number 11
_symmetry_cell_setting 'monoclinic'
loop_
_space_group_symop_operation_xyz
x,y,z
-x,1/2+y,-z
-x,-y,-z
x,1/2-y,z
loop_
_atom_site_type_symbol
_atom_site_label
_atom_site_fract_x
_atom_site_fract_y
_atom_site_fract_z
Si Si1 0.085825 0.964010 0.356023
Si Si2 0.355435 0.533113 0.849711
Si Si3 0.736287 0.054822 0.321929
Si Si4 0.352195 0.537285 0.008594
Si Si5 0.634028 0.542060 0.654957
Si Si6 0.734418 0.966591 0.475601
Si Si7 0.910866 0.032528 0.797092
Si Si8 0.272886 0.250000 0.784976
O O1 0.084272 0.750000 0.360542
O O2 0.145597 0.013429 0.258565
O O3 0.910640 0.023227 0.423164
O O4 0.199093 0.028030 0.372587
O O5 0.337128 0.750000 0.851857
O O6 0.366783 0.480752 0.924935
O O7 0.510056 0.469563 0.753474
O O8 0.234130 0.410804 0.855119
O O9 0.688263 0.250000 0.316061
O O10 0.684999 0.028582 0.418918
O O11 0.691952 0.903972 0.285806
O O12 0.920297 0.041710 0.257113
O O13 0.334742 0.750000 0.012505
O O14 0.500000 0.500000 0.000000
O O15 0.205017 0.469433 0.103149
O O16 0.600273 0.750000 0.661937
O O17 0.642191 0.469509 0.575182
O O18 0.733253 0.750000 0.474717
O O19 0.925962 0.250000 0.794864
#
# Coordination Sequence:
#
# PCOD9161958 Si02
#       8
#     4   4   4   4   4   4   4   2
#     4   9  17  28  52  88 124 166 200 238 301 371
#     4  10  24  43  63  91 123 165 208 252 303 374
#     4  11  22  40  69  93 113 159 206 264 317 366
#     4  10  21  37  64  96 135 169 204 245 299 371
#     4  10  20  34  56  83 128 163 205 248 304 367
#     4   9  18  36  57  86 126 163 200 253 307 366
#     4   9  18  37  60  89 129 164 207 250 305 369
#     4  12  24  46  70  82 126 156 208 264 332 342
#
# _framework density 23.271439999999998
#
# number of rings (size 3 to 8) (size 9 to 14) (size 15 to 20)
#    0.000    2.133    1.333    2.400    1.867    3.200 
#    0.000    1.333    0.000    0.000    0.000    0.000 
#    0.000    0.000    0.000    0.000    0.000    0.000 
#
# Total GULP energy -167192.355543 kJ/mol
# GULP energy per Si atom -5573.078518 kJ/mol
# Density = 2.321847 g / cm^3
# Si number density = 23.271440 Si / 1000 Ang^3
#
#
#
# Elastic Constant Matrix: (Units=GPa)
#
#
# Indices 1 2 3 4 5 6 
#
# 1 75.4684 20.8524 47.5485 0.0000 23.1603 0.0000
# 2 20.8524 116.3225 39.5441 0.0000 19.0616 0.0000
# 3 47.5485 39.5441 198.1970 0.0000 31.6149 0.0000
# 4 0.0000 0.0000 0.0000 9.5458 0.0000 -35.6325
# 5 23.1603 19.0616 31.6149 0.0000 39.9656 0.0000
# 6 0.0000 0.0000 0.0000 -35.6325 0.0000 -525.0192
#
#
#
# Elastic Compliance Matrix: (Units=1/GPa)
#
#
# Indices 1 2 3 4 5 6 
#
# 1 0.017604 -0.000963 -0.002835 0.000000 -0.007500 0.000000
# 2 -0.000963 0.009689 -0.001206 0.000000 -0.003109 0.000000
# 3 -0.002835 -0.001206 0.006423 0.000000 -0.002863 0.000000
# 4 0.000000 0.000000 0.000000 0.083583 0.000000 -0.005673
# 5 -0.007500 -0.003109 -0.002863 0.000000 0.033115 0.000000
# 6 0.000000 0.000000 0.000000 -0.005673 0.000000 -0.001520
#
#
# Mechanical properties :
#
#
# Convention : Reuss Voigt Hill
#
# Bulk Modulus (GPa) = 42.17999 67.31979 54.74989
# Shear Modulus (GPa) = 29.97498 -76.29871 -23.16186
#
# Velocity S-wave (km/s) = 3.59285 -5.73215 -3.15825
# Velocity P-wave (km/s) = 5.94777 3.84958 3.20599
#
# Compressibility (1/GPa) = 0.02370792
#
# Stress axis : x y z
#
# Youngs Moduli (GPa) = 56.80382 103.21063 155.69321
#
# Poissons Ratio (x) = 0.09940 0.44138
# Poissons Ratio (y) = 0.05471 0.18779
# Poissons Ratio (z) = 0.16103 0.12449
#
# Static dielectric constant tensor:
#      x y z
#    x 1.928280 0.000000 -0.021520 
#    y 0.000000 1.847830 0.000000 
#    z -0.021520 0.000000 1.878960 
# 
# From -- ./inp_files/58869.got.cif
#   From: 2010.05.17/outbox.cif.g08.bks.cpg/sg11_30_cif.got.tgz:58869.got - 2010.06.03 12:22:45.
