data_PCOD9161103
_publ_section_title
;
Structure prediction by ZEFSAII (Michael W. Deem and Ramdas Pophale) SiO2 
 PCOD9161103
Probable space group: P 21/M
;
_chemical_formula_sum "Si O2"
_cell_formula_units_Z 32
_cell_length_a 24.472401
_cell_length_b 7.637671
_cell_length_c 16.269179
_cell_angle_alpha 90.000000
_cell_angle_beta 27.521591
_cell_angle_gamma 90.000000
_cell_volume 1405.151016
_symmetry_space_group_name_H-M "P 21/M"
_symmetry_group_IT_number 11
_symmetry_cell_setting 'monoclinic'
loop_
_space_group_symop_operation_xyz
x,y,z
-x,1/2+y,-z
-x,-y,-z
x,1/2-y,z
loop_
_atom_site_type_symbol
_atom_site_label
_atom_site_fract_x
_atom_site_fract_y
_atom_site_fract_z
Si Si1 0.637747 0.539254 0.316934
Si Si2 0.658010 0.950608 0.846067
Si Si3 0.264181 0.041989 0.429849
Si Si4 0.507461 0.038582 0.790338
Si Si5 0.949573 0.536336 0.186819
Si Si6 0.182959 0.048258 0.798673
Si Si7 0.695401 0.961737 0.060880
Si Si8 0.862707 0.452947 0.690344
O O1 0.500000 0.500000 0.500000
O O2 0.652740 0.750000 0.298590
O O3 0.702291 0.468104 0.312128
O O4 0.694352 0.475271 0.155831
O O5 0.619991 0.750000 0.882752
O O6 0.682789 0.034292 0.724848
O O7 0.779109 0.948928 0.736824
O O8 0.560773 0.029361 0.036917
O O9 0.252385 0.250000 0.433564
O O10 0.133730 0.979477 0.627468
O O11 0.357163 0.014865 0.379744
O O12 0.503694 0.250000 0.795186
O O13 0.426333 0.980249 0.822420
O O14 0.958102 0.750000 0.173959
O O15 0.878338 0.473000 0.200505
O O16 0.080364 0.462235 0.004713
O O17 0.207921 0.250000 0.744362
O O18 0.694212 0.750000 0.063200
O O19 0.804723 0.015141 0.857298
O O20 0.849164 0.250000 0.688895
O O21 0.000000 0.500000 0.500000
#
# Coordination Sequence:
#
# PCOD9161103 Si02
#       8
#     4   4   4   4   4   4   4   4
#     4  10  22  38  59  86 117 151 189 236 288 338
#     4   9  19  36  52  74 110 144 177 222 272 323
#     4  10  20  32  52  80 108 140 178 225 274 322
#     4   9  18  32  51  73 106 145 179 221 271 326
#     4   9  19  35  54  78 106 140 181 227 276 325
#     4   9  19  37  56  76 107 143 180 226 275 326
#     4   9  20  39  56  79 114 149 187 234 284 332
#     4  11  22  37  59  83 108 145 186 228 280 338
#
# _framework density 22.773353
#
# number of rings (size 3 to 8) (size 9 to 14) (size 15 to 20)
#    0.000    2.500    0.000    2.250    1.750    5.000 
#    0.000    2.500    0.000    0.000    0.000    0.000 
#    0.000    0.000    0.000    0.000    0.000    0.000 
#
# Total GULP energy -178652.609871 kJ/mol
# GULP energy per Si atom -5582.894058 kJ/mol
# Density = 2.272152 g / cm^3
# Si number density = 22.773353 Si / 1000 Ang^3
#
#
#
# Elastic Constant Matrix: (Units=GPa)
#
#
# Indices 1 2 3 4 5 6 
#
# 1 58.2362 -5.9442 6.5803 0.0000 -8.0528 0.0000
# 2 -5.9442 54.6853 -11.8214 0.0000 8.7744 0.0000
# 3 6.5803 -11.8214 45.3047 0.0000 -16.9910 0.0000
# 4 0.0000 0.0000 0.0000 21.5113 0.0000 -5.3418
# 5 -8.0528 8.7744 -16.9910 0.0000 32.0892 0.0000
# 6 0.0000 0.0000 0.0000 -5.3418 0.0000 12.2164
#
#
#
# Elastic Compliance Matrix: (Units=1/GPa)
#
#
# Indices 1 2 3 4 5 6 
#
# 1 0.017903 0.001156 -0.000914 0.000000 0.003693 0.000000
# 2 0.001156 0.019733 0.003826 0.000000 -0.003080 0.000000
# 3 -0.000914 0.003826 0.028357 0.000000 0.013739 0.000000
# 4 0.000000 0.000000 0.000000 0.052150 0.000000 0.022803
# 5 0.003693 -0.003080 0.013739 0.000000 0.040207 0.000000
# 6 0.000000 0.000000 0.000000 0.022803 0.000000 0.091828
#
#
# Mechanical properties :
#
#
# Convention : Reuss Voigt Hill
#
# Bulk Modulus (GPa) = 13.48985 15.09508 14.29247
# Shear Modulus (GPa) = 18.74406 24.45748 21.60077
#
# Velocity S-wave (km/s) = 2.87203 3.28068 3.08313
# Velocity P-wave (km/s) = 4.11515 4.58184 4.35475
#
# Compressibility (1/GPa) = 0.07412978
#
# Stress axis : x y z
#
# Youngs Moduli (GPa) = 55.85546 50.67563 35.26528
#
# Poissons Ratio (x) = -0.05858 0.03222
# Poissons Ratio (y) = -0.06457 -0.13493
# Poissons Ratio (z) = 0.05104 -0.19389
#
# Static dielectric constant tensor:
#      x y z
#    x 1.878270 0.000000 0.019770 
#    y 0.000000 1.848700 0.000000 
#    z 0.019770 0.000000 1.862590 
# 
# From -- ./inp_files/55627.got.cif
#   From: 2010.05.17/outbox.cif.g08.bks.cpg/sg11_28_cif.got.tgz:55627.got - 2010.06.03 12:22:45.
