data_PCOD9161481
_publ_section_title
;
Structure prediction by ZEFSAII (Michael W. Deem and Ramdas Pophale) SiO2 
 PCOD9161481
Probable space group: P 21/M
;
_chemical_formula_sum "Si O2"
_cell_formula_units_Z 28
_cell_length_a 16.014987
_cell_length_b 8.655039
_cell_length_c 20.428590
_cell_angle_alpha 90.000000
_cell_angle_beta 30.575357
_cell_angle_gamma 90.000000
_cell_volume 1440.360255
_symmetry_space_group_name_H-M "P 21/M"
_symmetry_group_IT_number 11
_symmetry_cell_setting 'monoclinic'
loop_
_space_group_symop_operation_xyz
x,y,z
-x,1/2+y,-z
-x,-y,-z
x,1/2-y,z
loop_
_atom_site_type_symbol
_atom_site_label
_atom_site_fract_x
_atom_site_fract_y
_atom_site_fract_z
Si Si1 0.127436 0.431038 0.498806
Si Si2 0.779104 0.074076 0.698479
Si Si3 0.969335 0.436059 0.093776
Si Si4 0.301671 0.435507 0.941530
Si Si5 0.464204 0.925669 0.954306
Si Si6 0.561930 0.064181 0.653651
Si Si7 0.614288 0.935006 0.365090
O O1 0.150702 0.250000 0.465415
O O2 0.158290 0.545929 0.417191
O O3 0.262885 0.480472 0.459661
O O4 0.933078 0.445346 0.643272
O O5 0.714788 0.250000 0.747771
O O6 0.640319 0.948617 0.801669
O O7 0.966503 0.250000 0.092724
O O8 0.797399 0.495845 0.238543
O O9 0.000000 0.500000 0.000000
O O10 0.125730 0.484517 0.031988
O O11 0.304996 0.250000 0.939817
O O12 0.339236 0.494257 0.988764
O O13 0.445244 0.483938 0.793429
O O14 0.416145 0.750000 0.995316
O O15 0.500000 0.000000 0.000000
O O16 0.584610 0.250000 0.642351
O O17 0.469815 0.029635 0.648234
O O18 0.625303 0.750000 0.363634
O O19 0.500000 0.000000 0.500000
#
# Coordination Sequence:
#
# PCOD9161481 Si02
#       7
#     4   4   4   4   4   4   4
#     4  10  20  33  56  88 115 147 195 246 294 349
#     4  10  20  36  56  81 117 153 191 242 298 354
#     4  11  22  40  68  99 131 169 214 267 321 384
#     4  10  21  40  64  92 124 161 206 259 316 376
#     4  12  25  41  62  87 118 160 206 257 315 373
#     4  10  20  37  62  88 122 161 199 250 311 373
#     4  11  24  44  65  93 129 170 211 259 323 385
#
# _framework density 19.439582000000001
#
# number of rings (size 3 to 8) (size 9 to 14) (size 15 to 20)
#    0.000    1.429    2.857    3.000    0.000    4.000 
#    2.571    0.000    0.000    0.000    0.000    0.000 
#    0.000    0.000    0.000    0.000    0.000    0.000 
#
# Total GULP energy -156290.063806 kJ/mol
# GULP energy per Si atom -5581.787993 kJ/mol
# Density = 1.939534 g / cm^3
# Si number density = 19.439582 Si / 1000 Ang^3
#
#
#
# Elastic Constant Matrix: (Units=GPa)
#
#
# Indices 1 2 3 4 5 6 
#
# 1 150.8767 42.2493 49.9010 0.0000 -21.6916 0.0000
# 2 42.2493 50.7003 20.7251 0.0000 -9.3069 0.0000
# 3 49.9010 20.7251 72.2543 0.0000 -16.4659 0.0000
# 4 0.0000 0.0000 0.0000 29.9171 0.0000 -2.4256
# 5 -21.6916 -9.3069 -16.4659 0.0000 39.8457 0.0000
# 6 0.0000 0.0000 0.0000 -2.4256 0.0000 34.9209
#
#
#
# Elastic Compliance Matrix: (Units=1/GPa)
#
#
# Indices 1 2 3 4 5 6 
#
# 1 0.010265 -0.006187 -0.004825 0.000000 0.002149 0.000000
# 2 -0.006187 0.026367 -0.002930 0.000000 0.001580 0.000000
# 3 -0.004825 -0.002930 0.019052 0.000000 0.004562 0.000000
# 4 0.000000 0.000000 0.000000 0.033615 0.000000 0.002335
# 5 0.002149 0.001580 0.004562 0.000000 0.028521 0.000000
# 6 0.000000 0.000000 0.000000 0.002335 0.000000 0.028798
#
#
# Mechanical properties :
#
#
# Convention : Reuss Voigt Hill
#
# Bulk Modulus (GPa) = 35.97053 55.50910 45.73982
# Shear Modulus (GPa) = 27.20775 31.66715 29.43745
#
# Velocity S-wave (km/s) = 3.74519 4.04047 3.89563
# Velocity P-wave (km/s) = 6.10294 7.09816 6.61928
#
# Compressibility (1/GPa) = 0.02780053
#
# Stress axis : x y z
#
# Youngs Moduli (GPa) = 97.41474 37.92549 52.48687
#
# Poissons Ratio (x) = 0.23466 0.25325
# Poissons Ratio (y) = 0.60275 0.15378
# Poissons Ratio (z) = 0.47003 0.11112
#
# Static dielectric constant tensor:
#      x y z
#    x 1.710300 0.000000 0.001850 
#    y 0.000000 1.676750 0.000000 
#    z 0.001850 0.000000 1.741570 
# 
# From -- ./inp_files/65362.got.cif
#   From: 2010.05.17/outbox.cif.g08.bks.cpg/sg11_33_cif.got.tgz:65362.got - 2010.06.03 12:22:45.
