data_PCOD9161867
_publ_section_title
;
Structure prediction by ZEFSAII (Michael W. Deem and Ramdas Pophale) SiO2 
 PCOD9161867
Probable space group: P 21/M
;
_chemical_formula_sum "Si O2"
_cell_formula_units_Z 32
_cell_length_a 19.566321
_cell_length_b 11.341012
_cell_length_c 20.691949
_cell_angle_alpha 90.000000
_cell_angle_beta 157.746519
_cell_angle_gamma 90.000000
_cell_volume 1738.854518
_symmetry_space_group_name_H-M "P 21/M"
_symmetry_group_IT_number 11
_symmetry_cell_setting 'monoclinic'
loop_
_space_group_symop_operation_xyz
x,y,z
-x,1/2+y,-z
-x,-y,-z
x,1/2-y,z
loop_
_atom_site_type_symbol
_atom_site_label
_atom_site_fract_x
_atom_site_fract_y
_atom_site_fract_z
Si Si1 0.160268 0.382640 0.927952
Si Si2 0.945575 0.043720 0.349937
Si Si3 0.222279 0.616338 0.665757
Si Si4 0.053585 0.382894 0.304985
Si Si5 0.773936 0.967324 0.875090
Si Si6 0.628369 0.613755 0.015106
Si Si7 0.590677 0.612515 0.460486
Si Si8 0.144897 0.113640 0.194942
O O1 0.077322 0.250000 0.845622
O O2 0.222682 0.392735 0.056344
O O3 0.321711 0.389713 0.017171
O O4 0.041322 0.500044 0.808288
O O5 0.875532 0.115005 0.350449
O O6 0.011366 0.111340 0.344052
O O7 0.107217 0.962739 0.517035
O O8 0.778764 0.962169 0.182244
O O9 0.232932 0.750000 0.650611
O O10 0.426343 0.570876 0.850662
O O11 0.996153 0.250000 0.231647
O O12 0.263684 0.393528 0.469975
O O13 0.591077 0.042507 0.711917
O O14 0.789458 0.898354 0.821167
O O15 0.955921 0.046291 0.036595
O O16 0.640516 0.750000 0.047217
O O17 0.544895 0.750000 0.431200
O O18 0.702981 0.568931 0.621773
O O19 0.115531 0.250000 0.185221
#
# Coordination Sequence:
#
# PCOD9161867 Si02
#       8
#     4   4   4   4   4   4   4   4
#     4  10  21  38  59  87 120 152 198 244 291 348
#     4  10  20  34  56  81 112 146 194 237 285 337
#     4  10  20  34  55  81 111 149 190 237 294 345
#     4  10  21  39  61  85 121 157 195 242 290 345
#     4  11  21  35  61  83 115 152 194 235 294 341
#     4   9  19  35  54  77 111 149 188 236 291 345
#     4  10  21  37  58  85 115 153 196 238 290 349
#     4  10  21  38  57  83 116 150 192 242 290 344
#
# _framework density 18.402920000000002
#
# number of rings (size 3 to 8) (size 9 to 14) (size 15 to 20)
#    0.000    2.000    1.250    2.250    1.750    1.000 
#    0.000    1.250    0.000    3.750    0.000    0.000 
#    0.000    0.000    0.000    0.000    0.000    0.000 
#
# Total GULP energy -178358.672950 kJ/mol
# GULP energy per Si atom -5573.708530 kJ/mol
# Density = 1.836103 g / cm^3
# Si number density = 18.402920 Si / 1000 Ang^3
#
#
#
# Elastic Constant Matrix: (Units=GPa)
#
#
# Indices 1 2 3 4 5 6 
#
# 1 69.7947 26.9543 23.9508 0.0000 -11.2583 0.0000
# 2 26.9543 89.4497 46.8691 0.0000 -2.7267 0.0000
# 3 23.9508 46.8691 90.9844 0.0000 2.7436 0.0000
# 4 0.0000 0.0000 0.0000 16.5283 0.0000 1.2228
# 5 -11.2583 -2.7267 2.7436 0.0000 18.9165 0.0000
# 6 0.0000 0.0000 0.0000 1.2228 0.0000 21.1569
#
#
#
# Elastic Compliance Matrix: (Units=1/GPa)
#
#
# Indices 1 2 3 4 5 6 
#
# 1 0.018643 -0.003469 -0.003455 0.000000 0.011097 0.000000
# 2 -0.003469 0.016174 -0.007459 0.000000 0.001349 0.000000
# 3 -0.003455 -0.007459 0.015907 0.000000 -0.005439 0.000000
# 4 0.000000 0.000000 0.000000 0.060762 0.000000 -0.003512
# 5 0.011097 0.001349 -0.005439 0.000000 0.060451 0.000000
# 6 0.000000 0.000000 0.000000 -0.003512 0.000000 0.047469
#
#
# Mechanical properties :
#
#
# Convention : Reuss Voigt Hill
#
# Bulk Modulus (GPa) = 45.54330 49.53080 47.53705
# Shear Modulus (GPa) = 19.56996 21.48399 20.52698
#
# Velocity S-wave (km/s) = 3.26454 3.42046 3.34341
# Velocity P-wave (km/s) = 6.24590 6.52476 6.38685
#
# Compressibility (1/GPa) = 0.02195712
#
# Stress axis : x y z
#
# Youngs Moduli (GPa) = 53.63899 61.82572 62.86521
#
# Poissons Ratio (x) = 0.21448 0.21721
# Poissons Ratio (y) = 0.18608 0.46894
# Poissons Ratio (z) = 0.18533 0.46119
#
# Static dielectric constant tensor:
#      x y z
#    x 1.641070 0.000000 -0.015030 
#    y 0.000000 1.637490 0.000000 
#    z -0.015030 0.000000 1.602040 
# 
# From -- ./inp_files/66573.got.cif
#   From: 2010.05.17/outbox.cif.g08.bks.cpg/sg11_34_cif.got.tgz:66573.got - 2010.06.03 12:22:45.
