data_PCOD9161041
_publ_section_title
;
Structure prediction by ZEFSAII (Michael W. Deem and Ramdas Pophale) SiO2 
 PCOD9161041
Probable space group: P 21/M
;
_chemical_formula_sum "Si O2"
_cell_formula_units_Z 20
_cell_length_a 7.345248
_cell_length_b 9.337164
_cell_length_c 23.025710
_cell_angle_alpha 90.000000
_cell_angle_beta 144.454004
_cell_angle_gamma 90.000000
_cell_volume 918.072298
_symmetry_space_group_name_H-M "P 21/M"
_symmetry_group_IT_number 11
_symmetry_cell_setting 'monoclinic'
loop_
_space_group_symop_operation_xyz
x,y,z
-x,1/2+y,-z
-x,-y,-z
x,1/2-y,z
loop_
_atom_site_type_symbol
_atom_site_label
_atom_site_fract_x
_atom_site_fract_y
_atom_site_fract_z
Si Si1 0.323406 0.421805 0.007468
Si Si2 0.744789 0.087865 0.785761
Si Si3 0.220578 0.083878 0.797636
Si Si4 0.273456 0.086425 0.398151
Si Si5 0.283753 0.590785 0.598729
O O1 0.380688 0.250000 0.021757
O O2 0.959106 0.443820 0.897252
O O3 0.500000 0.500000 0.000000
O O4 0.475901 0.495631 0.102937
O O5 0.625157 0.250000 0.758416
O O6 0.983650 0.084498 0.792223
O O7 0.464824 0.982075 0.698758
O O8 0.289832 0.250000 0.802742
O O9 0.033907 0.004301 0.698072
O O10 0.212275 0.250000 0.401522
O O11 0.465238 0.097502 0.387941
O O12 0.500000 0.000000 0.500000
O O13 0.177183 0.750000 0.585022
O O14 0.000000 0.500000 0.500000
#
# Coordination Sequence:
#
# PCOD9161041 Si02
#       5
#     4   4   4   4   4
#     4   9  15  23  37  59  87 118 149 185 230 277
#     4   8  15  26  40  60  88 119 150 186 229 272
#     4   9  16  26  41  62  89 120 151 188 231 275
#     4  10  20  33  49  70  95 125 159 195 234 278
#     4  10  20  32  48  69  94 124 158 194 233 276
#
# _framework density 21.784779
#
# number of rings (size 3 to 8) (size 9 to 14) (size 15 to 20)
#    0.000    2.800    0.000    3.600    0.000    8.000 
#    0.000    0.000    0.000    0.000    0.000    1.400 
#    0.000    0.000    0.000    0.000    0.000    0.000 
#
# Total GULP energy -111656.139576 kJ/mol
# GULP energy per Si atom -5582.806979 kJ/mol
# Density = 2.173520 g / cm^3
# Si number density = 21.784779 Si / 1000 Ang^3
#
#
#
# Elastic Constant Matrix: (Units=GPa)
#
#
# Indices 1 2 3 4 5 6 
#
# 1 73.0527 11.4089 -0.4027 0.0000 -6.0745 0.0000
# 2 11.4089 230.0583 165.6501 0.0000 -2.0179 0.0000
# 3 -0.4027 165.6501 230.3062 0.0000 -22.4202 0.0000
# 4 0.0000 0.0000 0.0000 49.8194 0.0000 -0.0196
# 5 -6.0745 -2.0179 -22.4202 0.0000 13.9317 0.0000
# 6 0.0000 0.0000 0.0000 -0.0196 0.0000 3.7896
#
#
#
# Elastic Compliance Matrix: (Units=1/GPa)
#
#
# Indices 1 2 3 4 5 6 
#
# 1 0.015149 -0.003069 0.003360 0.000000 0.011568 0.000000
# 2 -0.003069 0.011263 -0.009579 0.000000 -0.015122 0.000000
# 3 0.003360 -0.009579 0.013334 0.000000 0.021536 0.000000
# 4 0.000000 0.000000 0.000000 0.020073 0.000000 0.000104
# 5 0.011568 -0.015122 0.021536 0.000000 0.109291 0.000000
# 6 0.000000 0.000000 0.000000 0.000104 0.000000 0.263882
#
#
# Mechanical properties :
#
#
# Convention : Reuss Voigt Hill
#
# Bulk Modulus (GPa) = 47.23577 98.52554 72.88066
# Shear Modulus (GPa) = 10.90219 37.29219 24.09719
#
# Velocity S-wave (km/s) = 2.23950 4.14193 3.32949
# Velocity P-wave (km/s) = 5.33077 8.25828 6.95041
#
# Compressibility (1/GPa) = 0.02117040
#
# Stress axis : x y z
#
# Youngs Moduli (GPa) = 66.01303 88.78369 74.99584
#
# Poissons Ratio (x) = 0.27250 -0.25200
# Poissons Ratio (y) = 0.20261 0.71837
# Poissons Ratio (z) = -0.22182 0.85044
#
# Static dielectric constant tensor:
#      x y z
#    x 1.945830 0.000000 -0.007780 
#    y 0.000000 1.739110 0.000000 
#    z -0.007780 0.000000 1.772740 
# 
# From -- ./inp_files/20177.got.cif
#   From: 2010.05.17/outbox.cif.g08.bks.cpg/sg11_11_cif.got.tgz:20177.got - 2010.06.03 12:22:45.
