data_PCOD9161797
_publ_section_title
;
Structure prediction by ZEFSAII (Michael W. Deem and Ramdas Pophale) SiO2 
 PCOD9161797
Probable space group: P 21/M
;
_chemical_formula_sum "Si O2"
_cell_formula_units_Z 20
_cell_length_a 13.801253
_cell_length_b 8.899031
_cell_length_c 22.462158
_cell_angle_alpha 90.000000
_cell_angle_beta 155.533413
_cell_angle_gamma 90.000000
_cell_volume 1142.571802
_symmetry_space_group_name_H-M "P 21/M"
_symmetry_group_IT_number 11
_symmetry_cell_setting 'monoclinic'
loop_
_space_group_symop_operation_xyz
x,y,z
-x,1/2+y,-z
-x,-y,-z
x,1/2-y,z
loop_
_atom_site_type_symbol
_atom_site_label
_atom_site_fract_x
_atom_site_fract_y
_atom_site_fract_z
Si Si1 0.777323 0.071273 0.221118
Si Si2 0.115552 0.571089 0.505915
Si Si3 0.726011 0.070167 0.054167
Si Si4 0.995605 0.571243 0.905262
Si Si5 0.622555 0.072399 0.778509
O O1 0.794890 0.250000 0.240199
O O2 0.803322 0.039808 0.165106
O O3 0.967289 0.987217 0.366843
O O4 0.517934 0.014435 0.093037
O O5 0.105180 0.750000 0.503879
O O6 0.381552 0.515671 0.649329
O O7 0.000000 0.500000 0.500000
O O8 0.683500 0.250000 0.025147
O O9 0.916773 0.029242 0.111357
O O10 0.945052 0.750000 0.878554
O O11 0.775529 0.482215 0.807947
O O12 0.212207 0.544766 0.071628
O O13 0.576051 0.250000 0.749089
#
# Coordination Sequence:
#
# PCOD9161797 Si02
#       5
#     4   4   4   4   4
#     4  10  20  34  54  81 110 140 179 222 265 315
#     4  12  24  38  56  78 107 140 175 217 268 320
#     4   9  18  34  56  80 108 143 181 221 263 311
#     4   9  18  34  55  78 106 140 176 216 262 311
#     4  10  20  34  54  81 110 138 174 218 263 315
#
# _framework density 17.504370999999999
#
# number of rings (size 3 to 8) (size 9 to 14) (size 15 to 20)
#    0.000    2.000    0.000    4.200    0.000    4.000 
#    0.000    1.000    0.000    0.000    0.000    0.000 
#    0.000    0.000    0.000    0.000    0.000    0.000 
#
# Total GULP energy -111702.478359 kJ/mol
# GULP energy per Si atom -5585.123918 kJ/mol
# Density = 1.746453 g / cm^3
# Si number density = 17.504371 Si / 1000 Ang^3
#
#
#
# Elastic Constant Matrix: (Units=GPa)
#
#
# Indices 1 2 3 4 5 6 
#
# 1 125.6188 59.0417 48.1554 0.0000 20.7248 0.0000
# 2 59.0417 100.4912 70.6870 0.0000 9.1221 0.0000
# 3 48.1554 70.6870 92.3983 0.0000 14.2825 0.0000
# 4 0.0000 0.0000 0.0000 33.9978 0.0000 4.3318
# 5 20.7248 9.1221 14.2825 0.0000 16.0838 0.0000
# 6 0.0000 0.0000 0.0000 4.3318 0.0000 30.5181
#
#
#
# Elastic Compliance Matrix: (Units=1/GPa)
#
#
# Indices 1 2 3 4 5 6 
#
# 1 0.013261 -0.006871 0.000446 0.000000 -0.013586 0.000000
# 2 -0.006871 0.025215 -0.017233 0.000000 0.009856 0.000000
# 3 0.000446 -0.017233 0.025908 0.000000 -0.013807 0.000000
# 4 0.000000 0.000000 0.000000 0.029955 0.000000 -0.004252
# 5 -0.013586 0.009856 -0.013807 0.000000 0.086351 0.000000
# 6 0.000000 0.000000 0.000000 -0.004252 0.000000 0.033371
#
#
# Mechanical properties :
#
#
# Convention : Reuss Voigt Hill
#
# Bulk Modulus (GPa) = 58.59092 74.91960 66.75526
# Shear Modulus (GPa) = 18.72186 25.49488 22.10837
#
# Velocity S-wave (km/s) = 3.27395 3.82053 3.55776
# Velocity P-wave (km/s) = 6.91639 7.89654 7.42266
#
# Compressibility (1/GPa) = 0.01706749
#
# Stress axis : x y z
#
# Youngs Moduli (GPa) = 75.41074 39.65858 38.59804
#
# Poissons Ratio (x) = 0.27251 -0.01720
# Poissons Ratio (y) = 0.51817 0.66514
# Poissons Ratio (z) = -0.03360 0.68342
#
# Static dielectric constant tensor:
#      x y z
#    x 1.592180 0.000000 -0.012480 
#    y 0.000000 1.593530 0.000000 
#    z -0.012480 0.000000 1.560100 
# 
# From -- ./inp_files/16075.got.cif
#   From: 2010.05.17/outbox.cif.g08.bks.cpg/sg11_9_cif.got.tgz:16075.got - 2010.06.03 12:22:45.
