data_PCOD9161857
_publ_section_title
;
Structure prediction by ZEFSAII (Michael W. Deem and Ramdas Pophale) SiO2 
 PCOD9161857
Probable space group: P 21/M
;
_chemical_formula_sum "Si O2"
_cell_formula_units_Z 24
_cell_length_a 9.897566
_cell_length_b 8.835967
_cell_length_c 20.785762
_cell_angle_alpha 90.000000
_cell_angle_beta 130.995018
_cell_angle_gamma 90.000000
_cell_volume 1372.022169
_symmetry_space_group_name_H-M "P 21/M"
_symmetry_group_IT_number 11
_symmetry_cell_setting 'monoclinic'
loop_
_space_group_symop_operation_xyz
x,y,z
-x,1/2+y,-z
-x,-y,-z
x,1/2-y,z
loop_
_atom_site_type_symbol
_atom_site_label
_atom_site_fract_x
_atom_site_fract_y
_atom_site_fract_z
Si Si1 0.369117 0.068172 0.767385
Si Si2 0.634851 0.068939 0.093577
Si Si3 0.039652 0.930723 0.360476
Si Si4 0.047107 0.430576 0.222616
Si Si5 0.397037 0.568461 0.281238
Si Si6 0.593690 0.068723 0.466013
O O1 0.379926 0.250000 0.778488
O O2 0.505818 0.022369 0.754425
O O3 0.163548 0.031799 0.683599
O O4 0.403448 0.992214 0.846800
O O5 0.622372 0.250000 0.089427
O O6 0.841845 0.027661 0.142974
O O7 0.500000 0.000000 0.000000
O O8 0.047568 0.750000 0.350212
O O9 0.194844 0.965008 0.459842
O O10 0.079250 0.015148 0.305963
O O11 0.065403 0.250000 0.225085
O O12 0.195668 0.507990 0.224987
O O13 0.397731 0.750000 0.285516
O O14 0.507304 0.502243 0.375819
O O15 0.568961 0.250000 0.457622
O O16 0.500000 0.000000 0.500000
#
# Coordination Sequence:
#
# PCOD9161857 Si02
#       6
#     4   4   4   4   4   4
#     4   9  20  38  57  79 110 144 181 225 272 323
#     4  10  21  38  62  88 109 136 175 219 269 328
#     4   9  18  34  54  75 103 144 188 227 270 316
#     4  10  20  34  55  81 108 140 181 223 265 320
#     4  11  22  35  53  79 112 149 183 223 275 318
#     4  11  21  32  51  78 109 145 191 233 268 315
#
# _framework density 17.492428
#
# number of rings (size 3 to 8) (size 9 to 14) (size 15 to 20)
#    0.000    2.000    1.667    2.000    0.000    4.667 
#    0.000    0.833    0.000    0.000    0.000    0.000 
#    0.000    0.000    0.000    0.000    0.000    0.000 
#
# Total GULP energy -133972.534862 kJ/mol
# GULP energy per Si atom -5582.188953 kJ/mol
# Density = 1.745261 g / cm^3
# Si number density = 17.492428 Si / 1000 Ang^3
#
#
#
# Elastic Constant Matrix: (Units=GPa)
#
#
# Indices 1 2 3 4 5 6 
#
# 1 169.7006 56.8440 82.2882 0.0000 3.8369 0.0000
# 2 56.8440 47.5392 49.1261 0.0000 5.0197 0.0000
# 3 82.2882 49.1261 140.3996 0.0000 8.2353 0.0000
# 4 0.0000 0.0000 0.0000 30.4498 0.0000 1.2350
# 5 3.8369 5.0197 8.2353 0.0000 15.4941 0.0000
# 6 0.0000 0.0000 0.0000 1.2350 0.0000 24.8414
#
#
#
# Elastic Compliance Matrix: (Units=1/GPa)
#
#
# Indices 1 2 3 4 5 6 
#
# 1 0.010532 -0.009882 -0.002838 0.000000 0.002102 0.000000
# 2 -0.009882 0.042556 -0.008705 0.000000 -0.006713 0.000000
# 3 -0.002838 -0.008705 0.011999 0.000000 -0.002855 0.000000
# 4 0.000000 0.000000 0.000000 0.032907 0.000000 -0.001636
# 5 0.002102 -0.006713 -0.002855 0.000000 0.067713 0.000000
# 6 0.000000 0.000000 0.000000 -0.001636 0.000000 0.040337
#
#
# Mechanical properties :
#
#
# Convention : Reuss Voigt Hill
#
# Bulk Modulus (GPa) = 44.97060 81.57288 63.27174
# Shear Modulus (GPa) = 19.50804 25.44912 22.47858
#
# Velocity S-wave (km/s) = 3.34313 3.81841 3.58864
# Velocity P-wave (km/s) = 6.37702 8.13479 7.30894
#
# Compressibility (1/GPa) = 0.02223675
#
# Stress axis : x y z
#
# Youngs Moduli (GPa) = 94.95286 23.49871 83.33900
#
# Poissons Ratio (x) = 0.23221 0.23653
# Poissons Ratio (y) = 0.93832 0.72544
# Poissons Ratio (z) = 0.26949 0.20455
#
# Static dielectric constant tensor:
#      x y z
#    x 1.591410 0.000000 0.035610 
#    y 0.000000 1.585510 0.000000 
#    z 0.035610 0.000000 1.574470 
# 
# From -- ./inp_files/20507.got.cif
#   From: 2010.05.17/outbox.cif.g08.bks.cpg/sg11_11_cif.got.tgz:20507.got - 2010.06.03 12:22:45.
