data_PCOD9161239
_publ_section_title
;
Structure prediction by ZEFSAII (Michael W. Deem and Ramdas Pophale) SiO2 
 PCOD9161239
Probable space group: P 21/M
;
_chemical_formula_sum "Si O2"
_cell_formula_units_Z 28
_cell_length_a 20.820561
_cell_length_b 8.549810
_cell_length_c 16.400760
_cell_angle_alpha 90.000000
_cell_angle_beta 31.970515
_cell_angle_gamma 90.000000
_cell_volume 1545.840582
_symmetry_space_group_name_H-M "P 21/M"
_symmetry_group_IT_number 11
_symmetry_cell_setting 'monoclinic'
loop_
_space_group_symop_operation_xyz
x,y,z
-x,1/2+y,-z
-x,-y,-z
x,1/2-y,z
loop_
_atom_site_type_symbol
_atom_site_label
_atom_site_fract_x
_atom_site_fract_y
_atom_site_fract_z
Si Si1 0.077903 0.566840 0.666320
Si Si2 0.899392 0.061290 0.544457
Si Si3 0.304111 0.933975 0.737025
Si Si4 0.046358 0.433350 0.036317
Si Si5 0.666705 0.931828 0.600212
Si Si6 0.628156 0.933193 0.830782
Si Si7 0.550350 0.564615 0.561863
O O1 0.046454 0.750000 0.695084
O O2 0.066906 0.505169 0.584714
O O3 0.218683 0.542197 0.535442
O O4 0.007389 0.499248 0.820779
O O5 0.900481 0.250000 0.543670
O O6 0.759639 0.007926 0.712856
O O7 0.000000 0.000000 0.500000
O O8 0.277115 0.750000 0.774334
O O9 0.418395 0.976178 0.670530
O O10 0.188836 0.034884 0.883322
O O11 0.349668 0.971446 0.596912
O O12 0.017393 0.250000 0.066423
O O13 0.000000 0.500000 0.000000
O O14 0.706787 0.750000 0.547492
O O15 0.621850 0.950446 0.739866
O O16 0.567367 0.962366 0.638725
O O17 0.634761 0.750000 0.844692
O O18 0.500000 0.000000 0.000000
O O19 0.567907 0.750000 0.526379
#
# Coordination Sequence:
#
# PCOD9161239 Si02
#       7
#     4   4   4   4   4   4   4
#     4   9  20  36  54  77 108 140 177 220 264 321
#     4  10  20  38  61  84 112 148 188 231 285 341
#     4  10  20  33  50  74 105 138 175 216 260 309
#     4  11  22  36  53  76 107 141 178 219 264 313
#     4   9  18  33  55  78 102 134 175 217 260 313
#     4  10  20  36  57  83 114 144 183 230 279 333
#     4   9  18  34  53  73 101 137 176 216 260 310
#
# _framework density 18.113123000000002
#
# number of rings (size 3 to 8) (size 9 to 14) (size 15 to 20)
#    0.000    2.286    0.000    2.571    0.000    5.714 
#    2.571    0.000    0.000    0.000    0.000    0.000 
#    0.000    0.000    0.000    0.000    0.000    0.000 
#
# Total GULP energy -156003.221294 kJ/mol
# GULP energy per Si atom -5571.543618 kJ/mol
# Density = 1.807190 g / cm^3
# Si number density = 18.113123 Si / 1000 Ang^3
#
#
#
# Elastic Constant Matrix: (Units=GPa)
#
#
# Indices 1 2 3 4 5 6 
#
# 1 112.1460 29.1742 53.6888 0.0000 6.8935 0.0000
# 2 29.1742 32.3812 31.5510 0.0000 1.2495 0.0000
# 3 53.6888 31.5510 101.3538 0.0000 -2.4715 0.0000
# 4 0.0000 0.0000 0.0000 26.2855 0.0000 -5.4408
# 5 6.8935 1.2495 -2.4715 0.0000 10.8756 0.0000
# 6 0.0000 0.0000 0.0000 -5.4408 0.0000 27.4699
#
#
#
# Elastic Compliance Matrix: (Units=1/GPa)
#
#
# Indices 1 2 3 4 5 6 
#
# 1 0.013870 -0.006834 -0.005445 0.000000 -0.009244 0.000000
# 2 -0.006834 0.048448 -0.011556 0.000000 -0.003861 0.000000
# 3 -0.005445 -0.011556 0.016556 0.000000 0.008541 0.000000
# 4 0.000000 0.000000 0.000000 0.039670 0.000000 0.007857
# 5 -0.009244 -0.003861 0.008541 0.000000 0.100193 0.000000
# 6 0.000000 0.000000 0.000000 0.007857 0.000000 0.037960
#
#
# Mechanical properties :
#
#
# Convention : Reuss Voigt Hill
#
# Bulk Modulus (GPa) = 32.04684 52.74545 42.39615
# Shear Modulus (GPa) = 15.88478 21.69066 18.78772
#
# Velocity S-wave (km/s) = 2.96459 3.46426 3.22412
# Velocity P-wave (km/s) = 5.42673 6.72196 6.10877
#
# Compressibility (1/GPa) = 0.03120432
#
# Stress axis : x y z
#
# Youngs Moduli (GPa) = 72.09956 20.64089 60.40013
#
# Poissons Ratio (x) = 0.14106 0.32888
# Poissons Ratio (y) = 0.49272 0.69796
# Poissons Ratio (z) = 0.39259 0.23852
#
# Static dielectric constant tensor:
#      x y z
#    x 1.626520 0.000000 0.021620 
#    y 0.000000 1.639920 0.000000 
#    z 0.021620 0.000000 1.619060 
# 
# From -- ./inp_files/54517.got.cif
#   From: 2010.05.17/outbox.cif.g08.bks.cpg/sg11_28_cif.got.tgz:54517.got - 2010.06.03 12:22:45.
