data_PCOD9161403
_publ_section_title
;
Structure prediction by ZEFSAII (Michael W. Deem and Ramdas Pophale) SiO2 
 PCOD9161403
Probable space group: P 21/M
;
_chemical_formula_sum "Si O2"
_cell_formula_units_Z 28
_cell_length_a 19.136216
_cell_length_b 8.846797
_cell_length_c 19.139794
_cell_angle_alpha 90.000000
_cell_angle_beta 150.407332
_cell_angle_gamma 90.000000
_cell_volume 1600.137779
_symmetry_space_group_name_H-M "P 21/M"
_symmetry_group_IT_number 11
_symmetry_cell_setting 'monoclinic'
loop_
_space_group_symop_operation_xyz
x,y,z
-x,1/2+y,-z
-x,-y,-z
x,1/2-y,z
loop_
_atom_site_type_symbol
_atom_site_label
_atom_site_fract_x
_atom_site_fract_y
_atom_site_fract_z
Si Si1 0.520362 0.569824 0.305248
Si Si2 0.869405 0.431619 0.928306
Si Si3 0.088836 0.429855 0.738599
Si Si4 0.848815 0.430718 0.346893
Si Si5 0.237867 0.568548 0.579555
Si Si6 0.433763 0.430800 0.372737
Si Si7 0.796086 0.429870 0.020488
O O1 0.525426 0.750000 0.321330
O O2 0.647723 0.515528 0.367549
O O3 0.519095 0.486138 0.378557
O O4 0.369212 0.535583 0.137400
O O5 0.863149 0.250000 0.915358
O O6 0.724030 0.503774 0.774375
O O7 0.875131 0.465327 0.016316
O O8 0.000000 0.500000 0.000000
O O9 0.098383 0.250000 0.740143
O O10 0.178381 0.504299 0.753435
O O11 0.922773 0.470799 0.583524
O O12 0.142907 0.483612 0.860394
O O13 0.859989 0.250000 0.353282
O O14 0.749620 0.468166 0.326791
O O15 0.000000 0.500000 0.500000
O O16 0.253689 0.750000 0.585569
O O17 0.500000 0.500000 0.500000
O O18 0.431227 0.250000 0.373769
O O19 0.808350 0.250000 0.043352
#
# Coordination Sequence:
#
# PCOD9161403 Si02
#       7
#     4   4   4   4   4   4   4
#     4  10  21  37  56  79 107 140 177 217 265 320
#     4  10  21  38  58  82 111 143 180 221 267 320
#     4  10  20  33  53  80 106 136 178 220 261 311
#     4   9  17  31  51  75 106 138 172 216 264 311
#     4   9  19  34  52  78 107 137 175 218 262 312
#     4  11  22  38  59  81 108 142 179 222 270 320
#     4   9  20  37  54  75 106 140 174 214 261 312
#
# _framework density 17.498493
#
# number of rings (size 3 to 8) (size 9 to 14) (size 15 to 20)
#    0.000    2.286    0.000    4.714    0.000    8.000 
#    0.000    3.571    0.000    0.000    0.000    0.000 
#    0.000    0.000    0.000    0.000    0.000    0.000 
#
# Total GULP energy -156213.892057 kJ/mol
# GULP energy per Si atom -5579.067573 kJ/mol
# Density = 1.745867 g / cm^3
# Si number density = 17.498493 Si / 1000 Ang^3
#
#
#
# Elastic Constant Matrix: (Units=GPa)
#
#
# Indices 1 2 3 4 5 6 
#
# 1 178.2415 84.7176 80.0580 0.0000 -11.1547 0.0000
# 2 84.7176 91.6159 51.1982 0.0000 -12.3133 0.0000
# 3 80.0580 51.1982 66.0480 0.0000 -21.5662 0.0000
# 4 0.0000 0.0000 0.0000 30.8773 0.0000 -2.2884
# 5 -11.1547 -12.3133 -21.5662 0.0000 26.7184 0.0000
# 6 0.0000 0.0000 0.0000 -2.2884 0.0000 36.2533
#
#
#
# Elastic Compliance Matrix: (Units=1/GPa)
#
#
# Indices 1 2 3 4 5 6 
#
# 1 0.016007 -0.006066 -0.018238 0.000000 -0.010834 0.000000
# 2 -0.006066 0.021928 -0.009740 0.000000 -0.000288 0.000000
# 3 -0.018238 -0.009740 0.055463 0.000000 0.032665 0.000000
# 4 0.000000 0.000000 0.000000 0.032538 0.000000 0.002054
# 5 -0.010834 -0.000288 0.032665 0.000000 0.059138 0.000000
# 6 0.000000 0.000000 0.000000 0.002054 0.000000 0.027713
#
#
# Mechanical properties :
#
#
# Convention : Reuss Voigt Hill
#
# Bulk Modulus (GPa) = 39.50800 85.31699 62.41250
# Shear Modulus (GPa) = 17.28239 26.76524 22.02382
#
# Velocity S-wave (km/s) = 3.14610 3.91522 3.55154
# Velocity P-wave (km/s) = 5.98533 8.32473 7.25001
#
# Compressibility (1/GPa) = 0.02531133
#
# Stress axis : x y z
#
# Youngs Moduli (GPa) = 62.47230 45.60285 18.03016
#
# Poissons Ratio (x) = 0.27662 0.32883
# Poissons Ratio (y) = 0.37895 0.17561
# Poissons Ratio (z) = 1.13936 0.44416
#
# Static dielectric constant tensor:
#      x y z
#    x 1.604350 0.000000 -0.015980 
#    y 0.000000 1.571490 0.000000 
#    z -0.015980 0.000000 1.590180 
# 
# From -- ./inp_files/29106.got.cif
#   From: 2010.05.17/outbox.cif.g08.bks.cpg/sg11_15_cif.got.tgz:29106.got - 2010.06.03 12:22:45.
