data_PCOD9161890
_publ_section_title
;
Structure prediction by ZEFSAII (Michael W. Deem and Ramdas Pophale) SiO2 
 PCOD9161890
Probable space group: P 21/M
;
_chemical_formula_sum "Si O2"
_cell_formula_units_Z 32
_cell_length_a 11.543400
_cell_length_b 11.104683
_cell_length_c 13.947660
_cell_angle_alpha 90.000000
_cell_angle_beta 66.928589
_cell_angle_gamma 90.000000
_cell_volume 1644.891229
_symmetry_space_group_name_H-M "P 21/M"
_symmetry_group_IT_number 11
_symmetry_cell_setting 'monoclinic'
loop_
_space_group_symop_operation_xyz
x,y,z
-x,1/2+y,-z
-x,-y,-z
x,1/2-y,z
loop_
_atom_site_type_symbol
_atom_site_label
_atom_site_fract_x
_atom_site_fract_y
_atom_site_fract_z
Si Si1 0.877756 0.955967 0.405699
Si Si2 0.225800 0.390616 0.858274
Si Si3 0.633069 0.382558 0.476890
Si Si4 0.546195 0.493644 0.319715
Si Si5 0.777853 0.605742 0.917858
Si Si6 0.635683 0.606307 0.778156
Si Si7 0.979128 0.389284 0.830215
Si Si8 0.892065 0.618091 0.610219
O O1 0.741966 0.017100 0.439737
O O2 0.980687 0.056019 0.400304
O O3 0.933354 0.894952 0.293246
O O4 0.877935 0.876682 0.500936
O O5 0.248774 0.250000 0.831606
O O6 0.317681 0.463530 0.759455
O O7 0.078890 0.412181 0.883268
O O8 0.253719 0.413562 0.960616
O O9 0.688648 0.250000 0.469807
O O10 0.562815 0.393670 0.397372
O O11 0.536475 0.408643 0.594847
O O12 0.473964 0.453705 0.247315
O O13 0.816876 0.750000 0.896544
O O14 0.660236 0.589660 0.883358
O O15 0.880476 0.500797 0.859872
O O16 0.625517 0.750000 0.764331
O O17 0.766106 0.556989 0.690161
O O18 0.929309 0.250000 0.854358
O O19 0.892974 0.750000 0.653088
#
# Coordination Sequence:
#
# PCOD9161890 Si02
#       8
#     4   4   4   4   4   4   4   4
#     4  11  20  36  56  86 116 156 194 243 300 362
#     4  10  22  41  64  87 119 158 201 248 306 363
#     4  11  23  37  57  86 119 155 202 249 294 354
#     4  11  22  40  57  85 118 159 201 245 301 352
#     4  10  22  42  66  91 119 159 202 253 308 362
#     4  10  20  37  59  83 117 160 205 249 299 354
#     4  11  22  39  62  93 123 155 197 251 310 366
#     4  10  20  34  55  82 117 155 194 240 298 360
#
# _framework density 19.454174999999999
#
# number of rings (size 3 to 8) (size 9 to 14) (size 15 to 20)
#    0.000    1.500    3.750    1.875    0.000    1.000 
#    0.000    3.750    0.000    0.000    0.000    0.000 
#    0.000    0.000    0.000    0.000    0.000    0.000 
#
# Total GULP energy -178267.444263 kJ/mol
# GULP energy per Si atom -5570.857633 kJ/mol
# Density = 1.940990 g / cm^3
# Si number density = 19.454175 Si / 1000 Ang^3
#
#
#
# Elastic Constant Matrix: (Units=GPa)
#
#
# Indices 1 2 3 4 5 6 
#
# 1 72.4765 29.5806 11.4617 0.0000 18.3918 0.0000
# 2 29.5806 78.4713 23.1184 0.0000 -1.3645 0.0000
# 3 11.4617 23.1184 88.7176 0.0000 22.3106 0.0000
# 4 0.0000 0.0000 0.0000 17.2139 0.0000 37.9177
# 5 18.3918 -1.3645 22.3106 0.0000 35.0113 0.0000
# 6 0.0000 0.0000 0.0000 37.9177 0.0000 293.4070
#
#
#
# Elastic Compliance Matrix: (Units=1/GPa)
#
#
# Indices 1 2 3 4 5 6 
#
# 1 0.020097 -0.008637 0.002851 0.000000 -0.012710 0.000000
# 2 -0.008637 0.017857 -0.005780 0.000000 0.008916 0.000000
# 3 0.002851 -0.005780 0.015294 0.000000 -0.011468 0.000000
# 4 0.000000 0.000000 0.000000 0.081210 0.000000 -0.010495
# 5 -0.012710 0.008916 -0.011468 0.000000 0.042894 0.000000
# 6 0.000000 0.000000 0.000000 -0.010495 0.000000 0.004765
#
#
# Mechanical properties :
#
#
# Convention : Reuss Voigt Hill
#
# Bulk Modulus (GPa) = 33.20470 40.88743 37.04607
# Shear Modulus (GPa) = 23.22484 80.82677 52.02581
#
# Velocity S-wave (km/s) = 3.45892 6.45271 5.17695
# Velocity P-wave (km/s) = 5.74956 8.75097 7.40395
#
# Compressibility (1/GPa) = 0.03011622
#
# Stress axis : x y z
#
# Youngs Moduli (GPa) = 49.75843 56.00072 65.38713
#
# Poissons Ratio (x) = 0.48366 -0.18639
# Poissons Ratio (y) = 0.42974 0.37791
# Poissons Ratio (z) = -0.14184 0.32366
#
# Static dielectric constant tensor:
#      x y z
#    x 1.693590 0.000000 0.019500 
#    y 0.000000 1.683980 0.000000 
#    z 0.019500 0.000000 1.699240 
# 
# From -- ./inp_files/35023.got.cif
#   From: 2010.05.17/outbox.cif.g08.bks.cpg/sg11_18_cif.got.tgz:35023.got - 2010.06.03 12:22:45.
