data_PCOD9161916
_publ_section_title
;
Structure prediction by ZEFSAII (Michael W. Deem and Ramdas Pophale) SiO2 
 PCOD9161916
Probable space group: P 21/M
;
_chemical_formula_sum "Si O2"
_cell_formula_units_Z 32
_cell_length_a 18.646232
_cell_length_b 9.068819
_cell_length_c 23.215819
_cell_angle_alpha 90.000000
_cell_angle_beta 24.558425
_cell_angle_gamma 90.000000
_cell_volume 1631.635811
_symmetry_space_group_name_H-M "P 21/M"
_symmetry_group_IT_number 11
_symmetry_cell_setting 'monoclinic'
loop_
_space_group_symop_operation_xyz
x,y,z
-x,1/2+y,-z
-x,-y,-z
x,1/2-y,z
loop_
_atom_site_type_symbol
_atom_site_label
_atom_site_fract_x
_atom_site_fract_y
_atom_site_fract_z
Si Si1 0.976407 0.573987 0.841987
Si Si2 0.334785 0.918609 0.993264
Si Si3 0.319495 0.916892 0.136490
Si Si4 0.635364 0.073232 0.722529
Si Si5 0.481887 0.924245 0.720580
Si Si6 0.220397 0.924721 0.556249
Si Si7 0.014624 0.575311 0.586520
Si Si8 0.926069 0.074933 0.997058
O O1 0.966444 0.750000 0.855890
O O2 0.117276 0.540511 0.689776
O O3 0.006816 0.497165 0.880802
O O4 0.795944 0.512175 0.949439
O O5 0.345575 0.750000 0.964183
O O6 0.523370 0.992809 0.852826
O O7 0.264531 0.915018 0.109331
O O8 0.346962 0.750000 0.136342
O O9 0.165074 0.990970 0.284197
O O10 0.500000 0.000000 0.000000
O O11 0.624274 0.250000 0.734910
O O12 0.835986 0.031735 0.567793
O O13 0.542472 0.017051 0.731891
O O14 0.509353 0.750000 0.710653
O O15 0.607805 0.980669 0.578267
O O16 0.280856 0.948739 0.855111
O O17 0.261757 0.750000 0.525993
O O18 0.100569 0.949045 0.587131
O O19 0.983538 0.750000 0.603677
O O20 0.956794 0.250000 0.975149
O O21 0.000000 0.000000 0.000000
#
# Coordination Sequence:
#
# PCOD9161916 Si02
#       8
#     4   4   4   4   4   4   4   4
#     4  11  21  36  60  87 115 150 191 237 285 338
#     4  11  22  36  56  87 117 146 191 240 284 336
#     4  11  24  39  58  83 115 154 192 234 287 343
#     4  10  20  34  57  86 114 149 188 232 285 338
#     4  10  20  34  55  84 116 148 187 236 285 335
#     4   9  19  34  56  86 115 147 188 233 283 339
#     4   9  18  35  56  83 115 146 188 233 279 337
#     4  11  24  40  58  84 117 154 194 237 287 345
#
# _framework density 19.612221000000002
#
# number of rings (size 3 to 8) (size 9 to 14) (size 15 to 20)
#    0.000    1.750    2.500    3.000    0.000    6.500 
#    0.000    1.250    0.000    0.000    0.000    0.000 
#    0.000    0.000    0.000    0.000    0.000    0.000 
#
# Total GULP energy -178784.349665 kJ/mol
# GULP energy per Si atom -5587.010927 kJ/mol
# Density = 1.956758 g / cm^3
# Si number density = 19.612221 Si / 1000 Ang^3
#
#
#
# Elastic Constant Matrix: (Units=GPa)
#
#
# Indices 1 2 3 4 5 6 
#
# 1 62.2598 18.1054 18.7104 0.0000 11.9197 0.0000
# 2 18.1054 75.1708 60.2673 0.0000 6.5293 0.0000
# 3 18.7104 60.2673 125.1223 0.0000 23.2787 0.0000
# 4 0.0000 0.0000 0.0000 39.5822 0.0000 -0.4318
# 5 11.9197 6.5293 23.2787 0.0000 25.8376 0.0000
# 6 0.0000 0.0000 0.0000 -0.4318 0.0000 22.4918
#
#
#
# Elastic Compliance Matrix: (Units=1/GPa)
#
#
# Indices 1 2 3 4 5 6 
#
# 1 0.018691 -0.004528 0.000934 0.000000 -0.008320 0.000000
# 2 -0.004528 0.023259 -0.011799 0.000000 0.006841 0.000000
# 3 0.000934 -0.011799 0.015691 0.000000 -0.011586 0.000000
# 4 0.000000 0.000000 0.000000 0.025269 0.000000 0.000485
# 5 -0.008320 0.006841 -0.011586 0.000000 0.051251 0.000000
# 6 0.000000 0.000000 0.000000 0.000485 0.000000 0.044470
#
#
# Mechanical properties :
#
#
# Convention : Reuss Voigt Hill
#
# Bulk Modulus (GPa) = 37.23676 50.74658 43.99167
# Shear Modulus (GPa) = 22.89706 28.61363 25.75534
#
# Velocity S-wave (km/s) = 3.42056 3.82379 3.62778
# Velocity P-wave (km/s) = 5.88456 6.73990 6.32670
#
# Compressibility (1/GPa) = 0.02685518
#
# Stress axis : x y z
#
# Youngs Moduli (GPa) = 53.50285 42.99432 63.72973
#
# Poissons Ratio (x) = 0.19467 -0.05951
# Poissons Ratio (y) = 0.24225 0.75193
# Poissons Ratio (z) = -0.04996 0.50728
#
# Static dielectric constant tensor:
#      x y z
#    x 1.707880 0.000000 0.030390 
#    y 0.000000 1.660910 0.000000 
#    z 0.030390 0.000000 1.696230 
# 
# From -- ./inp_files/67205.got.cif
#   From: 2010.05.17/outbox.cif.g08.bks.cpg/sg11_34_cif.got.tgz:67205.got - 2010.06.03 12:22:45.
