data_PCOD9161438
_publ_section_title
;
Structure prediction by ZEFSAII (Michael W. Deem and Ramdas Pophale) SiO2 
 PCOD9161438
Probable space group: P 21/M
;
_chemical_formula_sum "Si O2"
_cell_formula_units_Z 28
_cell_length_a 18.440480
_cell_length_b 9.159927
_cell_length_c 15.494126
_cell_angle_alpha 90.000000
_cell_angle_beta 144.129660
_cell_angle_gamma 90.000000
_cell_volume 1533.536302
_symmetry_space_group_name_H-M "P 21/M"
_symmetry_group_IT_number 11
_symmetry_cell_setting 'monoclinic'
loop_
_space_group_symop_operation_xyz
x,y,z
-x,1/2+y,-z
-x,-y,-z
x,1/2-y,z
loop_
_atom_site_type_symbol
_atom_site_label
_atom_site_fract_x
_atom_site_fract_y
_atom_site_fract_z
Si Si1 0.393889 0.925843 0.337790
Si Si2 0.500723 0.577700 0.722608
Si Si3 0.212409 0.920677 0.427554
Si Si4 0.875944 0.074642 0.845884
Si Si5 0.156676 0.423842 0.724710
Si Si6 0.085690 0.076640 0.461353
Si Si7 0.441008 0.075266 0.026723
O O1 0.406365 0.750000 0.355651
O O2 0.254409 0.965024 0.233632
O O3 0.500000 0.000000 0.500000
O O4 0.417346 0.983624 0.263545
O O5 0.535678 0.750000 0.751724
O O6 0.359039 0.564648 0.555507
O O7 0.506516 0.532901 0.828813
O O8 0.188122 0.750000 0.422684
O O9 0.142989 0.961801 0.273092
O O10 0.168572 0.014201 0.465547
O O11 0.888027 0.250000 0.865014
O O12 0.000000 0.000000 0.000000
O O13 0.136199 0.250000 0.712960
O O14 0.141062 0.463292 0.608619
O O15 0.050629 0.507673 0.673513
O O16 0.294926 0.457067 0.886944
O O17 0.078549 0.250000 0.449821
O O18 0.457210 0.250000 0.033080
O O19 0.500000 0.000000 0.000000
#
# Coordination Sequence:
#
# PCOD9161438 Si02
#       7
#     4   4   4   4   4   4   4
#     4  11  22  40  64  89 119 154 197 249 298 355
#     4  10  21  38  60  87 116 153 197 239 293 356
#     4  10  20  37  57  79 113 148 184 233 288 348
#     4  10  23  41  60  86 119 153 191 241 296 351
#     4   9  19  36  53  76 112 149 185 230 285 339
#     4  10  20  33  54  81 108 144 192 235 275 337
#     4  10  21  36  57  83 116 152 189 238 290 343
#
# _framework density 18.258454
#
# number of rings (size 3 to 8) (size 9 to 14) (size 15 to 20)
#    0.000    2.000    1.429    1.714    0.000    5.143 
#    0.000    4.286    0.000    0.000    0.000    0.000 
#    0.000    0.000    0.000    0.000    0.000    0.000 
#
# Total GULP energy -156302.139443 kJ/mol
# GULP energy per Si atom -5582.219266 kJ/mol
# Density = 1.821690 g / cm^3
# Si number density = 18.258454 Si / 1000 Ang^3
#
#
#
# Elastic Constant Matrix: (Units=GPa)
#
#
# Indices 1 2 3 4 5 6 
#
# 1 80.6160 34.8793 17.2710 0.0000 1.9468 0.0000
# 2 34.8793 31.8826 26.3907 0.0000 4.2557 0.0000
# 3 17.2710 26.3907 96.0785 0.0000 3.1852 0.0000
# 4 0.0000 0.0000 0.0000 27.2013 0.0000 -0.1046
# 5 1.9468 4.2557 3.1852 0.0000 20.8545 0.0000
# 6 0.0000 0.0000 0.0000 -0.1046 0.0000 39.6168
#
#
#
# Elastic Compliance Matrix: (Units=1/GPa)
#
#
# Indices 1 2 3 4 5 6 
#
# 1 0.024833 -0.030843 0.003896 0.000000 0.003381 0.000000
# 2 -0.030843 0.079831 -0.016020 0.000000 -0.010964 0.000000
# 3 0.003896 -0.016020 0.014083 0.000000 0.000754 0.000000
# 4 0.000000 0.000000 0.000000 0.036763 0.000000 0.000097
# 5 0.003381 -0.010964 0.000754 0.000000 0.049758 0.000000
# 6 0.000000 0.000000 0.000000 0.000097 0.000000 0.025242
#
#
# Mechanical properties :
#
#
# Convention : Reuss Voigt Hill
#
# Bulk Modulus (GPa) = 30.47591 40.62878 35.55235
# Shear Modulus (GPa) = 15.27272 26.20360 20.73816
#
# Velocity S-wave (km/s) = 2.89532 3.79245 3.37384
# Velocity P-wave (km/s) = 5.28250 6.44028 5.88991
#
# Compressibility (1/GPa) = 0.03281281
#
# Stress axis : x y z
#
# Youngs Moduli (GPa) = 40.26967 12.52650 71.00659
#
# Poissons Ratio (x) = 0.38635 -0.27663
# Poissons Ratio (y) = 1.24202 1.13753
# Poissons Ratio (z) = -0.15689 0.20068
#
# Static dielectric constant tensor:
#      x y z
#    x 1.611630 0.000000 -0.006910 
#    y 0.000000 1.615840 0.000000 
#    z -0.006910 0.000000 1.625400 
# 
# From -- ./inp_files/53294.got.cif
#   From: 2010.05.17/outbox.cif.g08.bks.cpg/sg11_27_cif.got.tgz:53294.got - 2010.06.03 12:22:45.
