data_PCOD9161931
_publ_section_title
;
Structure prediction by ZEFSAII (Michael W. Deem and Ramdas Pophale) SiO2 
 PCOD9161931
Probable space group: P 21/M
;
_chemical_formula_sum "Si O2"
_cell_formula_units_Z 20
_cell_length_a 9.427014
_cell_length_b 20.800745
_cell_length_c 5.397372
_cell_angle_alpha 90.000000
_cell_angle_beta 79.349899
_cell_angle_gamma 90.000000
_cell_volume 1040.133552
_symmetry_space_group_name_H-M "P 21/M"
_symmetry_group_IT_number 11
_symmetry_cell_setting 'monoclinic'
loop_
_space_group_symop_operation_xyz
x,y,z
-x,1/2+y,-z
-x,-y,-z
x,1/2-y,z
loop_
_atom_site_type_symbol
_atom_site_label
_atom_site_fract_x
_atom_site_fract_y
_atom_site_fract_z
Si Si1 0.011655 0.422761 0.027832
Si Si2 0.431333 0.555631 0.356170
Si Si3 0.102319 0.937427 0.435361
Si Si4 0.550578 0.822214 0.532081
Si Si5 0.666438 0.874570 0.004836
O O1 0.083242 0.903131 0.705613
O O2 0.175968 0.404630 0.028459
O O3 0.954673 0.398166 0.782000
O O4 0.000000 0.500000 0.000000
O O5 0.500000 0.500000 0.500000
O O6 0.267167 0.541858 0.339530
O O7 0.434748 0.621719 0.516295
O O8 0.540747 0.572431 0.096872
O O9 0.000000 0.000000 0.500000
O O10 0.494440 0.750000 0.572372
O O11 0.646921 0.828657 0.251252
O O12 0.636081 0.841235 0.753046
#
# Coordination Sequence:
#
# PCOD9161931 Si02
#       5
#     4   4   4   4   4
#     4  10  20  34  55  86 128 156 187 242 313 359
#     4  10  23  37  64  97 123 154 213 259 308 370
#     4  10  21  34  54  85 129 162 184 243 318 358
#     4  10  23  41  64  89 123 162 211 262 308 362
#     4  10  22  38  65  89 120 162 215 246 307 368
#
# _framework density 19.228301999999999
#
# number of rings (size 3 to 8) (size 9 to 14) (size 15 to 20)
#    1.200    0.800    0.000    4.200    8.400    0.800 
#    0.000    0.000    0.000    7.200    0.000    0.000 
#    0.000    0.000    0.000    0.000    0.000    0.000 
#
# Total GULP energy -111366.902716 kJ/mol
# GULP energy per Si atom -5568.345136 kJ/mol
# Density = 1.918454 g / cm^3
# Si number density = 19.228302 Si / 1000 Ang^3
#
#
#
# Elastic Constant Matrix: (Units=GPa)
#
#
# Indices 1 2 3 4 5 6 
#
# 1 122.2983 16.6904 9.9513 0.0000 -3.5375 0.0000
# 2 16.6904 83.5171 -1.2482 0.0000 7.9964 0.0000
# 3 9.9513 -1.2482 132.2531 0.0000 12.2537 0.0000
# 4 0.0000 0.0000 0.0000 10.0203 0.0000 -1.6335
# 5 -3.5375 7.9964 12.2537 0.0000 26.4676 0.0000
# 6 0.0000 0.0000 0.0000 -1.6335 0.0000 13.5031
#
#
#
# Elastic Compliance Matrix: (Units=1/GPa)
#
#
# Indices 1 2 3 4 5 6 
#
# 1 0.008572 -0.001929 -0.000860 0.000000 0.002127 0.000000
# 2 -0.001929 0.012794 0.000677 0.000000 -0.004437 0.000000
# 3 -0.000860 0.000677 0.008005 0.000000 -0.004026 0.000000
# 4 0.000000 0.000000 0.000000 0.101805 0.000000 0.012315
# 5 0.002127 -0.004437 -0.004026 0.000000 0.041271 0.000000
# 6 0.000000 0.000000 0.000000 0.012315 0.000000 0.075547
#
#
# Mechanical properties :
#
#
# Convention : Reuss Voigt Hill
#
# Bulk Modulus (GPa) = 39.76831 43.20619 41.48725
# Shear Modulus (GPa) = 19.18643 30.84320 25.01481
#
# Velocity S-wave (km/s) = 3.16226 4.00941 3.61076
# Velocity P-wave (km/s) = 5.83612 6.62968 6.24552
#
# Compressibility (1/GPa) = 0.02514565
#
# Stress axis : x y z
#
# Youngs Moduli (GPa) = 116.66486 78.16102 124.91606
#
# Poissons Ratio (x) = 0.15081 0.10746
# Poissons Ratio (y) = 0.22510 -0.08457
# Poissons Ratio (z) = 0.10036 -0.05292
#
# Static dielectric constant tensor:
#      x y z
#    x 1.647610 0.000000 0.003980 
#    y 0.000000 1.651970 0.000000 
#    z 0.003980 0.000000 1.777810 
# 
# From -- ./inp_files/1942.got.cif
#   From: 2010.05.17/outbox.cif.g08.bks.cpg/sg11_1_cif.got.tgz:1942.got - 2010.06.03 12:22:45.
