data_PCOD9161911
_publ_section_title
;
Structure prediction by ZEFSAII (Michael W. Deem and Ramdas Pophale) SiO2 
 PCOD9161911
Probable space group: P 21/M
;
_chemical_formula_sum "Si O2"
_cell_formula_units_Z 20
_cell_length_a 22.186124
_cell_length_b 7.949869
_cell_length_c 15.950634
_cell_angle_alpha 90.000000
_cell_angle_beta 163.236333
_cell_angle_gamma 90.000000
_cell_volume 811.431322
_symmetry_space_group_name_H-M "P 21/M"
_symmetry_group_IT_number 11
_symmetry_cell_setting 'monoclinic'
loop_
_space_group_symop_operation_xyz
x,y,z
-x,1/2+y,-z
-x,-y,-z
x,1/2-y,z
loop_
_atom_site_type_symbol
_atom_site_label
_atom_site_fract_x
_atom_site_fract_y
_atom_site_fract_z
Si Si1 0.245666 0.954529 0.401203
Si Si2 0.223275 0.942510 0.187368
Si Si3 0.160526 0.055345 0.923390
Si Si4 0.738834 0.951502 0.301676
Si Si5 0.313228 0.045233 0.950076
O O1 0.216631 0.750000 0.361182
O O2 0.439610 0.993107 0.718747
O O3 0.302814 0.013150 0.382253
O O4 0.027771 0.036508 0.136028
O O5 0.285358 0.750000 0.270272
O O6 0.266603 0.005415 0.151762
O O7 0.206825 0.250000 0.976400
O O8 0.910761 0.028323 0.592333
O O9 0.228195 0.975458 0.924890
O O10 0.757809 0.750000 0.330968
O O11 0.784223 0.014424 0.266815
O O12 0.500000 0.000000 0.000000
O O13 0.294788 0.250000 0.924539
#
# Coordination Sequence:
#
# PCOD9161911 Si02
#       5
#     4   4   4   4   4
#     4   9  18  36  59  81 109 145 185 229 277 328
#     4  10  20  34  55  84 113 143 184 231 275 324
#     4  11  22  37  56  79 111 149 185 223 273 328
#     4  11  22  38  60  85 111 141 182 228 275 328
#     4   9  20  37  57  80 108 144 183 226 277 330
#
# _framework density 24.647805000000002
#
# number of rings (size 3 to 8) (size 9 to 14) (size 15 to 20)
#    0.000    2.000    0.000    3.600    0.000    3.200 
#    0.000    6.000    0.000    0.000    0.000    0.000 
#    0.000    0.000    0.000    0.000    0.000    0.000 
#
# Total GULP energy -111796.916979 kJ/mol
# GULP energy per Si atom -5589.845849 kJ/mol
# Density = 2.459171 g / cm^3
# Si number density = 24.647805 Si / 1000 Ang^3
#
#
#
# Elastic Constant Matrix: (Units=GPa)
#
#
# Indices 1 2 3 4 5 6 
#
# 1 122.5074 5.0935 9.4144 0.0000 -20.8906 0.0000
# 2 5.0935 26.3092 -8.7649 0.0000 -10.2877 0.0000
# 3 9.4144 -8.7649 85.6320 0.0000 -24.2646 0.0000
# 4 0.0000 0.0000 0.0000 15.8912 0.0000 -3.8672
# 5 -20.8906 -10.2877 -24.2646 0.0000 50.8745 0.0000
# 6 0.0000 0.0000 0.0000 -3.8672 0.0000 26.9230
#
#
#
# Elastic Compliance Matrix: (Units=1/GPa)
#
#
# Indices 1 2 3 4 5 6 
#
# 1 0.008780 -0.000311 0.000008 0.000000 0.003546 0.000000
# 2 -0.000311 0.046083 0.008505 0.000000 0.013248 0.000000
# 3 0.000008 0.008505 0.015073 0.000000 0.008912 0.000000
# 4 0.000000 0.000000 0.000000 0.065207 0.000000 0.009366
# 5 0.003546 0.013248 0.008912 0.000000 0.028042 0.000000
# 6 0.000000 0.000000 0.000000 0.009366 0.000000 0.038488
#
#
# Mechanical properties :
#
#
# Convention : Reuss Voigt Hill
#
# Bulk Modulus (GPa) = 11.58208 27.32607 19.45407
# Shear Modulus (GPa) = 23.35913 33.98479 28.67196
#
# Velocity S-wave (km/s) = 3.08184 3.71727 3.41437
# Velocity P-wave (km/s) = 4.16808 5.43459 4.84292
#
# Compressibility (1/GPa) = 0.08634030
#
# Stress axis : x y z
#
# Youngs Moduli (GPa) = 113.89783 21.69982 66.34458
#
# Poissons Ratio (x) = 0.00674 -0.00052
# Poissons Ratio (y) = 0.03537 -0.56425
# Poissons Ratio (z) = -0.00089 -0.18455
#
# Static dielectric constant tensor:
#      x y z
#    x 2.083890 0.000000 0.039470 
#    y 0.000000 1.872950 0.000000 
#    z 0.039470 0.000000 1.921450 
# 
# From -- ./inp_files/15962.got.cif
#   From: 2010.05.17/outbox.cif.g08.bks.cpg/sg11_8_cif.got.tgz:15962.got - 2010.06.03 12:22:45.
