data_PCOD9161157
_publ_section_title
;
Structure prediction by ZEFSAII (Michael W. Deem and Ramdas Pophale) SiO2 
 PCOD9161157
Probable space group: P 21/M
;
_chemical_formula_sum "Si O2"
_cell_formula_units_Z 28
_cell_length_a 18.967869
_cell_length_b 8.898610
_cell_length_c 16.861652
_cell_angle_alpha 90.000000
_cell_angle_beta 143.332812
_cell_angle_gamma 90.000000
_cell_volume 1699.557373
_symmetry_space_group_name_H-M "P 21/M"
_symmetry_group_IT_number 11
_symmetry_cell_setting 'monoclinic'
loop_
_space_group_symop_operation_xyz
x,y,z
-x,1/2+y,-z
-x,-y,-z
x,1/2-y,z
loop_
_atom_site_type_symbol
_atom_site_label
_atom_site_fract_x
_atom_site_fract_y
_atom_site_fract_z
Si Si1 0.411728 0.926978 0.306016
Si Si2 0.483048 0.072217 0.214831
Si Si3 0.652527 0.429677 0.584652
Si Si4 0.166626 0.071449 0.712959
Si Si5 0.753784 0.427319 0.514112
Si Si6 0.412028 0.571141 0.984919
Si Si7 0.925582 0.927867 0.545621
O O1 0.407693 0.750000 0.285048
O O2 0.325145 0.959223 0.302317
O O3 0.403901 0.018773 0.217838
O O4 0.539990 0.972401 0.456837
O O5 0.469769 0.250000 0.190706
O O6 0.620292 0.043764 0.362071
O O7 0.449878 0.984743 0.105843
O O8 0.622169 0.250000 0.550687
O O9 0.749848 0.457789 0.605087
O O10 0.181795 0.250000 0.736162
O O11 0.144847 0.039595 0.599836
O O12 0.281002 0.986156 0.847069
O O13 0.048586 0.015974 0.650386
O O14 0.777066 0.250000 0.523289
O O15 0.846647 0.521376 0.548024
O O16 0.418002 0.750000 0.985660
O O17 0.500000 0.500000 0.000000
O O18 0.948772 0.750000 0.568407
#
# Coordination Sequence:
#
# PCOD9161157 Si02
#       7
#     4   4   4   4   4   4   4
#     4   9  15  25  42  64  92 126 163 201 241 286
#     4  10  20  33  48  69  99 133 167 201 242 291
#     4   8  15  26  40  62  94 129 162 197 240 290
#     4  10  21  37  54  71  95 128 163 199 242 286
#     4   9  17  29  46  69  98 131 163 197 239 286
#     4  12  24  37  53  74 100 129 163 200 239 284
#     4  10  20  33  51  74  97 123 159 202 243 285
#
# _framework density 16.474879000000001
#
# number of rings (size 3 to 8) (size 9 to 14) (size 15 to 20)
#    0.000    2.286    0.000    4.714    0.000    7.429 
#    0.000    0.000    0.000    0.000    0.000    1.000 
#    0.000    0.000    0.000    0.000    0.000    0.000 
#
# Total GULP energy -156104.294285 kJ/mol
# GULP energy per Si atom -5575.153367 kJ/mol
# Density = 1.643738 g / cm^3
# Si number density = 16.474879 Si / 1000 Ang^3
#
#
#
# Elastic Constant Matrix: (Units=GPa)
#
#
# Indices 1 2 3 4 5 6 
#
# 1 123.9790 55.4252 40.8078 0.0000 -18.9252 0.0000
# 2 55.4252 80.9962 41.2899 0.0000 -7.3988 0.0000
# 3 40.8078 41.2899 53.2483 0.0000 -10.0849 0.0000
# 4 0.0000 0.0000 0.0000 22.8954 0.0000 -1.4416
# 5 -18.9252 -7.3988 -10.0849 0.0000 17.3897 0.0000
# 6 0.0000 0.0000 0.0000 -1.4416 0.0000 31.9219
#
#
#
# Elastic Compliance Matrix: (Units=1/GPa)
#
#
# Indices 1 2 3 4 5 6 
#
# 1 0.013744 -0.006761 -0.003373 0.000000 0.010125 0.000000
# 2 -0.006761 0.023747 -0.014281 0.000000 -0.005536 0.000000
# 3 -0.003373 -0.014281 0.034368 0.000000 0.010184 0.000000
# 4 0.000000 0.000000 0.000000 0.043801 0.000000 0.001978
# 5 0.010125 -0.005536 0.010184 0.000000 0.072075 0.000000
# 6 0.000000 0.000000 0.000000 0.001978 0.000000 0.031416
#
#
# Mechanical properties :
#
#
# Convention : Reuss Voigt Hill
#
# Bulk Modulus (GPa) = 43.42387 59.25215 51.33801
# Shear Modulus (GPa) = 18.13845 22.48810 20.31328
#
# Velocity S-wave (km/s) = 3.32170 3.69859 3.51520
# Velocity P-wave (km/s) = 6.41299 7.36768 6.90685
#
# Compressibility (1/GPa) = 0.02302881
#
# Stress axis : x y z
#
# Youngs Moduli (GPa) = 72.75881 42.11049 29.09695
#
# Poissons Ratio (x) = 0.28469 0.09815
# Poissons Ratio (y) = 0.49189 0.41555
# Poissons Ratio (z) = 0.24542 0.60140
#
# Static dielectric constant tensor:
#      x y z
#    x 1.576370 0.000000 -0.025020 
#    y 0.000000 1.519080 0.000000 
#    z -0.025020 0.000000 1.533310 
# 
# From -- ./inp_files/42374.got.cif
#   From: 2010.05.17/outbox.cif.g08.bks.cpg/sg11_22_cif.got.tgz:42374.got - 2010.06.03 12:22:45.
