data_PCOD9161683
_publ_section_title
;
Structure prediction by ZEFSAII (Michael W. Deem and Ramdas Pophale) SiO2 
 PCOD9161683
Probable space group: P 21/M
;
_chemical_formula_sum "Si O2"
_cell_formula_units_Z 24
_cell_length_a 16.326370
_cell_length_b 8.907561
_cell_length_c 16.290661
_cell_angle_alpha 90.000000
_cell_angle_beta 35.906984
_cell_angle_gamma 90.000000
_cell_volume 1389.420670
_symmetry_space_group_name_H-M "P 21/M"
_symmetry_group_IT_number 11
_symmetry_cell_setting 'monoclinic'
loop_
_space_group_symop_operation_xyz
x,y,z
-x,1/2+y,-z
-x,-y,-z
x,1/2-y,z
loop_
_atom_site_type_symbol
_atom_site_label
_atom_site_fract_x
_atom_site_fract_y
_atom_site_fract_z
Si Si1 0.529779 0.070036 0.726139
Si Si2 0.811533 0.069539 0.590847
Si Si3 0.221405 0.070502 0.036923
Si Si4 0.870449 0.429960 0.057025
Si Si5 0.559550 0.070844 0.368992
Si Si6 0.098055 0.929225 0.300773
O O1 0.533444 0.250000 0.710570
O O2 0.665330 0.027046 0.668296
O O3 0.521373 0.991174 0.644875
O O4 0.385400 0.035051 0.890280
O O5 0.829182 0.250000 0.568504
O O6 0.820924 0.034297 0.680113
O O7 0.941160 0.988682 0.442177
O O8 0.204405 0.250000 0.048094
O O9 0.166211 0.006347 0.166971
O O10 0.141915 0.996946 0.024350
O O11 0.882919 0.250000 0.043204
O O12 0.723127 0.466975 0.221251
O O13 0.000000 0.500000 0.000000
O O14 0.547593 0.250000 0.382152
O O15 0.500000 0.000000 0.500000
O O16 0.097761 0.750000 0.290752
#
# Coordination Sequence:
#
# PCOD9161683 Si02
#       6
#     4   4   4   4   4   4
#     4   9  19  36  56  77 103 136 174 215 259 307
#     4   9  19  36  55  76 105 139 175 216 260 307
#     4  10  20  35  55  78 105 138 174 214 261 310
#     4  10  21  37  56  79 106 137 174 215 259 308
#     4  10  21  36  55  79 106 136 171 212 258 308
#     4  10  20  34  53  78 107 139 175 215 259 308
#
# _framework density 17.273385999999999
#
# number of rings (size 3 to 8) (size 9 to 14) (size 15 to 20)
#    0.000    2.333    0.000    2.000    0.000    6.000 
#    0.000    1.667    0.000    0.000    0.000    0.000 
#    0.000    0.000    0.000    0.000    0.000    0.000 
#
# Total GULP energy -133962.429006 kJ/mol
# GULP energy per Si atom -5581.767875 kJ/mol
# Density = 1.723407 g / cm^3
# Si number density = 17.273386 Si / 1000 Ang^3
#
#
#
# Elastic Constant Matrix: (Units=GPa)
#
#
# Indices 1 2 3 4 5 6 
#
# 1 180.8080 69.2676 110.0867 0.0000 -7.6699 0.0000
# 2 69.2676 55.0880 63.0504 0.0000 6.7469 0.0000
# 3 110.0867 63.0504 130.8317 0.0000 28.3405 0.0000
# 4 0.0000 0.0000 0.0000 30.3551 0.0000 4.1504
# 5 -7.6699 6.7469 28.3405 0.0000 29.0070 0.0000
# 6 0.0000 0.0000 0.0000 4.1504 0.0000 31.6723
#
#
#
# Elastic Compliance Matrix: (Units=1/GPa)
#
#
# Indices 1 2 3 4 5 6 
#
# 1 0.023386 -0.006918 -0.022872 0.000000 0.030139 0.000000
# 2 -0.006918 0.046267 -0.017439 0.000000 0.004448 0.000000
# 3 -0.022872 -0.017439 0.045315 0.000000 -0.046266 0.000000
# 4 0.000000 0.000000 0.000000 0.033544 0.000000 -0.004396
# 5 0.030139 0.004448 -0.046266 0.000000 0.086612 0.000000
# 6 0.000000 0.000000 0.000000 -0.004396 0.000000 0.032149
#
#
# Mechanical properties :
#
#
# Convention : Reuss Voigt Hill
#
# Bulk Modulus (GPa) = 48.76038 94.61522 71.68780
# Shear Modulus (GPa) = 13.56600 26.49507 20.03054
#
# Velocity S-wave (km/s) = 2.80549 3.92071 3.40901
# Velocity P-wave (km/s) = 6.22770 8.68274 7.55560
#
# Compressibility (1/GPa) = 0.02050846
#
# Stress axis : x y z
#
# Youngs Moduli (GPa) = 42.76128 21.61385 22.06762
#
# Poissons Ratio (x) = 0.14953 0.50474
# Poissons Ratio (y) = 0.29583 0.38484
# Poissons Ratio (z) = 0.97805 0.37692
#
# Static dielectric constant tensor:
#      x y z
#    x 1.562120 0.000000 -0.008420 
#    y 0.000000 1.576910 0.000000 
#    z -0.008420 0.000000 1.559270 
# 
# From -- ./inp_files/25719.got.cif
#   From: 2010.05.17/outbox.cif.g08.bks.cpg/sg11_13_cif.got.tgz:25719.got - 2010.06.03 12:22:45.
