data_PCOD9161919
_publ_section_title
;
Structure prediction by ZEFSAII (Michael W. Deem and Ramdas Pophale) SiO2 
 PCOD9161919
Probable space group: P 21/M
;
_chemical_formula_sum "Si O2"
_cell_formula_units_Z 32
_cell_length_a 26.467542
_cell_length_b 8.681183
_cell_length_c 20.279662
_cell_angle_alpha 90.000000
_cell_angle_beta 17.823450
_cell_angle_gamma 90.000000
_cell_volume 1426.248610
_symmetry_space_group_name_H-M "P 21/M"
_symmetry_group_IT_number 11
_symmetry_cell_setting 'monoclinic'
loop_
_space_group_symop_operation_xyz
x,y,z
-x,1/2+y,-z
-x,-y,-z
x,1/2-y,z
loop_
_atom_site_type_symbol
_atom_site_label
_atom_site_fract_x
_atom_site_fract_y
_atom_site_fract_z
Si Si1 0.836563 0.428421 0.172496
Si Si2 0.354346 0.572494 0.399998
Si Si3 0.505490 0.432854 0.419074
Si Si4 0.974219 0.572805 0.193845
Si Si5 0.281357 0.565161 0.058874
Si Si6 0.636404 0.067971 0.764569
Si Si7 0.724325 0.070016 0.789136
Si Si8 0.815402 0.567291 0.954913
O O1 0.815004 0.250000 0.218276
O O2 0.672211 0.523761 0.390111
O O3 0.878179 0.432320 0.042592
O O4 0.000000 0.500000 0.000000
O O5 0.377113 0.750000 0.390960
O O6 0.528801 0.486990 0.189758
O O7 0.309335 0.564498 0.378053
O O8 0.189840 0.500237 0.634418
O O9 0.500000 0.500000 0.500000
O O10 0.529703 0.250000 0.391124
O O11 0.647701 0.508532 0.198369
O O12 0.937123 0.750000 0.255410
O O13 0.040524 0.488331 0.175941
O O14 0.276393 0.750000 0.065750
O O15 0.226104 0.504916 0.200578
O O16 0.178076 0.501060 0.126494
O O17 0.593018 0.250000 0.830702
O O18 0.473490 0.961496 0.966662
O O19 0.761063 0.018036 0.668241
O O20 0.765762 0.250000 0.740390
O O21 0.814615 0.750000 0.951932
#
# Coordination Sequence:
#
# PCOD9161919 Si02
#       8
#     4   4   4   4   4   4   4   4
#     4  11  25  43  64  89 118 151 188 235 285 335
#     4  10  20  34  55  84 118 152 190 235 283 337
#     4  12  24  42  66  90 117 149 189 233 278 335
#     4  11  24  42  61  82 114 152 190 232 284 343
#     4  10  20  35  56  84 117 151 190 236 284 335
#     4   8  14  26  46  75 109 145 184 228 277 329
#     4   8  14  26  47  75 108 145 184 228 278 329
#     4  12  25  41  62  85 113 151 192 235 284 338
#
# _framework density 22.436482000000002
#
# number of rings (size 3 to 8) (size 9 to 14) (size 15 to 20)
#    0.000    1.750    1.250    3.750    1.750    2.500 
#    0.000    0.000    0.000    0.750    0.000    0.000 
#    0.000    0.000    0.000    0.000    0.000    0.000 
#
# Total GULP energy -178684.265320 kJ/mol
# GULP energy per Si atom -5583.883291 kJ/mol
# Density = 2.238542 g / cm^3
# Si number density = 22.436482 Si / 1000 Ang^3
#
#
#
# Elastic Constant Matrix: (Units=GPa)
#
#
# Indices 1 2 3 4 5 6 
#
# 1 132.5090 21.9414 -3.8954 0.0000 -6.8175 0.0000
# 2 21.9414 100.4541 0.3930 0.0000 -7.9842 0.0000
# 3 -3.8954 0.3930 33.7244 0.0000 -16.9297 0.0000
# 4 0.0000 0.0000 0.0000 14.9689 0.0000 -2.1966
# 5 -6.8175 -7.9842 -16.9297 0.0000 26.4542 0.0000
# 6 0.0000 0.0000 0.0000 -2.1966 0.0000 32.2792
#
#
#
# Elastic Compliance Matrix: (Units=1/GPa)
#
#
# Indices 1 2 3 4 5 6 
#
# 1 0.008041 -0.001506 0.002591 0.000000 0.003276 0.000000
# 2 -0.001506 0.010584 0.001637 0.000000 0.003854 0.000000
# 3 0.002591 0.001637 0.044959 0.000000 0.029934 0.000000
# 4 0.000000 0.000000 0.000000 0.067479 0.000000 0.004592
# 5 0.003276 0.003854 0.029934 0.000000 0.058965 0.000000
# 6 0.000000 0.000000 0.000000 0.004592 0.000000 0.031292
#
#
# Mechanical properties :
#
#
# Convention : Reuss Voigt Hill
#
# Bulk Modulus (GPa) = 14.48696 33.72948 24.10822
# Shear Modulus (GPa) = 20.93055 31.29035 26.11045
#
# Velocity S-wave (km/s) = 3.05762 3.73851 3.41508
# Velocity P-wave (km/s) = 4.35159 5.80528 5.13018
#
# Compressibility (1/GPa) = 0.06902761
#
# Stress axis : x y z
#
# Youngs Moduli (GPa) = 124.36701 94.48517 22.24239
#
# Poissons Ratio (x) = 0.14230 -0.05762
# Poissons Ratio (y) = 0.18730 -0.03642
# Poissons Ratio (z) = -0.32219 -0.15472
#
# Static dielectric constant tensor:
#      x y z
#    x 2.036680 0.000000 -0.106670 
#    y 0.000000 1.767340 0.000000 
#    z -0.106670 0.000000 2.075090 
# 
# From -- ./inp_files/66925.got.cif
#   From: 2010.05.17/outbox.cif.g08.bks.cpg/sg11_34_cif.got.tgz:66925.got - 2010.06.03 12:22:45.
