data_PCOD9161317
_publ_section_title
;
Structure prediction by ZEFSAII (Michael W. Deem and Ramdas Pophale) SiO2 
 PCOD9161317
Probable space group: P 21/M
;
_chemical_formula_sum "Si O2"
_cell_formula_units_Z 28
_cell_length_a 15.063766
_cell_length_b 7.621282
_cell_length_c 13.841950
_cell_angle_alpha 90.000000
_cell_angle_beta 54.933452
_cell_angle_gamma 90.000000
_cell_volume 1300.677863
_symmetry_space_group_name_H-M "P 21/M"
_symmetry_group_IT_number 11
_symmetry_cell_setting 'monoclinic'
loop_
_space_group_symop_operation_xyz
x,y,z
-x,1/2+y,-z
-x,-y,-z
x,1/2-y,z
loop_
_atom_site_type_symbol
_atom_site_label
_atom_site_fract_x
_atom_site_fract_y
_atom_site_fract_z
Si Si1 0.754394 0.464688 0.802829
Si Si2 0.604883 0.462018 0.075255
Si Si3 0.805244 0.038014 0.080263
Si Si4 0.589284 0.445451 0.521426
Si Si5 0.813803 0.953632 0.296394
Si Si6 0.373630 0.546599 0.293314
Si Si7 0.950715 0.035716 0.808513
O O1 0.754312 0.250000 0.801962
O O2 0.717087 0.529442 0.721605
O O3 0.870678 0.519334 0.772469
O O4 0.664820 0.515610 0.939150
O O5 0.595604 0.250000 0.080424
O O6 0.687633 0.509861 0.110108
O O7 0.487187 0.539877 0.165335
O O8 0.808697 0.250000 0.083976
O O9 0.824385 0.965047 0.174115
O O10 0.893498 0.982738 0.945090
O O11 0.500000 0.500000 0.500000
O O12 0.554273 0.250000 0.568880
O O13 0.705807 0.450839 0.397734
O O14 0.603962 0.537590 0.616108
O O15 0.800672 0.750000 0.331741
O O16 0.925501 0.023404 0.271790
O O17 0.341178 0.750000 0.328732
O O18 0.952326 0.250000 0.808422
#
# Coordination Sequence:
#
# PCOD9161317 Si02
#       7
#     4   4   4   4   4   4   4
#     4   8  15  31  52  75 102 131 162 200 246 299
#     4   9  17  29  50  77 104 132 160 195 249 306
#     4   9  17  31  51  76 105 137 168 203 248 300
#     4  11  24  40  55  74 100 132 169 210 252 297
#     4  11  21  33  52  77 102 134 172 209 249 296
#     4  10  20  33  52  74  97 129 170 210 248 290
#     4   8  16  31  52  77 104 133 167 203 248 304
#
# _framework density 21.527239000000002
#
# number of rings (size 3 to 8) (size 9 to 14) (size 15 to 20)
#    0.000    2.571    0.000    4.286    0.000    4.000 
#    0.000    1.429    0.000    4.286    0.000    0.000 
#    0.000    0.000    0.000    0.000    0.000    0.000 
#
# Total GULP energy -156285.605429 kJ/mol
# GULP energy per Si atom -5581.628765 kJ/mol
# Density = 2.147824 g / cm^3
# Si number density = 21.527239 Si / 1000 Ang^3
#
#
#
# Elastic Constant Matrix: (Units=GPa)
#
#
# Indices 1 2 3 4 5 6 
#
# 1 194.3791 1.3367 80.2590 0.0000 19.1546 0.0000
# 2 1.3367 38.9689 -2.0195 0.0000 7.9311 0.0000
# 3 80.2590 -2.0195 49.0402 0.0000 4.4237 0.0000
# 4 0.0000 0.0000 0.0000 12.2876 0.0000 -1.5360
# 5 19.1546 7.9311 4.4237 0.0000 34.5848 0.0000
# 6 0.0000 0.0000 0.0000 -1.5360 0.0000 10.4202
#
#
#
# Elastic Compliance Matrix: (Units=1/GPa)
#
#
# Indices 1 2 3 4 5 6 
#
# 1 0.017011 -0.000835 -0.027358 0.000000 -0.005731 0.000000
# 2 -0.000835 0.027097 0.003036 0.000000 -0.006140 0.000000
# 3 -0.027358 0.003036 0.064733 0.000000 0.006176 0.000000
# 4 0.000000 0.000000 0.000000 0.082910 0.000000 0.012222
# 5 -0.005731 -0.006140 0.006176 0.000000 0.032706 0.000000
# 6 0.000000 0.000000 0.000000 0.012222 0.000000 0.097769
#
#
# Mechanical properties :
#
#
# Convention : Reuss Voigt Hill
#
# Bulk Modulus (GPa) = 17.08578 49.06005 33.07292
# Shear Modulus (GPa) = 12.75352 24.97933 18.86642
#
# Velocity S-wave (km/s) = 2.43664 3.41010 2.96361
# Velocity P-wave (km/s) = 3.98376 6.19228 5.20647
#
# Compressibility (1/GPa) = 0.05852821
#
# Stress axis : x y z
#
# Youngs Moduli (GPa) = 58.78553 36.90431 15.44812
#
# Poissons Ratio (x) = 0.03081 0.42262
# Poissons Ratio (y) = 0.04908 -0.04690
# Poissons Ratio (z) = 1.60823 -0.11205
#
# Static dielectric constant tensor:
#      x y z
#    x 1.818040 0.000000 0.035690 
#    y 0.000000 1.904630 0.000000 
#    z 0.035690 0.000000 1.751560 
# 
# From -- ./inp_files/37692.got.cif
#   From: 2010.05.17/outbox.cif.g08.bks.cpg/sg11_19_cif.got.tgz:37692.got - 2010.06.03 12:22:45.
