data_PCOD9161990
_publ_section_title
;
Structure prediction by ZEFSAII (Michael W. Deem and Ramdas Pophale) SiO2 
 PCOD9161990
Probable space group: P 21/M
;
_chemical_formula_sum "Si O2"
_cell_formula_units_Z 32
_cell_length_a 12.156261
_cell_length_b 14.176809
_cell_length_c 16.661066
_cell_angle_alpha 90.000000
_cell_angle_beta 151.552764
_cell_angle_gamma 90.000000
_cell_volume 1367.750163
_symmetry_space_group_name_H-M "P 21/M"
_symmetry_group_IT_number 11
_symmetry_cell_setting 'monoclinic'
loop_
_space_group_symop_operation_xyz
x,y,z
-x,1/2+y,-z
-x,-y,-z
x,1/2-y,z
loop_
_atom_site_type_symbol
_atom_site_label
_atom_site_fract_x
_atom_site_fract_y
_atom_site_fract_z
Si Si1 0.953103 0.517855 0.336785
Si Si2 0.436254 0.148001 0.136450
Si Si3 0.440820 0.363199 0.470082
Si Si4 0.968314 0.137342 0.234210
Si Si5 0.786707 0.098464 0.939771
Si Si6 0.747930 0.601085 0.824085
Si Si7 0.073785 0.859345 0.264182
Si Si8 0.326911 0.052065 0.703065
O O1 0.846397 0.428085 0.221387
O O2 0.788219 0.581651 0.286928
O O3 0.064468 0.580270 0.338598
O O4 0.136098 0.471899 0.514749
O O5 0.523711 0.250000 0.161862
O O6 0.173938 0.134398 0.937127
O O7 0.415203 0.154243 0.219087
O O8 0.567901 0.050854 0.205364
O O9 0.423372 0.250000 0.450964
O O10 0.365445 0.404703 0.335881
O O11 0.709475 0.388053 0.653024
O O12 0.245043 0.385213 0.409948
O O13 0.934605 0.250000 0.220936
O O14 0.884000 0.103221 0.092781
O O15 0.771133 0.999021 0.883777
O O16 0.518304 0.119777 0.785630
O O17 0.996231 0.145296 0.024528
O O18 0.109711 0.750000 0.307550
#
# Coordination Sequence:
#
# PCOD9161990 Si02
#       8
#     4   4   4   4   4   4   4   4
#     4  11  23  40  60  80 109 149 194 239 284 338
#     4  10  20  34  56  86 115 145 183 228 282 340
#     4   9  18  34  56  86 121 151 186 231 279 338
#     4  10  22  39  59  84 115 153 192 232 283 340
#     4   9  18  34  55  81 111 143 182 225 275 331
#     4   9  16  29  54  83 112 147 180 217 272 332
#     4  10  21  36  58  88 116 145 184 232 286 341
#     4  10  23  40  57  80 109 146 192 240 285 335
#
# _framework density 23.396083999999998
#
# number of rings (size 3 to 8) (size 9 to 14) (size 15 to 20)
#    0.000    2.250    0.000    3.375    0.000    6.000 
#    0.000    4.375    0.000    0.000    0.000    0.000 
#    0.000    0.000    0.000    0.000    0.000    0.000 
#
# Total GULP energy -178388.652671 kJ/mol
# GULP energy per Si atom -5574.645396 kJ/mol
# Density = 2.334283 g / cm^3
# Si number density = 23.396084 Si / 1000 Ang^3
#
#
#
# Elastic Constant Matrix: (Units=GPa)
#
#
# Indices 1 2 3 4 5 6 
#
# 1 67.0480 -10.0620 0.1431 0.0000 -8.7768 0.0000
# 2 -10.0620 65.1741 -1.9028 0.0000 -13.3296 0.0000
# 3 0.1431 -1.9028 35.3864 0.0000 -11.9988 0.0000
# 4 0.0000 0.0000 0.0000 -12.1489 0.0000 -2.5684
# 5 -8.7768 -13.3296 -11.9988 0.0000 21.5460 0.0000
# 6 0.0000 0.0000 0.0000 -2.5684 0.0000 6.0316
#
#
#
# Elastic Compliance Matrix: (Units=1/GPa)
#
#
# Indices 1 2 3 4 5 6 
#
# 1 0.017450 0.005515 0.004676 0.000000 0.013124 0.000000
# 2 0.005515 0.020297 0.007506 0.000000 0.018983 0.000000
# 3 0.004676 0.007506 0.038049 0.000000 0.027738 0.000000
# 4 0.000000 0.000000 0.000000 -0.075514 0.000000 -0.032156
# 5 0.013124 0.018983 0.027738 0.000000 0.078950 0.000000
# 6 0.000000 0.000000 0.000000 -0.032156 0.000000 0.152101
#
#
# Mechanical properties :
#
#
# Convention : Reuss Voigt Hill
#
# Bulk Modulus (GPa) = 8.99358 15.99612 12.49485
# Shear Modulus (GPa) = 21.45895 15.04775 18.25335
#
# Velocity S-wave (km/s) = 3.03182 2.53884 2.79622
# Velocity P-wave (km/s) = 4.01352 3.93017 3.97206
#
# Compressibility (1/GPa) = 0.11119041
#
# Stress axis : x y z
#
# Youngs Moduli (GPa) = 57.30537 49.26944 26.28156
#
# Poissons Ratio (x) = -0.27172 -0.12290
# Poissons Ratio (y) = -0.31603 -0.19727
# Poissons Ratio (z) = -0.26797 -0.36981
#
# Static dielectric constant tensor:
#      x y z
#    x 1.900240 0.000000 0.074300 
#    y 0.000000 1.696800 0.000000 
#    z 0.074300 0.000000 1.923060 
# 
# From -- ./inp_files/50713.got.cif
#   From: 2010.05.17/outbox.cif.g08.bks.cpg/sg11_26_cif.got.tgz:50713.got - 2010.06.03 12:22:45.
