data_PCOD9161388
_publ_section_title
;
Structure prediction by ZEFSAII (Michael W. Deem and Ramdas Pophale) SiO2 
 PCOD9161388
Probable space group: P 21/M
;
_chemical_formula_sum "Si O2"
_cell_formula_units_Z 32
_cell_length_a 5.279879
_cell_length_b 9.771322
_cell_length_c 32.581687
_cell_angle_alpha 90.000000
_cell_angle_beta 84.309218
_cell_angle_gamma 90.000000
_cell_volume 1672.650350
_symmetry_space_group_name_H-M "P 21/M"
_symmetry_group_IT_number 11
_symmetry_cell_setting 'monoclinic'
loop_
_space_group_symop_operation_xyz
x,y,z
-x,1/2+y,-z
-x,-y,-z
x,1/2-y,z
loop_
_atom_site_type_symbol
_atom_site_label
_atom_site_fract_x
_atom_site_fract_y
_atom_site_fract_z
Si Si1 0.683334 0.400938 0.521681
Si Si2 0.624857 0.411909 0.767902
Si Si3 0.252091 0.416113 0.314600
Si Si4 0.533385 0.912743 0.958459
Si Si5 0.066460 0.912566 0.904754
Si Si6 0.092973 0.411352 0.822110
Si Si7 0.983777 0.901853 0.563089
Si Si8 0.716831 0.085633 0.363149
O O1 0.500000 0.500000 0.500000
O O2 0.576941 0.250000 0.531624
O O3 0.781188 0.478821 0.560270
O O4 0.906429 0.383762 0.484302
O O5 0.633609 0.250000 0.756507
O O6 0.672371 0.507599 0.728152
O O7 0.847767 0.436248 0.797477
O O8 0.350838 0.439619 0.792630
O O9 0.262443 0.250000 0.309839
O O10 0.965740 0.453882 0.332674
O O11 0.455632 0.459675 0.346349
O O12 0.525036 0.750000 0.967904
O O13 0.304962 0.942718 0.930483
O O14 0.803564 0.942256 0.932692
O O15 0.500000 0.000000 0.000000
O O16 0.070649 0.750000 0.895470
O O17 0.082578 0.998293 0.862958
O O18 0.095266 0.250000 0.832894
O O19 0.884338 0.750000 0.577693
O O20 0.202408 0.945605 0.591365
O O21 0.703328 0.250000 0.362522
#
# Coordination Sequence:
#
# PCOD9161388 Si02
#       8
#     4   4   4   4   4   4   4   4
#     4  10  20  33  53  78 105 138 177 219 268 321
#     4  10  21  37  55  78 109 141 174 215 267 324
#     4  10  20  35  56  82 106 136 178 220 259 318
#     4  10  21  36  54  78 109 146 184 223 269 318
#     4  10  21  36  54  80 111 139 178 229 274 313
#     4  10  21  36  56  80 106 141 180 218 266 325
#     4   9  19  35  54  75 102 140 177 219 269 316
#     4   9  19  34  56  81 106 136 178 221 262 311
#
# _framework density 19.131312999999999
#
# number of rings (size 3 to 8) (size 9 to 14) (size 15 to 20)
#    0.000    2.250    0.000    2.250    1.750    2.500 
#    0.000    1.250    0.000    0.000    0.000    0.000 
#    0.000    0.000    0.000    0.000    0.000    0.000 
#
# Total GULP energy -178537.949886 kJ/mol
# GULP energy per Si atom -5579.310934 kJ/mol
# Density = 1.908777 g / cm^3
# Si number density = 19.131313 Si / 1000 Ang^3
#
#
#
# Elastic Constant Matrix: (Units=GPa)
#
#
# Indices 1 2 3 4 5 6 
#
# 1 86.8256 20.1167 11.9628 0.0000 4.5070 0.0000
# 2 20.1167 63.7215 36.9609 0.0000 5.3369 0.0000
# 3 11.9628 36.9609 92.0544 0.0000 1.5320 0.0000
# 4 0.0000 0.0000 0.0000 33.7153 0.0000 2.4322
# 5 4.5070 5.3369 1.5320 0.0000 24.1841 0.0000
# 6 0.0000 0.0000 0.0000 2.4322 0.0000 12.1229
#
#
#
# Elastic Compliance Matrix: (Units=1/GPa)
#
#
# Indices 1 2 3 4 5 6 
#
# 1 0.012479 -0.003766 -0.000085 0.000000 -0.001489 0.000000
# 2 -0.003766 0.021988 -0.008279 0.000000 -0.003626 0.000000
# 3 -0.000085 -0.008279 0.014182 0.000000 0.000944 0.000000
# 4 0.000000 0.000000 0.000000 0.030096 0.000000 -0.006038
# 5 -0.001489 -0.003626 0.000944 0.000000 0.042367 0.000000
# 6 0.000000 0.000000 0.000000 -0.006038 0.000000 0.083700
#
#
# Mechanical properties :
#
#
# Convention : Reuss Voigt Hill
#
# Bulk Modulus (GPa) = 40.99930 42.29806 41.64868
# Shear Modulus (GPa) = 21.07920 25.57518 23.32719
#
# Velocity S-wave (km/s) = 3.32296 3.66023 3.49566
# Velocity P-wave (km/s) = 6.01663 6.32616 6.17333
#
# Compressibility (1/GPa) = 0.02439066
#
# Stress axis : x y z
#
# Youngs Moduli (GPa) = 80.13601 45.48010 70.50981
#
# Poissons Ratio (x) = 0.17126 0.00599
# Poissons Ratio (y) = 0.30175 0.58372
# Poissons Ratio (z) = 0.00681 0.37651
#
# Static dielectric constant tensor:
#      x y z
#    x 1.703520 0.000000 -0.014670 
#    y 0.000000 1.706260 0.000000 
#    z -0.014670 0.000000 1.639800 
# 
# From -- ./inp_files/72591.got.cif
#   From: 2010.05.17/outbox.cif.g08.bks.cpg/sg11_37_cif.got.tgz:72591.got - 2010.06.03 12:22:45.
