data_PCOD9161226
_publ_section_title
;
Structure prediction by ZEFSAII (Michael W. Deem and Ramdas Pophale) SiO2 
 PCOD9161226
Probable space group: P 21/M
;
_chemical_formula_sum "Si O2"
_cell_formula_units_Z 28
_cell_length_a 7.675376
_cell_length_b 9.304787
_cell_length_c 30.264649
_cell_angle_alpha 90.000000
_cell_angle_beta 137.575619
_cell_angle_gamma 90.000000
_cell_volume 1458.138360
_symmetry_space_group_name_H-M "P 21/M"
_symmetry_group_IT_number 11
_symmetry_cell_setting 'monoclinic'
loop_
_space_group_symop_operation_xyz
x,y,z
-x,1/2+y,-z
-x,-y,-z
x,1/2-y,z
loop_
_atom_site_type_symbol
_atom_site_label
_atom_site_fract_x
_atom_site_fract_y
_atom_site_fract_z
Si Si1 0.812878 0.422027 0.156549
Si Si2 0.759364 0.577153 0.932637
Si Si3 0.858783 0.421756 0.554976
Si Si4 0.593095 0.919419 0.585576
Si Si5 0.869920 0.087721 0.715501
Si Si6 0.400457 0.089787 0.696029
Si Si7 0.275657 0.422021 0.176815
O O1 0.832521 0.250000 0.166182
O O2 0.512060 0.457515 0.094031
O O3 0.905885 0.498662 0.218819
O O4 0.011686 0.461117 0.154247
O O5 0.793318 0.750000 0.940507
O O6 0.737920 0.534948 0.876877
O O7 0.000000 0.500000 0.000000
O O8 0.812245 0.250000 0.555556
O O9 0.711813 0.447785 0.481093
O O10 0.727860 0.526152 0.566058
O O11 0.160472 0.448660 0.619567
O O12 0.627350 0.750000 0.599324
O O13 0.734924 0.007519 0.649909
O O14 0.946943 0.250000 0.718147
O O15 0.648465 0.094777 0.711226
O O16 0.349075 0.250000 0.703907
O O17 0.481076 0.987998 0.751330
O O18 0.298078 0.250000 0.182657
#
# Coordination Sequence:
#
# PCOD9161226 Si02
#       7
#     4   4   4   4   4   4   4
#     4   9  19  37  57  79 111 145 179 223 269 317
#     4  10  22  38  57  84 112 141 179 217 263 324
#     4   9  19  35  51  72 103 139 180 226 272 319
#     4  10  20  33  50  73 104 141 180 222 271 323
#     4  10  20  34  53  78 106 137 177 223 271 323
#     4   9  19  35  54  77 104 136 177 224 272 321
#     4   9  19  36  56  80 111 144 179 222 268 318
#
# _framework density 19.202567999999999
#
# number of rings (size 3 to 8) (size 9 to 14) (size 15 to 20)
#    0.000    2.571    0.000    0.857    2.000    4.000 
#    0.000    0.000    0.000    0.000    0.000    0.000 
#    0.000    0.000    0.000    0.000    0.000    0.000 
#
# Total GULP energy -156021.207778 kJ/mol
# GULP energy per Si atom -5572.185992 kJ/mol
# Density = 1.915886 g / cm^3
# Si number density = 19.202568 Si / 1000 Ang^3
#
#
#
# Elastic Constant Matrix: (Units=GPa)
#
#
# Indices 1 2 3 4 5 6 
#
# 1 31.7316 5.2988 2.8269 0.0000 14.0486 0.0000
# 2 5.2988 17.7332 12.0677 0.0000 6.6160 0.0000
# 3 2.8269 12.0677 61.4803 0.0000 23.5584 0.0000
# 4 0.0000 0.0000 0.0000 28.6787 0.0000 -0.9175
# 5 14.0486 6.6160 23.5584 0.0000 35.4933 0.0000
# 6 0.0000 0.0000 0.0000 -0.9175 0.0000 15.4297
#
#
#
# Elastic Compliance Matrix: (Units=1/GPa)
#
#
# Indices 1 2 3 4 5 6 
#
# 1 0.041124 -0.010185 0.007534 0.000000 -0.019380 0.000000
# 2 -0.010185 0.068249 -0.012872 0.000000 -0.000147 0.000000
# 3 0.007534 -0.012872 0.025037 0.000000 -0.017201 0.000000
# 4 0.000000 0.000000 0.000000 0.034936 0.000000 0.002077
# 5 -0.019380 -0.000147 -0.017201 0.000000 0.047289 0.000000
# 6 0.000000 0.000000 0.000000 0.002077 0.000000 0.064934
#
#
# Mechanical properties :
#
#
# Convention : Reuss Voigt Hill
#
# Bulk Modulus (GPa) = 9.67450 16.81464 13.24457
# Shear Modulus (GPa) = 14.40639 21.97046 18.18843
#
# Velocity S-wave (km/s) = 2.74201 3.38619 3.08098
# Velocity P-wave (km/s) = 3.88251 4.90549 4.42367
#
# Compressibility (1/GPa) = 0.10336455
#
# Stress axis : x y z
#
# Youngs Moduli (GPa) = 24.31671 14.65220 39.94152
#
# Poissons Ratio (x) = 0.14923 -0.30093
# Poissons Ratio (y) = 0.24767 0.51412
# Poissons Ratio (z) = -0.18321 0.18860
#
# Static dielectric constant tensor:
#      x y z
#    x 1.701620 0.000000 0.019190 
#    y 0.000000 1.664460 0.000000 
#    z 0.019190 0.000000 1.677980 
# 
# From -- ./inp_files/72755.got.cif
#   From: 2010.05.17/outbox.cif.g08.bks.cpg/sg11_37_cif.got.tgz:72755.got - 2010.06.03 12:22:45.
