data_PCOD9161786
_publ_section_title
;
Structure prediction by ZEFSAII (Michael W. Deem and Ramdas Pophale) SiO2 
 PCOD9161786
Probable space group: P 21/M
;
_chemical_formula_sum "Si O2"
_cell_formula_units_Z 28
_cell_length_a 13.288231
_cell_length_b 7.801645
_cell_length_c 15.227063
_cell_angle_alpha 90.000000
_cell_angle_beta 122.758795
_cell_angle_gamma 90.000000
_cell_volume 1327.525135
_symmetry_space_group_name_H-M "P 21/M"
_symmetry_group_IT_number 11
_symmetry_cell_setting 'monoclinic'
loop_
_space_group_symop_operation_xyz
x,y,z
-x,1/2+y,-z
-x,-y,-z
x,1/2-y,z
loop_
_atom_site_type_symbol
_atom_site_label
_atom_site_fract_x
_atom_site_fract_y
_atom_site_fract_z
Si Si1 0.749047 0.054680 0.066597
Si Si2 0.986283 0.545555 0.093795
Si Si3 0.386395 0.956830 0.507871
Si Si4 0.876406 0.455350 0.672073
Si Si5 0.873650 0.457762 0.298547
Si Si6 0.508443 0.046126 0.900819
Si Si7 0.678590 0.449190 0.332358
O O1 0.711932 0.250000 0.069554
O O2 0.789244 0.973894 0.178370
O O3 0.645531 0.986310 0.954344
O O4 0.869781 0.051354 0.070759
O O5 0.968871 0.750000 0.095155
O O6 0.087586 0.494508 0.211746
O O7 0.000000 0.500000 0.000000
O O8 0.385824 0.750000 0.507763
O O9 0.256185 0.019391 0.412480
O O10 0.383123 0.018990 0.608279
O O11 0.500000 0.000000 0.500000
O O12 0.870329 0.250000 0.665743
O O13 0.988809 0.500846 0.661075
O O14 0.867294 0.250000 0.294345
O O15 0.805861 0.519370 0.354924
O O16 0.492845 0.250000 0.880501
O O17 0.415186 0.960320 0.791885
O O18 0.500000 0.000000 0.000000
O O19 0.703540 0.250000 0.363114
#
# Coordination Sequence:
#
# PCOD9161786 Si02
#       7
#     4   4   4   4   4   4   4
#     4   9  18  33  51  75 111 150 182 221 275 334
#     4  10  20  34  54  80 110 144 186 233 282 339
#     4  10  23  43  63  81 113 153 196 247 293 344
#     4   9  20  38  58  82 111 147 186 236 293 342
#     4   9  17  33  56  83 114 145 181 228 285 348
#     4  11  21  34  55  84 119 156 190 231 282 342
#     4  10  21  38  58  85 118 155 195 240 295 349
#
# _framework density 21.09188
#
# number of rings (size 3 to 8) (size 9 to 14) (size 15 to 20)
#    0.000    2.286    1.429    0.857    0.000    5.143 
#    0.000    4.286    0.000    0.000    0.000    0.000 
#    0.000    0.000    0.000    0.000    0.000    0.000 
#
# Total GULP energy -155880.669059 kJ/mol
# GULP energy per Si atom -5567.166752 kJ/mol
# Density = 2.104387 g / cm^3
# Si number density = 21.091880 Si / 1000 Ang^3
#
#
#
# Elastic Constant Matrix: (Units=GPa)
#
#
# Indices 1 2 3 4 5 6 
#
# 1 166.9843 7.8863 96.0886 0.0000 -10.4738 0.0000
# 2 7.8863 35.3806 1.1395 0.0000 -1.9217 0.0000
# 3 96.0886 1.1395 109.9114 0.0000 -1.4379 0.0000
# 4 0.0000 0.0000 0.0000 14.7162 0.0000 3.1954
# 5 -10.4738 -1.9217 -1.4379 0.0000 37.9360 0.0000
# 6 0.0000 0.0000 0.0000 3.1954 0.0000 27.5204
#
#
#
# Elastic Compliance Matrix: (Units=1/GPa)
#
#
# Indices 1 2 3 4 5 6 
#
# 1 0.012568 -0.002290 -0.010925 0.000000 0.002940 0.000000
# 2 -0.002290 0.028768 0.001715 0.000000 0.000890 0.000000
# 3 -0.010925 0.001715 0.018602 0.000000 -0.002224 0.000000
# 4 0.000000 0.000000 0.000000 0.069710 0.000000 -0.008094
# 5 0.002940 0.000890 -0.002224 0.000000 0.027133 0.000000
# 6 0.000000 0.000000 0.000000 -0.008094 0.000000 0.037276
#
#
# Mechanical properties :
#
#
# Convention : Reuss Voigt Hill
#
# Bulk Modulus (GPa) = 27.07200 58.05612 42.56406
# Shear Modulus (GPa) = 21.79900 29.84533 25.82216
#
# Velocity S-wave (km/s) = 3.21834 3.76575 3.50275
# Velocity P-wave (km/s) = 5.16463 6.81857 6.04840
#
# Compressibility (1/GPa) = 0.03693853
#
# Stress axis : x y z
#
# Youngs Moduli (GPa) = 79.56880 34.76141 53.75654
#
# Poissons Ratio (x) = 0.07960 0.58729
# Poissons Ratio (y) = 0.18220 -0.09220
# Poissons Ratio (z) = 0.86929 -0.05962
#
# Static dielectric constant tensor:
#      x y z
#    x 1.847250 0.000000 0.030420 
#    y 0.000000 1.905840 0.000000 
#    z 0.030420 0.000000 1.832200 
# 
# From -- ./inp_files/38505.got.cif
#   From: 2010.05.17/outbox.cif.g08.bks.cpg/sg11_20_cif.got.tgz:38505.got - 2010.06.03 12:22:45.
