data_PCOD9161690
_publ_section_title
;
Structure prediction by ZEFSAII (Michael W. Deem and Ramdas Pophale) SiO2 
 PCOD9161690
Probable space group: P 21/M
;
_chemical_formula_sum "Si O2"
_cell_formula_units_Z 32
_cell_length_a 14.738169
_cell_length_b 8.735924
_cell_length_c 12.837047
_cell_angle_alpha 90.000000
_cell_angle_beta 89.977245
_cell_angle_gamma 90.000000
_cell_volume 1652.789238
_symmetry_space_group_name_H-M "P 21/M"
_symmetry_group_IT_number 11
_symmetry_cell_setting 'monoclinic'
loop_
_space_group_symop_operation_xyz
x,y,z
-x,1/2+y,-z
-x,-y,-z
x,1/2-y,z
loop_
_atom_site_type_symbol
_atom_site_label
_atom_site_fract_x
_atom_site_fract_y
_atom_site_fract_z
Si Si1 0.510639 0.568345 0.172347
Si Si2 0.969135 0.565025 0.611909
Si Si3 0.277712 0.574033 0.533503
Si Si4 0.715882 0.934651 0.115000
Si Si5 0.150370 0.934691 0.713734
Si Si6 0.233269 0.066312 0.326212
Si Si7 0.475621 0.925765 0.609587
Si Si8 0.674676 0.934488 0.887505
O O1 0.507011 0.750000 0.158239
O O2 0.613250 0.516544 0.146494
O O3 0.492970 0.522374 0.292198
O O4 0.428858 0.492213 0.109253
O O5 0.967801 0.750000 0.602798
O O6 0.869288 0.513304 0.647920
O O7 0.000000 0.500000 0.500000
O O8 0.045150 0.525107 0.698401
O O9 0.257850 0.750000 0.504951
O O10 0.198337 0.511100 0.606455
O O11 0.290422 0.482950 0.427136
O O12 0.366401 0.574083 0.605132
O O13 0.718490 0.750000 0.123714
O O14 0.793020 0.000741 0.189919
O O15 0.725562 0.978189 0.993757
O O16 0.158413 0.750000 0.715967
O O17 0.231476 0.250000 0.320564
O O18 0.275591 0.009984 0.217636
O O19 0.507333 0.750000 0.617927
O O20 0.500000 0.000000 0.500000
O O21 0.671463 0.750000 0.884123
#
# Coordination Sequence:
#
# PCOD9161690 Si02
#       8
#     4   4   4   4   4   4   4   4
#     4  11  22  36  56  83 110 144 191 235 275 330
#     4  10  20  35  57  85 113 144 181 224 275 334
#     4  10  20  34  53  78 110 145 179 222 274 328
#     4  10  22  39  59  82 111 148 192 236 275 326
#     4  10  20  36  57  82 111 143 181 227 279 329
#     4  10  21  36  57  83 112 146 183 226 278 334
#     4  11  22  35  51  76 112 150 185 226 277 333
#     4  10  22  40  58  80 112 150 189 233 282 326
#
# _framework density 19.361211000000001
#
# number of rings (size 3 to 8) (size 9 to 14) (size 15 to 20)
#    0.000    1.750    2.500    1.875    0.000    5.500 
#    0.000    0.625    0.000    0.000    0.000    0.000 
#    0.000    0.000    0.000    0.000    0.000    0.000 
#
# Total GULP energy -178634.393141 kJ/mol
# GULP energy per Si atom -5582.324786 kJ/mol
# Density = 1.931714 g / cm^3
# Si number density = 19.361211 Si / 1000 Ang^3
#
#
#
# Elastic Constant Matrix: (Units=GPa)
#
#
# Indices 1 2 3 4 5 6 
#
# 1 87.1240 16.0268 39.2886 0.0000 15.4821 0.0000
# 2 16.0268 10.8394 15.4241 0.0000 1.8306 0.0000
# 3 39.2886 15.4241 123.1681 0.0000 17.9654 0.0000
# 4 0.0000 0.0000 0.0000 22.6613 0.0000 5.9675
# 5 15.4821 1.8306 17.9654 0.0000 29.0213 0.0000
# 6 0.0000 0.0000 0.0000 5.9675 0.0000 22.5902
#
#
#
# Elastic Compliance Matrix: (Units=1/GPa)
#
#
# Indices 1 2 3 4 5 6 
#
# 1 0.017624 -0.022297 -0.001828 0.000000 -0.006864 0.000000
# 2 -0.022297 0.140555 -0.012016 0.000000 0.010467 0.000000
# 3 -0.001828 -0.012016 0.010942 0.000000 -0.005040 0.000000
# 4 0.000000 0.000000 0.000000 0.047427 0.000000 -0.012528
# 5 -0.006864 0.010467 -0.005040 0.000000 0.040579 0.000000
# 6 0.000000 0.000000 0.000000 -0.012528 0.000000 0.047577
#
#
# Mechanical properties :
#
#
# Convention : Reuss Voigt Hill
#
# Bulk Modulus (GPa) = 10.32653 40.29004 25.30829
# Shear Modulus (GPa) = 12.21703 24.88070 18.54887
#
# Velocity S-wave (km/s) = 2.51471 3.58869 3.09858
# Velocity P-wave (km/s) = 3.71172 6.16656 5.08937
#
# Compressibility (1/GPa) = 0.09683791
#
# Stress axis : x y z
#
# Youngs Moduli (GPa) = 56.74176 7.11468 91.39035
#
# Poissons Ratio (x) = 0.15864 0.16709
# Poissons Ratio (y) = 1.26518 1.09812
# Poissons Ratio (z) = 0.10374 0.08549
#
# Static dielectric constant tensor:
#      x y z
#    x 1.724630 0.000000 -0.002590 
#    y 0.000000 1.664830 0.000000 
#    z -0.002590 0.000000 1.679920 
# 
# From -- ./inp_files/38122.got.cif
#   From: 2010.05.17/outbox.cif.g08.bks.cpg/sg11_20_cif.got.tgz:38122.got - 2010.06.03 12:22:45.
