data_PCOD9161752
_publ_section_title
;
Structure prediction by ZEFSAII (Michael W. Deem and Ramdas Pophale) SiO2 
 PCOD9161752
Probable space group: P 21/M
;
_chemical_formula_sum "Si O2"
_cell_formula_units_Z 24
_cell_length_a 14.523404
_cell_length_b 11.062546
_cell_length_c 8.489976
_cell_angle_alpha 90.000000
_cell_angle_beta 73.741143
_cell_angle_gamma 90.000000
_cell_volume 1309.496020
_symmetry_space_group_name_H-M "P 21/M"
_symmetry_group_IT_number 11
_symmetry_cell_setting 'monoclinic'
loop_
_space_group_symop_operation_xyz
x,y,z
-x,1/2+y,-z
-x,-y,-z
x,1/2-y,z
loop_
_atom_site_type_symbol
_atom_site_label
_atom_site_fract_x
_atom_site_fract_y
_atom_site_fract_z
Si Si1 0.524663 0.947459 0.732020
Si Si2 0.999104 0.113021 0.382640
Si Si3 0.382139 0.117527 0.993509
Si Si4 0.159111 0.109825 0.038276
Si Si5 0.835802 0.109810 0.199537
Si Si6 0.371514 0.882641 0.554161
O O1 0.447042 0.028236 0.862085
O O2 0.599608 0.024251 0.594009
O O3 0.459161 0.879648 0.636235
O O4 0.582085 0.883175 0.843634
O O5 0.001056 0.250000 0.452612
O O6 0.089290 0.103412 0.221201
O O7 0.905493 0.105764 0.316409
O O8 0.000000 0.000000 0.500000
O O9 0.397835 0.250000 0.916783
O O10 0.269546 0.091451 0.036105
O O11 0.150182 0.250000 0.980312
O O12 0.136274 0.999397 0.930813
O O13 0.841600 0.250000 0.134151
O O14 0.726607 0.088107 0.307971
O O15 0.358878 0.750000 0.488965
#
# Coordination Sequence:
#
# PCOD9161752 Si02
#       6
#     4   4   4   4   4   4
#     4  10  20  34  54  78 110 146 192 218 284 318
#     4  10  23  40  62  86 116 144 183 234 282 336
#     4  10  20  35  54  79 112 145 186 231 275 326
#     4  10  21  39  59  85 114 148 187 231 278 333
#     4  10  21  39  59  85 114 148 187 231 278 333
#     4  10  20  35  54  79 112 145 186 231 275 326
#
# _framework density 18.327663000000001
#
# number of rings (size 3 to 8) (size 9 to 14) (size 15 to 20)
#    0.000    2.000    1.667    1.500    2.333    1.333 
#    0.000    1.667    0.000    0.000    0.000    0.000 
#    0.000    0.000    0.000    0.000    0.000    0.000 
#
# Total GULP energy -133727.592664 kJ/mol
# GULP energy per Si atom -5571.983028 kJ/mol
# Density = 1.828595 g / cm^3
# Si number density = 18.327663 Si / 1000 Ang^3
#
#
#
# Elastic Constant Matrix: (Units=GPa)
#
#
# Indices 1 2 3 4 5 6 
#
# 1 53.7732 38.4366 11.3618 0.0000 -1.1241 0.0000
# 2 38.4366 144.3151 65.5492 0.0000 -7.2564 0.0000
# 3 11.3618 65.5492 57.3142 0.0000 -2.9408 0.0000
# 4 0.0000 0.0000 0.0000 17.1279 0.0000 -11.9365
# 5 -1.1241 -7.2564 -2.9408 0.0000 23.3652 0.0000
# 6 0.0000 0.0000 0.0000 -11.9365 0.0000 20.0970
#
#
#
# Elastic Compliance Matrix: (Units=1/GPa)
#
#
# Indices 1 2 3 4 5 6 
#
# 1 0.023723 -0.008755 0.005263 0.000000 -0.000915 0.000000
# 2 -0.008755 0.017788 -0.018466 0.000000 0.002779 0.000000
# 3 0.005263 -0.018466 0.037484 0.000000 -0.000764 0.000000
# 4 0.000000 0.000000 0.000000 0.099618 0.000000 0.059168
# 5 -0.000915 0.002779 -0.000764 0.000000 0.043522 0.000000
# 6 0.000000 0.000000 0.000000 0.059168 0.000000 0.084901
#
#
# Mechanical properties :
#
#
# Convention : Reuss Voigt Hill
#
# Bulk Modulus (GPa) = 28.50598 54.01089 41.25843
# Shear Modulus (GPa) = 13.78756 21.45501 17.62128
#
# Velocity S-wave (km/s) = 2.74575 3.42517 3.10410
# Velocity P-wave (km/s) = 5.06354 6.72130 5.95044
#
# Compressibility (1/GPa) = 0.03508036
#
# Stress axis : x y z
#
# Youngs Moduli (GPa) = 42.15235 56.21712 26.67789
#
# Poissons Ratio (x) = 0.49218 -0.14041
# Poissons Ratio (y) = 0.36905 0.49263
# Poissons Ratio (z) = -0.22185 1.03810
#
# Static dielectric constant tensor:
#      x y z
#    x 1.621450 0.000000 0.005180 
#    y 0.000000 1.660620 0.000000 
#    z 0.005180 0.000000 1.597710 
# 
# From -- ./inp_files/16962.got.cif
#   From: 2010.05.17/outbox.cif.g08.bks.cpg/sg11_9_cif.got.tgz:16962.got - 2010.06.03 12:22:45.
