data_PCOD9161595
_publ_section_title
;
Structure prediction by ZEFSAII (Michael W. Deem and Ramdas Pophale) SiO2 
 PCOD9161595
Probable space group: P 21/M
;
_chemical_formula_sum "Si O2"
_cell_formula_units_Z 32
_cell_length_a 20.916637
_cell_length_b 7.330472
_cell_length_c 27.894369
_cell_angle_alpha 90.000000
_cell_angle_beta 16.550009
_cell_angle_gamma 90.000000
_cell_volume 1218.315554
_symmetry_space_group_name_H-M "P 21/M"
_symmetry_group_IT_number 11
_symmetry_cell_setting 'monoclinic'
loop_
_space_group_symop_operation_xyz
x,y,z
-x,1/2+y,-z
-x,-y,-z
x,1/2-y,z
loop_
_atom_site_type_symbol
_atom_site_label
_atom_site_fract_x
_atom_site_fract_y
_atom_site_fract_z
Si Si1 0.252699 0.965246 0.199077
Si Si2 0.398540 0.524412 0.400131
Si Si3 0.062599 0.044792 0.237230
Si Si4 0.444852 0.542106 0.262716
Si Si5 0.245191 0.049021 0.792224
Si Si6 0.458696 0.525987 0.146592
Si Si7 0.352332 0.465438 0.559008
Si Si8 0.962868 0.471622 0.904489
O O1 0.205207 0.750000 0.233319
O O2 0.104364 0.052864 0.264548
O O3 0.279397 0.028612 0.234695
O O4 0.500000 0.000000 0.000000
O O5 0.402711 0.750000 0.395623
O O6 0.358524 0.460266 0.374335
O O7 0.650712 0.461954 0.234653
O O8 0.185785 0.460990 0.585393
O O9 0.042959 0.250000 0.232875
O O10 0.288232 0.965282 0.051147
O O11 0.362260 0.750000 0.319931
O O12 0.402429 0.463293 0.240507
O O13 0.713791 0.540726 0.076596
O O14 0.153894 0.250000 0.869600
O O15 0.087118 0.967013 0.864624
O O16 0.489515 0.065442 0.592030
O O17 0.466382 0.750000 0.140080
O O18 0.500000 0.500000 0.500000
O O19 0.355031 0.250000 0.547712
O O20 0.107817 0.523437 0.753064
O O21 0.966777 0.250000 0.903080
#
# Coordination Sequence:
#
# PCOD9161595 Si02
#       8
#     4   4   4   4   4   4   4   4
#     4   9  16  30  52  78 105 130 163 205 250 300
#     4   9  19  34  52  74 102 135 174 215 252 298
#     4   9  17  32  53  76 102 132 166 206 255 300
#     4  10  20  34  52  74  98 133 179 214 245 300
#     4   9  18  33  52  71  98 135 172 211 259 305
#     4   8  16  30  51  76  99 127 165 205 244 294
#     4   9  17  30  48  72 100 125 159 208 260 307
#     4   9  19  33  47  69 101 132 163 210 265 301
#
# _framework density 26.265771000000001
#
# number of rings (size 3 to 8) (size 9 to 14) (size 15 to 20)
#    0.000    3.000    0.000    2.250    1.750    3.000 
#    0.000    5.625    0.000    0.000    0.000    0.000 
#    0.000    0.000    0.000    0.000    0.000    0.000 
#
# Total GULP energy -178506.224737 kJ/mol
# GULP energy per Si atom -5578.319523 kJ/mol
# Density = 2.620599 g / cm^3
# Si number density = 26.265771 Si / 1000 Ang^3
#
#
#
# Elastic Constant Matrix: (Units=GPa)
#
#
# Indices 1 2 3 4 5 6 
#
# 1 117.9732 21.5359 -34.1914 0.0000 4.1629 0.0000
# 2 21.5359 124.2320 2.8768 0.0000 4.6021 0.0000
# 3 -34.1914 2.8768 61.7020 0.0000 11.3413 0.0000
# 4 0.0000 0.0000 0.0000 -1.6749 0.0000 -6.9930
# 5 4.1629 4.6021 11.3413 0.0000 40.1032 0.0000
# 6 0.0000 0.0000 0.0000 -6.9930 0.0000 13.6890
#
#
#
# Elastic Compliance Matrix: (Units=1/GPa)
#
#
# Indices 1 2 3 4 5 6 
#
# 1 0.010842 -0.001930 0.006607 0.000000 -0.002773 0.000000
# 2 -0.001930 0.008430 -0.001394 0.000000 -0.000373 0.000000
# 3 0.006607 -0.001394 0.021128 0.000000 -0.006501 0.000000
# 4 0.000000 0.000000 0.000000 -0.190575 0.000000 -0.097355
# 5 -0.002773 -0.000373 -0.006501 0.000000 0.027105 0.000000
# 6 0.000000 0.000000 0.000000 -0.097355 0.000000 0.023318
#
#
# Mechanical properties :
#
#
# Convention : Reuss Voigt Hill
#
# Bulk Modulus (GPa) = 21.29140 31.59443 26.44292
# Shear Modulus (GPa) = -55.14836 31.33584 -11.90626
#
# Velocity S-wave (km/s) = -4.58714 3.45777 -2.13139
# Velocity P-wave (km/s) = 4.46454 5.29117 2.00803
#
# Compressibility (1/GPa) = 0.04696731
#
# Stress axis : x y z
#
# Youngs Moduli (GPa) = 92.23774 118.62301 47.33015
#
# Poissons Ratio (x) = 0.22891 -0.31272
# Poissons Ratio (y) = 0.17799 0.06597
# Poissons Ratio (z) = -0.60944 0.16534
#
# Static dielectric constant tensor:
#      x y z
#    x 2.557340 0.000000 0.178940 
#    y 0.000000 0.704570 0.000000 
#    z 0.178940 0.000000 2.081220 
# 
# From -- ./inp_files/72031.got.cif
#   From: 2010.05.17/outbox.cif.g08.bks.cpg/sg11_37_cif.got.tgz:72031.got - 2010.06.03 12:22:45.
