data_PCOD9161301
_publ_section_title
;
Structure prediction by ZEFSAII (Michael W. Deem and Ramdas Pophale) SiO2 
 PCOD9161301
Probable space group: P 21/M
;
_chemical_formula_sum "Si O2"
_cell_formula_units_Z 28
_cell_length_a 12.297621
_cell_length_b 7.776844
_cell_length_c 15.861881
_cell_angle_alpha 90.000000
_cell_angle_beta 62.231248
_cell_angle_gamma 90.000000
_cell_volume 1342.275215
_symmetry_space_group_name_H-M "P 21/M"
_symmetry_group_IT_number 11
_symmetry_cell_setting 'monoclinic'
loop_
_space_group_symop_operation_xyz
x,y,z
-x,1/2+y,-z
-x,-y,-z
x,1/2-y,z
loop_
_atom_site_type_symbol
_atom_site_label
_atom_site_fract_x
_atom_site_fract_y
_atom_site_fract_z
Si Si1 0.925210 0.954022 0.773064
Si Si2 0.118178 0.456788 0.400691
Si Si3 0.496812 0.949282 0.142136
Si Si4 0.568802 0.545705 0.296646
Si Si5 0.320114 0.951798 0.062552
Si Si6 0.794424 0.957854 0.322045
Si Si7 0.682449 0.541868 0.540416
O O1 0.907722 0.750000 0.777800
O O2 0.898727 0.023630 0.687970
O O3 0.824073 0.027221 0.872854
O O4 0.065945 0.990628 0.744162
O O5 0.125686 0.250000 0.393306
O O6 0.238445 0.518443 0.407399
O O7 0.000000 0.500000 0.500000
O O8 0.463592 0.750000 0.168566
O O9 0.525400 0.029014 0.222503
O O10 0.388382 0.022482 0.122278
O O11 0.617924 0.960268 0.040115
O O12 0.587040 0.750000 0.277979
O O13 0.695179 0.477799 0.290056
O O14 0.456662 0.519641 0.401409
O O15 0.350721 0.750000 0.044485
O O16 0.789954 0.750000 0.324482
O O17 0.750060 0.016016 0.430839
O O18 0.681770 0.750000 0.540711
#
# Coordination Sequence:
#
# PCOD9161301 Si02
#       7
#     4   4   4   4   4   4   4
#     4  11  22  35  54  81 111 145 182 221 268 319
#     4  10  20  33  51  77 108 141 176 217 264 311
#     4   9  19  37  58  83 111 136 173 224 271 320
#     4  10  21  36  56  80 106 142 183 223 269 318
#     4  10  20  35  59  85 109 140 173 216 275 329
#     4  10  21  37  54  75 109 148 185 223 263 315
#     4  10  20  34  53  78 109 144 180 223 268 313
#
# _framework density 20.860104
#
# number of rings (size 3 to 8) (size 9 to 14) (size 15 to 20)
#    0.000    2.000    1.429    2.143    0.000    3.429 
#    0.000    0.714    0.000    0.000    0.000    0.000 
#    0.000    0.000    0.000    0.000    0.000    0.000 
#
# Total GULP energy -156415.070039 kJ/mol
# GULP energy per Si atom -5586.252501 kJ/mol
# Density = 2.081263 g / cm^3
# Si number density = 20.860104 Si / 1000 Ang^3
#
#
#
# Elastic Constant Matrix: (Units=GPa)
#
#
# Indices 1 2 3 4 5 6 
#
# 1 99.8292 -1.5453 35.3348 0.0000 -16.3053 0.0000
# 2 -1.5453 31.0293 -10.3067 0.0000 9.6589 0.0000
# 3 35.3348 -10.3067 60.1275 0.0000 -20.0503 0.0000
# 4 0.0000 0.0000 0.0000 19.7933 0.0000 -11.3089
# 5 -16.3053 9.6589 -20.0503 0.0000 27.3551 0.0000
# 6 0.0000 0.0000 0.0000 -11.3089 0.0000 14.2970
#
#
#
# Elastic Compliance Matrix: (Units=1/GPa)
#
#
# Indices 1 2 3 4 5 6 
#
# 1 0.013018 -0.002791 -0.006899 0.000000 0.003689 0.000000
# 2 -0.002791 0.037109 0.004073 0.000000 -0.011782 0.000000
# 3 -0.006899 0.004073 0.025851 0.000000 0.013398 0.000000
# 4 0.000000 0.000000 0.000000 0.092182 0.000000 0.072915
# 5 0.003689 -0.011782 0.013398 0.000000 0.052735 0.000000
# 6 0.000000 0.000000 0.000000 0.072915 0.000000 0.127620
#
#
# Mechanical properties :
#
#
# Convention : Reuss Voigt Hill
#
# Bulk Modulus (GPa) = 15.44565 26.43909 20.94237
# Shear Modulus (GPa) = 13.11194 23.45597 18.28396
#
# Velocity S-wave (km/s) = 2.50984 3.35691 2.96379
# Velocity P-wave (km/s) = 3.97738 5.26565 4.66619
#
# Compressibility (1/GPa) = 0.06474314
#
# Stress axis : x y z
#
# Youngs Moduli (GPa) = 76.81534 26.94785 38.68277
#
# Poissons Ratio (x) = 0.07522 0.26686
# Poissons Ratio (y) = 0.21442 -0.15754
# Poissons Ratio (z) = 0.52993 -0.10975
#
# Static dielectric constant tensor:
#      x y z
#    x 1.756310 0.000000 0.030500 
#    y 0.000000 1.758300 0.000000 
#    z 0.030500 0.000000 1.730810 
# 
# From -- ./inp_files/37429.got.cif
#   From: 2010.05.17/outbox.cif.g08.bks.cpg/sg11_19_cif.got.tgz:37429.got - 2010.06.03 12:22:45.
