data_PCOD9161187
_publ_section_title
;
Structure prediction by ZEFSAII (Michael W. Deem and Ramdas Pophale) SiO2 
 PCOD9161187
Probable space group: P 21/M
;
_chemical_formula_sum "Si O2"
_cell_formula_units_Z 24
_cell_length_a 11.678547
_cell_length_b 8.613633
_cell_length_c 20.362438
_cell_angle_alpha 90.000000
_cell_angle_beta 44.078760
_cell_angle_gamma 90.000000
_cell_volume 1424.930155
_symmetry_space_group_name_H-M "P 21/M"
_symmetry_group_IT_number 11
_symmetry_cell_setting 'monoclinic'
loop_
_space_group_symop_operation_xyz
x,y,z
-x,1/2+y,-z
-x,-y,-z
x,1/2-y,z
loop_
_atom_site_type_symbol
_atom_site_label
_atom_site_fract_x
_atom_site_fract_y
_atom_site_fract_z
Si Si1 0.817422 0.064110 0.086134
Si Si2 0.398650 0.563823 0.479297
Si Si3 0.679450 0.062623 0.283878
Si Si4 0.270627 0.062391 0.142950
Si Si5 0.608088 0.564656 0.052418
Si Si6 0.901288 0.438766 0.317195
O O1 0.825024 0.250000 0.084291
O O2 0.745476 0.011523 0.186111
O O3 0.700903 0.010044 0.075176
O O4 0.000000 0.000000 0.000000
O O5 0.500000 0.500000 0.500000
O O6 0.406688 0.750000 0.475098
O O7 0.497782 0.498388 0.376638
O O8 0.211433 0.516967 0.573915
O O9 0.674767 0.250000 0.287287
O O10 0.804879 0.012594 0.290443
O O11 0.278796 0.250000 0.144608
O O12 0.089484 0.008786 0.238983
O O13 0.420432 0.991198 0.122130
O O14 0.302887 0.022061 0.053166
O O15 0.614121 0.750000 0.055941
O O16 0.904789 0.250000 0.314073
#
# Coordination Sequence:
#
# PCOD9161187 Si02
#       6
#     4   4   4   4   4   4
#     4  11  22  35  52  73  99 131 164 198 240 292
#     4   9  16  27  45  70  98 127 160 199 242 287
#     4   9  18  32  48  69  99 131 160 195 242 291
#     4   9  17  32  52  70  94 129 163 198 241 288
#     4  10  20  33  49  72 100 128 161 200 241 287
#     4   8  14  27  48  71  94 122 157 195 238 284
#
# _framework density 16.842932000000001
#
# number of rings (size 3 to 8) (size 9 to 14) (size 15 to 20)
#    0.000    2.667    0.000    3.500    0.000    4.667 
#    0.000    4.167    0.000    1.000    0.000    0.000 
#    0.000    0.000    0.000    0.000    0.000    0.000 
#
# Total GULP energy -133748.116702 kJ/mol
# GULP energy per Si atom -5572.838196 kJ/mol
# Density = 1.680460 g / cm^3
# Si number density = 16.842932 Si / 1000 Ang^3
#
#
#
# Elastic Constant Matrix: (Units=GPa)
#
#
# Indices 1 2 3 4 5 6 
#
# 1 92.0412 22.7948 81.9659 0.0000 -6.9529 0.0000
# 2 22.7948 21.2225 34.5121 0.0000 -0.0956 0.0000
# 3 81.9659 34.5121 186.3304 0.0000 -19.7838 0.0000
# 4 0.0000 0.0000 0.0000 27.2838 0.0000 -1.8562
# 5 -6.9529 -0.0956 -19.7838 0.0000 28.1438 0.0000
# 6 0.0000 0.0000 0.0000 -1.8562 0.0000 24.6171
#
#
#
# Elastic Compliance Matrix: (Units=1/GPa)
#
#
# Indices 1 2 3 4 5 6 
#
# 1 0.019203 -0.009873 -0.006612 0.000000 0.000063 0.000000
# 2 -0.009873 0.074805 -0.010530 0.000000 -0.009587 0.000000
# 3 -0.006612 -0.010530 0.010859 0.000000 0.005964 0.000000
# 4 0.000000 0.000000 0.000000 0.036841 0.000000 0.002778
# 5 0.000063 -0.009587 0.005964 0.000000 0.039707 0.000000
# 6 0.000000 0.000000 0.000000 0.002778 0.000000 0.040832
#
#
# Mechanical properties :
#
#
# Convention : Reuss Voigt Hill
#
# Bulk Modulus (GPa) = 19.67072 64.23775 41.95424
# Shear Modulus (GPa) = 17.05190 26.69702 21.87446
#
# Velocity S-wave (km/s) = 3.18529 3.98560 3.60770
# Velocity P-wave (km/s) = 5.02318 7.70727 6.50517
#
# Compressibility (1/GPa) = 0.05083698
#
# Stress axis : x y z
#
# Youngs Moduli (GPa) = 52.07633 13.36801 92.08926
#
# Poissons Ratio (x) = 0.13198 0.60888
# Poissons Ratio (y) = 0.51414 0.96974
# Poissons Ratio (z) = 0.34432 0.14077
#
# Static dielectric constant tensor:
#      x y z
#    x 1.544220 0.000000 -0.000370 
#    y 0.000000 1.574680 0.000000 
#    z -0.000370 0.000000 1.604310 
# 
# From -- ./inp_files/40488.got.cif
#   From: 2010.05.17/outbox.cif.g08.bks.cpg/sg11_21_cif.got.tgz:40488.got - 2010.06.03 12:22:45.
