data_PCOD9161244
_publ_section_title
;
Structure prediction by ZEFSAII (Michael W. Deem and Ramdas Pophale) SiO2 
 PCOD9161244
Probable space group: P 21/M
;
_chemical_formula_sum "Si O2"
_cell_formula_units_Z 32
_cell_length_a 12.855827
_cell_length_b 9.302997
_cell_length_c 23.379938
_cell_angle_alpha 90.000000
_cell_angle_beta 137.075087
_cell_angle_gamma 90.000000
_cell_volume 1904.313495
_symmetry_space_group_name_H-M "P 21/M"
_symmetry_group_IT_number 11
_symmetry_cell_setting 'monoclinic'
loop_
_space_group_symop_operation_xyz
x,y,z
-x,1/2+y,-z
-x,-y,-z
x,1/2-y,z
loop_
_atom_site_type_symbol
_atom_site_label
_atom_site_fract_x
_atom_site_fract_y
_atom_site_fract_z
Si Si1 0.793115 0.080417 0.486227
Si Si2 0.932799 0.079412 0.833267
Si Si3 0.134016 0.078806 0.018899
Si Si4 0.688026 0.921007 0.334787
Si Si5 0.668322 0.421335 0.817495
Si Si6 0.895739 0.918591 0.317047
Si Si7 0.048344 0.082909 0.278621
Si Si8 0.636050 0.918144 0.523585
O O1 0.759290 0.250000 0.471163
O O2 0.959462 0.062544 0.581913
O O3 0.778900 0.011047 0.418403
O O4 0.676764 0.996294 0.480778
O O5 0.920571 0.250000 0.817231
O O6 0.785281 0.039349 0.813121
O O7 0.941361 0.995126 0.777880
O O8 0.083364 0.055175 0.933045
O O9 0.131830 0.250000 0.028086
O O10 0.283608 0.007820 0.106303
O O11 0.000000 0.000000 0.000000
O O12 0.716148 0.750000 0.354746
O O13 0.507610 0.947497 0.268278
O O14 0.748836 0.956354 0.295872
O O15 0.688808 0.250000 0.835659
O O16 0.889546 0.750000 0.299262
O O17 0.929347 0.009605 0.274236
O O18 0.012606 0.250000 0.256615
O O19 0.212750 0.071931 0.376235
O O20 0.600614 0.750000 0.500184
O O21 0.500000 0.000000 0.500000
#
# Coordination Sequence:
#
# PCOD9161244 Si02
#       8
#     4   4   4   4   4   4   4   4
#     4  10  20  33  50  74  99 133 176 214 255 300
#     4   9  18  32  51  75 103 134 165 197 245 307
#     4   9  17  31  51  75 103 135 166 200 246 302
#     4  10  20  34  53  77 103 135 172 212 257 304
#     4   9  19  33  50  77 107 134 164 202 254 306
#     4   9  19  36  54  71  99 137 175 213 256 302
#     4  10  21  34  51  75  99 128 171 214 251 296
#     4  10  21  35  49  69 100 136 169 209 256 303
#
# _framework density 16.803957
#
# number of rings (size 3 to 8) (size 9 to 14) (size 15 to 20)
#    0.000    2.500    0.000    2.625    1.750    5.500 
#    0.000    0.000    0.000    0.750    0.000    0.000 
#    0.000    0.000    0.000    0.000    0.000    0.000 
#
# Total GULP energy -178418.050070 kJ/mol
# GULP energy per Si atom -5575.564065 kJ/mol
# Density = 1.676571 g / cm^3
# Si number density = 16.803957 Si / 1000 Ang^3
#
#
#
# Elastic Constant Matrix: (Units=GPa)
#
#
# Indices 1 2 3 4 5 6 
#
# 1 91.4010 49.6927 40.2672 0.0000 -26.0924 0.0000
# 2 49.6927 77.4949 50.8569 0.0000 -20.2415 0.0000
# 3 40.2672 50.8569 49.9932 0.0000 -16.8044 0.0000
# 4 0.0000 0.0000 0.0000 31.4409 0.0000 -7.8441
# 5 -26.0924 -20.2415 -16.8044 0.0000 17.3978 0.0000
# 6 0.0000 0.0000 0.0000 -7.8441 0.0000 23.8846
#
#
#
# Elastic Compliance Matrix: (Units=1/GPa)
#
#
# Indices 1 2 3 4 5 6 
#
# 1 0.022527 -0.004852 -0.005553 0.000000 0.022777 0.000000
# 2 -0.004852 0.041179 -0.036018 0.000000 0.005843 0.000000
# 3 -0.005553 -0.036018 0.065495 0.000000 0.013027 0.000000
# 4 0.000000 0.000000 0.000000 0.034644 0.000000 0.011378
# 5 0.022777 0.005843 0.013027 0.000000 0.111020 0.000000
# 6 0.000000 0.000000 0.000000 0.011378 0.000000 0.045605
#
#
# Mechanical properties :
#
#
# Convention : Reuss Voigt Hill
#
# Bulk Modulus (GPa) = 27.50658 55.61364 41.56011
# Shear Modulus (GPa) = 11.75271 19.74949 15.75110
#
# Velocity S-wave (km/s) = 2.64749 3.43197 3.06493
# Velocity P-wave (km/s) = 5.07447 6.99085 6.10828
#
# Compressibility (1/GPa) = 0.03635494
#
# Stress axis : x y z
#
# Youngs Moduli (GPa) = 44.39094 24.28419 15.26841
#
# Poissons Ratio (x) = 0.11783 0.08478
# Poissons Ratio (y) = 0.21538 0.54994
# Poissons Ratio (z) = 0.24649 0.87468
#
# Static dielectric constant tensor:
#      x y z
#    x 1.558120 0.000000 0.010580 
#    y 0.000000 1.558660 0.000000 
#    z 0.010580 0.000000 1.574500 
# 
# From -- ./inp_files/38191.got.cif
#   From: 2010.05.17/outbox.cif.g08.bks.cpg/sg11_20_cif.got.tgz:38191.got - 2010.06.03 12:22:45.
