data_PCOD9161841
_publ_section_title
;
Structure prediction by ZEFSAII (Michael W. Deem and Ramdas Pophale) SiO2 
 PCOD9161841
Probable space group: P 21/M
;
_chemical_formula_sum "Si O2"
_cell_formula_units_Z 32
_cell_length_a 7.300839
_cell_length_b 21.370230
_cell_length_c 12.394450
_cell_angle_alpha 90.000000
_cell_angle_beta 47.181880
_cell_angle_gamma 90.000000
_cell_volume 1418.463610
_symmetry_space_group_name_H-M "P 21/M"
_symmetry_group_IT_number 11
_symmetry_cell_setting 'monoclinic'
loop_
_space_group_symop_operation_xyz
x,y,z
-x,1/2+y,-z
-x,-y,-z
x,1/2-y,z
loop_
_atom_site_type_symbol
_atom_site_label
_atom_site_fract_x
_atom_site_fract_y
_atom_site_fract_z
Si Si1 0.723888 0.557931 0.554250
Si Si2 0.966914 0.054201 0.353780
Si Si3 0.142718 0.179907 0.619737
Si Si4 0.765838 0.942913 0.980893
Si Si5 0.322476 0.820336 0.472787
Si Si6 0.854867 0.319312 0.951515
Si Si7 0.606997 0.819709 0.139391
Si Si8 0.702442 0.435769 0.125303
O O1 0.772998 0.502716 0.449922
O O2 0.843292 0.622269 0.465878
O O3 0.437755 0.564758 0.704291
O O4 0.848752 0.544310 0.619363
O O5 0.839704 0.122035 0.419838
O O6 0.118847 0.049891 0.182946
O O7 0.106388 0.250000 0.588925
O O8 0.414002 0.179373 0.569097
O O9 0.938799 0.169425 0.794855
O O10 0.004894 0.937783 0.964557
O O11 0.613112 0.879063 0.058629
O O12 0.634079 0.005092 0.078407
O O13 0.214936 0.750000 0.529195
O O14 0.402924 0.828932 0.315524
O O15 0.747310 0.250000 0.005052
O O16 0.120667 0.318378 0.910160
O O17 0.674172 0.371435 0.071897
O O18 0.571745 0.750000 0.106212
#
# Coordination Sequence:
#
# PCOD9161841 Si02
#       8
#     4   4   4   4   4   4   4   4
#     4  11  24  38  52  75 110 149 184 220 265 319
#     4  11  24  38  52  75 110 149 184 220 265 319
#     4   9  18  35  60  85 107 136 176 221 268 318
#     4  10  20  34  55  80 103 133 177 226 271 315
#     4   9  18  35  60  85 107 136 176 221 268 318
#     4   8  15  30  53  80 106 130 163 212 266 316
#     4   8  15  30  53  80 106 130 163 212 266 316
#     4  10  20  34  55  80 103 133 177 226 271 315
#
# _framework density 22.559619000000001
#
# number of rings (size 3 to 8) (size 9 to 14) (size 15 to 20)
#    0.000    2.500    0.000    3.750    0.000    6.000 
#    0.000    3.750    0.000    1.500    0.000    0.000 
#    0.000    0.000    0.000    0.000    0.000    0.000 
#
# Total GULP energy -178812.056138 kJ/mol
# GULP energy per Si atom -5587.876754 kJ/mol
# Density = 2.250827 g / cm^3
# Si number density = 22.559619 Si / 1000 Ang^3
#
#
#
# Elastic Constant Matrix: (Units=GPa)
#
#
# Indices 1 2 3 4 5 6 
#
# 1 40.4403 13.2141 2.4605 0.0000 -1.8618 0.0000
# 2 13.2141 202.7883 123.2044 0.0000 5.1135 0.0000
# 3 2.4605 123.2044 123.9359 0.0000 14.9845 0.0000
# 4 0.0000 0.0000 0.0000 43.1838 0.0000 0.3476
# 5 -1.8618 5.1135 14.9845 0.0000 26.7160 0.0000
# 6 0.0000 0.0000 0.0000 0.3476 0.0000 13.5405
#
#
#
# Elastic Compliance Matrix: (Units=1/GPa)
#
#
# Indices 1 2 3 4 5 6 
#
# 1 0.025695 -0.003333 0.002692 0.000000 0.000919 0.000000
# 2 -0.003333 0.013510 -0.013970 0.000000 0.005018 0.000000
# 3 0.002692 -0.013970 0.023125 0.000000 -0.010109 0.000000
# 4 0.000000 0.000000 0.000000 0.023162 0.000000 -0.000595
# 5 0.000919 0.005018 -0.010109 0.000000 0.042204 0.000000
# 6 0.000000 0.000000 0.000000 -0.000595 0.000000 0.073868
#
#
# Mechanical properties :
#
#
# Convention : Reuss Voigt Hill
#
# Bulk Modulus (GPa) = 30.20418 71.65806 50.93112
# Shear Modulus (GPa) = 20.67630 31.90711 26.29170
#
# Velocity S-wave (km/s) = 3.03069 3.76486 3.41755
# Velocity P-wave (km/s) = 5.06601 7.12262 6.18046
#
# Compressibility (1/GPa) = 0.03310800
#
# Stress axis : x y z
#
# Youngs Moduli (GPa) = 38.91735 74.02088 43.24239
#
# Poissons Ratio (x) = 0.24674 -0.11643
# Poissons Ratio (y) = 0.12973 0.60412
# Poissons Ratio (z) = -0.10478 1.03410
#
# Static dielectric constant tensor:
#      x y z
#    x 1.928040 0.000000 -0.014300 
#    y 0.000000 1.810910 0.000000 
#    z -0.014300 0.000000 1.773900 
# 
# From -- ./inp_files/32827.got.cif
#   From: 2010.05.17/outbox.cif.g08.bks.cpg/sg11_17_cif.got.tgz:32827.got - 2010.06.03 12:22:45.
