data_PCOD9161828
_publ_section_title
;
Structure prediction by ZEFSAII (Michael W. Deem and Ramdas Pophale) SiO2 
 PCOD9161828
Probable space group: P 21/M
;
_chemical_formula_sum "Si O2"
_cell_formula_units_Z 32
_cell_length_a 10.218135
_cell_length_b 14.691291
_cell_length_c 12.480289
_cell_angle_alpha 90.000000
_cell_angle_beta 125.638460
_cell_angle_gamma 90.000000
_cell_volume 1522.620771
_symmetry_space_group_name_H-M "P 21/M"
_symmetry_group_IT_number 11
_symmetry_cell_setting 'monoclinic'
loop_
_space_group_symop_operation_xyz
x,y,z
-x,1/2+y,-z
-x,-y,-z
x,1/2-y,z
loop_
_atom_site_type_symbol
_atom_site_label
_atom_site_fract_x
_atom_site_fract_y
_atom_site_fract_z
Si Si1 0.046732 0.639651 0.783666
Si Si2 0.566050 0.895846 0.027836
Si Si3 0.491109 0.085859 0.765073
Si Si4 0.210470 0.141640 0.497825
Si Si5 0.937113 0.639503 0.173520
Si Si6 0.318705 0.900678 0.748073
Si Si7 0.852013 0.360444 0.928104
Si Si8 0.048462 0.857491 0.455433
O O1 0.070450 0.750000 0.780688
O O2 0.178991 0.591298 0.771744
O O3 0.871889 0.614752 0.653015
O O4 0.074206 0.619504 0.920269
O O5 0.542262 0.860875 0.138233
O O6 0.752999 0.892346 0.089596
O O7 0.457486 0.850593 0.883658
O O8 0.500000 0.000000 0.000000
O O9 0.391582 0.121020 0.616114
O O10 0.680034 0.091130 0.837364
O O11 0.412076 0.988271 0.749256
O O12 0.195990 0.250000 0.494233
O O13 0.093235 0.103295 0.536059
O O14 0.932740 0.750000 0.170595
O O15 0.030763 0.611545 0.111778
O O16 0.028450 0.607842 0.325270
O O17 0.217539 0.865709 0.597867
O O18 0.827041 0.250000 0.910173
O O19 0.016847 0.750000 0.432856
#
# Coordination Sequence:
#
# PCOD9161828 Si02
#       8
#     4   4   4   4   4   4   4   4
#     4   9  18  33  54  82 116 147 186 240 293 337
#     4  10  21  37  55  85 117 142 190 237 282 334
#     4  11  20  34  55  84 116 147 191 235 281 338
#     4   9  17  31  53  83 110 141 188 240 289 331
#     4  10  21  39  62  85 114 151 192 232 283 346
#     4  10  20  34  54  84 116 146 191 235 288 335
#     4  10  21  37  58  84 114 152 189 233 290 344
#     4   9  18  34  55  83 113 145 187 239 289 333
#
# _framework density 21.016397000000001
#
# number of rings (size 3 to 8) (size 9 to 14) (size 15 to 20)
#    0.000    2.250    2.500    1.500    0.000    3.500 
#    0.000    4.375    0.000    4.500    0.000    0.000 
#    0.000    0.000    0.000    0.000    0.000    0.000 
#
# Total GULP energy -178459.837257 kJ/mol
# GULP energy per Si atom -5576.869914 kJ/mol
# Density = 2.096856 g / cm^3
# Si number density = 21.016397 Si / 1000 Ang^3
#
#
#
# Elastic Constant Matrix: (Units=GPa)
#
#
# Indices 1 2 3 4 5 6 
#
# 1 126.0513 11.0278 82.5074 0.0000 4.8472 0.0000
# 2 11.0278 47.3054 11.5585 0.0000 0.0024 0.0000
# 3 82.5074 11.5585 214.9490 0.0000 13.8513 0.0000
# 4 0.0000 0.0000 0.0000 17.5493 0.0000 2.8990
# 5 4.8472 0.0024 13.8513 0.0000 22.6311 0.0000
# 6 0.0000 0.0000 0.0000 2.8990 0.0000 11.4517
#
#
#
# Elastic Compliance Matrix: (Units=1/GPa)
#
#
# Indices 1 2 3 4 5 6 
#
# 1 0.010702 -0.001508 -0.004038 0.000000 0.000180 0.000000
# 2 -0.001508 0.021645 -0.000631 0.000000 0.000707 0.000000
# 3 -0.004038 -0.000631 0.006434 0.000000 -0.003073 0.000000
# 4 0.000000 0.000000 0.000000 0.059469 0.000000 -0.015055
# 5 0.000180 0.000707 -0.003073 0.000000 0.046029 0.000000
# 6 0.000000 0.000000 0.000000 -0.015055 0.000000 0.091134
#
#
# Mechanical properties :
#
#
# Convention : Reuss Voigt Hill
#
# Bulk Modulus (GPa) = 37.84025 66.49922 52.16973
# Shear Modulus (GPa) = 19.48741 29.20723 24.34732
#
# Velocity S-wave (km/s) = 3.04838 3.73196 3.40735
# Velocity P-wave (km/s) = 5.51673 7.09086 6.35274
#
# Compressibility (1/GPa) = 0.02642689
#
# Stress axis : x y z
#
# Youngs Moduli (GPa) = 93.44445 46.20046 155.41786
#
# Poissons Ratio (x) = 0.06967 0.62761
# Poissons Ratio (y) = 0.14092 0.09801
# Poissons Ratio (z) = 0.37735 0.02913
#
# Static dielectric constant tensor:
#      x y z
#    x 1.697310 0.000000 -0.017650 
#    y 0.000000 1.874280 0.000000 
#    z -0.017650 0.000000 1.811630 
# 
# From -- ./inp_files/32842.got.cif
#   From: 2010.05.17/outbox.cif.g08.bks.cpg/sg11_17_cif.got.tgz:32842.got - 2010.06.03 12:22:45.
