data_PCOD9161948
_publ_section_title
;
Structure prediction by ZEFSAII (Michael W. Deem and Ramdas Pophale) SiO2 
 PCOD9161948
Probable space group: P 21/M
;
_chemical_formula_sum "Si O2"
_cell_formula_units_Z 28
_cell_length_a 21.406953
_cell_length_b 8.861681
_cell_length_c 15.223187
_cell_angle_alpha 90.000000
_cell_angle_beta 27.707816
_cell_angle_gamma 90.000000
_cell_volume 1342.748819
_symmetry_space_group_name_H-M "P 21/M"
_symmetry_group_IT_number 11
_symmetry_cell_setting 'monoclinic'
loop_
_space_group_symop_operation_xyz
x,y,z
-x,1/2+y,-z
-x,-y,-z
x,1/2-y,z
loop_
_atom_site_type_symbol
_atom_site_label
_atom_site_fract_x
_atom_site_fract_y
_atom_site_fract_z
Si Si1 0.076291 0.574222 0.485442
Si Si2 0.826065 0.068695 0.354309
Si Si3 0.657480 0.582570 0.878004
Si Si4 0.648868 0.068793 0.216273
Si Si5 0.630691 0.430671 0.444156
Si Si6 0.588064 0.579863 0.759227
Si Si7 0.951705 0.068814 0.813085
O O1 0.048520 0.750000 0.530196
O O2 0.230135 0.544003 0.269588
O O3 0.000000 0.500000 0.500000
O O4 0.032898 0.488528 0.627528
O O5 0.831758 0.250000 0.355531
O O6 0.758354 0.028336 0.345159
O O7 0.717710 0.999368 0.557044
O O8 0.970059 0.999667 0.200433
O O9 0.708364 0.750000 0.839387
O O10 0.606583 0.595090 0.841061
O O11 0.541183 0.526912 0.087490
O O12 0.639879 0.250000 0.220874
O O13 0.651033 0.026476 0.317222
O O14 0.511663 0.000454 0.348525
O O15 0.795365 0.022771 0.998428
O O16 0.617981 0.250000 0.464115
O O17 0.570946 0.750000 0.744911
O O18 0.956970 0.250000 0.812085
#
# Coordination Sequence:
#
# PCOD9161948 Si02
#       7
#     4   4   4   4   4   4   4
#     4  12  25  41  61  84 116 155 198 245 297 355
#     4  11  22  36  58  89 125 160 200 250 301 355
#     4  10  20  36  57  81 111 147 192 240 288 343
#     4   9  20  40  64  88 119 158 199 244 297 357
#     4   9  20  39  62  90 121 155 198 247 296 353
#     4  10  20  34  56  82 113 150 190 237 289 345
#     4  11  23  40  61  88 122 159 200 248 301 360
#
# _framework density 20.852746
#
# number of rings (size 3 to 8) (size 9 to 14) (size 15 to 20)
#    0.000    1.714    1.429    3.000    0.000    5.143 
#    0.000    2.857    0.000    0.000    0.000    0.000 
#    0.000    0.000    0.000    0.000    0.000    0.000 
#
# Total GULP energy -156317.088074 kJ/mol
# GULP energy per Si atom -5582.753146 kJ/mol
# Density = 2.080528 g / cm^3
# Si number density = 20.852746 Si / 1000 Ang^3
#
#
#
# Elastic Constant Matrix: (Units=GPa)
#
#
# Indices 1 2 3 4 5 6 
#
# 1 64.5988 11.5395 -11.7655 0.0000 -9.8234 0.0000
# 2 11.5395 68.4102 -1.1385 0.0000 -2.6369 0.0000
# 3 -11.7655 -1.1385 45.5771 0.0000 -12.4943 0.0000
# 4 0.0000 0.0000 0.0000 23.4443 0.0000 -11.2460
# 5 -9.8234 -2.6369 -12.4943 0.0000 18.0822 0.0000
# 6 0.0000 0.0000 0.0000 -11.2460 0.0000 26.2576
#
#
#
# Elastic Compliance Matrix: (Units=1/GPa)
#
#
# Indices 1 2 3 4 5 6 
#
# 1 0.020471 -0.002603 0.010072 0.000000 0.017701 0.000000
# 2 -0.002603 0.015083 -0.000099 0.000000 0.000717 0.000000
# 3 0.010072 -0.000099 0.032118 0.000000 0.027651 0.000000
# 4 0.000000 0.000000 0.000000 0.053684 0.000000 0.022992
# 5 0.017701 0.000717 0.027651 0.000000 0.084130 0.000000
# 6 0.000000 0.000000 0.000000 0.022992 0.000000 0.047932
#
#
# Mechanical properties :
#
#
# Convention : Reuss Voigt Hill
#
# Bulk Modulus (GPa) = 12.13396 19.53967 15.83682
# Shear Modulus (GPa) = 18.78649 25.55351 22.17000
#
# Velocity S-wave (km/s) = 3.00478 3.50441 3.26417
# Velocity P-wave (km/s) = 4.22726 5.07594 4.67092
#
# Compressibility (1/GPa) = 0.08241332
#
# Stress axis : x y z
#
# Youngs Moduli (GPa) = 48.84849 66.30065 31.13472
#
# Poissons Ratio (x) = 0.17260 -0.31359
# Poissons Ratio (y) = 0.12716 0.00307
# Poissons Ratio (z) = -0.49201 0.00654
#
# Static dielectric constant tensor:
#      x y z
#    x 1.686160 0.000000 0.232200 
#    y 0.000000 1.727980 0.000000 
#    z 0.232200 0.000000 1.103890 
# 
# From -- ./inp_files/54497.got.cif
#   From: 2010.05.17/outbox.cif.g08.bks.cpg/sg11_28_cif.got.tgz:54497.got - 2010.06.03 12:22:45.
