data_PCOD9161221
_publ_section_title
;
Structure prediction by ZEFSAII (Michael W. Deem and Ramdas Pophale) SiO2 
 PCOD9161221
Probable space group: P 21/M
;
_chemical_formula_sum "Si O2"
_cell_formula_units_Z 32
_cell_length_a 14.656641
_cell_length_b 7.443881
_cell_length_c 14.575531
_cell_angle_alpha 90.000000
_cell_angle_beta 107.901888
_cell_angle_gamma 90.000000
_cell_volume 1513.231992
_symmetry_space_group_name_H-M "P 21/M"
_symmetry_group_IT_number 11
_symmetry_cell_setting 'monoclinic'
loop_
_space_group_symop_operation_xyz
x,y,z
-x,1/2+y,-z
-x,-y,-z
x,1/2-y,z
loop_
_atom_site_type_symbol
_atom_site_label
_atom_site_fract_x
_atom_site_fract_y
_atom_site_fract_z
Si Si1 0.743689 0.543669 0.577217
Si Si2 0.405266 0.530755 0.627918
Si Si3 0.841627 0.462317 0.124536
Si Si4 0.231471 0.466970 0.101250
Si Si5 0.259438 0.543266 0.730188
Si Si6 0.112384 0.464248 0.526150
Si Si7 0.036693 0.035905 0.114585
Si Si8 0.624086 0.530145 0.710483
O O1 0.768737 0.750000 0.607812
O O2 0.657864 0.537666 0.476232
O O3 0.835711 0.467715 0.551164
O O4 0.696568 0.465422 0.653851
O O5 0.401452 0.750000 0.623290
O O6 0.349967 0.468584 0.702601
O O7 0.515303 0.473124 0.660021
O O8 0.852525 0.250000 0.146805
O O9 0.778173 0.539426 0.186989
O O10 0.950526 0.536169 0.150697
O O11 0.791949 0.477907 0.009717
O O12 0.227885 0.250000 0.099564
O O13 0.145302 0.530580 0.142097
O O14 0.331143 0.521643 0.177776
O O15 0.285070 0.750000 0.757832
O O16 0.171815 0.539186 0.630542
O O17 0.127042 0.250000 0.532276
O O18 0.000000 0.500000 0.500000
O O19 0.041341 0.250000 0.131602
O O20 0.000000 0.000000 0.000000
O O21 0.622769 0.750000 0.706168
#
# Coordination Sequence:
#
# PCOD9161221 Si02
#       8
#     4   4   4   4   4   4   4   4
#     4   9  18  32  50  71  94 123 158 192 230 281
#     4   9  17  31  50  70  93 121 155 195 236 280
#     4   9  17  30  47  66  90 122 157 191 230 276
#     4   9  17  29  45  66  91 118 152 193 233 276
#     4   9  18  32  50  70  94 127 162 193 230 278
#     4  10  20  33  50  73 101 128 155 191 232 276
#     4   8  14  25  42  61  82 111 146 184 224 267
#     4   9  17  30  49  71  94 122 155 193 239 284
#
# _framework density 21.146789999999999
#
# number of rings (size 3 to 8) (size 9 to 14) (size 15 to 20)
#    0.000    3.000    0.000    0.750    0.000    2.000 
#    0.000    5.625    0.000    4.500    0.000    0.000 
#    0.000    0.000    0.000    0.000    0.000    0.000 
#
# Total GULP energy -178349.580805 kJ/mol
# GULP energy per Si atom -5573.424400 kJ/mol
# Density = 2.109866 g / cm^3
# Si number density = 21.146790 Si / 1000 Ang^3
#
#
#
# Elastic Constant Matrix: (Units=GPa)
#
#
# Indices 1 2 3 4 5 6 
#
# 1 125.8629 -7.6335 52.2021 0.0000 -10.7368 0.0000
# 2 -7.6335 69.2504 -9.8287 0.0000 -5.3235 0.0000
# 3 52.2021 -9.8287 63.6863 0.0000 -27.8980 0.0000
# 4 0.0000 0.0000 0.0000 20.5854 0.0000 -19.6808
# 5 -10.7368 -5.3235 -27.8980 0.0000 33.7434 0.0000
# 6 0.0000 0.0000 0.0000 -19.6808 0.0000 74.8597
#
#
#
# Elastic Compliance Matrix: (Units=1/GPa)
#
#
# Indices 1 2 3 4 5 6 
#
# 1 0.013210 -0.001218 -0.014517 0.000000 -0.007991 0.000000
# 2 -0.001218 0.015879 0.006862 0.000000 0.007791 0.000000
# 3 -0.014517 0.006862 0.042505 0.000000 0.031605 0.000000
# 4 0.000000 0.000000 0.000000 0.064888 0.000000 0.017059
# 5 -0.007991 0.007791 0.031605 0.000000 0.054452 0.000000
# 6 0.000000 0.000000 0.000000 0.017059 0.000000 0.017843
#
#
# Mechanical properties :
#
#
# Convention : Reuss Voigt Hill
#
# Bulk Modulus (GPa) = 18.57080 36.47548 27.52314
# Shear Modulus (GPa) = 20.45217 40.77501 30.61359
#
# Velocity S-wave (km/s) = 3.11328 4.39588 3.80895
# Velocity P-wave (km/s) = 4.66093 6.56134 5.69102
#
# Compressibility (1/GPa) = 0.05384799
#
# Stress axis : x y z
#
# Youngs Moduli (GPa) = 75.69744 62.97670 23.52676
#
# Poissons Ratio (x) = 0.07673 0.34153
# Poissons Ratio (y) = 0.09223 -0.16144
# Poissons Ratio (z) = 1.09888 -0.43215
#
# Static dielectric constant tensor:
#      x y z
#    x 1.785470 0.000000 -0.031650 
#    y 0.000000 1.800100 0.000000 
#    z -0.031650 0.000000 1.735960 
# 
# From -- ./inp_files/51419.got.cif
#   From: 2010.05.17/outbox.cif.g08.bks.cpg/sg11_26_cif.got.tgz:51419.got - 2010.06.03 12:22:45.
