data_PCOD9161775
_publ_section_title
;
Structure prediction by ZEFSAII (Michael W. Deem and Ramdas Pophale) SiO2 
 PCOD9161775
Probable space group: P 21/M
;
_chemical_formula_sum "Si O2"
_cell_formula_units_Z 32
_cell_length_a 15.825029
_cell_length_b 8.929900
_cell_length_c 25.415024
_cell_angle_alpha 90.000000
_cell_angle_beta 30.894913
_cell_angle_gamma 90.000000
_cell_volume 1844.134261
_symmetry_space_group_name_H-M "P 21/M"
_symmetry_group_IT_number 11
_symmetry_cell_setting 'monoclinic'
loop_
_space_group_symop_operation_xyz
x,y,z
-x,1/2+y,-z
-x,-y,-z
x,1/2-y,z
loop_
_atom_site_type_symbol
_atom_site_label
_atom_site_fract_x
_atom_site_fract_y
_atom_site_fract_z
Si Si1 0.780540 0.570133 0.576559
Si Si2 0.711475 0.571399 0.937899
Si Si3 0.546683 0.429244 0.311059
Si Si4 0.850554 0.071246 0.650515
Si Si5 0.380921 0.570729 0.606789
Si Si6 0.111715 0.071631 0.895477
Si Si7 0.364429 0.071607 0.143294
Si Si8 0.964776 0.929410 0.184725
O O1 0.777031 0.750000 0.587121
O O2 0.624229 0.528420 0.624893
O O3 0.779838 0.488487 0.632982
O O4 0.954415 0.535342 0.455730
O O5 0.715717 0.750000 0.943367
O O6 0.701623 0.541387 0.880439
O O7 0.871126 0.496071 0.877728
O O8 0.543654 0.504135 0.051384
O O9 0.567405 0.250000 0.294545
O O10 0.550974 0.463245 0.370951
O O11 0.702979 0.509208 0.201707
O O12 0.832237 0.250000 0.663647
O O13 0.757583 0.994039 0.748179
O O14 0.500000 0.500000 0.500000
O O15 0.372694 0.750000 0.605172
O O16 0.198289 0.501201 0.702516
O O17 0.112701 0.250000 0.900520
O O18 0.044921 0.035314 0.872519
O O19 0.000000 0.000000 0.000000
O O20 0.380802 0.250000 0.140671
O O21 0.960400 0.750000 0.193046
#
# Coordination Sequence:
#
# PCOD9161775 Si02
#       8
#     4   4   4   4   4   4   4   4
#     4   9  19  36  55  76 105 140 177 218 264 312
#     4  10  21  37  57  81 107 138 178 221 264 312
#     4   9  19  36  56  77 104 139 177 218 264 313
#     4  10  20  34  54  80 108 140 177 217 262 313
#     4  10  20  35  55  80 109 141 179 222 268 318
#     4  10  21  36  55  79 106 138 175 216 263 314
#     4  10  21  37  56  79 108 141 176 217 265 315
#     4  10  21  37  56  79 108 142 178 218 266 317
#
# _framework density 17.352315999999998
#
# number of rings (size 3 to 8) (size 9 to 14) (size 15 to 20)
#    0.000    2.250    0.000    2.250    0.000    6.500 
#    0.000    2.500    0.000    0.000    0.000    0.000 
#    0.000    0.000    0.000    0.000    0.000    0.000 
#
# Total GULP energy -178653.956538 kJ/mol
# GULP energy per Si atom -5582.936142 kJ/mol
# Density = 1.731282 g / cm^3
# Si number density = 17.352316 Si / 1000 Ang^3
#
#
#
# Elastic Constant Matrix: (Units=GPa)
#
#
# Indices 1 2 3 4 5 6 
#
# 1 109.1447 59.3728 95.7214 0.0000 -28.4156 0.0000
# 2 59.3728 63.1636 75.5594 0.0000 -3.0148 0.0000
# 3 95.7214 75.5594 170.9259 0.0000 5.1288 0.0000
# 4 0.0000 0.0000 0.0000 37.5554 0.0000 -0.2118
# 5 -28.4156 -3.0148 5.1288 0.0000 31.0021 0.0000
# 6 0.0000 0.0000 0.0000 -0.2118 0.0000 29.7239
#
#
#
# Elastic Compliance Matrix: (Units=1/GPa)
#
#
# Indices 1 2 3 4 5 6 
#
# 1 0.052463 -0.021273 -0.021464 0.000000 0.049568 0.000000
# 2 -0.021273 0.043279 -0.006794 0.000000 -0.014165 0.000000
# 3 -0.021464 -0.006794 0.021591 0.000000 -0.023906 0.000000
# 4 0.000000 0.000000 0.000000 0.026628 0.000000 0.000190
# 5 0.049568 -0.014165 -0.023906 0.000000 0.080266 0.000000
# 6 0.000000 0.000000 0.000000 0.000190 0.000000 0.033644
#
#
# Mechanical properties :
#
#
# Convention : Reuss Voigt Hill
#
# Bulk Modulus (GPa) = 54.72647 89.39351 72.05999
# Shear Modulus (GPa) = 13.77322 27.16165 20.46744
#
# Velocity S-wave (km/s) = 2.82040 3.96068 3.43814
# Velocity P-wave (km/s) = 6.49716 8.51731 7.57488
#
# Compressibility (1/GPa) = 0.01827269
#
# Stress axis : x y z
#
# Youngs Moduli (GPa) = 19.06095 23.10611 46.31525
#
# Poissons Ratio (x) = 0.49153 0.99411
# Poissons Ratio (y) = 0.40548 0.31465
# Poissons Ratio (z) = 0.40912 0.15697
#
# Static dielectric constant tensor:
#      x y z
#    x 1.571130 0.000000 -0.000030 
#    y 0.000000 1.576920 0.000000 
#    z -0.000030 0.000000 1.554630 
# 
# From -- ./inp_files/69022.got.cif
#   From: 2010.05.17/outbox.cif.g08.bks.cpg/sg11_35_cif.got.tgz:69022.got - 2010.06.03 12:22:45.
