data_PCOD9161634
_publ_section_title
;
Structure prediction by ZEFSAII (Michael W. Deem and Ramdas Pophale) SiO2 
 PCOD9161634
Probable space group: P 21/M
;
_chemical_formula_sum "Si O2"
_cell_formula_units_Z 32
_cell_length_a 25.903455
_cell_length_b 7.723232
_cell_length_c 25.628047
_cell_angle_alpha 90.000000
_cell_angle_beta 17.152820
_cell_angle_gamma 90.000000
_cell_volume 1512.092884
_symmetry_space_group_name_H-M "P 21/M"
_symmetry_group_IT_number 11
_symmetry_cell_setting 'monoclinic'
loop_
_space_group_symop_operation_xyz
x,y,z
-x,1/2+y,-z
-x,-y,-z
x,1/2-y,z
loop_
_atom_site_type_symbol
_atom_site_label
_atom_site_fract_x
_atom_site_fract_y
_atom_site_fract_z
Si Si1 0.135043 0.956619 0.116629
Si Si2 0.056505 0.939900 0.502498
Si Si3 0.546343 0.043202 0.122566
Si Si4 0.444044 0.042536 0.112271
Si Si5 0.301656 0.959739 0.748828
Si Si6 0.301683 0.455403 0.631054
Si Si7 0.041697 0.537173 0.091743
Si Si8 0.860852 0.457652 0.468509
O O1 0.159484 0.750000 0.087756
O O2 0.102268 0.023402 0.090040
O O3 0.305923 0.028704 0.981614
O O4 0.966739 0.985880 0.315641
O O5 0.977541 0.750000 0.583807
O O6 0.040492 0.030463 0.574492
O O7 0.265781 0.942151 0.295203
O O8 0.000000 0.000000 0.500000
O O9 0.564884 0.250000 0.105496
O O10 0.569122 0.991708 0.039637
O O11 0.344565 0.006288 0.332953
O O12 0.412543 0.250000 0.146111
O O13 0.500000 0.000000 0.000000
O O14 0.304099 0.750000 0.746122
O O15 0.500893 0.024463 0.564855
O O16 0.245271 0.016668 0.745538
O O17 0.174196 0.016040 0.918002
O O18 0.313520 0.250000 0.610687
O O19 0.152570 0.522644 0.736590
O O20 0.039944 0.750000 0.093736
O O21 0.867312 0.250000 0.466019
#
# Coordination Sequence:
#
# PCOD9161634 Si02
#       8
#     4   4   4   4   4   4   4   4
#     4  10  21  37  59  83 107 144 189 232 275 323
#     4  10  21  36  54  79 106 137 173 217 272 332
#     4   9  20  38  58  80 106 141 184 226 269 323
#     4  10  20  34  52  79 108 138 173 217 271 328
#     4   9  17  30  49  74 105 139 174 215 260 312
#     4   9  17  30  50  76 105 138 173 214 264 314
#     4   9  18  32  51  77 104 134 178 222 263 312
#     4  10  22  39  57  80 110 144 179 222 278 332
#
# _framework density 21.162723
#
# number of rings (size 3 to 8) (size 9 to 14) (size 15 to 20)
#    0.000    2.500    0.000    1.500    1.750    3.500 
#    0.000    5.000    0.000    3.000    0.000    0.000 
#    0.000    0.000    0.000    0.000    0.000    0.000 
#
# Total GULP energy -178435.652341 kJ/mol
# GULP energy per Si atom -5576.114136 kJ/mol
# Density = 2.111456 g / cm^3
# Si number density = 21.162723 Si / 1000 Ang^3
#
#
#
# Elastic Constant Matrix: (Units=GPa)
#
#
# Indices 1 2 3 4 5 6 
#
# 1 150.3091 2.2696 42.0500 0.0000 -38.1284 0.0000
# 2 2.2696 35.0325 -13.7312 0.0000 -9.2929 0.0000
# 3 42.0500 -13.7312 48.4754 0.0000 -18.6956 0.0000
# 4 0.0000 0.0000 0.0000 12.6377 0.0000 3.2171
# 5 -38.1284 -9.2929 -18.6956 0.0000 25.1547 0.0000
# 6 0.0000 0.0000 0.0000 3.2171 0.0000 18.3108
#
#
#
# Elastic Compliance Matrix: (Units=1/GPa)
#
#
# Indices 1 2 3 4 5 6 
#
# 1 0.011575 0.002181 -0.003288 0.000000 0.015906 0.000000
# 2 0.002181 0.052271 0.030331 0.000000 0.045159 0.000000
# 3 -0.003288 0.030331 0.048324 0.000000 0.042137 0.000000
# 4 0.000000 0.000000 0.000000 0.082833 0.000000 -0.014553
# 5 0.015906 0.045159 0.042137 0.000000 0.111865 0.000000
# 6 0.000000 0.000000 0.000000 -0.014553 0.000000 0.057170
#
#
# Mechanical properties :
#
#
# Convention : Reuss Voigt Hill
#
# Bulk Modulus (GPa) = 5.86104 32.77710 19.31907
# Shear Modulus (GPa) = 13.79451 24.76920 19.28186
#
# Velocity S-wave (km/s) = 2.55587 3.42485 3.02176
# Velocity P-wave (km/s) = 3.38902 5.58222 4.61772
#
# Compressibility (1/GPa) = 0.17061808
#
# Stress axis : x y z
#
# Youngs Moduli (GPa) = 86.39402 19.13096 20.69357
#
# Poissons Ratio (x) = -0.04172 0.06805
# Poissons Ratio (y) = -0.18840 -0.62766
# Poissons Ratio (z) = 0.28409 -0.58027
#
# Static dielectric constant tensor:
#      x y z
#    x 1.800240 0.000000 -0.019240 
#    y 0.000000 1.795750 0.000000 
#    z -0.019240 0.000000 1.734960 
# 
# From -- ./inp_files/69967.got.cif
#   From: 2010.05.17/outbox.cif.g08.bks.cpg/sg11_35_cif.got.tgz:69967.got - 2010.06.03 12:22:45.
