data_PCOD9161943
_publ_section_title
;
Structure prediction by ZEFSAII (Michael W. Deem and Ramdas Pophale) SiO2 
 PCOD9161943
Probable space group: P 21/M
;
_chemical_formula_sum "Si O2"
_cell_formula_units_Z 28
_cell_length_a 25.690594
_cell_length_b 9.285700
_cell_length_c 5.433135
_cell_angle_alpha 90.000000
_cell_angle_beta 96.324410
_cell_angle_gamma 90.000000
_cell_volume 1288.214398
_symmetry_space_group_name_H-M "P 21/M"
_symmetry_group_IT_number 11
_symmetry_cell_setting 'monoclinic'
loop_
_space_group_symop_operation_xyz
x,y,z
-x,1/2+y,-z
-x,-y,-z
x,1/2-y,z
loop_
_atom_site_type_symbol
_atom_site_label
_atom_site_fract_x
_atom_site_fract_y
_atom_site_fract_z
Si Si1 0.102589 0.593494 0.039233
Si Si2 0.848996 0.906546 0.536276
Si Si3 0.475538 0.427984 0.737069
Si Si4 0.362915 0.926412 0.718795
Si Si5 0.039609 0.408940 0.685497
Si Si6 0.791200 0.088823 0.179528
Si Si7 0.696310 0.422245 0.805843
O O1 0.081230 0.750000 0.072951
O O2 0.135966 0.534019 0.277671
O O3 0.056248 0.487902 0.943403
O O4 0.147924 0.604817 0.858578
O O5 0.841291 0.750000 0.652635
O O6 0.903237 0.893997 0.411840
O O7 0.796815 0.956817 0.368605
O O8 0.500000 0.500000 0.500000
O O9 0.480475 0.250000 0.739615
O O10 0.415761 0.483794 0.709200
O O11 0.500000 0.500000 0.000000
O O12 0.371510 0.750000 0.715412
O O13 0.339272 0.961985 0.975633
O O14 0.324427 0.968539 0.471791
O O15 0.018726 0.250000 0.709249
O O16 0.000000 0.500000 0.500000
O O17 0.773358 0.250000 0.258138
O O18 0.755030 0.046670 0.930644
O O19 0.693858 0.250000 0.789924
#
# Coordination Sequence:
#
# PCOD9161943 Si02
#       7
#     4   4   4   4   4   4   4
#     4  10  20  34  56  81 107 140 185 233 281 342
#     4  10  21  36  54  78 108 142 181 230 287 347
#     4  12  25  43  68  98 133 174 222 274 329 390
#     4  10  20  37  60  91 127 166 211 261 315 373
#     4  10  21  37  55  76 106 139 178 227 284 347
#     4   9  19  35  56  82 109 146 193 238 281 340
#     4   9  19  34  59  88 121 161 207 257 307 364
#
# _framework density 21.735512
#
# number of rings (size 3 to 8) (size 9 to 14) (size 15 to 20)
#    0.000    2.000    0.000    3.429    2.000    4.000 
#    0.000    1.429    0.000    0.000    0.000    0.000 
#    0.000    0.000    0.000    0.000    0.000    0.000 
#
# Total GULP energy -155965.745800 kJ/mol
# GULP energy per Si atom -5570.205207 kJ/mol
# Density = 2.168604 g / cm^3
# Si number density = 21.735512 Si / 1000 Ang^3
#
#
#
# Elastic Constant Matrix: (Units=GPa)
#
#
# Indices 1 2 3 4 5 6 
#
# 1 88.5159 26.3956 21.9792 0.0000 9.5069 0.0000
# 2 26.3956 114.7460 32.2680 0.0000 5.6112 0.0000
# 3 21.9792 32.2680 106.8071 0.0000 17.0298 0.0000
# 4 0.0000 0.0000 0.0000 27.2245 0.0000 7.8945
# 5 9.5069 5.6112 17.0298 0.0000 37.3323 0.0000
# 6 0.0000 0.0000 0.0000 7.8945 0.0000 16.0434
#
#
#
# Elastic Compliance Matrix: (Units=1/GPa)
#
#
# Indices 1 2 3 4 5 6 
#
# 1 0.012616 -0.002364 -0.001538 0.000000 -0.002156 0.000000
# 2 -0.002364 0.009968 -0.002569 0.000000 0.000276 0.000000
# 3 -0.001538 -0.002569 0.011142 0.000000 -0.004305 0.000000
# 4 0.000000 0.000000 0.000000 0.042845 0.000000 -0.021083
# 5 -0.002156 0.000276 -0.004305 0.000000 0.029258 0.000000
# 6 0.000000 0.000000 0.000000 -0.021083 0.000000 0.072705
#
#
# Mechanical properties :
#
#
# Convention : Reuss Voigt Hill
#
# Bulk Modulus (GPa) = 48.11657 52.37273 50.24465
# Shear Modulus (GPa) = 25.20121 31.41513 28.30817
#
# Velocity S-wave (km/s) = 3.40876 3.80588 3.61278
# Velocity P-wave (km/s) = 6.13826 6.59248 6.36942
#
# Compressibility (1/GPa) = 0.02078286
#
# Stress axis : x y z
#
# Youngs Moduli (GPa) = 79.26531 100.32467 89.75345
#
# Poissons Ratio (x) = 0.23718 0.13806
# Poissons Ratio (y) = 0.18739 0.23056
# Poissons Ratio (z) = 0.12192 0.25772
#
# Static dielectric constant tensor:
#      x y z
#    x 1.865400 0.000000 -0.083080 
#    y 0.000000 1.829180 0.000000 
#    z -0.083080 0.000000 1.862910 
# 
# From -- ./inp_files/9712.got.cif
#   From: 2010.05.17/outbox.cif.g08.bks.cpg/sg11_5_cif.got.tgz:9712.got - 2010.06.03 12:22:45.
