data_PCOD9161960
_publ_section_title
;
Structure prediction by ZEFSAII (Michael W. Deem and Ramdas Pophale) SiO2 
 PCOD9161960
Probable space group: P 21/M
;
_chemical_formula_sum "Si O2"
_cell_formula_units_Z 28
_cell_length_a 16.083113
_cell_length_b 8.422525
_cell_length_c 21.627419
_cell_angle_alpha 90.000000
_cell_angle_beta 151.265892
_cell_angle_gamma 90.000000
_cell_volume 1408.420739
_symmetry_space_group_name_H-M "P 21/M"
_symmetry_group_IT_number 11
_symmetry_cell_setting 'monoclinic'
loop_
_space_group_symop_operation_xyz
x,y,z
-x,1/2+y,-z
-x,-y,-z
x,1/2-y,z
loop_
_atom_site_type_symbol
_atom_site_label
_atom_site_fract_x
_atom_site_fract_y
_atom_site_fract_z
Si Si1 0.049893 0.059696 0.600699
Si Si2 0.921600 0.560598 0.642944
Si Si3 0.788896 0.059234 0.074101
Si Si4 0.723953 0.938358 0.794226
Si Si5 0.943337 0.562253 0.051123
Si Si6 0.569255 0.941143 0.110979
Si Si7 0.417796 0.558487 0.511296
O O1 0.051987 0.250000 0.600646
O O2 0.243301 0.000639 0.745221
O O3 0.000000 0.000000 0.500000
O O4 0.924819 0.006917 0.575467
O O5 0.907911 0.750000 0.630614
O O6 0.771026 0.499016 0.590466
O O7 0.105392 0.519123 0.794804
O O8 0.802102 0.250000 0.074561
O O9 0.881173 0.972255 0.078586
O O10 0.588016 0.015012 0.946165
O O11 0.701957 0.750000 0.786290
O O12 0.547951 0.000433 0.650252
O O13 0.798374 0.998076 0.907942
O O14 0.878541 0.974555 0.847544
O O15 0.969970 0.750000 0.058285
O O16 0.577447 0.750000 0.113579
O O17 0.500000 0.000000 0.000000
O O18 0.500000 0.500000 0.500000
O O19 0.416156 0.750000 0.507887
#
# Coordination Sequence:
#
# PCOD9161960 Si02
#       7
#     4   4   4   4   4   4   4
#     4  11  24  42  65  93 127 165 208 256 313 374
#     4  11  23  40  62  87 120 160 202 251 308 365
#     4  10  21  37  58  85 117 150 189 240 299 353
#     4   9  20  38  55  76 113 153 188 236 296 348
#     4  10  20  34  56  84 110 145 193 239 287 348
#     4  10  21  39  63  89 117 154 198 246 299 357
#     4  11  23  39  59  85 120 158 201 247 300 364
#
# _framework density 19.880421999999999
#
# number of rings (size 3 to 8) (size 9 to 14) (size 15 to 20)
#    0.000    1.714    1.429    2.571    0.000    8.571 
#    0.000    2.857    0.000    0.000    0.000    0.000 
#    0.000    0.000    0.000    0.000    0.000    0.000 
#
# Total GULP energy -156281.599884 kJ/mol
# GULP energy per Si atom -5581.485710 kJ/mol
# Density = 1.983517 g / cm^3
# Si number density = 19.880422 Si / 1000 Ang^3
#
#
#
# Elastic Constant Matrix: (Units=GPa)
#
#
# Indices 1 2 3 4 5 6 
#
# 1 103.4532 18.4949 36.5717 0.0000 -5.9886 0.0000
# 2 18.4949 16.6113 17.7203 0.0000 -1.7151 0.0000
# 3 36.5717 17.7203 108.4545 0.0000 8.4521 0.0000
# 4 0.0000 0.0000 0.0000 20.3395 0.0000 -4.6215
# 5 -5.9886 -1.7151 8.4521 0.0000 15.4048 0.0000
# 6 0.0000 0.0000 0.0000 -4.6215 0.0000 33.4522
#
#
#
# Elastic Compliance Matrix: (Units=1/GPa)
#
#
# Indices 1 2 3 4 5 6 
#
# 1 0.012967 -0.010583 -0.003076 0.000000 0.005550 0.000000
# 2 -0.010583 0.085172 -0.011247 0.000000 0.011539 0.000000
# 3 -0.003076 -0.011247 0.012835 0.000000 -0.009490 0.000000
# 4 0.000000 0.000000 0.000000 0.050759 0.000000 0.007013
# 5 0.005550 0.011539 -0.009490 0.000000 0.073564 0.000000
# 6 0.000000 0.000000 0.000000 0.007013 0.000000 0.030862
#
#
# Mechanical properties :
#
#
# Convention : Reuss Voigt Hill
#
# Bulk Modulus (GPa) = 16.34995 41.56586 28.95790
# Shear Modulus (GPa) = 14.86515 24.22144 19.54330
#
# Velocity S-wave (km/s) = 2.73743 3.49428 3.13875
# Velocity P-wave (km/s) = 4.27005 6.10191 5.26625
#
# Compressibility (1/GPa) = 0.06116228
#
# Stress axis : x y z
#
# Youngs Moduli (GPa) = 77.11994 11.74098 77.91266
#
# Poissons Ratio (x) = 0.12425 0.23965
# Poissons Ratio (y) = 0.81615 0.87627
# Poissons Ratio (z) = 0.23722 0.13205
#
# Static dielectric constant tensor:
#      x y z
#    x 1.687480 0.000000 0.001460 
#    y 0.000000 1.679000 0.000000 
#    z 0.001460 0.000000 1.737320 
# 
# From -- ./inp_files/65376.got.cif
#   From: 2010.05.17/outbox.cif.g08.bks.cpg/sg11_33_cif.got.tgz:65376.got - 2010.06.03 12:22:45.
