data_PCOD9161974
_publ_section_title
;
Structure prediction by ZEFSAII (Michael W. Deem and Ramdas Pophale) SiO2 
 PCOD9161974
Probable space group: P 21/M
;
_chemical_formula_sum "Si O2"
_cell_formula_units_Z 20
_cell_length_a 5.528065
_cell_length_b 13.101714
_cell_length_c 12.606998
_cell_angle_alpha 90.000000
_cell_angle_beta 81.267894
_cell_angle_gamma 90.000000
_cell_volume 902.505004
_symmetry_space_group_name_H-M "P 21/M"
_symmetry_group_IT_number 11
_symmetry_cell_setting 'monoclinic'
loop_
_space_group_symop_operation_xyz
x,y,z
-x,1/2+y,-z
-x,-y,-z
x,1/2-y,z
loop_
_atom_site_type_symbol
_atom_site_label
_atom_site_fract_x
_atom_site_fract_y
_atom_site_fract_z
Si Si1 0.226611 0.125780 0.576614
Si Si2 0.788374 0.048533 0.085132
Si Si3 0.867443 0.636318 0.792837
Si Si4 0.296462 0.520137 0.365435
Si Si5 0.564543 0.644753 0.030447
O O1 0.238590 0.250000 0.563980
O O2 0.454279 0.085353 0.634552
O O3 0.948487 0.091617 0.627136
O O4 0.268203 0.058666 0.466702
O O5 0.688376 0.136290 0.015530
O O6 0.599867 0.954611 0.098009
O O7 0.870516 0.089603 0.192657
O O8 0.000000 0.000000 0.000000
O O9 0.883755 0.750000 0.745784
O O10 0.721506 0.557942 0.731396
O O11 0.744703 0.644936 0.916944
O O12 0.592398 0.750000 0.089012
#
# Coordination Sequence:
#
# PCOD9161974 Si02
#       5
#     4   4   4   4   4
#     4  10  21  41  61  85 122 161 193 237 294 349
#     4   9  18  33  53  76 110 143 180 233 285 351
#     4  10  20  34  56  85 111 142 190 247 292 334
#     4  10  22  37  63  91 117 154 201 241 286 349
#     4   9  18  33  54  79 108 147 183 233 293 347
#
# _framework density 22.160544000000002
#
# number of rings (size 3 to 8) (size 9 to 14) (size 15 to 20)
#    0.000    2.400    0.000    1.800    2.800    0.800 
#    0.000    4.000    0.000    3.600    0.000    0.000 
#    0.000    0.000    0.000    0.000    0.000    0.000 
#
# Total GULP energy -111343.272956 kJ/mol
# GULP energy per Si atom -5567.163648 kJ/mol
# Density = 2.211011 g / cm^3
# Si number density = 22.160544 Si / 1000 Ang^3
#
#
#
# Elastic Constant Matrix: (Units=GPa)
#
#
# Indices 1 2 3 4 5 6 
#
# 1 117.7686 71.8662 36.9952 0.0000 36.2337 0.0000
# 2 71.8662 212.8613 47.8153 0.0000 23.3768 0.0000
# 3 36.9952 47.8153 47.8059 0.0000 18.2305 0.0000
# 4 0.0000 0.0000 0.0000 18.8412 0.0000 -1.0649
# 5 36.2337 23.3768 18.2305 0.0000 23.4503 0.0000
# 6 0.0000 0.0000 0.0000 -1.0649 0.0000 12.2615
#
#
#
# Elastic Compliance Matrix: (Units=1/GPa)
#
#
# Indices 1 2 3 4 5 6 
#
# 1 0.018288 -0.003129 -0.002041 0.000000 -0.023551 0.000000
# 2 -0.003129 0.006654 -0.005043 0.000000 0.002123 0.000000
# 3 -0.002041 -0.005043 0.034713 0.000000 -0.018804 0.000000
# 4 0.000000 0.000000 0.000000 0.053337 0.000000 0.004632
# 5 -0.023551 0.002123 -0.018804 0.000000 0.091535 0.000000
# 6 0.000000 0.000000 0.000000 0.004632 0.000000 0.081958
#
#
# Mechanical properties :
#
#
# Convention : Reuss Voigt Hill
#
# Bulk Modulus (GPa) = 25.49275 76.86547 51.17911
# Shear Modulus (GPa) = 15.62552 25.69453 20.66002
#
# Velocity S-wave (km/s) = 2.65826 3.40880 3.05665
# Velocity P-wave (km/s) = 4.57717 7.08902 5.96677
#
# Compressibility (1/GPa) = 0.03922684
#
# Stress axis : x y z
#
# Youngs Moduli (GPa) = 54.68060 150.28092 28.80776
#
# Poissons Ratio (x) = 0.47030 0.05881
# Poissons Ratio (y) = 0.17112 0.14528
# Poissons Ratio (z) = 0.11163 0.75790
#
# Static dielectric constant tensor:
#      x y z
#    x 2.201900 0.000000 -0.042900 
#    y 0.000000 1.851780 0.000000 
#    z -0.042900 0.000000 1.826900 
# 
# From -- ./inp_files/6132.got.cif
#   From: 2010.05.17/outbox.cif.g08.bks.cpg/sg11_4_cif.got.tgz:6132.got - 2010.06.03 12:22:45.
