data_PCOD9161793
_publ_section_title
;
Structure prediction by ZEFSAII (Michael W. Deem and Ramdas Pophale) SiO2 
 PCOD9161793
Probable space group: P 21/M
;
_chemical_formula_sum "Si O2"
_cell_formula_units_Z 32
_cell_length_a 11.177246
_cell_length_b 9.599153
_cell_length_c 28.603880
_cell_angle_alpha 90.000000
_cell_angle_beta 30.155853
_cell_angle_gamma 90.000000
_cell_volume 1541.709038
_symmetry_space_group_name_H-M "P 21/M"
_symmetry_group_IT_number 11
_symmetry_cell_setting 'monoclinic'
loop_
_space_group_symop_operation_xyz
x,y,z
-x,1/2+y,-z
-x,-y,-z
x,1/2-y,z
loop_
_atom_site_type_symbol
_atom_site_label
_atom_site_fract_x
_atom_site_fract_y
_atom_site_fract_z
Si Si1 0.813541 0.088129 0.193369
Si Si2 0.001991 0.913260 0.047335
Si Si3 0.290528 0.085501 0.596901
Si Si4 0.996434 0.901817 0.563484
Si Si5 0.454441 0.409708 0.135133
Si Si6 0.989667 0.414965 0.231933
Si Si7 0.207088 0.590399 0.292771
Si Si8 0.331030 0.100654 0.414308
O O1 0.846371 0.250000 0.167635
O O2 0.989701 0.053735 0.176834
O O3 0.561957 0.079259 0.305046
O O4 0.840193 0.987073 0.140795
O O5 0.944763 0.750000 0.059557
O O6 0.275777 0.922353 0.972726
O O7 0.000000 0.000000 0.000000
O O8 0.349693 0.250000 0.584051
O O9 0.050078 0.082301 0.646225
O O10 0.500000 0.000000 0.500000
O O11 0.199888 0.006646 0.674719
O O12 0.008925 0.750000 0.581701
O O13 0.882425 0.885981 0.550942
O O14 0.252919 0.974233 0.473030
O O15 0.826322 0.003265 0.649278
O O16 0.423127 0.250000 0.162851
O O17 0.399293 0.516669 0.195093
O O18 0.250525 0.434917 0.165729
O O19 0.928505 0.250000 0.257504
O O20 0.265237 0.750000 0.281997
O O21 0.349886 0.250000 0.433378
#
# Coordination Sequence:
#
# PCOD9161793 Si02
#       8
#     4   4   4   4   4   4   4   4
#     4  10  22  40  63  90 121 156 194 245 303 356
#     4  11  25  43  64  91 121 154 197 247 300 358
#     4  10  21  35  53  81 118 157 197 243 290 342
#     4  10  20  34  54  80 112 155 198 238 287 343
#     4   9  20  40  62  85 117 154 196 245 294 350
#     4   9  19  38  62  87 117 156 198 240 296 356
#     4  10  21  35  55  83 114 152 195 239 291 346
#     4   9  20  37  54  78 115 153 192 239 288 343
#
# _framework density 20.756186
#
# number of rings (size 3 to 8) (size 9 to 14) (size 15 to 20)
#    0.000    2.250    0.000    1.500    3.500    4.500 
#    0.000    0.000    0.000    0.000    0.000    0.000 
#    0.000    0.000    0.000    0.000    0.000    0.000 
#
# Total GULP energy -178640.954752 kJ/mol
# GULP energy per Si atom -5582.529836 kJ/mol
# Density = 2.070894 g / cm^3
# Si number density = 20.756186 Si / 1000 Ang^3
#
#
#
# Elastic Constant Matrix: (Units=GPa)
#
#
# Indices 1 2 3 4 5 6 
#
# 1 39.5455 23.3755 -0.4824 0.0000 4.2060 0.0000
# 2 23.3755 128.3066 35.0109 0.0000 15.3092 0.0000
# 3 -0.4824 35.0109 49.1904 0.0000 -2.3533 0.0000
# 4 0.0000 0.0000 0.0000 34.1529 0.0000 3.8883
# 5 4.2060 15.3092 -2.3533 0.0000 29.7288 0.0000
# 6 0.0000 0.0000 0.0000 3.8883 0.0000 18.1941
#
#
#
# Elastic Compliance Matrix: (Units=1/GPa)
#
#
# Indices 1 2 3 4 5 6 
#
# 1 0.029329 -0.006677 0.005025 0.000000 -0.000313 0.000000
# 2 -0.006677 0.012198 -0.009037 0.000000 -0.006052 0.000000
# 3 0.005025 -0.009037 0.027102 0.000000 0.006088 0.000000
# 4 0.000000 0.000000 0.000000 0.030010 0.000000 -0.006413
# 5 -0.000313 -0.006052 0.006088 0.000000 0.037280 0.000000
# 6 0.000000 0.000000 0.000000 -0.006413 0.000000 0.056333
#
#
# Mechanical properties :
#
#
# Convention : Reuss Voigt Hill
#
# Bulk Modulus (GPa) = 21.16377 36.98338 29.07358
# Shear Modulus (GPa) = 21.79774 27.02440 24.41107
#
# Velocity S-wave (km/s) = 3.24416 3.61223 3.43313
# Velocity P-wave (km/s) = 4.92456 5.93753 5.45461
#
# Compressibility (1/GPa) = 0.04725056
#
# Stress axis : x y z
#
# Youngs Moduli (GPa) = 34.09624 81.97802 36.89789
#
# Poissons Ratio (x) = 0.54737 -0.18541
# Poissons Ratio (y) = 0.22766 0.33345
# Poissons Ratio (z) = -0.17133 0.74085
#
# Static dielectric constant tensor:
#      x y z
#    x 1.796110 0.000000 -0.037840 
#    y 0.000000 1.772540 0.000000 
#    z -0.037840 0.000000 1.711900 
# 
# From -- ./inp_files/73060.got.cif
#   From: 2010.05.17/outbox.cif.g08.bks.cpg/sg11_37_cif.got.tgz:73060.got - 2010.06.03 12:22:45.
