data_PCOD9161832
_publ_section_title
;
Structure prediction by ZEFSAII (Michael W. Deem and Ramdas Pophale) SiO2 
 PCOD9161832
Probable space group: P 21/M
;
_chemical_formula_sum "Si O2"
_cell_formula_units_Z 28
_cell_length_a 22.402369
_cell_length_b 10.689880
_cell_length_c 18.755847
_cell_angle_alpha 90.000000
_cell_angle_beta 161.337941
_cell_angle_gamma 90.000000
_cell_volume 1437.255581
_symmetry_space_group_name_H-M "P 21/M"
_symmetry_group_IT_number 11
_symmetry_cell_setting 'monoclinic'
loop_
_space_group_symop_operation_xyz
x,y,z
-x,1/2+y,-z
-x,-y,-z
x,1/2-y,z
loop_
_atom_site_type_symbol
_atom_site_label
_atom_site_fract_x
_atom_site_fract_y
_atom_site_fract_z
Si Si1 0.131497 0.961202 0.459216
Si Si2 0.481742 0.602850 0.106423
Si Si3 0.742652 0.398917 0.006991
Si Si4 0.873767 0.111052 0.387585
Si Si5 0.153710 0.612343 0.325721
Si Si6 0.123104 0.107233 0.102487
Si Si7 0.400465 0.397456 0.530603
O O1 0.111865 0.889330 0.511168
O O2 0.151708 0.888990 0.408127
O O3 0.321003 0.039582 0.681364
O O4 0.944998 0.041953 0.237811
O O5 0.514149 0.750000 0.152666
O O6 0.376591 0.557255 0.059075
O O7 0.336208 0.586854 0.877283
O O8 0.764598 0.250000 0.037745
O O9 0.614008 0.424648 0.792364
O O10 0.926666 0.250000 0.419666
O O11 0.000000 0.000000 0.500000
O O12 0.225416 0.750000 0.382888
O O13 0.274726 0.495812 0.433077
O O14 0.944871 0.600005 0.055965
O O15 0.071969 0.250000 0.067362
O O16 0.329902 0.090395 0.368978
O O17 0.000000 0.000000 0.000000
O O18 0.369853 0.250000 0.516881
#
# Coordination Sequence:
#
# PCOD9161832 Si02
#       7
#     4   4   4   4   4   4   4
#     4  12  22  37  60  86 117 153 189 235 291 345
#     4  10  21  39  61  86 116 150 191 238 287 341
#     4  10  20  35  58  89 119 149 192 241 285 334
#     4  11  24  43  63  86 117 152 195 239 286 345
#     4  10  20  34  54  85 120 152 189 233 289 346
#     4   8  15  29  52  79 112 152 188 231 280 331
#     4   9  17  34  58  84 114 151 197 238 277 332
#
# _framework density 19.481573999999998
#
# number of rings (size 3 to 8) (size 9 to 14) (size 15 to 20)
#    0.000    2.000    2.857    1.286    0.000    1.143 
#    0.000    5.000    0.000    0.000    0.000    0.000 
#    0.000    0.000    0.000    0.000    0.000    0.000 
#
# Total GULP energy -155906.487726 kJ/mol
# GULP energy per Si atom -5568.088847 kJ/mol
# Density = 1.943723 g / cm^3
# Si number density = 19.481574 Si / 1000 Ang^3
#
#
#
# Elastic Constant Matrix: (Units=GPa)
#
#
# Indices 1 2 3 4 5 6 
#
# 1 39.3827 31.2184 32.8839 0.0000 -15.6127 0.0000
# 2 31.2184 93.9934 67.2612 0.0000 3.5351 0.0000
# 3 32.8839 67.2612 149.7752 0.0000 -17.5585 0.0000
# 4 0.0000 0.0000 0.0000 21.7342 0.0000 -11.7968
# 5 -15.6127 3.5351 -17.5585 0.0000 39.9647 0.0000
# 6 0.0000 0.0000 0.0000 -11.7968 0.0000 -3.4436
#
#
#
# Elastic Compliance Matrix: (Units=1/GPa)
#
#
# Indices 1 2 3 4 5 6 
#
# 1 0.045679 -0.015133 -0.001037 0.000000 0.018728 0.000000
# 2 -0.015133 0.021585 -0.007683 0.000000 -0.011197 0.000000
# 3 -0.001037 -0.007683 0.010951 0.000000 0.005086 0.000000
# 4 0.000000 0.000000 0.000000 0.016091 0.000000 -0.055123
# 5 0.018728 -0.011197 0.005086 0.000000 0.035563 0.000000
# 6 0.000000 0.000000 0.000000 -0.055123 0.000000 -0.101558
#
#
# Mechanical properties :
#
#
# Convention : Reuss Voigt Hill
#
# Bulk Modulus (GPa) = 32.78026 60.65314 46.71670
# Shear Modulus (GPa) = 58.01311 21.77026 39.89168
#
# Velocity S-wave (km/s) = 5.46288 3.34650 4.53002
# Velocity P-wave (km/s) = 7.52686 6.79215 7.16892
#
# Compressibility (1/GPa) = 0.03050617
#
# Stress axis : x y z
#
# Youngs Moduli (GPa) = 21.89209 46.32929 91.31560
#
# Poissons Ratio (x) = 0.70112 0.09472
# Poissons Ratio (y) = 0.33130 0.70160
# Poissons Ratio (z) = 0.02271 0.35596
#
# Static dielectric constant tensor:
#      x y z
#    x 1.701620 0.000000 -0.044010 
#    y 0.000000 1.691070 0.000000 
#    z -0.044010 0.000000 1.687550 
# 
# From -- ./inp_files/61540.got.cif
#   From: 2010.05.17/outbox.cif.g08.bks.cpg/sg11_31_cif.got.tgz:61540.got - 2010.06.03 12:22:45.
