data_PCOD9161188
_publ_section_title
;
Structure prediction by ZEFSAII (Michael W. Deem and Ramdas Pophale) SiO2 
 PCOD9161188
Probable space group: P 21/M
;
_chemical_formula_sum "Si O2"
_cell_formula_units_Z 32
_cell_length_a 12.207203
_cell_length_b 7.729104
_cell_length_c 34.613051
_cell_angle_alpha 90.000000
_cell_angle_beta 150.699068
_cell_angle_gamma 90.000000
_cell_volume 1598.255402
_symmetry_space_group_name_H-M "P 21/M"
_symmetry_group_IT_number 11
_symmetry_cell_setting 'monoclinic'
loop_
_space_group_symop_operation_xyz
x,y,z
-x,1/2+y,-z
-x,-y,-z
x,1/2-y,z
loop_
_atom_site_type_symbol
_atom_site_label
_atom_site_fract_x
_atom_site_fract_y
_atom_site_fract_z
Si Si1 0.815812 0.041552 0.350922
Si Si2 0.719462 0.540552 0.468381
Si Si3 0.520815 0.044545 0.328877
Si Si4 0.298855 0.043831 0.967709
Si Si5 0.359721 0.541957 0.418482
Si Si6 0.143646 0.455410 0.724937
Si Si7 0.354791 0.544567 0.867878
Si Si8 0.036181 0.048933 0.197093
O O1 0.819050 0.250000 0.354644
O O2 0.624135 0.975719 0.320892
O O3 0.056610 0.980466 0.441076
O O4 0.789489 0.997064 0.298152
O O5 0.720201 0.750000 0.468852
O O6 0.696267 0.480977 0.417401
O O7 0.503100 0.479083 0.426075
O O8 0.486711 0.250000 0.312934
O O9 0.282361 0.969514 0.269197
O O10 0.259870 0.250000 0.956657
O O11 0.409033 0.981615 0.041815
O O12 0.082969 0.961197 0.881442
O O13 0.500000 0.000000 0.000000
O O14 0.500000 0.500000 0.500000
O O15 0.347602 0.750000 0.411927
O O16 0.107312 0.473352 0.344161
O O17 0.131650 0.250000 0.724806
O O18 0.310018 0.517881 0.809311
O O19 0.357278 0.750000 0.876599
O O20 0.140969 0.472158 0.826458
O O21 0.063386 0.250000 0.216519
#
# Coordination Sequence:
#
# PCOD9161188 Si02
#       8
#     4   4   4   4   4   4   4   4
#     4  10  21  37  53  69  98 139 176 213 258 303
#     4  10  20  34  52  74 100 132 171 215 262 306
#     4  10  21  35  53  76 100 133 175 214 254 303
#     4   9  17  30  51  79 108 137 166 199 249 306
#     4  10  20  33  49  72 100 130 165 205 251 300
#     4  11  22  33  50  76 102 132 173 214 252 299
#     4   9  18  32  51  76 106 136 162 196 249 308
#     4   9  18  33  52  78 108 135 167 206 253 305
#
# _framework density 20.021832
#
# number of rings (size 3 to 8) (size 9 to 14) (size 15 to 20)
#    0.000    2.250    1.250    2.625    0.000    5.000 
#    0.000    0.000    0.000    0.750    0.000    0.000 
#    0.000    0.000    0.000    0.000    0.000    0.000 
#
# Total GULP energy -178535.254880 kJ/mol
# GULP energy per Si atom -5579.226715 kJ/mol
# Density = 1.997626 g / cm^3
# Si number density = 20.021832 Si / 1000 Ang^3
#
#
#
# Elastic Constant Matrix: (Units=GPa)
#
#
# Indices 1 2 3 4 5 6 
#
# 1 74.4375 -3.5490 23.8184 0.0000 -15.7308 0.0000
# 2 -3.5490 27.2758 -18.5541 0.0000 8.2773 0.0000
# 3 23.8184 -18.5541 92.6200 0.0000 -25.0197 0.0000
# 4 0.0000 0.0000 0.0000 22.0968 0.0000 -8.2751
# 5 -15.7308 8.2773 -25.0197 0.0000 20.3811 0.0000
# 6 0.0000 0.0000 0.0000 -8.2751 0.0000 10.1718
#
#
#
# Elastic Compliance Matrix: (Units=1/GPa)
#
#
# Indices 1 2 3 4 5 6 
#
# 1 0.016275 -0.002466 -0.001519 0.000000 0.011698 0.000000
# 2 -0.002466 0.044279 0.006183 0.000000 -0.012296 0.000000
# 3 -0.001519 0.006183 0.017102 0.000000 0.017311 0.000000
# 4 0.000000 0.000000 0.000000 0.065084 0.000000 0.052948
# 5 0.011698 -0.012296 0.017311 0.000000 0.084339 0.000000
# 6 0.000000 0.000000 0.000000 0.052948 0.000000 0.141386
#
#
# Mechanical properties :
#
#
# Convention : Reuss Voigt Hill
#
# Bulk Modulus (GPa) = 12.18747 21.97375 17.08061
# Shear Modulus (GPa) = 12.77401 23.37115 18.07258
#
# Velocity S-wave (km/s) = 2.52861 3.42026 3.00766
# Velocity P-wave (km/s) = 3.82433 5.15716 4.53992
#
# Compressibility (1/GPa) = 0.08205148
#
# Stress axis : x y z
#
# Youngs Moduli (GPa) = 61.44496 22.58408 58.47145
#
# Poissons Ratio (x) = 0.05569 0.08883
# Poissons Ratio (y) = 0.15151 -0.36151
# Poissons Ratio (z) = 0.09335 -0.13963
#
# Static dielectric constant tensor:
#      x y z
#    x 1.738110 0.000000 0.010000 
#    y 0.000000 1.737070 0.000000 
#    z 0.010000 0.000000 1.739990 
# 
# From -- ./inp_files/61741.got.cif
#   From: 2010.05.17/outbox.cif.g08.bks.cpg/sg11_31_cif.got.tgz:61741.got - 2010.06.03 12:22:45.
