data_PCOD9161196
_publ_section_title
;
Structure prediction by ZEFSAII (Michael W. Deem and Ramdas Pophale) SiO2 
 PCOD9161196
Probable space group: P 21/M
;
_chemical_formula_sum "Si O2"
_cell_formula_units_Z 32
_cell_length_a 18.360636
_cell_length_b 8.568457
_cell_length_c 24.641310
_cell_angle_alpha 90.000000
_cell_angle_beta 149.449311
_cell_angle_gamma 90.000000
_cell_volume 1970.491744
_symmetry_space_group_name_H-M "P 21/M"
_symmetry_group_IT_number 11
_symmetry_cell_setting 'monoclinic'
loop_
_space_group_symop_operation_xyz
x,y,z
-x,1/2+y,-z
-x,-y,-z
x,1/2-y,z
loop_
_atom_site_type_symbol
_atom_site_label
_atom_site_fract_x
_atom_site_fract_y
_atom_site_fract_z
Si Si1 0.771808 0.938482 0.594767
Si Si2 0.056208 0.935420 0.978491
Si Si3 0.335442 0.938744 0.674730
Si Si4 0.371042 0.062986 0.187987
Si Si5 0.551992 0.061436 0.643524
Si Si6 0.895448 0.561171 0.560441
Si Si7 0.115348 0.938288 0.617454
Si Si8 0.824110 0.436604 0.746469
O O1 0.776239 0.750000 0.600546
O O2 0.606448 0.984305 0.477573
O O3 0.863352 0.989463 0.601041
O O4 0.824718 0.006115 0.685290
O O5 0.051145 0.750000 0.977487
O O6 0.952446 0.995766 0.864725
O O7 0.218864 0.990947 0.075132
O O8 0.000000 0.000000 0.000000
O O9 0.332088 0.750000 0.670098
O O10 0.496864 0.988446 0.765404
O O11 0.266769 0.987820 0.688541
O O12 0.230543 0.000797 0.560025
O O13 0.359788 0.250000 0.178893
O O14 0.410945 0.011745 0.274664
O O15 0.554250 0.250000 0.650806
O O16 0.674296 0.016040 0.679067
O O17 0.888821 0.750000 0.555376
O O18 0.047601 0.512147 0.631517
O O19 0.114501 0.750000 0.616706
O O20 0.000000 0.000000 0.500000
O O21 0.831770 0.250000 0.752990
#
# Coordination Sequence:
#
# PCOD9161196 Si02
#       8
#     4   4   4   4   4   4   4   4
#     4  10  20  33  49  73 103 136 172 207 245 293
#     4  12  24  39  57  75  97 127 165 210 254 297
#     4   9  17  28  44  70 102 131 164 204 245 292
#     4  11  21  32  51  76 101 134 169 205 251 296
#     4  10  20  34  51  71 100 134 169 206 245 292
#     4   9  16  27  46  69  98 136 169 199 242 293
#     4   8  14  25  41  65  97 131 164 198 239 290
#     4  11  23  37  53  73  97 132 172 209 251 296
#
# _framework density 16.239602000000001
#
# number of rings (size 3 to 8) (size 9 to 14) (size 15 to 20)
#    0.000    2.000    2.500    2.250    0.000    2.000 
#    0.000    0.000    0.000    0.000    0.000    0.875 
#    0.000    0.000    0.000    0.000    0.000    0.000 
#
# Total GULP energy -178444.973624 kJ/mol
# GULP energy per Si atom -5576.405426 kJ/mol
# Density = 1.620264 g / cm^3
# Si number density = 16.239602 Si / 1000 Ang^3
#
#
#
# Elastic Constant Matrix: (Units=GPa)
#
#
# Indices 1 2 3 4 5 6 
#
# 1 181.8077 37.6650 90.1677 0.0000 18.4305 0.0000
# 2 37.6650 24.4823 27.1462 0.0000 -1.0318 0.0000
# 3 90.1677 27.1462 94.1097 0.0000 -4.5642 0.0000
# 4 0.0000 0.0000 0.0000 23.4387 0.0000 -4.4741
# 5 18.4305 -1.0318 -4.5642 0.0000 20.8547 0.0000
# 6 0.0000 0.0000 0.0000 -4.4741 0.0000 13.5993
#
#
#
# Elastic Compliance Matrix: (Units=1/GPa)
#
#
# Indices 1 2 3 4 5 6 
#
# 1 0.016003 -0.010902 -0.013038 0.000000 -0.017536 0.000000
# 2 -0.010902 0.067494 -0.008485 0.000000 0.011117 0.000000
# 3 -0.013038 -0.008485 0.026384 0.000000 0.016877 0.000000
# 4 0.000000 0.000000 0.000000 0.045523 0.000000 0.014977
# 5 -0.017536 0.011117 0.016877 0.000000 0.067692 0.000000
# 6 0.000000 0.000000 0.000000 0.014977 0.000000 0.078461
#
#
# Mechanical properties :
#
#
# Convention : Reuss Voigt Hill
#
# Bulk Modulus (GPa) = 22.20671 67.81750 45.01211
# Shear Modulus (GPa) = 13.10903 21.27326 17.19115
#
# Velocity S-wave (km/s) = 2.84426 3.62327 3.25713
# Velocity P-wave (km/s) = 4.94879 7.70424 6.47479
#
# Compressibility (1/GPa) = 0.04503143
#
# Stress axis : x y z
#
# Youngs Moduli (GPa) = 62.48902 14.81616 37.90168
#
# Poissons Ratio (x) = 0.16152 0.49417
# Poissons Ratio (y) = 0.68123 0.32158
# Poissons Ratio (z) = 0.81475 0.12571
#
# Static dielectric constant tensor:
#      x y z
#    x 1.588490 0.000000 0.030620 
#    y 0.000000 1.547630 0.000000 
#    z 0.030620 0.000000 1.502680 
# 
# From -- ./inp_files/64207.got.cif
#   From: 2010.05.17/outbox.cif.g08.bks.cpg/sg11_33_cif.got.tgz:64207.got - 2010.06.03 12:22:45.
