data_PCOD9161448
_publ_section_title
;
Structure prediction by ZEFSAII (Michael W. Deem and Ramdas Pophale) SiO2 
 PCOD9161448
Probable space group: P 21/M
;
_chemical_formula_sum "Si O2"
_cell_formula_units_Z 28
_cell_length_a 22.465736
_cell_length_b 8.815848
_cell_length_c 15.363374
_cell_angle_alpha 90.000000
_cell_angle_beta 147.056026
_cell_angle_gamma 90.000000
_cell_volume 1654.723663
_symmetry_space_group_name_H-M "P 21/M"
_symmetry_group_IT_number 11
_symmetry_cell_setting 'monoclinic'
loop_
_space_group_symop_operation_xyz
x,y,z
-x,1/2+y,-z
-x,-y,-z
x,1/2-y,z
loop_
_atom_site_type_symbol
_atom_site_label
_atom_site_fract_x
_atom_site_fract_y
_atom_site_fract_z
Si Si1 0.392381 0.432275 0.168433
Si Si2 0.406747 0.569225 0.000044
Si Si3 0.365969 0.931835 0.467846
Si Si4 0.656961 0.931065 0.256598
Si Si5 0.981653 0.069083 0.073429
Si Si6 0.195794 0.931073 0.415142
Si Si7 0.749832 0.568720 0.839221
O O1 0.392777 0.250000 0.156494
O O2 0.513330 0.475086 0.351513
O O3 0.305290 0.469929 0.136272
O O4 0.371354 0.511074 0.050769
O O5 0.395701 0.750000 0.979463
O O6 0.344168 0.490383 0.843523
O O7 0.535887 0.531125 0.145850
O O8 0.364730 0.750000 0.451376
O O9 0.278116 0.965346 0.435818
O O10 0.329874 0.015468 0.336176
O O11 0.669817 0.750000 0.274732
O O12 0.746365 0.009883 0.426837
O O13 0.981595 0.250000 0.067168
O O14 0.081332 0.011250 0.254923
O O15 0.865808 0.010930 0.966731
O O16 0.000000 0.000000 0.000000
O O17 0.181217 0.750000 0.400398
O O18 0.763492 0.750000 0.851329
#
# Coordination Sequence:
#
# PCOD9161448 Si02
#       7
#     4   4   4   4   4   4   4
#     4  10  21  37  55  80 114 151 185 225 275 331
#     4  10  20  33  54  82 112 147 185 227 273 327
#     4  10  20  34  54  80 113 150 184 223 274 326
#     4  10  20  34  54  82 114 147 183 226 277 329
#     4  12  24  39  58  79 108 145 189 234 277 323
#     4  11  21  35  58  84 113 144 183 230 277 328
#     4  11  23  37  56  80 111 149 190 229 273 329
#
# _framework density 16.921254000000001
#
# number of rings (size 3 to 8) (size 9 to 14) (size 15 to 20)
#    0.000    1.429    2.857    3.429    0.000    3.429 
#    0.000    0.000    0.000    0.857    0.000    0.000 
#    0.000    0.000    0.000    0.000    0.000    0.000 
#
# Total GULP energy -156480.875630 kJ/mol
# GULP energy per Si atom -5588.602701 kJ/mol
# Density = 1.688274 g / cm^3
# Si number density = 16.921254 Si / 1000 Ang^3
#
#
#
# Elastic Constant Matrix: (Units=GPa)
#
#
# Indices 1 2 3 4 5 6 
#
# 1 118.8943 55.4993 56.5029 0.0000 -15.4506 0.0000
# 2 55.4993 62.5153 40.2136 0.0000 -9.6508 0.0000
# 3 56.5029 40.2136 80.5545 0.0000 -20.7577 0.0000
# 4 0.0000 0.0000 0.0000 32.9616 0.0000 -5.0378
# 5 -15.4506 -9.6508 -20.7577 0.0000 28.2567 0.0000
# 6 0.0000 0.0000 0.0000 -5.0378 0.0000 26.1525
#
#
#
# Elastic Compliance Matrix: (Units=1/GPa)
#
#
# Indices 1 2 3 4 5 6 
#
# 1 0.016226 -0.010450 -0.005918 0.000000 0.000956 0.000000
# 2 -0.010450 0.030305 -0.008146 0.000000 -0.001348 0.000000
# 3 -0.005918 -0.008146 0.023536 0.000000 0.011272 0.000000
# 4 0.000000 0.000000 0.000000 0.031259 0.000000 0.006021
# 5 0.000956 -0.001348 0.011272 0.000000 0.043732 0.000000
# 6 0.000000 0.000000 0.000000 0.006021 0.000000 0.039397
#
#
# Mechanical properties :
#
#
# Convention : Reuss Voigt Hill
#
# Bulk Modulus (GPa) = 47.53143 62.93285 55.23214
# Shear Modulus (GPa) = 20.79029 24.79069 22.79049
#
# Velocity S-wave (km/s) = 3.50901 3.83177 3.67393
# Velocity P-wave (km/s) = 6.67595 7.53982 7.12100
#
# Compressibility (1/GPa) = 0.02103871
#
# Stress axis : x y z
#
# Youngs Moduli (GPa) = 61.63106 32.99732 42.48799
#
# Poissons Ratio (x) = 0.34483 0.25144
# Poissons Ratio (y) = 0.64407 0.34611
# Poissons Ratio (z) = 0.36473 0.26880
#
# Static dielectric constant tensor:
#      x y z
#    x 1.551330 0.000000 0.003450 
#    y 0.000000 1.561680 0.000000 
#    z 0.003450 0.000000 1.550000 
# 
# From -- ./inp_files/37405.got.cif
#   From: 2010.05.17/outbox.cif.g08.bks.cpg/sg11_19_cif.got.tgz:37405.got - 2010.06.03 12:22:45.
