data_PCOD9161986
_publ_section_title
;
Structure prediction by ZEFSAII (Michael W. Deem and Ramdas Pophale) SiO2 
 PCOD9161986
Probable space group: P 21/M
;
_chemical_formula_sum "Si O2"
_cell_formula_units_Z 28
_cell_length_a 11.989293
_cell_length_b 8.749498
_cell_length_c 14.266966
_cell_angle_alpha 90.000000
_cell_angle_beta 109.616069
_cell_angle_gamma 90.000000
_cell_volume 1409.750754
_symmetry_space_group_name_H-M "P 21/M"
_symmetry_group_IT_number 11
_symmetry_cell_setting 'monoclinic'
loop_
_space_group_symop_operation_xyz
x,y,z
-x,1/2+y,-z
-x,-y,-z
x,1/2-y,z
loop_
_atom_site_type_symbol
_atom_site_label
_atom_site_fract_x
_atom_site_fract_y
_atom_site_fract_z
Si Si1 0.246181 0.930008 0.723208
Si Si2 0.197898 0.929992 0.315424
Si Si3 0.128267 0.935422 0.505422
Si Si4 0.533705 0.931135 0.111671
Si Si5 0.128200 0.928626 0.018992
Si Si6 0.962559 0.423570 0.202101
Si Si7 0.661329 0.570296 0.807334
O O1 0.278074 0.750000 0.736608
O O2 0.228291 0.977511 0.610450
O O3 0.113880 0.945452 0.727135
O O4 0.337998 0.020455 0.812959
O O5 0.220837 0.750000 0.323457
O O6 0.171328 0.984026 0.414021
O O7 0.300974 0.009992 0.284730
O O8 0.072865 0.963940 0.228138
O O9 0.118353 0.750000 0.502486
O O10 0.000000 0.000000 0.500000
O O11 0.524908 0.750000 0.100355
O O12 0.445300 0.989043 0.168325
O O13 0.500000 0.000000 0.000000
O O14 0.137360 0.750000 0.049680
O O15 0.132643 0.935229 0.907884
O O16 0.225959 0.028936 0.096313
O O17 0.000000 0.000000 0.000000
O O18 0.011125 0.250000 0.211731
O O19 0.640031 0.750000 0.798141
#
# Coordination Sequence:
#
# PCOD9161986 Si02
#       7
#     4   4   4   4   4   4   4
#     4  10  21  40  64  92 127 167 213 263 316 373
#     4  11  22  36  58  91 128 164 207 258 314 374
#     4  10  21  37  62  95 131 169 211 262 317 375
#     4  12  26  46  70  96 126 164 213 263 316 381
#     4  11  21  33  53  86 123 158 200 251 311 377
#     4  10  20  34  56  85 122 163 202 249 312 375
#     4  12  25  42  63  88 123 168 214 262 321 377
#
# _framework density 19.861668000000002
#
# number of rings (size 3 to 8) (size 9 to 14) (size 15 to 20)
#    0.000    1.143    2.857    4.286    0.000    3.429 
#    0.000    0.714    0.000    0.000    0.000    0.000 
#    0.000    0.000    0.000    0.000    0.000    0.000 
#
# Total GULP energy -156337.410207 kJ/mol
# GULP energy per Si atom -5583.478936 kJ/mol
# Density = 1.981646 g / cm^3
# Si number density = 19.861668 Si / 1000 Ang^3
#
#
#
# Elastic Constant Matrix: (Units=GPa)
#
#
# Indices 1 2 3 4 5 6 
#
# 1 72.6857 43.6646 32.9102 0.0000 -15.6453 0.0000
# 2 43.6646 104.1831 43.1226 0.0000 -10.0518 0.0000
# 3 32.9102 43.1226 112.4671 0.0000 -21.6608 0.0000
# 4 0.0000 0.0000 0.0000 24.1273 0.0000 -1.3599
# 5 -15.6453 -10.0518 -21.6608 0.0000 32.0136 0.0000
# 6 0.0000 0.0000 0.0000 -1.3599 0.0000 33.3121
#
#
#
# Elastic Compliance Matrix: (Units=1/GPa)
#
#
# Indices 1 2 3 4 5 6 
#
# 1 0.020266 -0.007052 -0.002007 0.000000 0.006332 0.000000
# 2 -0.007052 0.013877 -0.003544 0.000000 -0.001487 0.000000
# 3 -0.002007 -0.003544 0.011998 0.000000 0.006024 0.000000
# 4 0.000000 0.000000 0.000000 0.041542 0.000000 0.001696
# 5 0.006332 -0.001487 0.006024 0.000000 0.037941 0.000000
# 6 0.000000 0.000000 0.000000 0.001696 0.000000 0.030088
#
#
# Mechanical properties :
#
#
# Convention : Reuss Voigt Hill
#
# Bulk Modulus (GPa) = 47.76484 58.74783 53.25634
# Shear Modulus (GPa) = 26.61042 29.19982 27.90512
#
# Velocity S-wave (km/s) = 3.66428 3.83843 3.75236
# Velocity P-wave (km/s) = 6.48102 7.02050 6.75614
#
# Compressibility (1/GPa) = 0.02093590
#
# Stress axis : x y z
#
# Youngs Moduli (GPa) = 49.34406 72.05922 83.34916
#
# Poissons Ratio (x) = 0.50817 0.16726
# Poissons Ratio (y) = 0.34798 0.29536
# Poissons Ratio (z) = 0.09902 0.25536
#
# Static dielectric constant tensor:
#      x y z
#    x 1.757500 0.000000 0.031780 
#    y 0.000000 1.683520 0.000000 
#    z 0.031780 0.000000 1.926540 
# 
# From -- ./inp_files/49026.got.cif
#   From: 2010.05.17/outbox.cif.g08.bks.cpg/sg11_25_cif.got.tgz:49026.got - 2010.06.03 12:22:45.
