data_PCOD9161512
_publ_section_title
;
Structure prediction by ZEFSAII (Michael W. Deem and Ramdas Pophale) SiO2 
 PCOD9161512
Probable space group: P 21/M
;
_chemical_formula_sum "Si O2"
_cell_formula_units_Z 32
_cell_length_a 19.275173
_cell_length_b 7.587992
_cell_length_c 27.847300
_cell_angle_alpha 90.000000
_cell_angle_beta 22.383926
_cell_angle_gamma 90.000000
_cell_volume 1551.021116
_symmetry_space_group_name_H-M "P 21/M"
_symmetry_group_IT_number 11
_symmetry_cell_setting 'monoclinic'
loop_
_space_group_symop_operation_xyz
x,y,z
-x,1/2+y,-z
-x,-y,-z
x,1/2-y,z
loop_
_atom_site_type_symbol
_atom_site_label
_atom_site_fract_x
_atom_site_fract_y
_atom_site_fract_z
Si Si1 0.864165 0.543008 0.884846
Si Si2 0.925542 0.539030 0.387611
Si Si3 0.341299 0.050027 0.894798
Si Si4 0.703583 0.458937 0.885185
Si Si5 0.576800 0.459154 0.659948
Si Si6 0.238741 0.547271 0.610353
Si Si7 0.415227 0.034007 0.660799
Si Si8 0.990000 0.960417 0.062875
O O1 0.888201 0.750000 0.881325
O O2 0.765326 0.533684 0.896874
O O3 0.070480 0.467319 0.748297
O O4 0.730395 0.464295 0.010333
O O5 0.913642 0.750000 0.389737
O O6 0.791306 0.486921 0.516080
O O7 0.842807 0.455899 0.391863
O O8 0.136912 0.486374 0.254068
O O9 0.403009 0.250000 0.866864
O O10 0.490407 0.967019 0.763916
O O11 0.158609 0.052802 0.979926
O O12 0.716678 0.250000 0.881757
O O13 0.500000 0.500000 0.000000
O O14 0.539076 0.250000 0.684696
O O15 0.483241 0.525405 0.670365
O O16 0.260978 0.750000 0.611452
O O17 0.440974 0.471527 0.471746
O O18 0.422758 0.250000 0.655664
O O19 0.205251 0.982927 0.790907
O O20 0.007042 0.750000 0.058682
O O21 0.000000 0.000000 0.000000
#
# Coordination Sequence:
#
# PCOD9161512 Si02
#       8
#     4   4   4   4   4   4   4   4
#     4   9  18  33  54  75  99 131 167 202 242 298
#     4   9  17  28  45  74 102 122 154 203 243 277
#     4  10  20  34  49  70 100 134 170 207 249 299
#     4  10  20  34  55  81 108 130 156 197 241 289
#     4   9  16  29  47  66  94 131 166 202 245 294
#     4   8  14  28  48  67  89 125 164 199 245 297
#     4   8  14  26  44  64  89 122 162 207 250 291
#     4  11  20  31  46  67  96 131 171 217 260 298
#
# _framework density 20.631568999999999
#
# number of rings (size 3 to 8) (size 9 to 14) (size 15 to 20)
#    0.000    2.750    1.250    1.875    0.000    2.500 
#    0.000    1.250    0.000    0.750    0.000    0.000 
#    0.000    0.000    0.000    0.000    0.000    0.000 
#
# Total GULP energy -178318.632219 kJ/mol
# GULP energy per Si atom -5572.457257 kJ/mol
# Density = 2.058461 g / cm^3
# Si number density = 20.631569 Si / 1000 Ang^3
#
#
#
# Elastic Constant Matrix: (Units=GPa)
#
#
# Indices 1 2 3 4 5 6 
#
# 1 30.9362 -6.6075 38.7444 0.0000 16.0349 0.0000
# 2 -6.6075 55.2157 -2.9524 0.0000 4.7407 0.0000
# 3 38.7444 -2.9524 182.6657 0.0000 22.1775 0.0000
# 4 0.0000 0.0000 0.0000 13.3636 0.0000 -5.5513
# 5 16.0349 4.7407 22.1775 0.0000 31.9853 0.0000
# 6 0.0000 0.0000 0.0000 -5.5513 0.0000 3.0045
#
#
#
# Elastic Compliance Matrix: (Units=1/GPa)
#
#
# Indices 1 2 3 4 5 6 
#
# 1 0.058242 0.008534 -0.009300 0.000000 -0.024014 0.000000
# 2 0.008534 0.019673 -0.000676 0.000000 -0.006726 0.000000
# 3 -0.009300 -0.000676 0.007488 0.000000 -0.000430 0.000000
# 4 0.000000 0.000000 0.000000 0.321899 0.000000 0.594764
# 5 -0.024014 -0.006726 -0.000430 0.000000 0.044598 0.000000
# 6 0.000000 0.000000 0.000000 0.594764 0.000000 1.431764
#
#
# Mechanical properties :
#
#
# Convention : Reuss Voigt Hill
#
# Bulk Modulus (GPa) = 12.11816 36.35408 24.23612
# Shear Modulus (GPa) = 2.61226 25.64622 14.12924
#
# Velocity S-wave (km/s) = 1.12645 3.52953 2.61978
# Velocity P-wave (km/s) = 2.75286 5.85397 4.57423
#
# Compressibility (1/GPa) = 0.08252076
#
# Stress axis : x y z
#
# Youngs Moduli (GPa) = 17.16987 50.83009 133.54184
#
# Poissons Ratio (x) = -0.43379 1.24192
# Poissons Ratio (y) = -0.14653 0.09022
# Poissons Ratio (z) = 0.15968 0.03434
#
# Static dielectric constant tensor:
#      x y z
#    x 1.701380 0.000000 0.066480 
#    y 0.000000 1.751070 0.000000 
#    z 0.066480 0.000000 1.817180 
# 
# From -- ./inp_files/58724.got.cif
#   From: 2010.05.17/outbox.cif.g08.bks.cpg/sg11_30_cif.got.tgz:58724.got - 2010.06.03 12:22:45.
