data_PCOD9161484
_publ_section_title
;
Structure prediction by ZEFSAII (Michael W. Deem and Ramdas Pophale) SiO2 
 PCOD9161484
Probable space group: P 21/M
;
_chemical_formula_sum "Si O2"
_cell_formula_units_Z 28
_cell_length_a 8.994561
_cell_length_b 15.203786
_cell_length_c 21.296295
_cell_angle_alpha 90.000000
_cell_angle_beta 31.946444
_cell_angle_gamma 90.000000
_cell_volume 1540.973440
_symmetry_space_group_name_H-M "P 21/M"
_symmetry_group_IT_number 11
_symmetry_cell_setting 'monoclinic'
loop_
_space_group_symop_operation_xyz
x,y,z
-x,1/2+y,-z
-x,-y,-z
x,1/2-y,z
loop_
_atom_site_type_symbol
_atom_site_label
_atom_site_fract_x
_atom_site_fract_y
_atom_site_fract_z
Si Si1 0.762106 0.350837 0.718792
Si Si2 0.148662 0.648767 0.672492
Si Si3 0.701288 0.010351 0.290744
Si Si4 0.287016 0.009480 0.859654
Si Si5 0.116559 0.403762 0.473016
Si Si6 0.696522 0.654064 0.724411
Si Si7 0.698242 0.854553 0.389788
O O1 0.680542 0.250000 0.758548
O O2 0.491544 0.412953 0.810718
O O3 0.927636 0.359720 0.593410
O O4 0.001937 0.374369 0.684263
O O5 0.156432 0.750000 0.693449
O O6 0.092725 0.575335 0.745138
O O7 0.443725 0.631929 0.530387
O O8 0.911319 0.642668 0.704331
O O9 0.427862 0.073590 0.385036
O O10 0.768841 0.983778 0.195217
O O11 0.655186 0.922624 0.348384
O O12 0.469351 0.921774 0.803858
O O13 0.000000 0.000000 0.000000
O O14 0.134385 0.352248 0.401623
O O15 0.000000 0.500000 0.500000
O O16 0.563377 0.750000 0.776807
O O17 0.693858 0.750000 0.374500
#
# Coordination Sequence:
#
# PCOD9161484 Si02
#       7
#     4   4   4   4   4   4   4
#     4  11  22  38  60  85 121 155 190 239 293 351
#     4  10  20  33  56  92 124 149 176 223 297 368
#     4  11  21  34  61  83 119 154 185 240 288 348
#     4  11  26  44  59  80 110 157 215 252 283 324
#     4  11  19  33  55  92 120 154 183 227 295 355
#     4  10  21  37  60  86 120 154 189 238 290 351
#     4  10  21  34  55  92 128 152 178 224 293 368
#
# _framework density 18.170334
#
# number of rings (size 3 to 8) (size 9 to 14) (size 15 to 20)
#    0.000    1.429    4.286    2.571    0.000    3.429 
#    0.000    2.857    0.000    3.429    0.000    0.000 
#    0.000    0.000    0.000    0.000    0.000    0.000 
#
# Total GULP energy -156244.993101 kJ/mol
# GULP energy per Si atom -5580.178325 kJ/mol
# Density = 1.812898 g / cm^3
# Si number density = 18.170334 Si / 1000 Ang^3
#
#
#
# Elastic Constant Matrix: (Units=GPa)
#
#
# Indices 1 2 3 4 5 6 
#
# 1 66.8899 38.9372 12.2397 0.0000 4.6391 0.0000
# 2 38.9372 86.7057 16.5957 0.0000 1.6150 0.0000
# 3 12.2397 16.5957 70.7124 0.0000 -3.2984 0.0000
# 4 0.0000 0.0000 0.0000 -1.0308 0.0000 -7.1567
# 5 4.6391 1.6150 -3.2984 0.0000 12.9248 0.0000
# 6 0.0000 0.0000 0.0000 -7.1567 0.0000 8.9460
#
#
#
# Elastic Compliance Matrix: (Units=1/GPa)
#
#
# Indices 1 2 3 4 5 6 
#
# 1 0.020966 -0.008932 -0.001854 0.000000 -0.006882 0.000000
# 2 -0.008932 0.015947 -0.002166 0.000000 0.000661 0.000000
# 3 -0.001854 -0.002166 0.015195 0.000000 0.004814 0.000000
# 4 0.000000 0.000000 0.000000 -0.148016 0.000000 -0.118411
# 5 -0.006882 0.000661 0.004814 0.000000 0.080987 0.000000
# 6 0.000000 0.000000 0.000000 -0.118411 0.000000 0.017055
#
#
# Mechanical properties :
#
#
# Convention : Reuss Voigt Hill
#
# Bulk Modulus (GPa) = 38.16083 39.98369 39.07226
# Shear Modulus (GPa) = 135.97482 14.60368 75.28925
#
# Velocity S-wave (km/s) = 8.66002 2.83805 6.44401
# Velocity P-wave (km/s) = 11.00190 5.72644 8.77023
#
# Compressibility (1/GPa) = 0.02620488
#
# Stress axis : x y z
#
# Youngs Moduli (GPa) = 47.69632 62.70884 65.80908
#
# Poissons Ratio (x) = 0.56013 0.12199
# Poissons Ratio (y) = 0.42604 0.14252
# Poissons Ratio (z) = 0.08842 0.13581
#
# Static dielectric constant tensor:
#      x y z
#    x 1.808190 0.000000 -0.104250 
#    y 0.000000 1.638360 0.000000 
#    z -0.104250 0.000000 1.697220 
# 
# From -- ./inp_files/22081.got.cif
#   From: 2010.05.17/outbox.cif.g08.bks.cpg/sg11_12_cif.got.tgz:22081.got - 2010.06.03 12:22:45.
