data_PCOD9161896
_publ_section_title
;
Structure prediction by ZEFSAII (Michael W. Deem and Ramdas Pophale) SiO2 
 PCOD9161896
Probable space group: P 21/M
;
_chemical_formula_sum "Si O2"
_cell_formula_units_Z 28
_cell_length_a 19.521618
_cell_length_b 10.700882
_cell_length_c 21.711899
_cell_angle_alpha 90.000000
_cell_angle_beta 160.295507
_cell_angle_gamma 90.000000
_cell_volume 1529.258641
_symmetry_space_group_name_H-M "P 21/M"
_symmetry_group_IT_number 11
_symmetry_cell_setting 'monoclinic'
loop_
_space_group_symop_operation_xyz
x,y,z
-x,1/2+y,-z
-x,-y,-z
x,1/2-y,z
loop_
_atom_site_type_symbol
_atom_site_label
_atom_site_fract_x
_atom_site_fract_y
_atom_site_fract_z
Si Si1 0.756438 0.990399 0.794956
Si Si2 0.983067 0.900520 0.302183
Si Si3 0.556754 0.901431 0.889522
Si Si4 0.889419 0.401374 0.450671
Si Si5 0.620024 0.618571 0.557030
Si Si6 0.304286 0.394384 0.121537
Si Si7 0.843116 0.105786 0.678132
O O1 0.686237 0.890319 0.684306
O O2 0.690893 0.961750 0.809163
O O3 0.622275 0.107175 0.657872
O O4 0.000000 0.000000 0.000000
O O5 0.974991 0.750000 0.292534
O O6 0.043249 0.930136 0.422232
O O7 0.134509 0.932259 0.374598
O O8 0.758813 0.947592 0.094582
O O9 0.570321 0.750000 0.896276
O O10 0.564340 0.944887 0.824705
O O11 0.351934 0.926574 0.752675
O O12 0.922531 0.250000 0.467173
O O13 0.000000 0.500000 0.500000
O O14 0.694017 0.750000 0.593726
O O15 0.715573 0.497972 0.605335
O O16 0.361354 0.250000 0.180650
O O17 0.071750 0.395763 0.899666
O O18 0.770785 0.250000 0.621985
#
# Coordination Sequence:
#
# PCOD9161896 Si02
#       7
#     4   4   4   4   4   4   4
#     4  11  23  40  56  78 111 159 195 234 282 346
#     4   8  16  32  55  82 110 140 181 230 268 314
#     4   8  16  31  53  82 108 134 181 233 273 312
#     4  10  20  34  55  83 112 143 176 219 272 327
#     4  11  25  39  55  85 119 150 188 238 294 345
#     4   9  17  33  59  84 105 141 194 244 277 320
#     4   9  18  36  61  86 110 142 190 237 280 335
#
# _framework density 18.309525000000001
#
# number of rings (size 3 to 8) (size 9 to 14) (size 15 to 20)
#    0.000    2.571    1.429    2.143    2.000    4.571 
#    0.000    0.714    0.000    3.429    0.000    0.000 
#    0.000    0.000    0.000    0.000    0.000    0.000 
#
# Total GULP energy -155951.418294 kJ/mol
# GULP energy per Si atom -5569.693510 kJ/mol
# Density = 1.826785 g / cm^3
# Si number density = 18.309525 Si / 1000 Ang^3
#
#
#
# Elastic Constant Matrix: (Units=GPa)
#
#
# Indices 1 2 3 4 5 6 
#
# 1 88.6304 41.4513 11.0160 0.0000 4.9286 0.0000
# 2 41.4513 79.4838 20.5724 0.0000 11.2549 0.0000
# 3 11.0160 20.5724 58.6280 0.0000 1.0028 0.0000
# 4 0.0000 0.0000 0.0000 9.1245 0.0000 9.3886
# 5 4.9286 11.2549 1.0028 0.0000 29.9691 0.0000
# 6 0.0000 0.0000 0.0000 9.3886 0.0000 24.2641
#
#
#
# Elastic Compliance Matrix: (Units=1/GPa)
#
#
# Indices 1 2 3 4 5 6 
#
# 1 0.014930 -0.007839 -0.000063 0.000000 0.000491 0.000000
# 2 -0.007839 0.018758 -0.005014 0.000000 -0.005588 0.000000
# 3 -0.000063 -0.005014 0.018806 0.000000 0.001264 0.000000
# 4 0.000000 0.000000 0.000000 0.182093 0.000000 -0.070458
# 5 0.000491 -0.005588 0.001264 0.000000 0.035343 0.000000
# 6 0.000000 0.000000 0.000000 -0.070458 0.000000 0.068476
#
#
# Mechanical properties :
#
#
# Convention : Reuss Voigt Hill
#
# Bulk Modulus (GPa) = 37.50570 41.42461 39.46515
# Shear Modulus (GPa) = 13.40036 22.91838 18.15937
#
# Velocity S-wave (km/s) = 2.70826 3.54180 3.15270
# Velocity P-wave (km/s) = 5.50530 6.27691 5.90372
#
# Compressibility (1/GPa) = 0.02666262
#
# Stress axis : x y z
#
# Youngs Moduli (GPa) = 66.98115 53.30998 53.17403
#
# Poissons Ratio (x) = 0.41790 0.00334
# Poissons Ratio (y) = 0.52507 0.26660
# Poissons Ratio (z) = 0.00421 0.26728
#
# Static dielectric constant tensor:
#      x y z
#    x 1.652370 0.000000 0.002740 
#    y 0.000000 1.566420 0.000000 
#    z 0.002740 0.000000 1.694540 
# 
# From -- ./inp_files/61515.got.cif
#   From: 2010.05.17/outbox.cif.g08.bks.cpg/sg11_31_cif.got.tgz:61515.got - 2010.06.03 12:22:45.
