data_PCOD9161531
_publ_section_title
;
Structure prediction by ZEFSAII (Michael W. Deem and Ramdas Pophale) SiO2 
 PCOD9161531
Probable space group: P 21/M
;
_chemical_formula_sum "Si O2"
_cell_formula_units_Z 28
_cell_length_a 13.930226
_cell_length_b 8.239593
_cell_length_c 16.065014
_cell_angle_alpha 90.000000
_cell_angle_beta 129.196020
_cell_angle_gamma 90.000000
_cell_volume 1429.026318
_symmetry_space_group_name_H-M "P 21/M"
_symmetry_group_IT_number 11
_symmetry_cell_setting 'monoclinic'
loop_
_space_group_symop_operation_xyz
x,y,z
-x,1/2+y,-z
-x,-y,-z
x,1/2-y,z
loop_
_atom_site_type_symbol
_atom_site_label
_atom_site_fract_x
_atom_site_fract_y
_atom_site_fract_z
Si Si1 0.467457 0.559183 0.664314
Si Si2 0.769144 0.939055 0.544995
Si Si3 0.318679 0.562984 0.329292
Si Si4 0.515008 0.553667 0.876999
Si Si5 0.697950 0.054381 0.113609
Si Si6 0.974780 0.052233 0.247717
Si Si7 0.075492 0.444505 0.121575
O O1 0.494969 0.750000 0.674307
O O2 0.323226 0.530538 0.566809
O O3 0.549925 0.472790 0.639826
O O4 0.504010 0.499085 0.776049
O O5 0.771627 0.750000 0.523522
O O6 0.909658 0.001826 0.632335
O O7 0.711758 0.957012 0.606360
O O8 0.310753 0.750000 0.350581
O O9 0.211439 0.522383 0.203754
O O10 0.514559 0.750000 0.876899
O O11 0.396450 0.497445 0.866374
O O12 0.635992 0.495407 0.992369
O O13 0.700653 0.250000 0.118536
O O14 0.838582 0.995116 0.198039
O O15 0.975899 0.250000 0.251157
O O16 0.005461 0.008180 0.168899
O O17 0.088589 0.250000 0.127860
O O18 0.000000 0.500000 0.000000
#
# Coordination Sequence:
#
# PCOD9161531 Si02
#       7
#     4   4   4   4   4   4   4
#     4  11  22  36  53  77 110 143 179 222 269 319
#     4  10  20  37  56  78 107 140 180 222 266 321
#     4  11  22  36  54  77 105 144 184 220 269 319
#     4   9  20  35  53  80 109 137 172 220 270 314
#     4   9  17  35  59  79 104 138 175 216 266 323
#     4   8  17  33  55  77 101 137 176 215 263 315
#     4  10  20  34  50  77 112 144 179 221 263 316
#
# _framework density 19.593761000000001
#
# number of rings (size 3 to 8) (size 9 to 14) (size 15 to 20)
#    0.000    2.286    0.000    3.857    2.000    1.143 
#    0.000    4.286    0.000    0.000    0.000    0.000 
#    0.000    0.000    0.000    0.000    0.000    0.000 
#
# Total GULP energy -156309.392027 kJ/mol
# GULP energy per Si atom -5582.478287 kJ/mol
# Density = 1.954916 g / cm^3
# Si number density = 19.593761 Si / 1000 Ang^3
#
#
#
# Elastic Constant Matrix: (Units=GPa)
#
#
# Indices 1 2 3 4 5 6 
#
# 1 67.4846 -0.6217 21.8111 0.0000 30.5570 0.0000
# 2 -0.6217 22.3521 -11.4332 0.0000 1.4865 0.0000
# 3 21.8111 -11.4332 57.4429 0.0000 16.3157 0.0000
# 4 0.0000 0.0000 0.0000 27.7379 0.0000 5.3983
# 5 30.5570 1.4865 16.3157 0.0000 28.9021 0.0000
# 6 0.0000 0.0000 0.0000 5.3983 0.0000 15.7879
#
#
#
# Elastic Compliance Matrix: (Units=1/GPa)
#
#
# Indices 1 2 3 4 5 6 
#
# 1 0.028826 0.001554 -0.002331 0.000000 -0.029241 0.000000
# 2 0.001554 0.052295 0.013159 0.000000 -0.011761 0.000000
# 3 -0.002331 0.013159 0.024302 0.000000 -0.011931 0.000000
# 4 0.000000 0.000000 0.000000 0.038622 0.000000 -0.013206
# 5 -0.029241 -0.011761 -0.011931 0.000000 0.072855 0.000000
# 6 0.000000 0.000000 0.000000 -0.013206 0.000000 0.067855
#
#
# Mechanical properties :
#
#
# Convention : Reuss Voigt Hill
#
# Bulk Modulus (GPa) = 7.68120 18.53244 13.10682
# Shear Modulus (GPa) = 16.48074 23.65382 20.06728
#
# Velocity S-wave (km/s) = 2.90336 3.47826 3.20373
# Velocity P-wave (km/s) = 3.89462 5.06063 4.51542
#
# Compressibility (1/GPa) = 0.13018795
#
# Stress axis : x y z
#
# Youngs Moduli (GPa) = 34.69098 19.12232 41.14965
#
# Poissons Ratio (x) = -0.02972 0.09590
# Poissons Ratio (y) = -0.05392 -0.54149
# Poissons Ratio (z) = 0.08085 -0.25163
#
# Static dielectric constant tensor:
#      x y z
#    x 1.690260 0.000000 0.018960 
#    y 0.000000 1.672220 0.000000 
#    z 0.018960 0.000000 1.685410 
# 
# From -- ./inp_files/49035.got.cif
#   From: 2010.05.17/outbox.cif.g08.bks.cpg/sg11_25_cif.got.tgz:49035.got - 2010.06.03 12:22:45.
