data_PCOD9161012
_publ_section_title
;
Structure prediction by ZEFSAII (Michael W. Deem and Ramdas Pophale) SiO2 
 PCOD9161012
Probable space group: P 21/M
;
_chemical_formula_sum "Si O2"
_cell_formula_units_Z 32
_cell_length_a 17.140930
_cell_length_b 7.564619
_cell_length_c 15.240190
_cell_angle_alpha 90.000000
_cell_angle_beta 50.957098
_cell_angle_gamma 90.000000
_cell_volume 1534.796782
_symmetry_space_group_name_H-M "P 21/M"
_symmetry_group_IT_number 11
_symmetry_cell_setting 'monoclinic'
loop_
_space_group_symop_operation_xyz
x,y,z
-x,1/2+y,-z
-x,-y,-z
x,1/2-y,z
loop_
_atom_site_type_symbol
_atom_site_label
_atom_site_fract_x
_atom_site_fract_y
_atom_site_fract_z
Si Si1 0.354286 0.548270 0.029774
Si Si2 0.424505 0.961518 0.634032
Si Si3 0.569393 0.534074 0.831866
Si Si4 0.070009 0.543494 0.667600
Si Si5 0.145473 0.457358 0.234289
Si Si6 0.750535 0.457181 0.353828
Si Si7 0.603423 0.964671 0.617683
Si Si8 0.115784 0.459589 0.443281
O O1 0.344741 0.750000 0.008653
O O2 0.385791 0.536479 0.109864
O O3 0.243106 0.470606 0.104975
O O4 0.452524 0.475417 0.911598
O O5 0.413863 0.750000 0.649802
O O6 0.316658 0.032741 0.678355
O O7 0.490120 0.021172 0.670419
O O8 0.500000 0.000000 0.500000
O O9 0.571737 0.750000 0.836570
O O10 0.623600 0.483404 0.703451
O O11 0.057039 0.750000 0.698586
O O12 0.143465 0.464940 0.689316
O O13 0.126099 0.534797 0.533367
O O14 0.958273 0.466676 0.731235
O O15 0.124949 0.250000 0.263558
O O16 0.168598 0.526650 0.316718
O O17 0.766499 0.250000 0.323196
O O18 0.679213 0.467636 0.490456
O O19 0.607594 0.750000 0.610821
O O20 0.134623 0.250000 0.439582
O O21 0.000000 0.500000 0.500000
#
# Coordination Sequence:
#
# PCOD9161012 Si02
#       8
#     4   4   4   4   4   4   4   4
#     4  10  20  32  47  64  83 110 145 185 222 253
#     4   8  14  26  43  63  87 114 140 170 208 252
#     4   9  19  34  47  63  87 111 141 181 220 260
#     4   9  18  30  42  61  88 116 144 175 210 251
#     4   9  18  31  44  58  82 115 144 175 216 253
#     4   9  17  28  43  66  94 116 141 176 208 246
#     4   9  17  29  46  65  87 116 145 171 212 264
#     4   9  17  28  41  57  80 110 143 177 209 244
#
# _framework density 20.849665999999999
#
# number of rings (size 3 to 8) (size 9 to 14) (size 15 to 20)
#    0.000    3.000    0.000    1.500    1.750    4.000 
#    0.000    0.000    0.000    0.000    0.000    0.875 
#    0.000    0.000    0.000    0.000    0.000    0.000 
#
# Total GULP energy -178162.985518 kJ/mol
# GULP energy per Si atom -5567.593297 kJ/mol
# Density = 2.080221 g / cm^3
# Si number density = 20.849666 Si / 1000 Ang^3
#
#
#
# Elastic Constant Matrix: (Units=GPa)
#
#
# Indices 1 2 3 4 5 6 
#
# 1 99.4525 -0.8984 -7.7634 0.0000 -19.7973 0.0000
# 2 -0.8984 46.2720 -4.8428 0.0000 -2.0100 0.0000
# 3 -7.7634 -4.8428 32.5347 0.0000 -17.5156 0.0000
# 4 0.0000 0.0000 0.0000 11.9863 0.0000 -3.8109
# 5 -19.7973 -2.0100 -17.5156 0.0000 30.0978 0.0000
# 6 0.0000 0.0000 0.0000 -3.8109 0.0000 9.1729
#
#
#
# Elastic Compliance Matrix: (Units=1/GPa)
#
#
# Indices 1 2 3 4 5 6 
#
# 1 0.014588 0.002428 0.013245 0.000000 0.017466 0.000000
# 2 0.002428 0.022866 0.008250 0.000000 0.007925 0.000000
# 3 0.013245 0.008250 0.058413 0.000000 0.043257 0.000000
# 4 0.000000 0.000000 0.000000 0.096126 0.000000 0.039936
# 5 0.017466 0.007925 0.043257 0.000000 0.070416 0.000000
# 6 0.000000 0.000000 0.000000 0.039936 0.000000 0.125609
#
#
# Mechanical properties :
#
#
# Convention : Reuss Voigt Hill
#
# Bulk Modulus (GPa) = 6.95831 16.80556 11.88193
# Shear Modulus (GPa) = 12.88405 23.03563 17.95984
#
# Velocity S-wave (km/s) = 2.48856 3.32753 2.93814
# Velocity P-wave (km/s) = 3.40615 4.77923 4.14987
#
# Compressibility (1/GPa) = 0.14371302
#
# Stress axis : x y z
#
# Youngs Moduli (GPa) = 68.55099 43.73278 17.11946
#
# Poissons Ratio (x) = -0.10619 -0.22675
# Poissons Ratio (y) = -0.16645 -0.14123
# Poissons Ratio (z) = -0.90797 -0.36078
#
# Static dielectric constant tensor:
#      x y z
#    x 1.830660 0.000000 -0.034790 
#    y 0.000000 1.799580 0.000000 
#    z -0.034790 0.000000 1.740800 
# 
# From -- ./inp_files/60684.got.cif
#   From: 2010.05.17/outbox.cif.g08.bks.cpg/sg11_31_cif.got.tgz:60684.got - 2010.06.03 12:22:45.
