data_PCOD9161169
_publ_section_title
;
Structure prediction by ZEFSAII (Michael W. Deem and Ramdas Pophale) SiO2 
 PCOD9161169
Probable space group: P 21/M
;
_chemical_formula_sum "Si O2"
_cell_formula_units_Z 32
_cell_length_a 21.995876
_cell_length_b 7.593752
_cell_length_c 17.267241
_cell_angle_alpha 90.000000
_cell_angle_beta 152.452888
_cell_angle_gamma 90.000000
_cell_volume 1333.863912
_symmetry_space_group_name_H-M "P 21/M"
_symmetry_group_IT_number 11
_symmetry_cell_setting 'monoclinic'
loop_
_space_group_symop_operation_xyz
x,y,z
-x,1/2+y,-z
-x,-y,-z
x,1/2-y,z
loop_
_atom_site_type_symbol
_atom_site_label
_atom_site_fract_x
_atom_site_fract_y
_atom_site_fract_z
Si Si1 0.136731 0.957984 0.195616
Si Si2 0.153282 0.539285 0.668172
Si Si3 0.149257 0.547472 0.495076
Si Si4 0.679948 0.463470 0.999996
Si Si5 0.999781 0.960479 0.187923
Si Si6 0.613151 0.962362 0.345225
Si Si7 0.705662 0.462513 0.850029
Si Si8 0.580742 0.540739 0.486679
O O1 0.145201 0.750000 0.210945
O O2 0.106462 0.033525 0.247364
O O3 0.275772 0.009137 0.314685
O O4 0.000000 0.000000 0.000000
O O5 0.177752 0.750000 0.697854
O O6 0.188802 0.469691 0.622558
O O7 0.225985 0.468358 0.826352
O O8 0.000000 0.500000 0.500000
O O9 0.112221 0.750000 0.469846
O O10 0.272208 0.541859 0.576312
O O11 0.030966 0.468284 0.309308
O O12 0.690317 0.250000 0.007405
O O13 0.529502 0.504939 0.850484
O O14 0.703224 0.521594 0.937805
O O15 0.017988 0.750000 0.212536
O O16 0.852637 0.988469 0.991179
O O17 0.628063 0.750000 0.362439
O O18 0.605037 0.022006 0.425528
O O19 0.702872 0.250000 0.842647
O O20 0.565464 0.527120 0.655410
O O21 0.566548 0.750000 0.468720
#
# Coordination Sequence:
#
# PCOD9161169 Si02
#       8
#     4   4   4   4   4   4   4   4
#     4  11  23  39  60  84 112 144 176 217 267 323
#     4  10  20  33  49  68 100 141 178 222 271 319
#     4  10  20  33  49  74 107 139 175 223 274 316
#     4   8  16  32  50  73 105 139 178 223 269 309
#     4  10  21  36  53  79 113 141 175 222 270 321
#     4   9  17  31  53  76 100 136 179 220 261 315
#     4   9  18  33  57  83 108 142 185 228 264 311
#     4   9  18  35  57  83 111 140 179 223 266 316
#
# _framework density 23.990454
#
# number of rings (size 3 to 8) (size 9 to 14) (size 15 to 20)
#    0.000    2.500    1.250    2.625    0.000    3.000 
#    0.000    3.125    0.000    0.000    0.000    0.000 
#    0.000    0.000    0.000    0.000    0.000    0.000 
#
# Total GULP energy -178540.926331 kJ/mol
# GULP energy per Si atom -5579.403948 kJ/mol
# Density = 2.393585 g / cm^3
# Si number density = 23.990454 Si / 1000 Ang^3
#
#
#
# Elastic Constant Matrix: (Units=GPa)
#
#
# Indices 1 2 3 4 5 6 
#
# 1 71.4959 -3.6201 34.0496 0.0000 18.3603 0.0000
# 2 -3.6201 55.2123 -4.9166 0.0000 -0.6266 0.0000
# 3 34.0496 -4.9166 175.0519 0.0000 12.9561 0.0000
# 4 0.0000 0.0000 0.0000 22.5531 0.0000 9.1749
# 5 18.3603 -0.6266 12.9561 0.0000 42.1256 0.0000
# 6 0.0000 0.0000 0.0000 9.1749 0.0000 10.6533
#
#
#
# Elastic Compliance Matrix: (Units=1/GPa)
#
#
# Indices 1 2 3 4 5 6 
#
# 1 0.017048 0.000793 -0.002809 0.000000 -0.006555 0.000000
# 2 0.000793 0.018195 0.000371 0.000000 -0.000189 0.000000
# 3 -0.002809 0.000371 0.006322 0.000000 -0.000715 0.000000
# 4 0.000000 0.000000 0.000000 0.068252 0.000000 -0.058780
# 5 -0.006555 -0.000189 -0.000715 0.000000 0.026812 0.000000
# 6 0.000000 0.000000 0.000000 -0.058780 0.000000 0.144491
#
#
# Mechanical properties :
#
#
# Convention : Reuss Voigt Hill
#
# Bulk Modulus (GPa) = 26.12629 39.19843 32.66236
# Shear Modulus (GPa) = 16.82551 33.48288 25.15420
#
# Velocity S-wave (km/s) = 2.65116 3.73993 3.24158
# Velocity P-wave (km/s) = 4.50394 5.91811 5.25878
#
# Compressibility (1/GPa) = 0.03827562
#
# Stress axis : x y z
#
# Youngs Moduli (GPa) = 58.65863 54.96077 158.17254
#
# Poissons Ratio (x) = -0.04360 0.44424
# Poissons Ratio (y) = -0.04653 -0.05864
# Poissons Ratio (z) = 0.16475 -0.02038
#
# Static dielectric constant tensor:
#      x y z
#    x 1.947980 0.000000 -0.061820 
#    y 0.000000 1.890620 0.000000 
#    z -0.061820 0.000000 1.978990 
# 
# From -- ./inp_files/67129.got.cif
#   From: 2010.05.17/outbox.cif.g08.bks.cpg/sg11_34_cif.got.tgz:67129.got - 2010.06.03 12:22:45.
