data_PCOD9161067
_publ_section_title
;
Structure prediction by ZEFSAII (Michael W. Deem and Ramdas Pophale) SiO2 
 PCOD9161067
Probable space group: P 21/M
;
_chemical_formula_sum "Si O2"
_cell_formula_units_Z 32
_cell_length_a 28.816632
_cell_length_b 7.568331
_cell_length_c 7.682162
_cell_angle_alpha 90.000000
_cell_angle_beta 122.396872
_cell_angle_gamma 90.000000
_cell_volume 1414.663012
_symmetry_space_group_name_H-M "P 21/M"
_symmetry_group_IT_number 11
_symmetry_cell_setting 'monoclinic'
loop_
_space_group_symop_operation_xyz
x,y,z
-x,1/2+y,-z
-x,-y,-z
x,1/2-y,z
loop_
_atom_site_type_symbol
_atom_site_label
_atom_site_fract_x
_atom_site_fract_y
_atom_site_fract_z
Si Si1 0.435771 0.961564 0.868729
Si Si2 0.644189 0.033152 0.592105
Si Si3 0.644919 0.466901 0.994328
Si Si4 0.881605 0.450170 0.555781
Si Si5 0.881535 0.044888 0.974660
Si Si6 0.763626 0.451767 0.821460
Si Si7 0.235631 0.952003 0.759831
Si Si8 0.997836 0.042764 0.201638
O O1 0.430145 0.750000 0.857318
O O2 0.403786 0.025316 0.632710
O O3 0.402765 0.025473 0.972102
O O4 0.500000 0.000000 0.000000
O O5 0.646247 0.250000 0.596390
O O6 0.635896 0.979151 0.775917
O O7 0.704650 0.972903 0.648832
O O8 0.646874 0.250000 0.998212
O O9 0.705609 0.527476 0.178475
O O10 0.875760 0.250000 0.480388
O O11 0.885184 0.453180 0.772315
O O12 0.823276 0.539076 0.396472
O O13 0.941421 0.504118 0.605830
O O14 0.878557 0.250000 0.030993
O O15 0.822463 0.963047 0.898965
O O16 0.939935 0.964869 0.154079
O O17 0.765927 0.250000 0.755429
O O18 0.760049 0.442447 0.022978
O O19 0.233594 0.750000 0.684731
O O20 0.990574 0.250000 0.202278
O O21 0.000000 0.000000 0.000000
#
# Coordination Sequence:
#
# PCOD9161067 Si02
#       8
#     4   4   4   4   4   4   4   4
#     4  10  20  32  49  73  98 125 155 189 226 272
#     4   8  15  27  44  68  96 122 151 190 236 275
#     4   8  15  28  45  68  96 122 152 195 235 267
#     4   9  16  25  40  63  85 109 141 179 221 266
#     4   8  14  22  36  57  80 107 140 177 217 257
#     4   8  13  23  39  62  88 110 137 183 229 259
#     4   8  14  24  40  63  89 111 139 182 227 263
#     4   9  16  27  40  58  85 115 146 181 220 265
#
# _framework density 22.620228000000001
#
# number of rings (size 3 to 8) (size 9 to 14) (size 15 to 20)
#    0.000    3.500    0.000    2.625    1.750    0.500 
#    0.000    0.625    0.000    0.750    0.000    6.125 
#    0.000    0.000    0.000    0.000    0.000    0.000 
#
# Total GULP energy -178209.854321 kJ/mol
# GULP energy per Si atom -5569.057948 kJ/mol
# Density = 2.256874 g / cm^3
# Si number density = 22.620228 Si / 1000 Ang^3
#
#
#
# Elastic Constant Matrix: (Units=GPa)
#
#
# Indices 1 2 3 4 5 6 
#
# 1 238.2099 8.2726 57.0695 0.0000 52.3636 0.0000
# 2 8.2726 49.2284 7.5531 0.0000 5.3701 0.0000
# 3 57.0695 7.5531 179.1472 0.0000 55.7993 0.0000
# 4 0.0000 0.0000 0.0000 5.3563 0.0000 10.5825
# 5 52.3636 5.3701 55.7993 0.0000 53.0794 0.0000
# 6 0.0000 0.0000 0.0000 10.5825 0.0000 7.4777
#
#
#
# Elastic Compliance Matrix: (Units=1/GPa)
#
#
# Indices 1 2 3 4 5 6 
#
# 1 0.005367 -0.000325 -0.000085 0.000000 -0.005172 0.000000
# 2 -0.000325 0.020573 -0.000320 0.000000 -0.001424 0.000000
# 3 -0.000085 -0.000320 0.008306 0.000000 -0.008615 0.000000
# 4 0.000000 0.000000 0.000000 -0.103948 0.000000 0.147108
# 5 -0.005172 -0.001424 -0.008615 0.000000 0.033143 0.000000
# 6 0.000000 0.000000 0.000000 0.147108 0.000000 -0.074458
#
#
# Mechanical properties :
#
#
# Convention : Reuss Voigt Hill
#
# Bulk Modulus (GPa) = 30.50133 68.04177 49.27155
# Shear Modulus (GPa) = -50.69499 39.42869 -5.63315
#
# Velocity S-wave (km/s) = -4.73920 4.17954 -1.57979
# Velocity P-wave (km/s) = 4.05380 7.31005 4.30136
#
# Compressibility (1/GPa) = 0.03278545
#
# Stress axis : x y z
#
# Youngs Moduli (GPa) = 186.34041 48.60847 120.39424
#
# Poissons Ratio (x) = 0.01578 0.01023
# Poissons Ratio (y) = 0.06048 0.03856
# Poissons Ratio (z) = 0.01583 0.01557
#
# Static dielectric constant tensor:
#      x y z
#    x 1.869930 0.000000 0.051450 
#    y 0.000000 1.850170 0.000000 
#    z 0.051450 0.000000 1.870680 
# 
# From -- ./inp_files/28693.got.cif
#   From: 2010.05.17/outbox.cif.g08.bks.cpg/sg11_15_cif.got.tgz:28693.got - 2010.06.03 12:22:45.
