data_PCOD9161746
_publ_section_title
;
Structure prediction by ZEFSAII (Michael W. Deem and Ramdas Pophale) SiO2 
 PCOD9161746
Probable space group: P 21/M
;
_chemical_formula_sum "Si O2"
_cell_formula_units_Z 28
_cell_length_a 9.650172
_cell_length_b 8.997431
_cell_length_c 26.353125
_cell_angle_alpha 90.000000
_cell_angle_beta 40.102859
_cell_angle_gamma 90.000000
_cell_volume 1473.942923
_symmetry_space_group_name_H-M "P 21/M"
_symmetry_group_IT_number 11
_symmetry_cell_setting 'monoclinic'
loop_
_space_group_symop_operation_xyz
x,y,z
-x,1/2+y,-z
-x,-y,-z
x,1/2-y,z
loop_
_atom_site_type_symbol
_atom_site_label
_atom_site_fract_x
_atom_site_fract_y
_atom_site_fract_z
Si Si1 0.167182 0.572122 0.225931
Si Si2 0.177191 0.925413 0.812283
Si Si3 0.306525 0.424601 0.672342
Si Si4 0.922765 0.427308 0.574358
Si Si5 0.292421 0.427282 0.083238
Si Si6 0.379930 0.424296 0.487293
Si Si7 0.391184 0.427024 0.260227
O O1 0.197673 0.750000 0.215299
O O2 0.248453 0.498011 0.150871
O O3 0.288055 0.503950 0.240136
O O4 0.909570 0.545019 0.299861
O O5 0.196671 0.750000 0.793191
O O6 0.351737 0.952694 0.807128
O O7 0.923644 0.954101 0.889860
O O8 0.248705 0.023218 0.744600
O O9 0.350663 0.250000 0.658080
O O10 0.507607 0.512478 0.594360
O O11 0.886943 0.250000 0.577969
O O12 0.722427 0.505266 0.657811
O O13 0.000000 0.500000 0.500000
O O14 0.125840 0.449146 0.555210
O O15 0.319582 0.250000 0.080619
O O16 0.500000 0.500000 0.000000
O O17 0.500000 0.500000 0.500000
O O18 0.416278 0.250000 0.480125
O O19 0.353292 0.250000 0.269260
#
# Coordination Sequence:
#
# PCOD9161746 Si02
#       7
#     4   4   4   4   4   4   4
#     4  10  21  37  57  84 115 147 183 226 274 326
#     4   9  20  37  57  81 110 142 177 218 266 320
#     4  10  20  34  54  78 104 137 182 228 272 324
#     4  11  24  39  54  77 109 147 189 235 283 330
#     4  10  20  38  63  89 116 145 178 220 268 323
#     4  11  23  36  51  73 103 138 181 230 279 326
#     4  11  22  37  57  82 111 146 187 229 275 329
#
# _framework density 18.996666000000001
#
# number of rings (size 3 to 8) (size 9 to 14) (size 15 to 20)
#    0.000    1.714    0.000    4.286    0.000   12.571 
#    0.000    0.714    0.000    0.000    0.000    0.000 
#    0.000    0.000    0.000    0.000    0.000    0.000 
#
# Total GULP energy -156415.631323 kJ/mol
# GULP energy per Si atom -5586.272547 kJ/mol
# Density = 1.895343 g / cm^3
# Si number density = 18.996666 Si / 1000 Ang^3
#
#
#
# Elastic Constant Matrix: (Units=GPa)
#
#
# Indices 1 2 3 4 5 6 
#
# 1 103.3144 52.4099 25.6737 0.0000 -19.1116 0.0000
# 2 52.4099 71.3606 38.1084 0.0000 -22.4117 0.0000
# 3 25.6737 38.1084 89.1252 0.0000 -21.1413 0.0000
# 4 0.0000 0.0000 0.0000 33.8415 0.0000 2.9114
# 5 -19.1116 -22.4117 -21.1413 0.0000 25.8445 0.0000
# 6 0.0000 0.0000 0.0000 2.9114 0.0000 30.5046
#
#
#
# Elastic Compliance Matrix: (Units=1/GPa)
#
#
# Indices 1 2 3 4 5 6 
#
# 1 0.015565 -0.011075 0.000873 0.000000 0.002621 0.000000
# 2 -0.011075 0.029394 -0.006544 0.000000 0.011947 0.000000
# 3 0.000873 -0.006544 0.015601 0.000000 0.007733 0.000000
# 4 0.000000 0.000000 0.000000 0.029794 0.000000 -0.002844
# 5 0.002621 0.011947 0.007733 0.000000 0.057317 0.000000
# 6 0.000000 0.000000 0.000000 -0.002844 0.000000 0.033053
#
#
# Mechanical properties :
#
#
# Convention : Reuss Voigt Hill
#
# Bulk Modulus (GPa) = 36.94316 55.13158 46.03737
# Shear Modulus (GPa) = 22.39756 27.87867 25.13812
#
# Velocity S-wave (km/s) = 3.43742 3.83503 3.64165
# Velocity P-wave (km/s) = 5.93665 6.97815 6.47837
#
# Compressibility (1/GPa) = 0.02706861
#
# Stress axis : x y z
#
# Youngs Moduli (GPa) = 64.24628 34.02056 64.09815
#
# Poissons Ratio (x) = 0.37678 -0.05598
# Poissons Ratio (y) = 0.71152 0.41947
# Poissons Ratio (z) = -0.05611 0.22264
#
# Static dielectric constant tensor:
#      x y z
#    x 2.265120 0.000000 -0.944160 
#    y 0.000000 1.629390 0.000000 
#    z -0.944160 0.000000 3.133270 
# 
# From -- ./inp_files/28315.got.cif
#   From: 2010.05.17/outbox.cif.g08.bks.cpg/sg11_15_cif.got.tgz:28315.got - 2010.06.03 12:22:45.
