data_PCOD9161977
_publ_section_title
;
Structure prediction by ZEFSAII (Michael W. Deem and Ramdas Pophale) SiO2 
 PCOD9161977
Probable space group: P 21/M
;
_chemical_formula_sum "Si O2"
_cell_formula_units_Z 24
_cell_length_a 21.895436
_cell_length_b 8.822374
_cell_length_c 11.162298
_cell_angle_alpha 90.000000
_cell_angle_beta 33.071710
_cell_angle_gamma 90.000000
_cell_volume 1176.622886
_symmetry_space_group_name_H-M "P 21/M"
_symmetry_group_IT_number 11
_symmetry_cell_setting 'monoclinic'
loop_
_space_group_symop_operation_xyz
x,y,z
-x,1/2+y,-z
-x,-y,-z
x,1/2-y,z
loop_
_atom_site_type_symbol
_atom_site_label
_atom_site_fract_x
_atom_site_fract_y
_atom_site_fract_z
Si Si1 0.375800 0.932275 0.708643
Si Si2 0.826148 0.567990 0.351317
Si Si3 0.171601 0.431528 0.920234
Si Si4 0.621832 0.430474 0.810830
Si Si5 0.243312 0.931058 0.168477
Si Si6 0.960307 0.931097 0.370667
O O1 0.380613 0.750000 0.691533
O O2 0.500000 0.000000 0.500000
O O3 0.294318 0.001975 0.742579
O O4 0.312169 0.972961 0.937189
O O5 0.818935 0.750000 0.366246
O O6 0.864404 0.523739 0.155742
O O7 0.704898 0.498507 0.575792
O O8 0.902364 0.522346 0.338852
O O9 0.172955 0.250000 0.926902
O O10 0.083415 0.499266 0.159526
O O11 0.616853 0.250000 0.808230
O O12 0.678383 0.467577 0.845946
O O13 0.500000 0.500000 0.000000
O O14 0.224603 0.750000 0.196875
O O15 0.124075 0.009235 0.389265
O O16 0.967885 0.750000 0.364587
#
# Coordination Sequence:
#
# PCOD9161977 Si02
#       6
#     4   4   4   4   4   4
#     4  11  25  44  63  86 117 157 203 248 294 349
#     4   9  20  37  57  86 122 156 193 240 294 350
#     4  11  23  39  61  88 122 162 198 240 296 354
#     4  10  20  34  56  85 115 152 194 240 295 353
#     4   9  21  41  61  82 116 156 194 242 296 350
#     4  10  20  37  63  93 121 151 195 247 295 352
#
# _framework density 20.397359000000002
#
# number of rings (size 3 to 8) (size 9 to 14) (size 15 to 20)
#    0.000    2.000    0.000    2.500    2.333    4.667 
#    0.000    0.000    0.000    0.000    0.000    0.000 
#    0.000    0.000    0.000    0.000    0.000    0.000 
#
# Total GULP energy -134114.261330 kJ/mol
# GULP energy per Si atom -5588.094222 kJ/mol
# Density = 2.035093 g / cm^3
# Si number density = 20.397359 Si / 1000 Ang^3
#
#
#
# Elastic Constant Matrix: (Units=GPa)
#
#
# Indices 1 2 3 4 5 6 
#
# 1 56.4890 19.3340 42.1707 0.0000 1.0255 0.0000
# 2 19.3340 6.4203 38.5106 0.0000 1.3205 0.0000
# 3 42.1707 38.5106 143.5056 0.0000 -9.9834 0.0000
# 4 0.0000 0.0000 0.0000 40.7123 0.0000 -5.3026
# 5 1.0255 1.3205 -9.9834 0.0000 41.6467 0.0000
# 6 0.0000 0.0000 0.0000 -5.3026 0.0000 24.2517
#
#
#
# Elastic Compliance Matrix: (Units=1/GPa)
#
#
# Indices 1 2 3 4 5 6 
#
# 1 0.017470 0.030967 -0.013772 0.000000 -0.004713 0.000000
# 2 0.030967 -0.177403 0.039504 0.000000 0.014332 0.000000
# 3 -0.013772 0.039504 0.000357 0.000000 -0.000828 0.000000
# 4 0.000000 0.000000 0.000000 0.025283 0.000000 0.005528
# 5 -0.004713 0.014332 -0.000828 0.000000 0.023475 0.000000
# 6 0.000000 0.000000 0.000000 0.005528 0.000000 0.042443
#
#
# Mechanical properties :
#
#
# Convention : Reuss Voigt Hill
#
# Bulk Modulus (GPa) = -21.65567 45.16062 11.75247
# Shear Modulus (GPa) = -25.35929 28.41544 1.52808
#
# Velocity S-wave (km/s) = -3.52982 3.73647 0.86648
# Velocity P-wave (km/s) = 5.22042 6.38775 2.60294
#
# Compressibility (1/GPa) = -0.04617728
#
# Stress axis : x y z
#
# Youngs Moduli (GPa) = 57.23942 -5.63689 2803.78251
#
# Poissons Ratio (x) = 0.17456 38.61368
# Poissons Ratio (y) = -1.77254 -110.76098
# Poissons Ratio (z) = 0.78830 0.22268
#
# Static dielectric constant tensor:
#      x y z
#    x 1.766940 0.000000 0.020150 
#    y 0.000000 1.664000 0.000000 
#    z 0.020150 0.000000 1.691470 
# 
# From -- ./inp_files/43891.got.cif
#   From: 2010.05.17/outbox.cif.g08.bks.cpg/sg11_22_cif.got.tgz:43891.got - 2010.06.03 12:22:45.
