data_PCOD9161655
_publ_section_title
;
Structure prediction by ZEFSAII (Michael W. Deem and Ramdas Pophale) SiO2 
 PCOD9161655
Probable space group: P 21/M
;
_chemical_formula_sum "Si O2"
_cell_formula_units_Z 28
_cell_length_a 23.625455
_cell_length_b 9.298042
_cell_length_c 5.911584
_cell_angle_alpha 90.000000
_cell_angle_beta 71.973923
_cell_angle_gamma 90.000000
_cell_volume 1234.859656
_symmetry_space_group_name_H-M "P 21/M"
_symmetry_group_IT_number 11
_symmetry_cell_setting 'monoclinic'
loop_
_space_group_symop_operation_xyz
x,y,z
-x,1/2+y,-z
-x,-y,-z
x,1/2-y,z
loop_
_atom_site_type_symbol
_atom_site_label
_atom_site_fract_x
_atom_site_fract_y
_atom_site_fract_z
Si Si1 0.191572 0.090096 0.507264
Si Si2 0.404572 0.410489 0.139751
Si Si3 0.687371 0.587819 0.365932
Si Si4 0.872076 0.411432 0.076667
Si Si5 0.473800 0.592779 0.731017
Si Si6 0.978536 0.927867 0.773141
Si Si7 0.750919 0.091757 0.952434
O O1 0.168200 0.250000 0.491775
O O2 0.245847 0.102092 0.618080
O O3 0.140464 0.985831 0.666474
O O4 0.225123 0.019863 0.257969
O O5 0.384816 0.250000 0.095737
O O6 0.357394 0.463329 0.383304
O O7 0.469448 0.395233 0.173711
O O8 0.419292 0.515658 0.919035
O O9 0.667761 0.750000 0.326775
O O10 0.696426 0.476668 0.154062
O O11 0.898295 0.250000 0.061092
O O12 0.807380 0.393412 0.047996
O O13 0.910184 0.520411 0.878233
O O14 0.500000 0.500000 0.500000
O O15 0.456795 0.750000 0.670893
O O16 0.985359 0.750000 0.762592
O O17 0.000000 0.000000 0.500000
O O18 0.000000 0.000000 0.000000
O O19 0.737861 0.250000 0.872592
#
# Coordination Sequence:
#
# PCOD9161655 Si02
#       7
#     4   4   4   4   4   4   4
#     4  10  20  35  58  85 114 150 195 243 295 357
#     4   9  19  36  55  74 103 140 181 230 281 338
#     4   9  19  36  55  78 107 143 187 234 284 343
#     4  10  22  41  63  88 122 163 206 254 310 371
#     4  10  20  34  53  76 102 137 179 225 280 343
#     4  12  27  48  73 104 141 182 230 284 341 403
#     4  10  21  36  57  84 117 154 192 238 295 358
#
# _framework density 22.674638999999999
#
# number of rings (size 3 to 8) (size 9 to 14) (size 15 to 20)
#    0.000    2.000    0.000    3.000    2.000    4.571 
#    0.000    5.714    0.000    0.000    0.000    0.000 
#    0.000    0.000    0.000    0.000    0.000    0.000 
#
# Total GULP energy -156031.322300 kJ/mol
# GULP energy per Si atom -5572.547225 kJ/mol
# Density = 2.262303 g / cm^3
# Si number density = 22.674639 Si / 1000 Ang^3
#
#
#
# Elastic Constant Matrix: (Units=GPa)
#
#
# Indices 1 2 3 4 5 6 
#
# 1 48.6126 21.8423 26.4277 0.0000 -9.5915 0.0000
# 2 21.8423 163.8555 77.6775 0.0000 -1.4108 0.0000
# 3 26.4277 77.6775 141.7703 0.0000 -24.7876 0.0000
# 4 0.0000 0.0000 0.0000 33.2796 0.0000 -9.9586
# 5 -9.5915 -1.4108 -24.7876 0.0000 36.9559 0.0000
# 6 0.0000 0.0000 0.0000 -9.9586 0.0000 15.1034
#
#
#
# Elastic Compliance Matrix: (Units=1/GPa)
#
#
# Indices 1 2 3 4 5 6 
#
# 1 0.023696 -0.001871 -0.002639 0.000000 0.004309 0.000000
# 2 -0.001871 0.008713 -0.005043 0.000000 -0.003536 0.000000
# 3 -0.002639 -0.005043 0.011505 0.000000 0.006839 0.000000
# 4 0.000000 0.000000 0.000000 0.037435 0.000000 0.024683
# 5 0.004309 -0.003536 0.006839 0.000000 0.032630 0.000000
# 6 0.000000 0.000000 0.000000 0.024683 0.000000 0.082485
#
#
# Mechanical properties :
#
#
# Convention : Reuss Voigt Hill
#
# Bulk Modulus (GPa) = 40.31006 67.34816 53.82911
# Shear Modulus (GPa) = 22.33760 32.28717 27.31239
#
# Velocity S-wave (km/s) = 3.14209 3.77760 3.47441
# Velocity P-wave (km/s) = 5.56595 6.98523 6.31559
#
# Compressibility (1/GPa) = 0.02480770
#
# Stress axis : x y z
#
# Youngs Moduli (GPa) = 42.20115 114.77572 86.92174
#
# Poissons Ratio (x) = 0.21470 0.22938
# Poissons Ratio (y) = 0.07894 0.43837
# Poissons Ratio (z) = 0.11137 0.57884
#
# Static dielectric constant tensor:
#      x y z
#    x 1.912670 0.000000 0.088100 
#    y 0.000000 1.876630 0.000000 
#    z 0.088100 0.000000 1.851790 
# 
# From -- ./inp_files/9636.got.cif
#   From: 2010.05.17/outbox.cif.g08.bks.cpg/sg11_5_cif.got.tgz:9636.got - 2010.06.03 12:22:45.
