data_PCOD9161759
_publ_section_title
;
Structure prediction by ZEFSAII (Michael W. Deem and Ramdas Pophale) SiO2 
 PCOD9161759
Probable space group: P 21/M
;
_chemical_formula_sum "Si O2"
_cell_formula_units_Z 24
_cell_length_a 15.893404
_cell_length_b 8.934559
_cell_length_c 15.933258
_cell_angle_alpha 90.000000
_cell_angle_beta 37.922638
_cell_angle_gamma 90.000000
_cell_volume 1390.544898
_symmetry_space_group_name_H-M "P 21/M"
_symmetry_group_IT_number 11
_symmetry_cell_setting 'monoclinic'
loop_
_space_group_symop_operation_xyz
x,y,z
-x,1/2+y,-z
-x,-y,-z
x,1/2-y,z
loop_
_atom_site_type_symbol
_atom_site_label
_atom_site_fract_x
_atom_site_fract_y
_atom_site_fract_z
Si Si1 0.641111 0.570687 0.919552
Si Si2 0.604230 0.569886 0.303913
Si Si3 0.247167 0.070440 0.984742
Si Si4 0.081563 0.571141 0.359025
Si Si5 0.029310 0.427951 0.739341
Si Si6 0.301695 0.928910 0.598319
O O1 0.638863 0.750000 0.911846
O O2 0.768846 0.501572 0.768633
O O3 0.500000 0.500000 0.000000
O O4 0.670393 0.535646 0.994648
O O5 0.616069 0.750000 0.303468
O O6 0.670053 0.526515 0.163474
O O7 0.679565 0.492749 0.322678
O O8 0.443220 0.532388 0.438726
O O9 0.227119 0.250000 0.998640
O O10 0.100058 0.992594 0.107893
O O11 0.093420 0.750000 0.359418
O O12 0.000000 0.500000 0.500000
O O13 0.003256 0.540603 0.332867
O O14 0.036521 0.250000 0.744740
O O15 0.169517 0.501979 0.658625
O O16 0.289880 0.750000 0.610307
#
# Coordination Sequence:
#
# PCOD9161759 Si02
#       6
#     4   4   4   4   4   4
#     4  10  20  35  55  80 109 141 178 220 267 318
#     4   9  19  36  55  76 103 135 174 218 260 306
#     4   9  19  36  56  77 103 137 176 217 261 309
#     4  10  21  37  56  79 107 140 178 220 266 315
#     4  10  21  36  54  78 107 138 173 214 259 309
#     4  10  20  34  54  79 106 138 173 212 261 312
#
# _framework density 17.259422000000001
#
# number of rings (size 3 to 8) (size 9 to 14) (size 15 to 20)
#    0.000    2.333    0.000    2.000    0.000    6.000 
#    0.000    1.667    0.000    0.000    0.000    0.000 
#    0.000    0.000    0.000    0.000    0.000    0.000 
#
# Total GULP energy -133964.128352 kJ/mol
# GULP energy per Si atom -5581.838681 kJ/mol
# Density = 1.722014 g / cm^3
# Si number density = 17.259422 Si / 1000 Ang^3
#
#
#
# Elastic Constant Matrix: (Units=GPa)
#
#
# Indices 1 2 3 4 5 6 
#
# 1 128.0095 68.8718 108.8696 0.0000 -29.0003 0.0000
# 2 68.8718 58.8630 74.2743 0.0000 -7.6112 0.0000
# 3 108.8696 74.2743 181.9440 0.0000 6.5236 0.0000
# 4 0.0000 0.0000 0.0000 29.6458 0.0000 -2.5903
# 5 -29.0003 -7.6112 6.5236 0.0000 29.4588 0.0000
# 6 0.0000 0.0000 0.0000 -2.5903 0.0000 32.9136
#
#
#
# Elastic Compliance Matrix: (Units=1/GPa)
#
#
# Indices 1 2 3 4 5 6 
#
# 1 0.052124 -0.026889 -0.021978 0.000000 0.049232 0.000000
# 2 -0.026889 0.053983 -0.005543 0.000000 -0.011296 0.000000
# 3 -0.021978 -0.005543 0.021911 0.000000 -0.027920 0.000000
# 4 0.000000 0.000000 0.000000 0.033965 0.000000 0.002673
# 5 0.049232 -0.011296 -0.027920 0.000000 0.085676 0.000000
# 6 0.000000 0.000000 0.000000 0.002673 0.000000 0.030593
#
#
# Mechanical properties :
#
#
# Convention : Reuss Voigt Hill
#
# Bulk Modulus (GPa) = 52.08687 96.98310 74.53499
# Shear Modulus (GPa) = 12.70742 26.19035 19.44889
#
# Velocity S-wave (km/s) = 2.71635 3.89968 3.36051
# Velocity P-wave (km/s) = 6.33107 8.75157 7.63781
#
# Compressibility (1/GPa) = 0.01919869
#
# Stress axis : x y z
#
# Youngs Moduli (GPa) = 19.18500 18.52429 45.63973
#
# Poissons Ratio (x) = 0.49810 1.00306
# Poissons Ratio (y) = 0.51587 0.25297
# Poissons Ratio (z) = 0.42164 0.10267
#
# Static dielectric constant tensor:
#      x y z
#    x 1.558100 0.000000 0.007340 
#    y 0.000000 1.573930 0.000000 
#    z 0.007340 0.000000 1.562990 
# 
# From -- ./inp_files/20314.got.cif
#   From: 2010.05.17/outbox.cif.g08.bks.cpg/sg11_11_cif.got.tgz:20314.got - 2010.06.03 12:22:45.
