data_PCOD9161602
_publ_section_title
;
Structure prediction by ZEFSAII (Michael W. Deem and Ramdas Pophale) SiO2 
 PCOD9161602
Probable space group: P 21/M
;
_chemical_formula_sum "Si O2"
_cell_formula_units_Z 28
_cell_length_a 8.091744
_cell_length_b 7.635911
_cell_length_c 17.181012
_cell_angle_alpha 90.000000
_cell_angle_beta 83.921454
_cell_angle_gamma 90.000000
_cell_volume 1055.609024
_symmetry_space_group_name_H-M "P 21/M"
_symmetry_group_IT_number 11
_symmetry_cell_setting 'monoclinic'
loop_
_space_group_symop_operation_xyz
x,y,z
-x,1/2+y,-z
-x,-y,-z
x,1/2-y,z
loop_
_atom_site_type_symbol
_atom_site_label
_atom_site_fract_x
_atom_site_fract_y
_atom_site_fract_z
Si Si1 0.627126 0.035008 0.099801
Si Si2 0.180301 0.948558 0.766005
Si Si3 0.973010 0.549688 0.380240
Si Si4 0.524569 0.036266 0.667683
Si Si5 0.721128 0.047862 0.804330
Si Si6 0.154967 0.539855 0.047198
Si Si7 0.740639 0.462352 0.521442
O O1 0.618332 0.250000 0.103249
O O2 0.769013 0.969695 0.154111
O O3 0.687056 0.979169 0.011806
O O4 0.455138 0.961253 0.140281
O O5 0.143419 0.750000 0.784570
O O6 0.046517 0.006456 0.709107
O O7 0.354316 0.963095 0.709658
O O8 0.019049 0.750000 0.379736
O O9 0.798424 0.527224 0.434525
O O10 0.111712 0.466030 0.428627
O O11 0.515444 0.250000 0.671222
O O12 0.668036 0.978352 0.722311
O O13 0.577513 0.984439 0.577901
O O14 0.767239 0.250000 0.789736
O O15 0.842687 0.969903 0.864455
O O16 0.165707 0.750000 0.052963
O O17 0.000000 0.500000 0.000000
O O18 0.739341 0.250000 0.516647
#
# Coordination Sequence:
#
# PCOD9161602 Si02
#       7
#     4   4   4   4   4   4   4
#     4   9  19  35  53  74 102 135 170 207 249 299
#     4  10  20  34  52  75 103 134 168 207 251 298
#     4  10  20  34  53  76 101 132 170 208 249 300
#     4   9  18  34  54  76 101 129 166 211 254 297
#     4   9  18  33  54  77 100 130 169 210 251 297
#     4  10  21  35  51  76 107 136 169 208 249 295
#     4   9  19  35  53  73 100 133 167 206 253 302
#
# _framework density 26.524972999999999
#
# number of rings (size 3 to 8) (size 9 to 14) (size 15 to 20)
#    0.000    2.571    0.000    1.286    0.000    4.571 
#    0.000    1.429    0.000    0.000    0.000    0.000 
#    0.000    0.000    0.000    0.000    0.000    0.000 
#
# Total GULP energy -156477.351589 kJ/mol
# GULP energy per Si atom -5588.476842 kJ/mol
# Density = 2.646460 g / cm^3
# Si number density = 26.524973 Si / 1000 Ang^3
#
#
#
# Elastic Constant Matrix: (Units=GPa)
#
#
# Indices 1 2 3 4 5 6 
#
# 1 72.6319 -4.1127 3.7439 0.0000 3.3932 0.0000
# 2 -4.1127 65.5779 7.5012 0.0000 0.1739 0.0000
# 3 3.7439 7.5012 182.2693 0.0000 -1.6090 0.0000
# 4 0.0000 0.0000 0.0000 22.1802 0.0000 -1.5672
# 5 3.3932 0.1739 -1.6090 0.0000 55.1376 0.0000
# 6 0.0000 0.0000 0.0000 -1.5672 0.0000 25.7365
#
#
#
# Elastic Compliance Matrix: (Units=1/GPa)
#
#
# Indices 1 2 3 4 5 6 
#
# 1 0.013877 0.000910 -0.000330 0.000000 -0.000867 0.000000
# 2 0.000910 0.015381 -0.000653 0.000000 -0.000124 0.000000
# 3 -0.000330 -0.000653 0.005522 0.000000 0.000184 0.000000
# 4 0.000000 0.000000 0.000000 0.045280 0.000000 0.002757
# 5 -0.000867 -0.000124 0.000184 0.000000 0.018196 0.000000
# 6 0.000000 0.000000 0.000000 0.002757 0.000000 0.039023
#
#
# Mechanical properties :
#
#
# Convention : Reuss Voigt Hill
#
# Bulk Modulus (GPa) = 28.87277 37.19378 33.03327
# Shear Modulus (GPa) = 33.56409 41.50065 37.53237
#
# Velocity S-wave (km/s) = 3.56107 3.95978 3.76571
# Velocity P-wave (km/s) = 5.27419 5.91262 5.60251
#
# Compressibility (1/GPa) = 0.03463471
#
# Stress axis : x y z
#
# Youngs Moduli (GPa) = 72.06115 65.01469 181.10518
#
# Poissons Ratio (x) = -0.05919 0.05979
# Poissons Ratio (y) = -0.06560 0.11822
# Poissons Ratio (z) = 0.02379 0.04244
#
# Static dielectric constant tensor:
#      x y z
#    x 2.234370 0.000000 0.064270 
#    y 0.000000 1.963990 0.000000 
#    z 0.064270 0.000000 2.095510 
# 
# From -- ./inp_files/28323.got.cif
#   From: 2010.05.17/outbox.cif.g08.bks.cpg/sg11_15_cif.got.tgz:28323.got - 2010.06.03 12:22:45.
