data_PCOD9161456
_publ_section_title
;
Structure prediction by ZEFSAII (Michael W. Deem and Ramdas Pophale) SiO2 
 PCOD9161456
Probable space group: P 21/M
;
_chemical_formula_sum "Si O2"
_cell_formula_units_Z 24
_cell_length_a 10.040054
_cell_length_b 13.332260
_cell_length_c 12.842573
_cell_angle_alpha 90.000000
_cell_angle_beta 33.265513
_cell_angle_gamma 90.000000
_cell_volume 942.939971
_symmetry_space_group_name_H-M "P 21/M"
_symmetry_group_IT_number 11
_symmetry_cell_setting 'monoclinic'
loop_
_space_group_symop_operation_xyz
x,y,z
-x,1/2+y,-z
-x,-y,-z
x,1/2-y,z
loop_
_atom_site_type_symbol
_atom_site_label
_atom_site_fract_x
_atom_site_fract_y
_atom_site_fract_z
Si Si1 0.040299 0.137213 0.943214
Si Si2 0.158769 0.858838 0.285867
Si Si3 0.363391 0.140453 0.290608
Si Si4 0.474949 0.083337 0.800733
Si Si5 0.778009 0.034429 0.304145
Si Si6 0.835874 0.575503 0.797900
O O1 0.006617 0.250000 0.932526
O O2 0.311744 0.124329 0.814816
O O3 0.054697 0.060900 0.837838
O O4 0.849554 0.106817 0.159673
O O5 0.235777 0.750000 0.195607
O O6 0.265226 0.874443 0.333445
O O7 0.231080 0.958687 0.178610
O O8 0.868751 0.861068 0.481858
O O9 0.481644 0.250000 0.223803
O O10 0.503652 0.037295 0.220207
O O11 0.246767 0.130396 0.251887
O O12 0.318913 0.113035 0.004204
O O13 0.888526 0.078190 0.338928
O O14 0.500000 0.000000 0.500000
#
# Coordination Sequence:
#
# PCOD9161456 Si02
#       6
#     4   4   4   4   4   4
#     4  10  23  44  66  95 128 166 215 263 321 382
#     4  10  20  33  54  85 119 156 196 245 304 371
#     4  10  21  35  57  89 123 160 201 244 304 371
#     4  10  20  36  60  87 120 159 195 253 308 368
#     4  10  24  42  66  92 125 167 214 269 316 371
#     4  10  21  36  57  83 116 154 200 250 305 366
#
# _framework density 25.452307999999999
#
# number of rings (size 3 to 8) (size 9 to 14) (size 15 to 20)
#    0.000    2.000    0.000    4.500    4.667    6.667 
#    0.000    6.667    0.000    0.000    0.000    0.000 
#    0.000    0.000    0.000    0.000    0.000    0.000 
#
# Total GULP energy -134203.814989 kJ/mol
# GULP energy per Si atom -5591.825625 kJ/mol
# Density = 2.539438 g / cm^3
# Si number density = 25.452308 Si / 1000 Ang^3
#
#
#
# Elastic Constant Matrix: (Units=GPa)
#
#
# Indices 1 2 3 4 5 6 
#
# 1 89.5582 -25.5693 4.4494 0.0000 -17.7174 0.0000
# 2 -25.5693 118.6757 4.7806 0.0000 4.4368 0.0000
# 3 4.4494 4.7806 85.7360 0.0000 -20.1234 0.0000
# 4 0.0000 0.0000 0.0000 14.3278 0.0000 -14.6694
# 5 -17.7174 4.4368 -20.1234 0.0000 49.0458 0.0000
# 6 0.0000 0.0000 0.0000 -14.6694 0.0000 -3.6156
#
#
#
# Elastic Compliance Matrix: (Units=1/GPa)
#
#
# Indices 1 2 3 4 5 6 
#
# 1 0.012776 0.002575 0.000246 0.000000 0.004483 0.000000
# 2 0.002575 0.009014 -0.000674 0.000000 -0.000162 0.000000
# 3 0.000246 -0.000674 0.012973 0.000000 0.005473 0.000000
# 4 0.000000 0.000000 0.000000 0.013542 0.000000 -0.054943
# 5 0.004483 -0.000162 0.005473 0.000000 0.024269 0.000000
# 6 0.000000 0.000000 0.000000 -0.054943 0.000000 -0.053663
#
#
# Mechanical properties :
#
#
# Convention : Reuss Voigt Hill
#
# Bulk Modulus (GPa) = 25.60415 29.03235 27.31825
# Shear Modulus (GPa) = 180.92213 32.63887 106.78050
#
# Velocity S-wave (km/s) = 8.44021 3.58488 6.48415
# Velocity P-wave (km/s) = 10.25009 5.34476 8.17407
#
# Compressibility (1/GPa) = 0.03905617
#
# Stress axis : x y z
#
# Youngs Moduli (GPa) = 78.27290 110.93411 77.08287
#
# Poissons Ratio (x) = -0.28567 -0.01893
# Poissons Ratio (y) = -0.20156 0.05197
# Poissons Ratio (z) = -0.01922 0.07480
#
# Static dielectric constant tensor:
#      x y z
#    x 2.082060 0.000000 -0.048830 
#    y 0.000000 1.981970 0.000000 
#    z -0.048830 0.000000 2.022430 
# 
# From -- ./inp_files/35384.got.cif
#   From: 2010.05.17/outbox.cif.g08.bks.cpg/sg11_18_cif.got.tgz:35384.got - 2010.06.03 12:22:45.
