data_PCOD9161323
_publ_section_title
;
Structure prediction by ZEFSAII (Michael W. Deem and Ramdas Pophale) SiO2 
 PCOD9161323
Probable space group: P 21/M
;
_chemical_formula_sum "Si O2"
_cell_formula_units_Z 32
_cell_length_a 31.250691
_cell_length_b 9.728579
_cell_length_c 12.115649
_cell_angle_alpha 90.000000
_cell_angle_beta 151.198905
_cell_angle_gamma 90.000000
_cell_volume 1774.581094
_symmetry_space_group_name_H-M "P 21/M"
_symmetry_group_IT_number 11
_symmetry_cell_setting 'monoclinic'
loop_
_space_group_symop_operation_xyz
x,y,z
-x,1/2+y,-z
-x,-y,-z
x,1/2-y,z
loop_
_atom_site_type_symbol
_atom_site_label
_atom_site_fract_x
_atom_site_fract_y
_atom_site_fract_z
Si Si1 0.141876 0.530599 0.896938
Si Si2 0.334382 0.909906 0.948546
Si Si3 0.848321 0.589849 0.847153
Si Si4 0.527780 0.588021 0.455299
Si Si5 0.058123 0.106156 0.516221
Si Si6 0.200309 0.084192 0.505168
Si Si7 0.683115 0.403036 0.830621
Si Si8 0.059622 0.911471 0.320731
O O1 0.113420 0.404883 0.753337
O O2 0.046512 0.604300 0.692306
O O3 0.171124 0.493400 0.086238
O O4 0.222143 0.598990 0.013722
O O5 0.311408 0.750000 0.872031
O O6 0.282301 0.016519 0.755323
O O7 0.441196 0.923750 0.182356
O O8 0.309176 0.933881 0.020845
O O9 0.832295 0.750000 0.834752
O O10 0.797565 0.553169 0.620665
O O11 0.954098 0.575607 0.063180
O O12 0.500000 0.500000 0.500000
O O13 0.540364 0.750000 0.506964
O O14 0.619498 0.515296 0.629971
O O15 0.079445 0.250000 0.506056
O O16 0.076509 0.976265 0.479952
O O17 0.194831 0.250000 0.505764
O O18 0.115148 0.005185 0.362957
O O19 0.642409 0.250000 0.732158
O O20 0.083211 0.750000 0.368886
#
# Coordination Sequence:
#
# PCOD9161323 Si02
#       8
#     4   4   4   4   4   4   4   4
#     4  10  20  33  52  75 106 140 171 209 257 303
#     4   9  19  35  53  77 109 136 160 201 259 310
#     4   9  20  36  50  70 102 139 176 215 256 296
#     4   9  18  33  54  79 106 134 163 202 254 309
#     4  10  20  33  52  77 104 136 175 215 253 300
#     4  11  21  33  53  77 100 131 176 220 253 298
#     4  10  20  34  54  80 109 136 165 205 253 308
#     4  10  20  35  53  72 101 137 171 214 266 307
#
# _framework density 18.032425
#
# number of rings (size 3 to 8) (size 9 to 14) (size 15 to 20)
#    0.000    2.250    0.000    3.750    0.000    8.000 
#    0.000    6.875    0.000    0.750    0.000    0.000 
#    0.000    0.000    0.000    0.000    0.000    0.000 
#
# Total GULP energy -178316.073188 kJ/mol
# GULP energy per Si atom -5572.377287 kJ/mol
# Density = 1.799138 g / cm^3
# Si number density = 18.032425 Si / 1000 Ang^3
#
#
#
# Elastic Constant Matrix: (Units=GPa)
#
#
# Indices 1 2 3 4 5 6 
#
# 1 67.9554 37.8488 43.2798 0.0000 -11.3923 0.0000
# 2 37.8488 113.5077 53.7294 0.0000 -14.8113 0.0000
# 3 43.2798 53.7294 75.8070 0.0000 -12.2608 0.0000
# 4 0.0000 0.0000 0.0000 10.2473 0.0000 1.9946
# 5 -11.3923 -14.8113 -12.2608 0.0000 24.2362 0.0000
# 6 0.0000 0.0000 0.0000 1.9946 0.0000 10.7552
#
#
#
# Elastic Compliance Matrix: (Units=1/GPa)
#
#
# Indices 1 2 3 4 5 6 
#
# 1 0.023868 -0.001931 -0.011582 0.000000 0.004180 0.000000
# 2 -0.001931 0.013717 -0.008071 0.000000 0.003392 0.000000
# 3 -0.011582 -0.008071 0.025971 0.000000 0.002762 0.000000
# 4 0.000000 0.000000 0.000000 0.101241 0.000000 -0.018776
# 5 0.004180 0.003392 0.002762 0.000000 0.046696 0.000000
# 6 0.000000 0.000000 0.000000 -0.018776 0.000000 0.096461
#
#
# Mechanical properties :
#
#
# Convention : Reuss Voigt Hill
#
# Bulk Modulus (GPa) = 49.04878 58.55404 53.80141
# Shear Modulus (GPa) = 13.96965 17.20853 15.58909
#
# Velocity S-wave (km/s) = 2.78636 3.09254 2.94343
# Velocity P-wave (km/s) = 6.13279 6.73007 6.43836
#
# Compressibility (1/GPa) = 0.02038787
#
# Stress axis : x y z
#
# Youngs Moduli (GPa) = 41.89646 72.90261 38.50411
#
# Poissons Ratio (x) = 0.14076 0.44597
# Poissons Ratio (y) = 0.08089 0.31077
# Poissons Ratio (z) = 0.48526 0.58841
#
# Static dielectric constant tensor:
#      x y z
#    x 1.617960 0.000000 0.014820 
#    y 0.000000 1.680810 0.000000 
#    z 0.014820 0.000000 1.642010 
# 
# From -- ./inp_files/45264.got.cif
#   From: 2010.05.17/outbox.cif.g08.bks.cpg/sg11_23_cif.got.tgz:45264.got - 2010.06.03 12:22:45.
