data_PCOD9161476
_publ_section_title
;
Structure prediction by ZEFSAII (Michael W. Deem and Ramdas Pophale) SiO2 
 PCOD9161476
Probable space group: P 21/M
;
_chemical_formula_sum "Si O2"
_cell_formula_units_Z 28
_cell_length_a 17.039631
_cell_length_b 18.950613
_cell_length_c 8.629258
_cell_angle_alpha 90.000000
_cell_angle_beta 32.515962
_cell_angle_gamma 90.000000
_cell_volume 1497.832618
_symmetry_space_group_name_H-M "P 21/M"
_symmetry_group_IT_number 11
_symmetry_cell_setting 'monoclinic'
loop_
_space_group_symop_operation_xyz
x,y,z
-x,1/2+y,-z
-x,-y,-z
x,1/2-y,z
loop_
_atom_site_type_symbol
_atom_site_label
_atom_site_fract_x
_atom_site_fract_y
_atom_site_fract_z
Si Si1 0.826418 0.170140 0.882941
Si Si2 0.038153 0.559056 0.566364
Si Si3 0.484816 0.996016 0.270252
Si Si4 0.253566 0.473490 0.409303
Si Si5 0.200193 0.328744 0.050303
Si Si6 0.485664 0.617883 0.541702
Si Si7 0.875692 0.670131 0.458271
O O1 0.851196 0.250000 0.786752
O O2 0.857603 0.114685 0.695034
O O3 0.950996 0.157399 0.805363
O O4 0.662900 0.161518 0.213128
O O5 0.120298 0.520797 0.569200
O O6 0.000000 0.500000 0.500000
O O7 0.897532 0.605786 0.845717
O O8 0.480617 0.937475 0.409457
O O9 0.333573 0.999260 0.428786
O O10 0.509145 0.071212 0.311333
O O11 0.619523 0.978636 0.932824
O O12 0.198585 0.392926 0.510972
O O13 0.149401 0.250000 0.089414
O O14 0.366281 0.338764 0.723323
O O15 0.185314 0.333139 0.262779
O O16 0.852036 0.750000 0.439715
#
# Coordination Sequence:
#
# PCOD9161476 Si02
#       7
#     4   4   4   4   4   4   4
#     4  10  20  33  56  84 113 147 186 225 274 331
#     4  11  18  33  60  87 107 143 187 230 268 328
#     4  10  23  33  58  84 113 141 187 234 277 327
#     4  11  19  38  57  85 111 148 186 231 276 330
#     4  10  20  34  57  83 112 149 186 222 274 336
#     4  11  20  38  55  84 111 146 183 234 278 322
#     4   9  18  34  56  82 110 148 189 224 269 340
#
# _framework density 18.693677999999998
#
# number of rings (size 3 to 8) (size 9 to 14) (size 15 to 20)
#    0.000    1.714    5.714    1.714    2.000    0.000 
#    0.000    4.286    0.000    5.143    0.000    0.000 
#    0.000    0.000    0.000    0.000    0.000    0.000 
#
# Total GULP energy -156238.818481 kJ/mol
# GULP energy per Si atom -5579.957803 kJ/mol
# Density = 1.865113 g / cm^3
# Si number density = 18.693678 Si / 1000 Ang^3
#
#
#
# Elastic Constant Matrix: (Units=GPa)
#
#
# Indices 1 2 3 4 5 6 
#
# 1 61.7532 31.3589 6.4943 0.0000 -16.7070 0.0000
# 2 31.3589 112.1230 21.1179 0.0000 -21.3392 0.0000
# 3 6.4943 21.1179 88.6689 0.0000 -33.2460 0.0000
# 4 0.0000 0.0000 0.0000 13.6179 0.0000 -14.1962
# 5 -16.7070 -21.3392 -33.2460 0.0000 22.6679 0.0000
# 6 0.0000 0.0000 0.0000 -14.1962 0.0000 15.2195
#
#
#
# Elastic Compliance Matrix: (Units=1/GPa)
#
#
# Indices 1 2 3 4 5 6 
#
# 1 0.025031 -0.003089 0.010507 0.000000 0.030951 0.000000
# 2 -0.003089 0.011562 0.001555 0.000000 0.010888 0.000000
# 3 0.010507 0.001555 0.030196 0.000000 0.053495 0.000000
# 4 0.000000 0.000000 0.000000 2.658435 0.000000 2.479697
# 5 0.030951 0.010888 0.053495 0.000000 0.155636 0.000000
# 6 0.000000 0.000000 0.000000 2.479697 0.000000 2.378682
#
#
# Mechanical properties :
#
#
# Convention : Reuss Voigt Hill
#
# Bulk Modulus (GPa) = 11.80144 42.27637 27.03891
# Shear Modulus (GPa) = 0.94880 23.87265 12.41072
#
# Velocity S-wave (km/s) = 0.71320 3.57745 2.57942
# Velocity P-wave (km/s) = 2.64669 6.30307 4.83392
#
# Compressibility (1/GPa) = 0.08473540
#
# Stress axis : x y z
#
# Youngs Moduli (GPa) = 39.95071 86.48927 33.11749
#
# Poissons Ratio (x) = 0.26717 -0.34798
# Poissons Ratio (y) = 0.12341 -0.05150
# Poissons Ratio (z) = -0.41978 -0.13450
#
# Static dielectric constant tensor:
#      x y z
#    x 1.632140 0.000000 -0.013130 
#    y 0.000000 1.655440 0.000000 
#    z -0.013130 0.000000 1.661770 
# 
# From -- ./inp_files/25256.got.cif
#   From: 2010.05.17/outbox.cif.g08.bks.cpg/sg11_13_cif.got.tgz:25256.got - 2010.06.03 12:22:45.
