data_PCOD9161326
_publ_section_title
;
Structure prediction by ZEFSAII (Michael W. Deem and Ramdas Pophale) SiO2 
 PCOD9161326
Probable space group: P 21/M
;
_chemical_formula_sum "Si O2"
_cell_formula_units_Z 32
_cell_length_a 15.320120
_cell_length_b 8.848305
_cell_length_c 15.297108
_cell_angle_alpha 90.000000
_cell_angle_beta 78.650659
_cell_angle_gamma 90.000000
_cell_volume 2033.082796
_symmetry_space_group_name_H-M "P 21/M"
_symmetry_group_IT_number 11
_symmetry_cell_setting 'monoclinic'
loop_
_space_group_symop_operation_xyz
x,y,z
-x,1/2+y,-z
-x,-y,-z
x,1/2-y,z
loop_
_atom_site_type_symbol
_atom_site_label
_atom_site_fract_x
_atom_site_fract_y
_atom_site_fract_z
Si Si1 0.932478 0.569926 0.889738
Si Si2 0.247020 0.430052 0.749864
Si Si3 0.788749 0.069492 0.581152
Si Si4 0.387957 0.070670 0.442635
Si Si5 0.930106 0.068599 0.702001
Si Si6 0.121977 0.930920 0.623807
Si Si7 0.868283 0.430043 0.079231
Si Si8 0.410000 0.929513 0.628897
O O1 0.920454 0.750000 0.887194
O O2 0.910327 0.492560 0.802551
O O3 0.036953 0.540981 0.890964
O O4 0.878150 0.501646 0.981548
O O5 0.242022 0.250000 0.750826
O O6 0.185030 0.495676 0.684457
O O7 0.208027 0.496202 0.847198
O O8 0.346202 0.486019 0.708699
O O9 0.773113 0.250000 0.586847
O O10 0.852790 0.028596 0.648633
O O11 0.838895 0.036484 0.479847
O O12 0.694925 0.984732 0.597548
O O13 0.382341 0.250000 0.460123
O O14 0.484816 0.039559 0.382111
O O15 0.385141 0.985263 0.536211
O O16 0.939323 0.250000 0.701686
O O17 0.023174 0.995991 0.653406
O O18 0.120667 0.750000 0.637043
O O19 0.856897 0.250000 0.075737
O O20 0.394867 0.750000 0.637378
#
# Coordination Sequence:
#
# PCOD9161326 Si02
#       8
#     4   4   4   4   4   4   4   4
#     4  10  20  34  52  74 100 133 170 212 256 300
#     4  12  22  32  51  78 104 136 172 207 251 308
#     4  10  22  36  51  71 102 140 177 215 255 298
#     4  10  20  33  52  75  98 132 173 213 256 301
#     4  11  22  35  51  73 101 139 179 214 252 299
#     4  11  21  34  49  70 102 141 177 214 252 292
#     4  10  20  34  53  74 102 134 165 209 259 304
#     4  10  20  34  51  73 103 133 167 211 258 306
#
# _framework density 15.739644
#
# number of rings (size 3 to 8) (size 9 to 14) (size 15 to 20)
#    0.000    1.500    2.500    3.750    0.000    4.000 
#    0.000    0.000    0.000    0.000    0.000    0.875 
#    0.000    0.000    0.000    0.000    0.000    0.000 
#
# Total GULP energy -178767.442648 kJ/mol
# GULP energy per Si atom -5586.482583 kJ/mol
# Density = 1.570382 g / cm^3
# Si number density = 15.739644 Si / 1000 Ang^3
#
#
#
# Elastic Constant Matrix: (Units=GPa)
#
#
# Indices 1 2 3 4 5 6 
#
# 1 96.9583 50.6097 60.1704 0.0000 -9.3555 0.0000
# 2 50.6097 72.3161 53.0344 0.0000 -10.2935 0.0000
# 3 60.1704 53.0344 97.8031 0.0000 -13.0567 0.0000
# 4 0.0000 0.0000 0.0000 26.9368 0.0000 -2.7596
# 5 -9.3555 -10.2935 -13.0567 0.0000 23.5021 0.0000
# 6 0.0000 0.0000 0.0000 -2.7596 0.0000 26.9482
#
#
#
# Elastic Compliance Matrix: (Units=1/GPa)
#
#
# Indices 1 2 3 4 5 6 
#
# 1 0.019041 -0.007861 -0.007452 0.000000 -0.000003 0.000000
# 2 -0.007861 0.026456 -0.009052 0.000000 0.003429 0.000000
# 3 -0.007452 -0.009052 0.020298 0.000000 0.004346 0.000000
# 4 0.000000 0.000000 0.000000 0.037518 0.000000 0.003842
# 5 -0.000003 0.003429 0.004346 0.000000 0.046464 0.000000
# 6 0.000000 0.000000 0.000000 0.003842 0.000000 0.037502
#
#
# Mechanical properties :
#
#
# Convention : Reuss Voigt Hill
#
# Bulk Modulus (GPa) = 58.59992 66.07851 62.33922
# Shear Modulus (GPa) = 20.68694 22.36163 21.52428
#
# Velocity S-wave (km/s) = 3.62929 3.77333 3.70201
# Velocity P-wave (km/s) = 7.40769 7.81392 7.61352
#
# Compressibility (1/GPa) = 0.01706487
#
# Stress axis : x y z
#
# Youngs Moduli (GPa) = 52.51688 37.79826 49.26566
#
# Poissons Ratio (x) = 0.29714 0.36715
# Poissons Ratio (y) = 0.41284 0.44595
# Poissons Ratio (z) = 0.39138 0.34215
#
# Static dielectric constant tensor:
#      x y z
#    x 1.515480 0.000000 -0.010890 
#    y 0.000000 1.522910 0.000000 
#    z -0.010890 0.000000 1.506380 
# 
# From -- ./inp_files/51268.got.cif
#   From: 2010.05.17/outbox.cif.g08.bks.cpg/sg11_26_cif.got.tgz:51268.got - 2010.06.03 12:22:45.
