data_PCOD9161085
_publ_section_title
;
Structure prediction by ZEFSAII (Michael W. Deem and Ramdas Pophale) SiO2 
 PCOD9161085
Probable space group: P 21/M
;
_chemical_formula_sum "Si O2"
_cell_formula_units_Z 28
_cell_length_a 23.542960
_cell_length_b 11.210248
_cell_length_c 11.230317
_cell_angle_alpha 90.000000
_cell_angle_beta 27.353941
_cell_angle_gamma 90.000000
_cell_volume 1361.885279
_symmetry_space_group_name_H-M "P 21/M"
_symmetry_group_IT_number 11
_symmetry_cell_setting 'monoclinic'
loop_
_space_group_symop_operation_xyz
x,y,z
-x,1/2+y,-z
-x,-y,-z
x,1/2-y,z
loop_
_atom_site_type_symbol
_atom_site_label
_atom_site_fract_x
_atom_site_fract_y
_atom_site_fract_z
Si Si1 0.131169 0.390866 0.539293
Si Si2 0.940357 0.374249 0.574148
Si Si3 0.652491 0.889782 0.036729
Si Si4 0.283491 0.961182 0.871243
Si Si5 0.926921 0.933093 0.890715
Si Si6 0.607890 0.113152 0.578387
Si Si7 0.752492 0.611893 0.424052
O O1 0.124637 0.250000 0.549128
O O2 0.200048 0.422173 0.533587
O O3 0.993156 0.441577 0.792934
O O4 0.219574 0.426695 0.264968
O O5 0.998602 0.250000 0.512912
O O6 0.000000 0.500000 0.500000
O O7 0.965780 0.370971 0.385582
O O8 0.804661 0.380277 0.882442
O O9 0.659446 0.750000 0.054436
O O10 0.539817 0.902993 0.154322
O O11 0.633725 0.966425 0.190183
O O12 0.348018 0.895217 0.641871
O O13 0.190193 0.053438 0.978648
O O14 0.871297 0.883587 0.115022
O O15 0.635203 0.250000 0.570040
O O16 0.669047 0.999002 0.531049
O O17 0.701088 0.750000 0.521160
#
# Coordination Sequence:
#
# PCOD9161085 Si02
#       7
#     4   4   4   4   4   4   4
#     4  10  21  38  61  88 119 159 201 244 297 357
#     4  10  20  32  50  78 113 148 185 226 279 342
#     4  10  21  38  61  88 119 159 201 244 297 357
#     4  10  20  35  55  85 118 153 191 236 292 349
#     4  10  20  35  55  85 118 153 191 236 292 349
#     4  10  22  40  63  88 118 155 201 250 299 352
#     4  10  22  40  63  88 118 155 201 250 299 352
#
# _framework density 20.559736000000001
#
# number of rings (size 3 to 8) (size 9 to 14) (size 15 to 20)
#    0.000    2.000    1.429    1.714    0.000    9.714 
#    0.000    2.857    0.000    0.000    0.000    0.000 
#    0.000    0.000    0.000    0.000    0.000    0.000 
#
# Total GULP energy -155891.406570 kJ/mol
# GULP energy per Si atom -5567.550235 kJ/mol
# Density = 2.051294 g / cm^3
# Si number density = 20.559736 Si / 1000 Ang^3
#
#
#
# Elastic Constant Matrix: (Units=GPa)
#
#
# Indices 1 2 3 4 5 6 
#
# 1 74.9211 29.0336 -2.7779 0.0000 3.9770 0.0000
# 2 29.0336 105.2790 3.4601 0.0000 -10.1809 0.0000
# 3 -2.7779 3.4601 33.5301 0.0000 -7.7486 0.0000
# 4 0.0000 0.0000 0.0000 18.8118 0.0000 -8.2485
# 5 3.9770 -10.1809 -7.7486 0.0000 21.7608 0.0000
# 6 0.0000 0.0000 0.0000 -8.2485 0.0000 21.5296
#
#
#
# Elastic Compliance Matrix: (Units=1/GPa)
#
#
# Indices 1 2 3 4 5 6 
#
# 1 0.015470 -0.004754 0.000659 0.000000 -0.004817 0.000000
# 2 -0.004754 0.011409 -0.000149 0.000000 0.006154 0.000000
# 3 0.000659 -0.000149 0.032527 0.000000 0.011392 0.000000
# 4 0.000000 0.000000 0.000000 0.063891 0.000000 0.024478
# 5 -0.004817 0.006154 0.011392 0.000000 0.053770 0.000000
# 6 0.000000 0.000000 0.000000 0.024478 0.000000 0.055826
#
#
# Mechanical properties :
#
#
# Convention : Reuss Voigt Hill
#
# Bulk Modulus (GPa) = 19.63932 30.35132 24.99532
# Shear Modulus (GPa) = 19.35339 24.68806 22.02073
#
# Velocity S-wave (km/s) = 3.07143 3.46901 3.27626
# Velocity P-wave (km/s) = 4.70652 5.55337 5.14739
#
# Compressibility (1/GPa) = 0.05091827
#
# Stress axis : x y z
#
# Youngs Moduli (GPa) = 64.64284 87.64635 30.74416
#
# Poissons Ratio (x) = 0.41664 -0.02026
# Poissons Ratio (y) = 0.30729 0.00459
# Poissons Ratio (z) = -0.04261 0.01307
#
# Static dielectric constant tensor:
#      x y z
#    x 1.753040 0.000000 0.022720 
#    y 0.000000 1.790040 0.000000 
#    z 0.022720 0.000000 1.764090 
# 
# From -- ./inp_files/44119.got.cif
#   From: 2010.05.17/outbox.cif.g08.bks.cpg/sg11_23_cif.got.tgz:44119.got - 2010.06.03 12:22:45.
