data_PCOD9161161
_publ_section_title
;
Structure prediction by ZEFSAII (Michael W. Deem and Ramdas Pophale) SiO2 
 PCOD9161161
Probable space group: P 21/M
;
_chemical_formula_sum "Si O2"
_cell_formula_units_Z 32
_cell_length_a 14.700857
_cell_length_b 8.781861
_cell_length_c 22.811854
_cell_angle_alpha 90.000000
_cell_angle_beta 142.000463
_cell_angle_gamma 90.000000
_cell_volume 1813.123062
_symmetry_space_group_name_H-M "P 21/M"
_symmetry_group_IT_number 11
_symmetry_cell_setting 'monoclinic'
loop_
_space_group_symop_operation_xyz
x,y,z
-x,1/2+y,-z
-x,-y,-z
x,1/2-y,z
loop_
_atom_site_type_symbol
_atom_site_label
_atom_site_fract_x
_atom_site_fract_y
_atom_site_fract_z
Si Si1 0.152800 0.583441 0.084672
Si Si2 0.467494 0.929913 0.826407
Si Si3 0.068810 0.432679 0.810558
Si Si4 0.488972 0.568185 0.589291
Si Si5 0.643582 0.433959 0.107936
Si Si6 0.530200 0.066365 0.732251
Si Si7 0.270818 0.932832 0.372024
Si Si8 0.764952 0.420013 0.008213
O O1 0.129026 0.750000 0.099933
O O2 0.298537 0.509545 0.186499
O O3 0.202496 0.599633 0.042978
O O4 0.000000 0.500000 0.000000
O O5 0.457102 0.750000 0.811273
O O6 0.358305 0.976553 0.823647
O O7 0.464591 0.009648 0.761184
O O8 0.623235 0.972143 0.936159
O O9 0.081277 0.250000 0.815664
O O10 0.204407 0.504243 0.842679
O O11 0.101236 0.499624 0.891299
O O12 0.901186 0.475385 0.709144
O O13 0.495235 0.750000 0.598884
O O14 0.456350 0.492958 0.635513
O O15 0.641323 0.508849 0.637262
O O16 0.362619 0.529669 0.477378
O O17 0.635598 0.250000 0.101095
O O18 0.500000 0.500000 0.000000
O O19 0.534265 0.250000 0.735877
O O20 0.277496 0.750000 0.366983
O O21 0.734662 0.250000 0.017260
#
# Coordination Sequence:
#
# PCOD9161161 Si02
#       8
#     4   4   4   4   4   4   4   4
#     4   9  20  33  45  67 100 138 175 215 260 313
#     4  10  20  35  54  78 106 142 184 222 265 320
#     4  11  22  35  54  79 109 147 183 224 275 325
#     4  10  20  37  61  84 108 143 184 229 279 331
#     4  11  22  35  55  81 112 147 185 227 272 325
#     4  10  21  36  54  78 107 141 179 224 273 326
#     4   9  21  39  57  82 113 143 183 231 277 328
#     4  10  20  33  48  71 105 142 181 222 264 315
#
# _framework density 17.649106
#
# number of rings (size 3 to 8) (size 9 to 14) (size 15 to 20)
#    0.000    2.000    1.250    3.000    1.750    6.000 
#    0.000    0.000    0.000    0.750    0.000    0.000 
#    0.000    0.000    0.000    0.000    0.000    0.000 
#
# Total GULP energy -178242.763309 kJ/mol
# GULP energy per Si atom -5570.086353 kJ/mol
# Density = 1.760894 g / cm^3
# Si number density = 17.649106 Si / 1000 Ang^3
#
#
#
# Elastic Constant Matrix: (Units=GPa)
#
#
# Indices 1 2 3 4 5 6 
#
# 1 59.0142 22.3577 49.6330 0.0000 -6.0217 0.0000
# 2 22.3577 43.4835 29.2769 0.0000 -6.4482 0.0000
# 3 49.6330 29.2769 89.6425 0.0000 -7.3076 0.0000
# 4 0.0000 0.0000 0.0000 22.8211 0.0000 -4.1590
# 5 -6.0217 -6.4482 -7.3076 0.0000 31.4825 0.0000
# 6 0.0000 0.0000 0.0000 -4.1590 0.0000 25.7128
#
#
#
# Elastic Compliance Matrix: (Units=1/GPa)
#
#
# Indices 1 2 3 4 5 6 
#
# 1 0.032929 -0.005807 -0.016226 0.000000 0.001343 0.000000
# 2 -0.005807 0.030975 -0.006599 0.000000 0.003702 0.000000
# 3 -0.016226 -0.006599 0.022354 0.000000 0.000734 0.000000
# 4 0.000000 0.000000 0.000000 0.045150 0.000000 0.007303
# 5 0.001343 0.003702 0.000734 0.000000 0.032949 0.000000
# 6 0.000000 0.000000 0.000000 0.007303 0.000000 0.040072
#
#
# Mechanical properties :
#
#
# Convention : Reuss Voigt Hill
#
# Bulk Modulus (GPa) = 34.49014 43.85281 39.17148
# Shear Modulus (GPa) = 18.42581 22.06145 20.24363
#
# Velocity S-wave (km/s) = 3.23462 3.53938 3.39042
# Velocity P-wave (km/s) = 5.79093 6.45011 6.12939
#
# Compressibility (1/GPa) = 0.02899380
#
# Stress axis : x y z
#
# Youngs Moduli (GPa) = 30.36881 32.28385 44.73386
#
# Poissons Ratio (x) = 0.18747 0.72584
# Poissons Ratio (y) = 0.17635 0.29522
# Poissons Ratio (z) = 0.49276 0.21306
#
# Static dielectric constant tensor:
#      x y z
#    x 1.652710 0.000000 0.013030 
#    y 0.000000 1.631220 0.000000 
#    z 0.013030 0.000000 1.617250 
# 
# From -- ./inp_files/65245.got.cif
#   From: 2010.05.17/outbox.cif.g08.bks.cpg/sg11_33_cif.got.tgz:65245.got - 2010.06.03 12:22:45.
