data_PCOD9161936
_publ_section_title
;
Structure prediction by ZEFSAII (Michael W. Deem and Ramdas Pophale) SiO2 
 PCOD9161936
Probable space group: P 21/M
;
_chemical_formula_sum "Si O2"
_cell_formula_units_Z 32
_cell_length_a 26.267124
_cell_length_b 9.257717
_cell_length_c 25.101876
_cell_angle_alpha 90.000000
_cell_angle_beta 17.129977
_cell_angle_gamma 90.000000
_cell_volume 1797.907766
_symmetry_space_group_name_H-M "P 21/M"
_symmetry_group_IT_number 11
_symmetry_cell_setting 'monoclinic'
loop_
_space_group_symop_operation_xyz
x,y,z
-x,1/2+y,-z
-x,-y,-z
x,1/2-y,z
loop_
_atom_site_type_symbol
_atom_site_label
_atom_site_fract_x
_atom_site_fract_y
_atom_site_fract_z
Si Si1 0.551307 0.076958 0.503556
Si Si2 0.250002 0.924698 0.000298
Si Si3 0.249999 0.423754 0.886681
Si Si4 0.551031 0.926111 0.779814
Si Si5 0.051308 0.576958 0.893829
Si Si6 0.542503 0.587065 0.904773
Si Si7 0.957500 0.912934 0.489775
Si Si8 0.948972 0.573890 0.381874
O O1 0.537811 0.250000 0.509430
O O2 0.417683 0.037169 0.683644
O O3 0.750000 0.042255 0.318176
O O4 0.500000 0.000000 0.500000
O O5 0.250003 0.750000 0.995239
O O6 0.081324 0.967117 0.203419
O O7 0.418679 0.967119 0.866064
O O8 0.249999 0.997421 0.942929
O O9 0.249998 0.250000 0.894148
O O10 0.082318 0.462832 0.019009
O O11 0.552185 0.750000 0.781314
O O12 0.487998 0.974320 0.901667
O O13 0.750002 0.971911 0.571705
O O14 0.037813 0.750000 0.914946
O O15 0.000000 0.500000 0.000000
O O16 0.473887 0.750000 0.978755
O O17 0.750001 0.594807 0.693221
O O18 0.500000 0.500000 0.000000
O O19 0.026118 0.750000 0.426524
O O20 0.012004 0.974323 0.377661
O O21 0.000000 0.000000 0.500000
O O22 0.947816 0.750000 0.385684
#
# Coordination Sequence:
#
# PCOD9161936 Si02
#       8
#     4   4   4   4   4   4   4   4
#     4  10  20  35  57  82 110 144 178 213 259 311
#     4  10  20  34  56  78  96 136 187 218 251 308
#     4  10  22  38  52  78 116 144 169 214 269 310
#     4   8  16  32  51  72 100 131 170 220 264 303
#     4  10  20  35  57  82 110 144 178 213 259 311
#     4   9  18  31  48  73 102 131 166 212 264 317
#     4   9  18  31  48  73 102 131 166 212 264 317
#     4   8  16  32  51  72 100 131 170 220 264 303
#
# _framework density 17.798466000000001
#
# number of rings (size 3 to 8) (size 9 to 14) (size 15 to 20)
#    0.000    2.750    1.250    1.500    1.750    2.500 
#    0.000    1.250    0.000    1.500    0.000    0.000 
#    0.000    0.000    0.000    0.000    0.000    0.000 
#
# Total GULP energy -178371.679923 kJ/mol
# GULP energy per Si atom -5574.114998 kJ/mol
# Density = 1.775796 g / cm^3
# Si number density = 17.798466 Si / 1000 Ang^3
#
#
#
# Elastic Constant Matrix: (Units=GPa)
#
#
# Indices 1 2 3 4 5 6 
#
# 1 204.8120 50.8304 100.5038 0.0000 10.4078 0.0000
# 2 50.8304 19.3845 32.7261 0.0000 5.1015 0.0000
# 3 100.5038 32.7261 135.6146 0.0000 9.0885 0.0000
# 4 0.0000 0.0000 0.0000 18.0332 0.0000 4.6434
# 5 10.4078 5.1015 9.0885 0.0000 34.0550 0.0000
# 6 0.0000 0.0000 0.0000 4.6434 0.0000 34.5133
#
#
#
# Elastic Compliance Matrix: (Units=1/GPa)
#
#
# Indices 1 2 3 4 5 6 
#
# 1 0.014587 -0.034095 -0.002674 0.000000 0.001363 0.000000
# 2 -0.034095 0.168704 -0.014711 0.000000 -0.010926 0.000000
# 3 -0.002674 -0.014711 0.012935 0.000000 -0.000431 0.000000
# 4 0.000000 0.000000 0.000000 0.057443 0.000000 -0.007728
# 5 0.001363 -0.010926 -0.000431 0.000000 0.030699 0.000000
# 6 0.000000 0.000000 0.000000 -0.007728 0.000000 0.030014
#
#
# Mechanical properties :
#
#
# Convention : Reuss Voigt Hill
#
# Bulk Modulus (GPa) = 10.72212 80.88130 45.80171
# Shear Modulus (GPa) = 11.14998 29.03702 20.09350
#
# Velocity S-wave (km/s) = 2.50563 4.04348 3.36362
# Velocity P-wave (km/s) = 3.79581 8.20617 6.39333
#
# Compressibility (1/GPa) = 0.09326518
#
# Stress axis : x y z
#
# Youngs Moduli (GPa) = 68.55287 5.92755 77.31173
#
# Poissons Ratio (x) = 0.20210 0.20675
# Poissons Ratio (y) = 2.33731 1.13734
# Poissons Ratio (z) = 0.18333 0.08720
#
# Static dielectric constant tensor:
#      x y z
#    x 1.593180 0.000000 -0.009080 
#    y 0.000000 1.603600 0.000000 
#    z -0.009080 0.000000 1.625410 
# 
# From -- ./inp_files/66554.got.cif
#   From: 2010.05.17/outbox.cif.g08.bks.cpg/sg11_34_cif.got.tgz:66554.got - 2010.06.03 12:22:45.
