data_PCOD9161008
_publ_section_title
;
Structure prediction by ZEFSAII (Michael W. Deem and Ramdas Pophale) SiO2 
 PCOD9161008
Probable space group: P 21/M
;
_chemical_formula_sum "Si O2"
_cell_formula_units_Z 28
_cell_length_a 16.585553
_cell_length_b 7.580403
_cell_length_c 23.269450
_cell_angle_alpha 90.000000
_cell_angle_beta 158.227790
_cell_angle_gamma 90.000000
_cell_volume 1085.139660
_symmetry_space_group_name_H-M "P 21/M"
_symmetry_group_IT_number 11
_symmetry_cell_setting 'monoclinic'
loop_
_space_group_symop_operation_xyz
x,y,z
-x,1/2+y,-z
-x,-y,-z
x,1/2-y,z
loop_
_atom_site_type_symbol
_atom_site_label
_atom_site_fract_x
_atom_site_fract_y
_atom_site_fract_z
Si Si1 0.124617 0.961086 0.642647
Si Si2 0.126583 0.466627 0.160434
Si Si3 0.618864 0.542641 0.945555
Si Si4 0.756335 0.040938 0.157416
Si Si5 0.402349 0.452398 0.579522
Si Si6 0.736652 0.961600 0.629261
Si Si7 0.333877 0.955024 0.151811
O O1 0.109358 0.750000 0.636855
O O2 0.374195 0.016490 0.798539
O O3 0.094512 0.025186 0.690016
O O4 0.000000 0.000000 0.500000
O O5 0.137334 0.250000 0.165729
O O6 0.349474 0.539859 0.281830
O O7 0.115668 0.522424 0.220653
O O8 0.898259 0.534156 0.984370
O O9 0.609177 0.750000 0.928909
O O10 0.661894 0.456679 0.913345
O O11 0.776823 0.513715 0.104304
O O12 0.779162 0.250000 0.172134
O O13 0.500000 0.000000 0.000000
O O14 0.325457 0.250000 0.535157
O O15 0.265092 0.534269 0.436715
O O16 0.453058 0.531393 0.675736
O O17 0.761502 0.750000 0.640826
O O18 0.500000 0.000000 0.500000
O O19 0.330605 0.750000 0.166350
#
# Coordination Sequence:
#
# PCOD9161008 Si02
#       7
#     4   4   4   4   4   4   4
#     4   9  19  34  55  82 106 129 162 201 243 293
#     4   9  17  29  46  67  91 121 161 205 249 296
#     4  10  21  36  52  74 103 136 172 208 249 298
#     4   9  17  32  54  79 104 131 163 197 235 287
#     4   9  17  29  46  67  91 122 163 204 247 297
#     4   8  14  26  43  62  84 111 146 193 242 291
#     4  10  20  32  46  67  96 130 164 204 252 298
#
# _framework density 25.803128000000001
#
# number of rings (size 3 to 8) (size 9 to 14) (size 15 to 20)
#    0.000    2.857    0.000    2.143    0.000    4.571 
#    0.000    1.429    0.000    3.429    0.000    0.000 
#    0.000    0.000    0.000    0.000    0.000    0.000 
#
# Total GULP energy -156043.426504 kJ/mol
# GULP energy per Si atom -5572.979518 kJ/mol
# Density = 2.574440 g / cm^3
# Si number density = 25.803128 Si / 1000 Ang^3
#
#
#
# Elastic Constant Matrix: (Units=GPa)
#
#
# Indices 1 2 3 4 5 6 
#
# 1 70.8396 4.0352 51.1215 0.0000 -45.3913 0.0000
# 2 4.0352 64.2526 0.4188 0.0000 -0.4949 0.0000
# 3 51.1215 0.4188 198.7006 0.0000 -42.3410 0.0000
# 4 0.0000 0.0000 0.0000 15.2093 0.0000 -8.6143
# 5 -45.3913 -0.4949 -42.3410 0.0000 52.2466 0.0000
# 6 0.0000 0.0000 0.0000 -8.6143 0.0000 12.3937
#
#
#
# Elastic Compliance Matrix: (Units=1/GPa)
#
#
# Indices 1 2 3 4 5 6 
#
# 1 0.033387 -0.001873 -0.002911 0.000000 0.026629 0.000000
# 2 -0.001873 0.015670 0.000162 0.000000 -0.001348 0.000000
# 3 -0.002911 0.000162 0.006337 0.000000 0.002608 0.000000
# 4 0.000000 0.000000 0.000000 0.108437 0.000000 0.075369
# 5 0.026629 -0.001348 0.002608 0.000000 0.044376 0.000000
# 6 0.000000 0.000000 0.000000 0.075369 0.000000 0.133072
#
#
# Mechanical properties :
#
#
# Convention : Reuss Voigt Hill
#
# Bulk Modulus (GPa) = 21.66900 49.43820 35.55360
# Shear Modulus (GPa) = 13.66469 34.51774 24.09121
#
# Velocity S-wave (km/s) = 2.30375 3.66147 3.05889
# Velocity P-wave (km/s) = 3.93604 6.08905 5.12684
#
# Compressibility (1/GPa) = 0.04614888
#
# Stress axis : x y z
#
# Youngs Moduli (GPa) = 29.95175 63.81724 157.80120
#
# Poissons Ratio (x) = 0.11951 0.45943
# Poissons Ratio (y) = 0.05609 -0.02550
# Poissons Ratio (z) = 0.08720 -0.01031
#
# Static dielectric constant tensor:
#      x y z
#    x 2.140750 0.000000 -0.058310 
#    y 0.000000 1.902590 0.000000 
#    z -0.058310 0.000000 2.121080 
# 
# From -- ./inp_files/66014.got.cif
#   From: 2010.05.17/outbox.cif.g08.bks.cpg/sg11_34_cif.got.tgz:66014.got - 2010.06.03 12:22:45.
