data_PCOD9161933
_publ_section_title
;
Structure prediction by ZEFSAII (Michael W. Deem and Ramdas Pophale) SiO2 
 PCOD9161933
Probable space group: P 21/M
;
_chemical_formula_sum "Si O2"
_cell_formula_units_Z 32
_cell_length_a 6.751509
_cell_length_b 23.316457
_cell_length_c 11.998435
_cell_angle_alpha 90.000000
_cell_angle_beta 71.028650
_cell_angle_gamma 90.000000
_cell_volume 1786.211137
_symmetry_space_group_name_H-M "P 21/M"
_symmetry_group_IT_number 11
_symmetry_cell_setting 'monoclinic'
loop_
_space_group_symop_operation_xyz
x,y,z
-x,1/2+y,-z
-x,-y,-z
x,1/2-y,z
loop_
_atom_site_type_symbol
_atom_site_label
_atom_site_fract_x
_atom_site_fract_y
_atom_site_fract_z
Si Si1 0.881954 0.532906 0.309366
Si Si2 0.291073 0.461779 0.904299
Si Si3 0.958873 0.683629 0.564532
Si Si4 0.829423 0.098880 0.307419
Si Si5 0.386788 0.115935 0.506746
Si Si6 0.286478 0.896929 0.158197
Si Si7 0.866372 0.410114 0.045257
Si Si8 0.616454 0.316532 0.657816
O O1 0.746510 0.539956 0.221487
O O2 0.919984 0.465041 0.311836
O O3 0.750490 0.560857 0.433124
O O4 0.093954 0.568487 0.249730
O O5 0.519518 0.440049 0.889747
O O6 0.236959 0.526589 0.948257
O O7 0.114637 0.421372 0.990967
O O8 0.925209 0.750000 0.599915
O O9 0.758095 0.656850 0.541107
O O10 0.028837 0.645441 0.656385
O O11 0.156372 0.680863 0.443670
O O12 0.598055 0.099912 0.403186
O O13 0.815236 0.110696 0.178117
O O14 0.458316 0.149295 0.605785
O O15 0.359726 0.847144 0.227912
O O16 0.211295 0.876748 0.049714
O O17 0.555178 0.250000 0.677927
#
# Coordination Sequence:
#
# PCOD9161933 Si02
#       8
#     4   4   4   4   4   4   4   4
#     4  10  20  34  55  91 119 142 183 232 295 339
#     4   9  18  34  56  80 118 149 187 227 274 338
#     4  10  22  40  59  79 109 153 197 231 277 339
#     4  10  23  37  55  85 120 149 186 230 279 341
#     4  11  20  37  58  84 113 152 182 233 286 341
#     4  11  19  34  61  83 115 151 186 238 284 337
#     4   9  20  35  53  84 113 154 188 221 276 343
#     4  10  21  37  57  85 113 144 192 241 283 333
#
# _framework density 17.915015
#
# number of rings (size 3 to 8) (size 9 to 14) (size 15 to 20)
#    0.000    2.000    2.500    1.875    0.000    4.000 
#    0.000    0.625    0.000    2.250    0.000    0.000 
#    0.000    0.000    0.000    0.000    0.000    0.000 
#
# Total GULP energy -178574.835839 kJ/mol
# GULP energy per Si atom -5580.463620 kJ/mol
# Density = 1.787424 g / cm^3
# Si number density = 17.915015 Si / 1000 Ang^3
#
#
#
# Elastic Constant Matrix: (Units=GPa)
#
#
# Indices 1 2 3 4 5 6 
#
# 1 68.6138 15.5366 32.6523 0.0000 12.5958 0.0000
# 2 15.5366 64.9628 36.3124 0.0000 13.6008 0.0000
# 3 32.6523 36.3124 100.3163 0.0000 20.4258 0.0000
# 4 0.0000 0.0000 0.0000 11.6043 0.0000 5.2593
# 5 12.5958 13.6008 20.4258 0.0000 16.4577 0.0000
# 6 0.0000 0.0000 0.0000 5.2593 0.0000 22.0138
#
#
#
# Elastic Compliance Matrix: (Units=1/GPa)
#
#
# Indices 1 2 3 4 5 6 
#
# 1 0.018149 -0.000267 -0.004051 0.000000 -0.008642 0.000000
# 2 -0.000267 0.020544 -0.005265 0.000000 -0.010239 0.000000
# 3 -0.004051 -0.005265 0.015624 0.000000 -0.011940 0.000000
# 4 0.000000 0.000000 0.000000 0.096639 0.000000 -0.023088
# 5 -0.008642 -0.010239 -0.011940 0.000000 0.090656 0.000000
# 6 0.000000 0.000000 0.000000 -0.023088 0.000000 0.050942
#
#
# Mechanical properties :
#
#
# Convention : Reuss Voigt Hill
#
# Bulk Modulus (GPa) = 28.44842 44.76618 36.60730
# Shear Modulus (GPa) = 15.45899 19.97460 17.71680
#
# Velocity S-wave (km/s) = 2.94071 3.34273 3.14815
# Velocity P-wave (km/s) = 5.23875 6.31987 5.80454
#
# Compressibility (1/GPa) = 0.03515134
#
# Stress axis : x y z
#
# Youngs Moduli (GPa) = 55.09923 48.67646 64.00440
#
# Poissons Ratio (x) = 0.01298 0.25930
# Poissons Ratio (y) = 0.01470 0.33697
# Poissons Ratio (z) = 0.22322 0.25627
#
# Static dielectric constant tensor:
#      x y z
#    x 1.596300 0.000000 0.002370 
#    y 0.000000 1.600000 0.000000 
#    z 0.002370 0.000000 1.623010 
# 
# From -- ./inp_files/5359.got.cif
#   From: 2010.05.17/outbox.cif.g08.bks.cpg/sg11_3_cif.got.tgz:5359.got - 2010.06.03 12:22:45.
