data_PCOD9161674
_publ_section_title
;
Structure prediction by ZEFSAII (Michael W. Deem and Ramdas Pophale) SiO2 
 PCOD9161674
Probable space group: P 21/M
;
_chemical_formula_sum "Si O2"
_cell_formula_units_Z 24
_cell_length_a 7.244562
_cell_length_b 11.476341
_cell_length_c 20.448129
_cell_angle_alpha 90.000000
_cell_angle_beta 35.041547
_cell_angle_gamma 90.000000
_cell_volume 976.134948
_symmetry_space_group_name_H-M "P 21/M"
_symmetry_group_IT_number 11
_symmetry_cell_setting 'monoclinic'
loop_
_space_group_symop_operation_xyz
x,y,z
-x,1/2+y,-z
-x,-y,-z
x,1/2-y,z
loop_
_atom_site_type_symbol
_atom_site_label
_atom_site_fract_x
_atom_site_fract_y
_atom_site_fract_z
Si Si1 0.274847 0.121710 0.015915
Si Si2 0.313071 0.621009 0.691043
Si Si3 0.991542 0.126392 0.749363
Si Si4 0.371209 0.618612 0.949854
Si Si5 0.806634 0.939794 0.445459
Si Si6 0.346545 0.378691 0.277053
O O1 0.134086 0.250000 0.040624
O O2 0.623768 0.122857 0.878719
O O3 0.150249 0.993863 0.030014
O O4 0.370793 0.119091 0.065022
O O5 0.172539 0.750000 0.714028
O O6 0.151033 0.496751 0.722350
O O7 0.652826 0.618048 0.553520
O O8 0.371352 0.619823 0.751563
O O9 0.128213 0.250000 0.736906
O O10 0.033877 0.132062 0.659212
O O11 0.227119 0.750000 0.993154
O O12 0.530027 0.601908 0.832496
O O13 0.500000 0.000000 0.500000
O O14 0.077989 0.034160 0.380204
O O15 0.201147 0.250000 0.319788
#
# Coordination Sequence:
#
# PCOD9161674 Si02
#       6
#     4   4   4   4   4   4
#     4   9  17  31  52  80 109 135 172 218 263 310
#     4  10  22  37  54  78 108 143 182 220 261 314
#     4  10  20  35  54  79 109 141 177 220 266 312
#     4   9  17  31  54  80 105 137 173 215 264 313
#     4  10  20  34  53  78 102 136 175 220 264 310
#     4  10  20  36  56  80 109 141 177 218 266 319
#
# _framework density 24.586762
#
# number of rings (size 3 to 8) (size 9 to 14) (size 15 to 20)
#    0.000    2.333    1.667    1.000    0.000    6.000 
#    0.000    3.333    0.000    0.000    0.000    0.000 
#    0.000    0.000    0.000    0.000    0.000    0.000 
#
# Total GULP energy -133937.240909 kJ/mol
# GULP energy per Si atom -5580.718371 kJ/mol
# Density = 2.453080 g / cm^3
# Si number density = 24.586762 Si / 1000 Ang^3
#
#
#
# Elastic Constant Matrix: (Units=GPa)
#
#
# Indices 1 2 3 4 5 6 
#
# 1 65.4973 37.6331 1.7384 0.0000 23.0382 0.0000
# 2 37.6331 279.8010 61.9229 0.0000 -1.5150 0.0000
# 3 1.7384 61.9229 154.1501 0.0000 27.4238 0.0000
# 4 0.0000 0.0000 0.0000 24.5736 0.0000 -9.9366
# 5 23.0382 -1.5150 27.4238 0.0000 35.1086 0.0000
# 6 0.0000 0.0000 0.0000 -9.9366 0.0000 19.6177
#
#
#
# Elastic Compliance Matrix: (Units=1/GPa)
#
#
# Indices 1 2 3 4 5 6 
#
# 1 0.025136 -0.004666 0.005297 0.000000 -0.020833 0.000000
# 2 -0.004666 0.004870 -0.002887 0.000000 0.005527 0.000000
# 3 0.005297 -0.002887 0.009556 0.000000 -0.011065 0.000000
# 4 0.000000 0.000000 0.000000 0.051175 0.000000 0.025921
# 5 -0.020833 0.005527 -0.011065 0.000000 0.051035 0.000000
# 6 0.000000 0.000000 0.000000 0.025921 0.000000 0.064104
#
#
# Mechanical properties :
#
#
# Convention : Reuss Voigt Hill
#
# Bulk Modulus (GPa) = 28.53036 78.00412 53.26724
# Shear Modulus (GPa) = 22.51527 42.40357 32.45942
#
# Velocity S-wave (km/s) = 3.02942 4.15740 3.63740
# Velocity P-wave (km/s) = 4.88525 7.40542 6.27319
#
# Compressibility (1/GPa) = 0.03505038
#
# Stress axis : x y z
#
# Youngs Moduli (GPa) = 39.78342 205.32141 104.65007
#
# Poissons Ratio (x) = 0.95801 -0.55435
# Poissons Ratio (y) = 0.18563 0.30214
# Poissons Ratio (z) = -0.21074 0.59279
#
# Static dielectric constant tensor:
#      x y z
#    x 1.883820 0.000000 0.101600 
#    y 0.000000 2.030180 0.000000 
#    z 0.101600 0.000000 1.797380 
# 
# From -- ./inp_files/20852.got.cif
#   From: 2010.05.17/outbox.cif.g08.bks.cpg/sg11_11_cif.got.tgz:20852.got - 2010.06.03 12:22:45.
