data_PCOD9161501
_publ_section_title
;
Structure prediction by ZEFSAII (Michael W. Deem and Ramdas Pophale) SiO2 
 PCOD9161501
Probable space group: P 21/M
;
_chemical_formula_sum "Si O2"
_cell_formula_units_Z 28
_cell_length_a 11.799253
_cell_length_b 18.001238
_cell_length_c 20.811783
_cell_angle_alpha 90.000000
_cell_angle_beta 21.641780
_cell_angle_gamma 90.000000
_cell_volume 1630.271624
_symmetry_space_group_name_H-M "P 21/M"
_symmetry_group_IT_number 11
_symmetry_cell_setting 'monoclinic'
loop_
_space_group_symop_operation_xyz
x,y,z
-x,1/2+y,-z
-x,-y,-z
x,1/2-y,z
loop_
_atom_site_type_symbol
_atom_site_label
_atom_site_fract_x
_atom_site_fract_y
_atom_site_fract_z
Si Si1 0.132349 0.444052 0.877352
Si Si2 0.093339 0.932553 0.720657
Si Si3 0.334224 0.837256 0.371698
Si Si4 0.847541 0.662443 0.744179
Si Si5 0.624272 0.463570 0.046843
Si Si6 0.903037 0.057886 0.607310
Si Si7 0.604704 0.961114 0.545005
O O1 0.334135 0.376395 0.796872
O O2 0.378270 0.489174 0.706374
O O3 0.000000 0.500000 0.000000
O O4 0.851413 0.425803 0.978712
O O5 0.369274 0.914323 0.624870
O O6 0.979591 0.859355 0.744288
O O7 0.219329 0.986304 0.597951
O O8 0.831408 0.983011 0.892604
O O9 0.371584 0.750000 0.349850
O O10 0.182174 0.869074 0.387310
O O11 0.105105 0.853567 0.552974
O O12 0.767982 0.750000 0.781524
O O13 0.571265 0.603391 0.880695
O O14 0.387114 0.518848 0.206517
O O15 0.156291 0.071248 0.529224
O O16 0.000000 0.000000 0.500000
#
# Coordination Sequence:
#
# PCOD9161501 Si02
#       7
#     4   4   4   4   4   4   4
#     4  11  19  34  59  88 110 148 191 241 284 343
#     4  10  20  37  56  87 112 146 195 240 275 340
#     4  11  23  38  58  86 121 153 187 242 303 345
#     4  11  22  39  59  85 118 154 187 239 300 339
#     4  11  21  32  63  88 108 147 203 239 277 338
#     4  12  18  36  60  87 113 148 196 240 284 343
#     4  10  20  33  60  85 109 144 197 233 277 331
#
# _framework density 17.175052000000001
#
# number of rings (size 3 to 8) (size 9 to 14) (size 15 to 20)
#    0.000    1.143    7.143    0.429    0.000    0.571 
#    0.000    1.429    0.000    0.000    0.000    0.000 
#    0.000    0.000    0.000    0.000    0.000    0.000 
#
# Total GULP energy -156032.995658 kJ/mol
# GULP energy per Si atom -5572.606988 kJ/mol
# Density = 1.713596 g / cm^3
# Si number density = 17.175052 Si / 1000 Ang^3
#
#
#
# Elastic Constant Matrix: (Units=GPa)
#
#
# Indices 1 2 3 4 5 6 
#
# 1 143.2085 49.3454 49.4262 0.0000 -23.3466 0.0000
# 2 49.3454 64.0917 34.4805 0.0000 -6.4264 0.0000
# 3 49.4262 34.4805 105.2618 0.0000 4.4826 0.0000
# 4 0.0000 0.0000 0.0000 18.6460 0.0000 -0.2651
# 5 -23.3466 -6.4264 4.4826 0.0000 38.3369 0.0000
# 6 0.0000 0.0000 0.0000 -0.2651 0.0000 25.8546
#
#
#
# Elastic Compliance Matrix: (Units=1/GPa)
#
#
# Indices 1 2 3 4 5 6 
#
# 1 0.011387 -0.006207 -0.003583 0.000000 0.006313 0.000000
# 2 -0.006207 0.022928 -0.004622 0.000000 0.000604 0.000000
# 3 -0.003583 -0.004622 0.012886 0.000000 -0.004463 0.000000
# 4 0.000000 0.000000 0.000000 0.053639 0.000000 0.000550
# 5 0.006313 0.000604 -0.004463 0.000000 0.030552 0.000000
# 6 0.000000 0.000000 0.000000 0.000550 0.000000 0.038683
#
#
# Mechanical properties :
#
#
# Convention : Reuss Voigt Hill
#
# Bulk Modulus (GPa) = 54.40876 64.34070 59.37473
# Shear Modulus (GPa) = 24.38721 28.52149 26.45435
#
# Velocity S-wave (km/s) = 3.77227 4.07951 3.92889
# Velocity P-wave (km/s) = 7.12187 7.72871 7.43149
#
# Compressibility (1/GPa) = 0.01837939
#
# Stress axis : x y z
#
# Youngs Moduli (GPa) = 87.81802 43.61386 77.60112
#
# Poissons Ratio (x) = 0.27070 0.27801
# Poissons Ratio (y) = 0.54507 0.35867
# Poissons Ratio (z) = 0.31462 0.20158
#
# Static dielectric constant tensor:
#      x y z
#    x 1.510660 0.000000 -0.119570 
#    y 0.000000 1.576030 0.000000 
#    z -0.119570 0.000000 1.545380 
# 
# From -- ./inp_files/64885.got.cif
#   From: 2010.05.17/outbox.cif.g08.bks.cpg/sg11_33_cif.got.tgz:64885.got - 2010.06.03 12:22:45.
