data_PCOD9161716
_publ_section_title
;
Structure prediction by ZEFSAII (Michael W. Deem and Ramdas Pophale) SiO2 
 PCOD9161716
Probable space group: P 21/M
;
_chemical_formula_sum "Si O2"
_cell_formula_units_Z 32
_cell_length_a 7.140239
_cell_length_b 16.823944
_cell_length_c 14.062177
_cell_angle_alpha 90.000000
_cell_angle_beta 95.543050
_cell_angle_gamma 90.000000
_cell_volume 1681.347787
_symmetry_space_group_name_H-M "P 21/M"
_symmetry_group_IT_number 11
_symmetry_cell_setting 'monoclinic'
loop_
_space_group_symop_operation_xyz
x,y,z
-x,1/2+y,-z
-x,-y,-z
x,1/2-y,z
loop_
_atom_site_type_symbol
_atom_site_label
_atom_site_fract_x
_atom_site_fract_y
_atom_site_fract_z
Si Si1 0.435968 0.553400 0.378863
Si Si2 0.944319 0.656759 0.871377
Si Si3 0.445350 0.453383 0.902909
Si Si4 0.086745 0.343556 0.911047
Si Si5 0.198917 0.529390 0.549651
Si Si6 0.219269 0.659808 0.711780
Si Si7 0.416531 0.420691 0.236587
Si Si8 0.301656 0.842917 0.198911
O O1 0.323856 0.566719 0.470507
O O2 0.659262 0.540105 0.406133
O O3 0.368276 0.469169 0.329662
O O4 0.381912 0.619039 0.298946
O O5 0.892969 0.750000 0.860395
O O6 0.767330 0.604717 0.829316
O O7 0.114135 0.643083 0.806414
O O8 0.986354 0.642999 0.984440
O O9 0.251199 0.406262 0.901609
O O10 0.460596 0.517156 0.819055
O O11 0.598183 0.387234 0.883090
O O12 0.500000 0.500000 0.000000
O O13 0.146697 0.250000 0.908680
O O14 0.920078 0.355499 0.827586
O O15 0.167962 0.593858 0.631062
O O16 0.000000 0.500000 0.500000
O O17 0.170133 0.750000 0.680966
O O18 0.443539 0.651274 0.736137
O O19 0.339897 0.750000 0.197347
#
# Coordination Sequence:
#
# PCOD9161716 Si02
#       8
#     4   4   4   4   4   4   4   4
#     4   9  21  38  59  88 111 145 191 232 297 358
#     4  10  20  34  53  80 115 154 194 234 283 339
#     4  11  22  36  55  84 113 154 204 244 285 339
#     4  10  22  38  57  83 118 161 203 243 287 341
#     4  10  20  39  64  85 115 147 183 242 300 354
#     4  10  22  37  57  85 113 147 191 236 290 351
#     4  10  20  36  56  81 116 149 187 241 289 337
#     4  10  23  41  59  83 121 160 198 245 292 349
#
# _framework density 19.032350999999998
#
# number of rings (size 3 to 8) (size 9 to 14) (size 15 to 20)
#    0.000    2.000    1.250    1.500    1.750    6.000 
#    0.000    0.625    0.000    0.000    0.000    0.000 
#    0.000    0.000    0.000    0.000    0.000    0.000 
#
# Total GULP energy -178534.628082 kJ/mol
# GULP energy per Si atom -5579.207128 kJ/mol
# Density = 1.898903 g / cm^3
# Si number density = 19.032351 Si / 1000 Ang^3
#
#
#
# Elastic Constant Matrix: (Units=GPa)
#
#
# Indices 1 2 3 4 5 6 
#
# 1 65.4620 45.7852 11.5329 0.0000 13.5073 0.0000
# 2 45.7852 76.8559 19.2264 0.0000 2.5098 0.0000
# 3 11.5329 19.2264 52.7041 0.0000 3.0037 0.0000
# 4 0.0000 0.0000 0.0000 10.9658 0.0000 -34.8658
# 5 13.5073 2.5098 3.0037 0.0000 36.6247 0.0000
# 6 0.0000 0.0000 0.0000 -34.8658 0.0000 -21.7963
#
#
#
# Elastic Compliance Matrix: (Units=1/GPa)
#
#
# Indices 1 2 3 4 5 6 
#
# 1 0.029216 -0.017198 0.000429 0.000000 -0.009632 0.000000
# 2 -0.017198 0.024453 -0.005448 0.000000 0.005114 0.000000
# 3 0.000429 -0.005448 0.020953 0.000000 -0.001503 0.000000
# 4 0.000000 0.000000 0.000000 0.014984 0.000000 -0.023969
# 5 -0.009632 0.005114 -0.001503 0.000000 0.030629 0.000000
# 6 0.000000 0.000000 0.000000 -0.023969 0.000000 -0.007538
#
#
# Mechanical properties :
#
#
# Convention : Reuss Voigt Hill
#
# Bulk Modulus (GPa) = 33.12532 38.67900 35.90216
# Shear Modulus (GPa) = 29.90562 13.05733 21.48148
#
# Velocity S-wave (km/s) = 3.96827 2.62212 3.36323
# Velocity P-wave (km/s) = 6.19990 5.43454 5.82979
#
# Compressibility (1/GPa) = 0.03018838
#
# Stress axis : x y z
#
# Youngs Moduli (GPa) = 34.22766 40.89555 47.72557
#
# Poissons Ratio (x) = 0.70331 -0.02050
# Poissons Ratio (y) = 0.58864 0.26003
# Poissons Ratio (z) = -0.01470 0.22282
#
# Static dielectric constant tensor:
#      x y z
#    x 1.663570 0.000000 -0.000040 
#    y 0.000000 1.556120 0.000000 
#    z -0.000040 0.000000 1.726670 
# 
# From -- ./inp_files/46040.got.cif
#   From: 2010.05.17/outbox.cif.g08.bks.cpg/sg11_24_cif.got.tgz:46040.got - 2010.06.03 12:22:45.
