data_PCOD9161920
_publ_section_title
;
Structure prediction by ZEFSAII (Michael W. Deem and Ramdas Pophale) SiO2 
 PCOD9161920
Probable space group: P 21/M
;
_chemical_formula_sum "Si O2"
_cell_formula_units_Z 32
_cell_length_a 24.664522
_cell_length_b 7.754367
_cell_length_c 11.244248
_cell_angle_alpha 90.000000
_cell_angle_beta 143.072172
_cell_angle_gamma 90.000000
_cell_volume 1292.068615
_symmetry_space_group_name_H-M "P 21/M"
_symmetry_group_IT_number 11
_symmetry_cell_setting 'monoclinic'
loop_
_space_group_symop_operation_xyz
x,y,z
-x,1/2+y,-z
-x,-y,-z
x,1/2-y,z
loop_
_atom_site_type_symbol
_atom_site_label
_atom_site_fract_x
_atom_site_fract_y
_atom_site_fract_z
Si Si1 0.027656 0.053283 0.358760
Si Si2 0.710100 0.543400 0.808386
Si Si3 0.133306 0.050650 0.072750
Si Si4 0.804947 0.961545 0.215775
Si Si5 0.368186 0.042562 0.956966
Si Si6 0.545255 0.042302 0.381923
Si Si7 0.856103 0.049831 0.657784
Si Si8 0.347675 0.544174 0.661947
O O1 0.004218 0.250000 0.345727
O O2 0.094133 0.979724 0.576512
O O3 0.090052 0.048147 0.349395
O O4 0.937161 0.959868 0.159302
O O5 0.719277 0.750000 0.825701
O O6 0.772041 0.476541 0.808661
O O7 0.605828 0.506071 0.600833
O O8 0.757861 0.481392 0.011744
O O9 0.143619 0.250000 0.122641
O O10 0.101151 0.958475 0.135532
O O11 0.809174 0.750000 0.223961
O O12 0.732317 0.018006 0.187739
O O13 0.365984 0.250000 0.959267
O O14 0.442891 0.982033 0.182777
O O15 0.394504 0.993320 0.869868
O O16 0.542965 0.250000 0.375154
O O17 0.599656 0.977027 0.360424
O O18 0.853143 0.250000 0.615792
O O19 0.754859 0.979921 0.501780
O O20 0.341909 0.750000 0.637512
#
# Coordination Sequence:
#
# PCOD9161920 Si02
#       8
#     4   4   4   4   4   4   4   4
#     4  11  22  38  61  85 114 150 186 230 282 339
#     4  10  22  40  60  80 110 151 193 235 278 332
#     4  11  23  38  58  85 114 147 189 233 280 337
#     4   9  20  39  59  82 111 148 191 233 280 331
#     4  10  20  36  60  85 115 151 188 228 277 339
#     4  10  21  37  57  86 118 149 185 232 283 330
#     4  11  21  36  59  85 117 150 183 230 281 335
#     4  10  20  34  55  84 119 148 181 231 282 330
#
# _framework density 24.766487999999999
#
# number of rings (size 3 to 8) (size 9 to 14) (size 15 to 20)
#    0.000    1.750    2.500    1.875    0.000    3.000 
#    0.000    1.875    0.000    0.000    0.000    0.000 
#    0.000    0.000    0.000    0.000    0.000    0.000 
#
# Total GULP energy -178944.076265 kJ/mol
# GULP energy per Si atom -5592.002383 kJ/mol
# Density = 2.471012 g / cm^3
# Si number density = 24.766488 Si / 1000 Ang^3
#
#
#
# Elastic Constant Matrix: (Units=GPa)
#
#
# Indices 1 2 3 4 5 6 
#
# 1 29.1856 -1.5339 4.1160 0.0000 -1.9821 0.0000
# 2 -1.5339 50.0152 -2.0337 0.0000 3.3084 0.0000
# 3 4.1160 -2.0337 162.9956 0.0000 -1.2985 0.0000
# 4 0.0000 0.0000 0.0000 28.5881 0.0000 -2.2668
# 5 -1.9821 3.3084 -1.2985 0.0000 42.1312 0.0000
# 6 0.0000 0.0000 0.0000 -2.2668 0.0000 7.5340
#
#
#
# Elastic Compliance Matrix: (Units=1/GPa)
#
#
# Indices 1 2 3 4 5 6 
#
# 1 0.034535 0.000924 -0.000848 0.000000 0.001526 0.000000
# 2 0.000924 0.020132 0.000216 0.000000 -0.001531 0.000000
# 3 -0.000848 0.000216 0.006160 0.000000 0.000133 0.000000
# 4 0.000000 0.000000 0.000000 0.035834 0.000000 0.010782
# 5 0.001526 -0.001531 0.000133 0.000000 0.023931 0.000000
# 6 0.000000 0.000000 0.000000 0.010782 0.000000 0.135975
#
#
# Mechanical properties :
#
#
# Convention : Reuss Voigt Hill
#
# Bulk Modulus (GPa) = 16.28404 27.03258 21.65831
# Shear Modulus (GPa) = 18.08599 31.76054 24.92326
#
# Velocity S-wave (km/s) = 2.70526 3.58495 3.17571
# Velocity P-wave (km/s) = 4.04317 5.29853 4.71284
#
# Compressibility (1/GPa) = 0.06140982
#
# Stress axis : x y z
#
# Youngs Moduli (GPa) = 28.95591 49.67150 162.32947
#
# Poissons Ratio (x) = -0.04588 0.13772
# Poissons Ratio (y) = -0.02675 -0.03501
# Poissons Ratio (z) = 0.02457 -0.01071
#
# Static dielectric constant tensor:
#      x y z
#    x 1.976520 0.000000 -0.011120 
#    y 0.000000 1.877320 0.000000 
#    z -0.011120 0.000000 2.017090 
# 
# From -- ./inp_files/38183.got.cif
#   From: 2010.05.17/outbox.cif.g08.bks.cpg/sg11_20_cif.got.tgz:38183.got - 2010.06.03 12:22:45.
