data_PCOD9161487
_publ_section_title
;
Structure prediction by ZEFSAII (Michael W. Deem and Ramdas Pophale) SiO2 
 PCOD9161487
Probable space group: P 21/M
;
_chemical_formula_sum "Si O2"
_cell_formula_units_Z 26
_cell_length_a 19.414137
_cell_length_b 8.743328
_cell_length_c 9.131959
_cell_angle_alpha 90.000000
_cell_angle_beta 121.172984
_cell_angle_gamma 90.000000
_cell_volume 1326.275863
_symmetry_space_group_name_H-M "P 21/M"
_symmetry_group_IT_number 11
_symmetry_cell_setting 'monoclinic'
loop_
_space_group_symop_operation_xyz
x,y,z
-x,1/2+y,-z
-x,-y,-z
x,1/2-y,z
loop_
_atom_site_type_symbol
_atom_site_label
_atom_site_fract_x
_atom_site_fract_y
_atom_site_fract_z
Si Si1 0.707930 0.429241 0.134890
Si Si2 0.444922 0.750000 0.707883
Si Si3 0.194378 0.077081 0.515609
Si Si4 0.781198 0.083156 0.893310
Si Si5 0.657552 0.504904 0.516015
Si Si6 0.618541 0.750000 0.988933
Si Si7 0.084897 0.429764 0.134737
Si Si8 0.573376 0.750000 0.612675
O O1 0.677314 0.250000 0.118068
O O2 0.778808 0.461982 0.328707
O O3 0.744861 0.438383 0.013036
O O4 0.652879 0.586261 0.083903
O O5 0.389063 0.897000 0.647891
O O6 0.521233 0.750000 0.898129
O O7 0.485830 0.750000 0.589448
O O8 0.176640 0.250000 0.550091
O O9 0.123792 0.017073 0.332073
O O10 0.273138 0.088625 0.498183
O O11 0.820542 0.250000 0.928596
O O12 0.707823 0.079564 0.697476
O O13 0.847886 0.964707 0.914005
O O14 0.594294 0.608353 0.533014
O O15 0.628600 0.750000 0.821054
O O16 0.075906 0.250000 0.139724
O O17 0.000000 0.500000 0.000000
#
# Coordination Sequence:
#
# PCOD9161487 Si02
#       8
#     4   2   4   4   4   2   4   2
#     4  11  23  39  63  88 116 164 211 241 294 360
#     4  10  22  34  56  88 117 155 193 261 317 345
#     4  10  22  38  63  85 119 161 197 241 298 357
#     4  10  20  35  60  87 116 155 202 246 285 356
#     4  11  19  36  57  87 112 152 204 246 301 364
#     4  10  22  39  59  84 128 148 200 265 305 347
#     4  10  22  38  63  95 125 154 189 241 299 349
#     4  10  20  33  57  84 117 149 199 250 318 344
#
# _framework density 19.603766
#
# number of rings (size 3 to 8) (size 9 to 14) (size 15 to 20)
#    0.462    1.231    3.846    0.923    3.231    1.231 
#    1.385    1.538    0.000    0.000    0.000    0.000 
#    0.000    0.000    0.000    0.000    0.000    0.000 
#
# Total GULP energy -144804.178378 kJ/mol
# GULP energy per Si atom -5569.391476 kJ/mol
# Density = 1.955915 g / cm^3
# Si number density = 19.603766 Si / 1000 Ang^3
#
#
#
# Elastic Constant Matrix: (Units=GPa)
#
#
# Indices 1 2 3 4 5 6 
#
# 1 32.9734 18.0932 26.1062 0.0000 15.0500 0.0000
# 2 18.0932 107.3674 56.9365 0.0000 14.2907 0.0000
# 3 26.1062 56.9365 118.0395 0.0000 15.3696 0.0000
# 4 0.0000 0.0000 0.0000 24.5259 0.0000 -0.8126
# 5 15.0500 14.2907 15.3696 0.0000 34.9948 0.0000
# 6 0.0000 0.0000 0.0000 -0.8126 0.0000 24.4918
#
#
#
# Elastic Compliance Matrix: (Units=1/GPa)
#
#
# Indices 1 2 3 4 5 6 
#
# 1 0.043544 -0.001705 -0.006852 0.000000 -0.015021 0.000000
# 2 -0.001705 0.012810 -0.005533 0.000000 -0.002068 0.000000
# 3 -0.006852 -0.005533 0.012705 0.000000 -0.000374 0.000000
# 4 0.000000 0.000000 0.000000 0.040818 0.000000 0.001354
# 5 -0.015021 -0.002068 -0.000374 0.000000 0.036044 0.000000
# 6 0.000000 0.000000 0.000000 0.001354 0.000000 0.040875
#
#
# Mechanical properties :
#
#
# Convention : Reuss Voigt Hill
#
# Bulk Modulus (GPa) = 24.46218 51.18355 37.82287
# Shear Modulus (GPa) = 21.87201 27.28547 24.57874
#
# Velocity S-wave (km/s) = 3.34384 3.73480 3.54471
# Velocity P-wave (km/s) = 5.23581 6.69059 6.00740
#
# Compressibility (1/GPa) = 0.04087942
#
# Stress axis : x y z
#
# Youngs Moduli (GPa) = 22.96518 78.06163 78.71184
#
# Poissons Ratio (x) = 0.13309 0.53935
# Poissons Ratio (y) = 0.03915 0.43549
# Poissons Ratio (z) = 0.15736 0.43190
#
# Static dielectric constant tensor:
#      x y z
#    x 1.656240 0.000000 -0.005020 
#    y 0.000000 1.557730 0.000000 
#    z -0.005020 0.000000 1.695930 
# 
# From -- ./inp_files/26215.got.cif
#   From: 2010.05.17/outbox.cif.g08.bks.cpg/sg11_14_cif.got.tgz:26215.got - 2010.06.03 12:22:45.
