data_PCOD9161878
_publ_section_title
;
Structure prediction by ZEFSAII (Michael W. Deem and Ramdas Pophale) SiO2 
 PCOD9161878
Probable space group: P 21/M
;
_chemical_formula_sum "Si O2"
_cell_formula_units_Z 24
_cell_length_a 10.456801
_cell_length_b 17.342061
_cell_length_c 16.650076
_cell_angle_alpha 90.000000
_cell_angle_beta 162.432216
_cell_angle_gamma 90.000000
_cell_volume 911.347004
_symmetry_space_group_name_H-M "P 21/M"
_symmetry_group_IT_number 11
_symmetry_cell_setting 'monoclinic'
loop_
_space_group_symop_operation_xyz
x,y,z
-x,1/2+y,-z
-x,-y,-z
x,1/2-y,z
loop_
_atom_site_type_symbol
_atom_site_label
_atom_site_fract_x
_atom_site_fract_y
_atom_site_fract_z
Si Si1 0.392489 0.839286 0.350189
Si Si2 0.830879 0.938627 0.728109
Si Si3 0.862190 0.337645 0.973413
Si Si4 0.311083 0.502212 0.795633
Si Si5 0.469857 0.334862 0.061962
Si Si6 0.853710 0.836208 0.315723
O O1 0.497323 0.750000 0.403865
O O2 0.787789 0.878310 0.629907
O O3 0.972098 0.844221 0.153592
O O4 0.289752 0.871761 0.201387
O O5 0.757562 0.887506 0.762251
O O6 0.500000 0.000000 0.500000
O O7 0.268689 0.981954 0.003179
O O8 0.997014 0.250000 0.039621
O O9 0.505968 0.334318 0.829769
O O10 0.007942 0.428502 0.597967
O O11 0.500000 0.500000 0.000000
O O12 0.232056 0.593008 0.735979
O O13 0.648517 0.250000 0.188730
O O14 0.336111 0.334473 0.888394
O O15 0.070245 0.750000 0.453922
#
# Coordination Sequence:
#
# PCOD9161878 Si02
#       6
#     4   4   4   4   4   4
#     4  10  20  34  55  82 110 140 185 235 280 331
#     4  11  20  33  53  82 111 142 184 227 281 331
#     4   9  19  35  54  79 109 144 184 230 279 333
#     4   9  17  31  51  76 108 141 183 223 268 330
#     4   9  16  29  50  76 104 142 181 220 275 330
#     4   8  15  29  51  74 100 140 183 218 268 330
#
# _framework density 26.334644999999998
#
# number of rings (size 3 to 8) (size 9 to 14) (size 15 to 20)
#    0.000    2.667    1.667    0.500    0.000    1.333 
#    0.000    0.000    0.000   15.000    0.000   28.000 
#    0.000    0.000    0.000    0.000    0.000    0.000 
#
# Total GULP energy -133862.412144 kJ/mol
# GULP energy per Si atom -5577.600506 kJ/mol
# Density = 2.627471 g / cm^3
# Si number density = 26.334645 Si / 1000 Ang^3
#
#
#
# Elastic Constant Matrix: (Units=GPa)
#
#
# Indices 1 2 3 4 5 6 
#
# 1 144.3113 -0.0040 54.9557 0.0000 -8.8825 0.0000
# 2 -0.0040 214.1139 30.7365 0.0000 -2.6433 0.0000
# 3 54.9557 30.7365 70.4268 0.0000 -12.0767 0.0000
# 4 0.0000 0.0000 0.0000 2.3411 0.0000 13.7378
# 5 -8.8825 -2.6433 -12.0767 0.0000 46.1139 0.0000
# 6 0.0000 0.0000 0.0000 13.7378 0.0000 -45.5173
#
#
#
# Elastic Compliance Matrix: (Units=1/GPa)
#
#
# Indices 1 2 3 4 5 6 
#
# 1 0.010148 0.001215 -0.008483 0.000000 -0.000197 0.000000
# 2 0.001215 0.005132 -0.003243 0.000000 -0.000321 0.000000
# 3 -0.008483 -0.003243 0.022953 0.000000 0.004191 0.000000
# 4 0.000000 0.000000 0.000000 0.154146 0.000000 0.046523
# 5 -0.000197 -0.000321 0.004191 0.000000 0.022727 0.000000
# 6 0.000000 0.000000 0.000000 0.046523 0.000000 -0.007928
#
#
# Mechanical properties :
#
#
# Convention : Reuss Voigt Hill
#
# Bulk Modulus (GPa) = 58.10188 66.69204 62.39696
# Shear Modulus (GPa) = 21.37348 23.46512 22.41930
#
# Velocity S-wave (km/s) = 2.85197 2.98826 2.92091
# Velocity P-wave (km/s) = 5.74071 6.10623 5.92629
#
# Compressibility (1/GPa) = 0.01721115
#
# Stress axis : x y z
#
# Youngs Moduli (GPa) = 98.54433 194.85380 43.56803
#
# Poissons Ratio (x) = -0.23684 0.36958
# Poissons Ratio (y) = -0.11978 0.14130
# Poissons Ratio (z) = 0.83593 0.63197
#
# Static dielectric constant tensor:
#      x y z
#    x -1.351000 0.000000 0.880390 
#    y 0.000000 2.176650 0.000000 
#    z 0.880390 0.000000 1.846710 
# 
# From -- ./inp_files/35954.got.cif
#   From: 2010.05.17/outbox.cif.g08.bks.cpg/sg11_18_cif.got.tgz:35954.got - 2010.06.03 12:22:45.
