data_PCOD9161833
_publ_section_title
;
Structure prediction by ZEFSAII (Michael W. Deem and Ramdas Pophale) SiO2 
 PCOD9161833
Probable space group: P 21/M
;
_chemical_formula_sum "Si O2"
_cell_formula_units_Z 24
_cell_length_a 11.148937
_cell_length_b 7.748717
_cell_length_c 21.662351
_cell_angle_alpha 90.000000
_cell_angle_beta 33.234381
_cell_angle_gamma 90.000000
_cell_volume 1025.654535
_symmetry_space_group_name_H-M "P 21/M"
_symmetry_group_IT_number 11
_symmetry_cell_setting 'monoclinic'
loop_
_space_group_symop_operation_xyz
x,y,z
-x,1/2+y,-z
-x,-y,-z
x,1/2-y,z
loop_
_atom_site_type_symbol
_atom_site_label
_atom_site_fract_x
_atom_site_fract_y
_atom_site_fract_z
Si Si1 0.666856 0.049557 0.151047
Si Si2 0.152653 0.538799 0.245450
Si Si3 0.806027 0.044517 0.629762
Si Si4 0.627682 0.947782 0.028032
Si Si5 0.093139 0.543846 0.834751
Si Si6 0.714318 0.954746 0.369469
O O1 0.714119 0.250000 0.117098
O O2 0.836758 0.978195 0.128172
O O3 0.427097 0.038988 0.285300
O O4 0.646755 0.951655 0.094949
O O5 0.158286 0.750000 0.240534
O O6 0.140288 0.491217 0.322983
O O7 0.387779 0.476310 0.117890
O O8 0.935726 0.474107 0.305500
O O9 0.774919 0.250000 0.642888
O O10 0.000000 0.000000 0.500000
O O11 0.623391 0.750000 0.008633
O O12 0.861025 0.029374 0.909992
O O13 0.066455 0.750000 0.852828
O O14 0.278452 0.513205 0.704352
O O15 0.732065 0.750000 0.361891
O O16 0.500000 0.000000 0.500000
#
# Coordination Sequence:
#
# PCOD9161833 Si02
#       6
#     4   4   4   4   4   4
#     4  10  20  34  54  85 121 151 183 231 285 338
#     4   8  18  37  58  79 110 146 182 234 288 330
#     4  10  20  35  56  82 111 148 190 233 285 341
#     4   9  18  37  62  86 114 149 188 233 289 344
#     4  10  22  38  58  85 118 154 189 231 286 341
#     4  11  24  41  59  81 111 151 195 238 286 340
#
# _framework density 23.399691000000001
#
# number of rings (size 3 to 8) (size 9 to 14) (size 15 to 20)
#    0.000    2.333    0.000    3.000    2.333    2.667 
#    0.000    7.500    0.000    0.000    0.000    0.000 
#    0.000    0.000    0.000    0.000    0.000    0.000 
#
# Total GULP energy -134116.362301 kJ/mol
# GULP energy per Si atom -5588.181763 kJ/mol
# Density = 2.334643 g / cm^3
# Si number density = 23.399691 Si / 1000 Ang^3
#
#
#
# Elastic Constant Matrix: (Units=GPa)
#
#
# Indices 1 2 3 4 5 6 
#
# 1 95.6694 8.5514 26.8394 0.0000 -15.5346 0.0000
# 2 8.5514 60.5873 -0.9403 0.0000 -0.9913 0.0000
# 3 26.8394 -0.9403 138.3955 0.0000 -1.2048 0.0000
# 4 0.0000 0.0000 0.0000 25.9959 0.0000 2.1847
# 5 -15.5346 -0.9913 -1.2048 0.0000 33.4280 0.0000
# 6 0.0000 0.0000 0.0000 2.1847 0.0000 16.1890
#
#
#
# Elastic Compliance Matrix: (Units=1/GPa)
#
#
# Indices 1 2 3 4 5 6 
#
# 1 0.012147 -0.001660 -0.002319 0.000000 0.005512 0.000000
# 2 -0.001660 0.016742 0.000433 0.000000 -0.000259 0.000000
# 3 -0.002319 0.000433 0.007671 0.000000 -0.000788 0.000000
# 4 0.000000 0.000000 0.000000 0.038909 0.000000 -0.005251
# 5 0.005512 -0.000259 -0.000788 0.000000 0.032440 0.000000
# 6 0.000000 0.000000 0.000000 -0.005251 0.000000 0.062479
#
#
# Mechanical properties :
#
#
# Convention : Reuss Voigt Hill
#
# Bulk Modulus (GPa) = 33.93433 40.39480 37.16456
# Shear Modulus (GPa) = 26.69479 32.46936 29.58207
#
# Velocity S-wave (km/s) = 3.38126 3.72909 3.55943
# Velocity P-wave (km/s) = 5.45687 5.98681 5.72797
#
# Compressibility (1/GPa) = 0.02946868
#
# Stress axis : x y z
#
# Youngs Moduli (GPa) = 82.32726 59.73030 130.35321
#
# Poissons Ratio (x) = 0.09916 0.30228
# Poissons Ratio (y) = 0.13668 -0.05650
# Poissons Ratio (z) = 0.19091 -0.02589
#
# Static dielectric constant tensor:
#      x y z
#    x 1.910680 0.000000 -0.025580 
#    y 0.000000 1.873910 0.000000 
#    z -0.025580 0.000000 1.994130 
# 
# From -- ./inp_files/44016.got.cif
#   From: 2010.05.17/outbox.cif.g08.bks.cpg/sg11_23_cif.got.tgz:44016.got - 2010.06.03 12:22:45.
