data_PCOD9161576
_publ_section_title
;
Structure prediction by ZEFSAII (Michael W. Deem and Ramdas Pophale) SiO2 
 PCOD9161576
Probable space group: P 21/M
;
_chemical_formula_sum "Si O2"
_cell_formula_units_Z 28
_cell_length_a 11.270207
_cell_length_b 9.003143
_cell_length_c 21.545943
_cell_angle_alpha 90.000000
_cell_angle_beta 128.608093
_cell_angle_gamma 90.000000
_cell_volume 1708.373907
_symmetry_space_group_name_H-M "P 21/M"
_symmetry_group_IT_number 11
_symmetry_cell_setting 'monoclinic'
loop_
_space_group_symop_operation_xyz
x,y,z
-x,1/2+y,-z
-x,-y,-z
x,1/2-y,z
loop_
_atom_site_type_symbol
_atom_site_label
_atom_site_fract_x
_atom_site_fract_y
_atom_site_fract_z
Si Si1 0.977051 0.427767 0.401705
Si Si2 0.342822 0.073136 0.926601
Si Si3 0.516495 0.073138 0.275698
Si Si4 0.859733 0.073820 0.036383
Si Si5 0.242477 0.426128 0.568056
Si Si6 0.206572 0.072626 0.114600
Si Si7 0.732766 0.073771 0.227606
O O1 0.955978 0.250000 0.406454
O O2 0.873837 0.516882 0.416866
O O3 0.901033 0.456078 0.310353
O O4 0.151992 0.462828 0.474828
O O5 0.353752 0.250000 0.933617
O O6 0.214022 0.012302 0.930782
O O7 0.306493 0.019849 0.845273
O O8 0.500000 0.000000 0.000000
O O9 0.520871 0.250000 0.286115
O O10 0.344916 0.027715 0.204166
O O11 0.616021 0.042224 0.246030
O O12 0.599034 0.999371 0.361218
O O13 0.833067 0.250000 0.033635
O O14 0.040657 0.048146 0.089630
O O15 0.788752 0.013430 0.948990
O O16 0.258581 0.250000 0.576774
O O17 0.221803 0.250000 0.107206
O O18 0.720822 0.250000 0.209548
#
# Coordination Sequence:
#
# PCOD9161576 Si02
#       7
#     4   4   4   4   4   4   4
#     4   8  15  27  41  59  88 123 152 183 227 273
#     4  12  24  36  50  69  94 123 156 193 233 276
#     4   9  17  29  45  67  96 126 151 182 228 274
#     4  10  20  34  52  72  93 121 157 193 232 275
#     4   9  15  23  39  64  91 119 152 186 221 267
#     4   9  18  33  52  72  95 123 155 191 230 274
#     4   9  17  30  47  67  94 126 156 187 228 276
#
# _framework density 16.389855000000001
#
# number of rings (size 3 to 8) (size 9 to 14) (size 15 to 20)
#    0.000    2.571    0.000    3.857    0.000    5.143 
#    0.000    0.000    0.000    0.000    0.000    1.000 
#    0.000    0.000    0.000    0.000    0.000    0.000 
#
# Total GULP energy -155992.154914 kJ/mol
# GULP energy per Si atom -5571.148390 kJ/mol
# Density = 1.635255 g / cm^3
# Si number density = 16.389855 Si / 1000 Ang^3
#
#
#
# Elastic Constant Matrix: (Units=GPa)
#
#
# Indices 1 2 3 4 5 6 
#
# 1 26.3698 28.2732 31.4964 0.0000 5.6504 0.0000
# 2 28.2732 60.3084 53.7727 0.0000 2.5083 0.0000
# 3 31.4964 53.7727 144.1102 0.0000 28.1466 0.0000
# 4 0.0000 0.0000 0.0000 31.1506 0.0000 0.7461
# 5 5.6504 2.5083 28.1466 0.0000 23.3111 0.0000
# 6 0.0000 0.0000 0.0000 0.7461 0.0000 19.5142
#
#
#
# Elastic Compliance Matrix: (Units=1/GPa)
#
#
# Indices 1 2 3 4 5 6 
#
# 1 0.081783 -0.036357 -0.001571 0.000000 -0.014015 0.000000
# 2 -0.036357 0.043443 -0.011872 0.000000 0.018473 0.000000
# 3 -0.001571 -0.011872 0.014903 0.000000 -0.016336 0.000000
# 4 0.000000 0.000000 0.000000 0.032132 0.000000 -0.001229
# 5 -0.014015 0.018473 -0.016336 0.000000 0.064032 0.000000
# 6 0.000000 0.000000 0.000000 -0.001229 0.000000 0.051292
#
#
# Mechanical properties :
#
#
# Convention : Reuss Voigt Hill
#
# Bulk Modulus (GPa) = 24.67368 50.87477 37.77423
# Shear Modulus (GPa) = 12.47832 22.61158 17.54495
#
# Velocity S-wave (km/s) = 2.76224 3.71834 3.27536
# Velocity P-wave (km/s) = 5.02595 7.03864 6.11566
#
# Compressibility (1/GPa) = 0.04052901
#
# Stress axis : x y z
#
# Youngs Moduli (GPa) = 12.22744 23.01853 67.10052
#
# Poissons Ratio (x) = 0.83689 0.10541
# Poissons Ratio (y) = 0.44456 0.79662
# Poissons Ratio (z) = 0.01921 0.27328
#
# Static dielectric constant tensor:
#      x y z
#    x 1.536580 0.000000 0.030670 
#    y 0.000000 1.543090 0.000000 
#    z 0.030670 0.000000 1.587810 
# 
# From -- ./inp_files/42302.got.cif
#   From: 2010.05.17/outbox.cif.g08.bks.cpg/sg11_22_cif.got.tgz:42302.got - 2010.06.03 12:22:45.
