data_PCOD9161114
_publ_section_title
;
Structure prediction by ZEFSAII (Michael W. Deem and Ramdas Pophale) SiO2 
 PCOD9161114
Probable space group: P 21/M
;
_chemical_formula_sum "Si O2"
_cell_formula_units_Z 24
_cell_length_a 9.365760
_cell_length_b 22.070288
_cell_length_c 6.304703
_cell_angle_alpha 90.000000
_cell_angle_beta 75.849072
_cell_angle_gamma 90.000000
_cell_volume 1263.667862
_symmetry_space_group_name_H-M "P 21/M"
_symmetry_group_IT_number 11
_symmetry_cell_setting 'monoclinic'
loop_
_space_group_symop_operation_xyz
x,y,z
-x,1/2+y,-z
-x,-y,-z
x,1/2-y,z
loop_
_atom_site_type_symbol
_atom_site_label
_atom_site_fract_x
_atom_site_fract_y
_atom_site_fract_z
Si Si1 0.993778 0.821527 0.418615
Si Si2 0.813766 0.520478 0.632594
Si Si3 0.555934 0.569846 0.991937
Si Si4 0.784823 0.908990 0.252063
Si Si5 0.973638 0.402963 0.205816
Si Si6 0.237050 0.602738 0.086187
O O1 0.981222 0.750000 0.405616
O O2 0.016989 0.843032 0.653464
O O3 0.134551 0.846337 0.232821
O O4 0.847924 0.854854 0.376724
O O5 0.790378 0.531001 0.393220
O O6 0.788176 0.456514 0.755742
O O7 0.971362 0.546727 0.648324
O O8 0.688827 0.566622 0.775315
O O9 0.630031 0.590060 0.186770
O O10 0.412269 0.610619 0.007795
O O11 0.500000 0.500000 0.000000
O O12 0.906411 0.909758 0.023387
O O13 0.824113 0.407951 0.128759
#
# Coordination Sequence:
#
# PCOD9161114 Si02
#       6
#     4   4   4   4   4   4
#     4  10  22  38  55  74  99 142 196 239 270 310
#     4   9  18  33  54  83 114 144 175 213 269 340
#     4   9  19  33  53  85 120 145 167 207 271 340
#     4   9  19  36  57  79 108 145 182 219 268 331
#     4   9  19  33  52  78 108 139 177 223 273 322
#     4  10  20  32  54  83 112 141 172 220 279 331
#
# _framework density 18.992332999999999
#
# number of rings (size 3 to 8) (size 9 to 14) (size 15 to 20)
#    0.000    2.667    0.000    0.500    0.000   18.000 
#    0.000    0.833    0.000    4.000    0.000    0.000 
#    0.000    0.000    0.000    0.000    0.000    0.000 
#
# Total GULP energy -133614.884196 kJ/mol
# GULP energy per Si atom -5567.286842 kJ/mol
# Density = 1.894911 g / cm^3
# Si number density = 18.992333 Si / 1000 Ang^3
#
#
#
# Elastic Constant Matrix: (Units=GPa)
#
#
# Indices 1 2 3 4 5 6 
#
# 1 144.9321 29.0127 40.9983 0.0000 40.0695 0.0000
# 2 29.0127 91.6581 35.9139 0.0000 12.1410 0.0000
# 3 40.9983 35.9139 101.7775 0.0000 28.6487 0.0000
# 4 0.0000 0.0000 0.0000 15.4392 0.0000 -1.5944
# 5 40.0695 12.1410 28.6487 0.0000 28.3400 0.0000
# 6 0.0000 0.0000 0.0000 -1.5944 0.0000 17.1274
#
#
#
# Elastic Compliance Matrix: (Units=1/GPa)
#
#
# Indices 1 2 3 4 5 6 
#
# 1 0.011555 -0.001714 0.000478 0.000000 -0.016087 0.000000
# 2 -0.001714 0.012948 -0.004192 0.000000 0.001114 0.000000
# 3 0.000478 -0.004192 0.015091 0.000000 -0.014136 0.000000
# 4 0.000000 0.000000 0.000000 0.065399 0.000000 0.006088
# 5 -0.016087 0.001114 -0.014136 0.000000 0.071843 0.000000
# 6 0.000000 0.000000 0.000000 0.006088 0.000000 0.058953
#
#
# Mechanical properties :
#
#
# Convention : Reuss Voigt Hill
#
# Bulk Modulus (GPa) = 34.79700 61.13527 47.96613
# Shear Modulus (GPa) = 19.51424 27.67751 23.59588
#
# Velocity S-wave (km/s) = 3.20891 3.82160 3.52858
# Velocity P-wave (km/s) = 5.66488 7.19251 6.47391
#
# Compressibility (1/GPa) = 0.02873811
#
# Stress axis : x y z
#
# Youngs Moduli (GPa) = 86.54142 77.23446 66.26555
#
# Poissons Ratio (x) = 0.13239 -0.03170
# Poissons Ratio (y) = 0.14834 0.27778
# Poissons Ratio (z) = -0.04140 0.32376
#
# Static dielectric constant tensor:
#      x y z
#    x 1.720540 0.000000 -0.025610 
#    y 0.000000 1.672840 0.000000 
#    z -0.025610 0.000000 1.735080 
# 
# From -- ./inp_files/2718.got.cif
#   From: 2010.05.17/outbox.cif.g08.bks.cpg/sg11_2_cif.got.tgz:2718.got - 2010.06.03 12:22:45.
