data_PCOD9161075
_publ_section_title
;
Structure prediction by ZEFSAII (Michael W. Deem and Ramdas Pophale) SiO2 
 PCOD9161075
Probable space group: P 21/M
;
_chemical_formula_sum "Si O2"
_cell_formula_units_Z 32
_cell_length_a 26.918812
_cell_length_b 7.501817
_cell_length_c 20.622583
_cell_angle_alpha 90.000000
_cell_angle_beta 162.419099
_cell_angle_gamma 90.000000
_cell_volume 1257.903507
_symmetry_space_group_name_H-M "P 21/M"
_symmetry_group_IT_number 11
_symmetry_cell_setting 'monoclinic'
loop_
_space_group_symop_operation_xyz
x,y,z
-x,1/2+y,-z
-x,-y,-z
x,1/2-y,z
loop_
_atom_site_type_symbol
_atom_site_label
_atom_site_fract_x
_atom_site_fract_y
_atom_site_fract_z
Si Si1 0.981285 0.962390 0.899639
Si Si2 0.132595 0.539371 0.874560
Si Si3 0.333246 0.962903 0.330067
Si Si4 0.243030 0.543517 0.593557
Si Si5 0.801441 0.468198 0.319395
Si Si6 0.523506 0.965100 0.686333
Si Si7 0.344142 0.957276 0.583883
Si Si8 0.811518 0.043648 0.194373
O O1 0.966541 0.750000 0.872809
O O2 0.155427 0.029932 0.087234
O O3 0.000000 0.000000 0.000000
O O4 0.827846 0.039676 0.669534
O O5 0.101442 0.750000 0.829221
O O6 0.299479 0.518994 0.122458
O O7 0.954272 0.461185 0.666324
O O8 0.199643 0.457388 0.890041
O O9 0.314761 0.750000 0.309554
O O10 0.378568 0.027655 0.458599
O O11 0.500000 0.000000 0.500000
O O12 0.291398 0.750000 0.657836
O O13 0.270098 0.470412 0.700260
O O14 0.325360 0.461925 0.632119
O O15 0.804197 0.250000 0.323019
O O16 0.734360 0.527138 0.165398
O O17 0.989394 0.535075 0.551796
O O18 0.518303 0.750000 0.680551
O O19 0.475588 0.036741 0.697681
O O20 0.387980 0.750000 0.647552
O O21 0.763032 0.250000 0.129673
#
# Coordination Sequence:
#
# PCOD9161075 Si02
#       8
#     4   4   4   4   4   4   4   4
#     4  11  22  39  60  82 105 133 171 212 254 304
#     4  10  20  32  49  76 107 137 171 211 257 305
#     4  10  23  40  57  79 105 133 168 210 255 300
#     4   9  18  32  53  79 103 133 171 212 258 304
#     4   8  13  24  44  70  98 128 166 206 248 299
#     4  10  21  39  55  71 101 138 172 209 251 303
#     4  10  21  38  57  77 103 136 173 213 256 303
#     4   8  14  25  42  67 100 133 163 204 252 296
#
# _framework density 25.439155
#
# number of rings (size 3 to 8) (size 9 to 14) (size 15 to 20)
#    0.000    2.500    1.250    0.750    1.750    3.000 
#    0.000    0.000    0.000    0.750    0.000    0.000 
#    0.000    0.000    0.000    0.000    0.000    0.875 
#
# Total GULP energy -178485.116408 kJ/mol
# GULP energy per Si atom -5577.659888 kJ/mol
# Density = 2.538125 g / cm^3
# Si number density = 25.439155 Si / 1000 Ang^3
#
#
#
# Elastic Constant Matrix: (Units=GPa)
#
#
# Indices 1 2 3 4 5 6 
#
# 1 138.4020 -0.6984 -7.1744 0.0000 17.8223 0.0000
# 2 -0.6984 91.0494 -7.7048 0.0000 -4.2731 0.0000
# 3 -7.1744 -7.7048 45.8268 0.0000 17.7447 0.0000
# 4 0.0000 0.0000 0.0000 9.2126 0.0000 0.4358
# 5 17.8223 -4.2731 17.7447 0.0000 21.3376 0.0000
# 6 0.0000 0.0000 0.0000 0.4358 0.0000 9.4450
#
#
#
# Elastic Compliance Matrix: (Units=1/GPa)
#
#
# Indices 1 2 3 4 5 6 
#
# 1 0.009264 0.000007 0.006559 0.000000 -0.013191 0.000000
# 2 0.000007 0.011156 0.001496 0.000000 0.000984 0.000000
# 3 0.006559 0.001496 0.037029 0.000000 -0.035973 0.000000
# 4 0.000000 0.000000 0.000000 0.108785 0.000000 -0.005019
# 5 -0.013191 0.000984 -0.035973 0.000000 0.087997 0.000000
# 6 0.000000 0.000000 0.000000 -0.005019 0.000000 0.106108
#
#
# Mechanical properties :
#
#
# Convention : Reuss Voigt Hill
#
# Bulk Modulus (GPa) = 13.59203 27.12479 20.35841
# Shear Modulus (GPa) = 13.55975 27.38942 20.47458
#
# Velocity S-wave (km/s) = 2.31124 3.28482 2.84006
# Velocity P-wave (km/s) = 3.53228 5.00724 4.33298
#
# Compressibility (1/GPa) = 0.07357255
#
# Stress axis : x y z
#
# Youngs Moduli (GPa) = 107.94411 89.63896 27.00598
#
# Poissons Ratio (x) = -0.00063 -0.17714
# Poissons Ratio (y) = -0.00076 -0.04039
# Poissons Ratio (z) = -0.70804 -0.13406
#
# Static dielectric constant tensor:
#      x y z
#    x 2.136510 0.000000 -0.065310 
#    y 0.000000 2.741910 0.000000 
#    z -0.065310 0.000000 1.968830 
# 
# From -- ./inp_files/66434.got.cif
#   From: 2010.05.17/outbox.cif.g08.bks.cpg/sg11_34_cif.got.tgz:66434.got - 2010.06.03 12:22:45.
