data_PCOD9161055
_publ_section_title
;
Structure prediction by ZEFSAII (Michael W. Deem and Ramdas Pophale) SiO2 
 PCOD9161055
Probable space group: P 21/M
;
_chemical_formula_sum "Si O2"
_cell_formula_units_Z 32
_cell_length_a 26.902543
_cell_length_b 9.903773
_cell_length_c 19.976815
_cell_angle_alpha 90.000000
_cell_angle_beta 16.297506
_cell_angle_gamma 90.000000
_cell_volume 1493.641973
_symmetry_space_group_name_H-M "P 21/M"
_symmetry_group_IT_number 11
_symmetry_cell_setting 'monoclinic'
loop_
_space_group_symop_operation_xyz
x,y,z
-x,1/2+y,-z
-x,-y,-z
x,1/2-y,z
loop_
_atom_site_type_symbol
_atom_site_label
_atom_site_fract_x
_atom_site_fract_y
_atom_site_fract_z
Si Si1 0.820855 0.529227 0.472714
Si Si2 0.645024 0.097243 0.585379
Si Si3 0.447752 0.904270 0.005800
Si Si4 0.056007 0.408288 0.280576
Si Si5 0.645783 0.901152 0.216905
Si Si6 0.145298 0.595001 0.960021
Si Si7 0.764042 0.094703 0.296367
Si Si8 0.730026 0.585257 0.869966
O O1 0.758115 0.405543 0.507006
O O2 0.635976 0.604357 0.723193
O O3 0.908233 0.489134 0.430233
O O4 0.970612 0.594008 0.232155
O O5 0.617086 0.250000 0.599124
O O6 0.744264 0.028254 0.395119
O O7 0.448663 0.051394 0.857152
O O8 0.394633 0.750000 0.090841
O O9 0.500000 0.000000 0.000000
O O10 0.301146 0.988314 0.153253
O O11 0.009960 0.250000 0.340530
O O12 0.109602 0.446694 0.286858
O O13 0.232258 0.421050 0.006534
O O14 0.685894 0.750000 0.190059
O O15 0.440461 0.907641 0.464210
O O16 0.709866 0.008679 0.187758
O O17 0.204194 0.750000 0.877622
O O18 0.129203 0.538074 0.905137
O O19 0.829144 0.250000 0.220311
O O20 0.729883 0.750000 0.855935
#
# Coordination Sequence:
#
# PCOD9161055 Si02
#       8
#     4   4   4   4   4   4   4   4
#     4  10  21  35  56  81 116 148 182 228 289 341
#     4   9  16  29  52  80 110 150 196 235 272 319
#     4  11  24  43  65  88 114 145 185 229 279 342
#     4   9  16  30  56  89 118 148 189 234 275 325
#     4   9  16  29  50  75 107 146 193 239 271 310
#     4  10  20  32  48  73 110 152 186 227 285 334
#     4   9  16  28  48  74 108 150 195 235 272 317
#     4   9  17  34  61  89 117 149 188 231 276 324
#
# _framework density 21.424143000000001
#
# number of rings (size 3 to 8) (size 9 to 14) (size 15 to 20)
#    0.000    2.500    1.250    1.500    0.000    2.500 
#    0.000    3.750    0.000    3.750    0.000    0.000 
#    0.000    0.000    0.000    0.000    0.000    0.000 
#
# Total GULP energy -178220.517114 kJ/mol
# GULP energy per Si atom -5569.391160 kJ/mol
# Density = 2.137538 g / cm^3
# Si number density = 21.424143 Si / 1000 Ang^3
#
#
#
# Elastic Constant Matrix: (Units=GPa)
#
#
# Indices 1 2 3 4 5 6 
#
# 1 139.1525 47.6072 24.4154 0.0000 -1.0388 0.0000
# 2 47.6072 66.3747 10.9159 0.0000 0.9438 0.0000
# 3 24.4154 10.9159 90.9230 0.0000 -6.3419 0.0000
# 4 0.0000 0.0000 0.0000 4.2246 0.0000 2.8704
# 5 -1.0388 0.9438 -6.3419 0.0000 29.2044 0.0000
# 6 0.0000 0.0000 0.0000 2.8704 0.0000 23.8421
#
#
#
# Elastic Compliance Matrix: (Units=1/GPa)
#
#
# Indices 1 2 3 4 5 6 
#
# 1 0.009812 -0.006742 -0.001813 0.000000 0.000173 0.000000
# 2 -0.006742 0.020026 -0.000666 0.000000 -0.001032 0.000000
# 3 -0.001813 -0.000666 0.011740 0.000000 0.002506 0.000000
# 4 0.000000 0.000000 0.000000 0.257794 0.000000 -0.031036
# 5 0.000173 -0.001032 0.002506 0.000000 0.034825 0.000000
# 6 0.000000 0.000000 0.000000 -0.031036 0.000000 0.045679
#
#
# Mechanical properties :
#
#
# Convention : Reuss Voigt Hill
#
# Bulk Modulus (GPa) = 43.22312 51.36970 47.29641
# Shear Modulus (GPa) = 12.31433 25.68836 19.00134
#
# Velocity S-wave (km/s) = 2.40007 3.46647 2.98134
# Velocity P-wave (km/s) = 5.28197 6.32862 5.82884
#
# Compressibility (1/GPa) = 0.02313576
#
# Stress axis : x y z
#
# Youngs Moduli (GPa) = 101.91088 49.93512 85.17874
#
# Poissons Ratio (x) = 0.33667 0.15446
# Poissons Ratio (y) = 0.68711 0.05671
# Poissons Ratio (z) = 0.18481 0.03324
#
# Static dielectric constant tensor:
#      x y z
#    x 1.829550 0.000000 0.062490 
#    y 0.000000 1.776190 0.000000 
#    z 0.062490 0.000000 1.840980 
# 
# From -- ./inp_files/61989.got.cif
#   From: 2010.05.17/outbox.cif.g08.bks.cpg/sg11_31_cif.got.tgz:61989.got - 2010.06.03 12:22:45.
