data_PCOD9161521
_publ_section_title
;
Structure prediction by ZEFSAII (Michael W. Deem and Ramdas Pophale) SiO2 
 PCOD9161521
Probable space group: P 21/M
;
_chemical_formula_sum "Si O2"
_cell_formula_units_Z 32
_cell_length_a 25.531260
_cell_length_b 10.127132
_cell_length_c 20.045128
_cell_angle_alpha 90.000000
_cell_angle_beta 20.994165
_cell_angle_gamma 90.000000
_cell_volume 1856.869907
_symmetry_space_group_name_H-M "P 21/M"
_symmetry_group_IT_number 11
_symmetry_cell_setting 'monoclinic'
loop_
_space_group_symop_operation_xyz
x,y,z
-x,1/2+y,-z
-x,-y,-z
x,1/2-y,z
loop_
_atom_site_type_symbol
_atom_site_label
_atom_site_fract_x
_atom_site_fract_y
_atom_site_fract_z
Si Si1 0.884640 0.094199 0.918296
Si Si2 0.232949 0.405696 0.526752
Si Si3 0.151798 0.902857 0.403200
Si Si4 0.277454 0.096231 0.150116
Si Si5 0.808066 0.598949 0.273741
Si Si6 0.153467 0.095226 0.157315
Si Si7 0.160777 0.598952 0.876860
Si Si8 0.615911 0.402831 0.756553
O O1 0.859359 0.250000 0.935216
O O2 0.060594 0.076030 0.715212
O O3 0.828344 0.000742 0.926701
O O4 0.819718 0.062967 0.068685
O O5 0.264842 0.250000 0.479438
O O6 0.254708 0.437578 0.579091
O O7 0.325950 0.497623 0.368229
O O8 0.147757 0.750000 0.385618
O O9 0.287478 0.920293 0.292254
O O10 0.005747 0.927060 0.619686
O O11 0.174692 0.001534 0.315025
O O12 0.236686 0.250000 0.209060
O O13 0.263448 0.070970 0.087784
O O14 0.444734 0.076964 0.972653
O O15 0.766880 0.750000 0.307299
O O16 0.772657 0.500419 0.255991
O O17 0.984639 0.597956 0.074225
O O18 0.161321 0.250000 0.128522
O O19 0.209419 0.750000 0.808964
O O20 0.635704 0.250000 0.711188
#
# Coordination Sequence:
#
# PCOD9161521 Si02
#       8
#     4   4   4   4   4   4   4   4
#     4   9  17  29  46  69  96 126 160 196 234 278
#     4   9  17  29  46  69  96 126 160 196 234 278
#     4  10  20  34  52  72  93 120 159 200 233 282
#     4  10  22  36  50  70  97 126 155 194 243 286
#     4   8  14  24  38  61  93 124 154 188 228 275
#     4  10  20  34  50  71  97 124 158 197 236 281
#     4   8  14  24  38  61  93 124 154 188 228 275
#     4  10  20  34  50  71  97 124 158 197 236 281
#
# _framework density 17.233301000000001
#
# number of rings (size 3 to 8) (size 9 to 14) (size 15 to 20)
#    0.000    2.750    1.250    2.250    0.000    3.000 
#    0.000    2.500    0.000    0.000    0.000    0.875 
#    0.000    0.000    0.000    0.000    0.000    0.000 
#
# Total GULP energy -178367.010507 kJ/mol
# GULP energy per Si atom -5573.969078 kJ/mol
# Density = 1.719408 g / cm^3
# Si number density = 17.233301 Si / 1000 Ang^3
#
#
#
# Elastic Constant Matrix: (Units=GPa)
#
#
# Indices 1 2 3 4 5 6 
#
# 1 44.6161 33.3802 6.2372 0.0000 13.1724 0.0000
# 2 33.3802 59.5121 14.7548 0.0000 29.4489 0.0000
# 3 6.2372 14.7548 11.2823 0.0000 3.3782 0.0000
# 4 0.0000 0.0000 0.0000 20.4347 0.0000 12.8989
# 5 13.1724 29.4489 3.3782 0.0000 30.0955 0.0000
# 6 0.0000 0.0000 0.0000 12.8989 0.0000 36.6181
#
#
#
# Elastic Compliance Matrix: (Units=1/GPa)
#
#
# Indices 1 2 3 4 5 6 
#
# 1 0.041809 -0.034690 0.018181 0.000000 0.013605 0.000000
# 2 -0.034690 0.082336 -0.071319 0.000000 -0.057378 0.000000
# 3 0.018181 -0.071319 0.158673 0.000000 0.044019 0.000000
# 4 0.000000 0.000000 0.000000 0.062929 0.000000 -0.022167
# 5 0.013605 -0.057378 0.044019 0.000000 0.078477 0.000000
# 6 0.000000 0.000000 0.000000 -0.022167 0.000000 0.035117
#
#
# Mechanical properties :
#
#
# Convention : Reuss Voigt Hill
#
# Bulk Modulus (GPa) = 9.33184 24.90609 17.11896
# Shear Modulus (GPa) = 7.45467 21.49889 14.47678
#
# Velocity S-wave (km/s) = 2.08210 3.53586 2.90150
# Velocity P-wave (km/s) = 3.34767 5.58152 4.60219
#
# Compressibility (1/GPa) = 0.10716001
#
# Stress axis : x y z
#
# Youngs Moduli (GPa) = 23.91811 12.14534 6.30225
#
# Poissons Ratio (x) = 0.42133 -0.11458
# Poissons Ratio (y) = 0.82973 0.44947
# Poissons Ratio (z) = -0.43484 0.86620
#
# Static dielectric constant tensor:
#      x y z
#    x 1.585380 0.000000 -0.012750 
#    y 0.000000 1.575790 0.000000 
#    z -0.012750 0.000000 1.565900 
# 
# From -- ./inp_files/43833.got.cif
#   From: 2010.05.17/outbox.cif.g08.bks.cpg/sg11_22_cif.got.tgz:43833.got - 2010.06.03 12:22:45.
