data_PCOD9161624
_publ_section_title
;
Structure prediction by ZEFSAII (Michael W. Deem and Ramdas Pophale) SiO2 
 PCOD9161624
Probable space group: P 21/M
;
_chemical_formula_sum "Si O2"
_cell_formula_units_Z 28
_cell_length_a 9.312580
_cell_length_b 8.942236
_cell_length_c 30.097831
_cell_angle_alpha 90.000000
_cell_angle_beta 141.040193
_cell_angle_gamma 90.000000
_cell_volume 1575.965320
_symmetry_space_group_name_H-M "P 21/M"
_symmetry_group_IT_number 11
_symmetry_cell_setting 'monoclinic'
loop_
_space_group_symop_operation_xyz
x,y,z
-x,1/2+y,-z
-x,-y,-z
x,1/2-y,z
loop_
_atom_site_type_symbol
_atom_site_label
_atom_site_fract_x
_atom_site_fract_y
_atom_site_fract_z
Si Si1 0.254186 0.571032 0.432864
Si Si2 0.080566 0.428276 0.564847
Si Si3 0.882601 0.429234 0.288721
Si Si4 0.501919 0.428899 0.131475
Si Si5 0.177381 0.070668 0.137097
Si Si6 0.543797 0.570264 0.280555
Si Si7 0.648541 0.071039 0.996728
O O1 0.500000 0.500000 0.500000
O O2 0.267342 0.750000 0.431654
O O3 0.096524 0.536197 0.437973
O O4 0.124504 0.501642 0.359032
O O5 0.080080 0.250000 0.559410
O O6 0.333263 0.471401 0.643530
O O7 0.000000 0.500000 0.500000
O O8 0.893129 0.250000 0.296282
O O9 0.755144 0.461950 0.211652
O O10 0.709908 0.498139 0.283546
O O11 0.486996 0.250000 0.120923
O O12 0.321442 0.467725 0.127243
O O13 0.439957 0.512773 0.071839
O O14 0.195811 0.250000 0.147111
O O15 0.914592 0.029558 0.067260
O O16 0.297327 0.992116 0.207970
O O17 0.548311 0.750000 0.277796
O O18 0.633305 0.250000 0.994726
O O19 0.500000 0.000000 0.000000
#
# Coordination Sequence:
#
# PCOD9161624 Si02
#       7
#     4   4   4   4   4   4   4
#     4  10  20  34  52  77 106 137 175 216 258 307
#     4   9  19  33  50  75 104 133 169 209 252 302
#     4   9  17  31  52  77 104 134 168 211 259 304
#     4   9  18  34  56  80 103 128 167 214 257 304
#     4   9  19  35  55  79 102 130 170 213 256 304
#     4   9  17  30  50  77 104 130 167 214 255 299
#     4  11  23  37  53  75 106 140 172 207 255 310
#
# _framework density 17.766888000000002
#
# number of rings (size 3 to 8) (size 9 to 14) (size 15 to 20)
#    0.000    2.571    0.000    3.857    0.000    7.429 
#    0.000    1.429    0.000    1.714    0.000    0.000 
#    0.000    0.000    0.000    0.000    0.000    0.000 
#
# Total GULP energy -156064.835409 kJ/mol
# GULP energy per Si atom -5573.744122 kJ/mol
# Density = 1.772645 g / cm^3
# Si number density = 17.766888 Si / 1000 Ang^3
#
#
#
# Elastic Constant Matrix: (Units=GPa)
#
#
# Indices 1 2 3 4 5 6 
#
# 1 51.7149 34.3363 70.4275 0.0000 -2.4509 0.0000
# 2 34.3363 50.8159 77.9064 0.0000 -0.3894 0.0000
# 3 70.4275 77.9064 224.9168 0.0000 -2.8004 0.0000
# 4 0.0000 0.0000 0.0000 40.1608 0.0000 -2.6718
# 5 -2.4509 -0.3894 -2.8004 0.0000 25.7605 0.0000
# 6 0.0000 0.0000 0.0000 -2.6718 0.0000 24.5469
#
#
#
# Elastic Compliance Matrix: (Units=1/GPa)
#
#
# Indices 1 2 3 4 5 6 
#
# 1 0.039391 -0.016501 -0.006584 0.000000 0.002782 0.000000
# 2 -0.016501 0.048898 -0.011797 0.000000 -0.002113 0.000000
# 3 -0.006584 -0.011797 0.010598 0.000000 0.000347 0.000000
# 4 0.000000 0.000000 0.000000 0.025082 0.000000 0.002730
# 5 0.002782 -0.002113 0.000347 0.000000 0.039090 0.000000
# 6 0.000000 0.000000 0.000000 0.002730 0.000000 0.041036
#
#
# Mechanical properties :
#
#
# Convention : Reuss Voigt Hill
#
# Bulk Modulus (GPa) = 34.33632 76.97644 55.65638
# Shear Modulus (GPa) = 17.63263 27.74547 22.68905
#
# Velocity S-wave (km/s) = 3.15372 3.95605 3.57745
# Velocity P-wave (km/s) = 5.71220 8.01791 6.96118
#
# Compressibility (1/GPa) = 0.02912368
#
# Stress axis : x y z
#
# Youngs Moduli (GPa) = 25.38639 20.45084 94.35574
#
# Poissons Ratio (x) = 0.33746 0.62126
# Poissons Ratio (y) = 0.41890 1.11307
# Poissons Ratio (z) = 0.16715 0.24125
#
# Static dielectric constant tensor:
#      x y z
#    x 1.613690 0.000000 0.021720 
#    y 0.000000 1.589660 0.000000 
#    z 0.021720 0.000000 1.646970 
# 
# From -- ./inp_files/72757.got.cif
#   From: 2010.05.17/outbox.cif.g08.bks.cpg/sg11_37_cif.got.tgz:72757.got - 2010.06.03 12:22:45.
