data_PCOD9161812
_publ_section_title
;
Structure prediction by ZEFSAII (Michael W. Deem and Ramdas Pophale) SiO2 
 PCOD9161812
Probable space group: P 21/M
;
_chemical_formula_sum "Si O2"
_cell_formula_units_Z 32
_cell_length_a 15.549087
_cell_length_b 8.437170
_cell_length_c 12.664350
_cell_angle_alpha 90.000000
_cell_angle_beta 87.992538
_cell_angle_gamma 90.000000
_cell_volume 1660.420084
_symmetry_space_group_name_H-M "P 21/M"
_symmetry_group_IT_number 11
_symmetry_cell_setting 'monoclinic'
loop_
_space_group_symop_operation_xyz
x,y,z
-x,1/2+y,-z
-x,-y,-z
x,1/2-y,z
loop_
_atom_site_type_symbol
_atom_site_label
_atom_site_fract_x
_atom_site_fract_y
_atom_site_fract_z
Si Si1 0.562615 0.939489 0.905542
Si Si2 0.092322 0.561790 0.956985
Si Si3 0.943049 0.561029 0.264793
Si Si4 0.631687 0.441178 0.469630
Si Si5 0.526706 0.558599 0.668239
Si Si6 0.136261 0.557181 0.304485
Si Si7 0.754434 0.057832 0.896456
Si Si8 0.172767 0.557915 0.541989
O O1 0.557948 0.750000 0.904258
O O2 0.537193 0.997185 0.788194
O O3 0.660382 0.991973 0.922113
O O4 0.500000 0.000000 0.000000
O O5 0.090394 0.750000 0.968258
O O6 0.101163 0.514590 0.835073
O O7 0.172451 0.504722 0.023797
O O8 0.000000 0.500000 0.000000
O O9 0.943865 0.750000 0.251939
O O10 0.892854 0.514509 0.372175
O O11 0.042310 0.506255 0.268465
O O12 0.629838 0.250000 0.473487
O O13 0.601218 0.501573 0.585480
O O14 0.561864 0.493774 0.385432
O O15 0.728737 0.489228 0.439590
O O16 0.527286 0.750000 0.669141
O O17 0.136140 0.750000 0.304140
O O18 0.210209 0.507647 0.220123
O O19 0.151188 0.507136 0.423664
O O20 0.750126 0.250000 0.899114
O O21 0.166942 0.750000 0.547502
#
# Coordination Sequence:
#
# PCOD9161812 Si02
#       8
#     4   4   4   4   4   4   4   4
#     4  11  24  40  58  85 120 156 194 242 292 347
#     4  11  22  39  63  87 115 150 193 242 292 349
#     4  11  22  37  55  80 117 155 193 239 289 340
#     4   9  18  34  58  83 109 146 188 232 283 345
#     4   9  19  36  57  82 112 143 184 235 286 338
#     4   9  18  35  57  81 113 150 191 238 288 343
#     4  10  21  40  64  87 113 151 194 242 296 348
#     4  10  20  34  54  82 114 150 194 234 283 346
#
# _framework density 19.272231000000001
#
# number of rings (size 3 to 8) (size 9 to 14) (size 15 to 20)
#    0.000    2.000    1.250    2.250    0.000    4.500 
#    0.000    3.750    0.000    0.000    0.000    0.000 
#    0.000    0.000    0.000    0.000    0.000    0.000 
#
# Total GULP energy -178716.989540 kJ/mol
# GULP energy per Si atom -5584.905923 kJ/mol
# Density = 1.922837 g / cm^3
# Si number density = 19.272231 Si / 1000 Ang^3
#
#
#
# Elastic Constant Matrix: (Units=GPa)
#
#
# Indices 1 2 3 4 5 6 
#
# 1 118.9735 18.7876 80.7011 0.0000 -12.8450 0.0000
# 2 18.7876 17.1735 18.5920 0.0000 1.2733 0.0000
# 3 80.7011 18.5920 127.8436 0.0000 -2.2608 0.0000
# 4 0.0000 0.0000 0.0000 29.3487 0.0000 -5.6308
# 5 -12.8450 1.2733 -2.2608 0.0000 30.0987 0.0000
# 6 0.0000 0.0000 0.0000 -5.6308 0.0000 24.7412
#
#
#
# Elastic Compliance Matrix: (Units=1/GPa)
#
#
# Indices 1 2 3 4 5 6 
#
# 1 0.016774 -0.008933 -0.009169 0.000000 0.006848 0.000000
# 2 -0.008933 0.074277 -0.005293 0.000000 -0.007352 0.000000
# 3 -0.009169 -0.005293 0.014333 0.000000 -0.002612 0.000000
# 4 0.000000 0.000000 0.000000 0.035629 0.000000 0.008109
# 5 0.006848 -0.007352 -0.002612 0.000000 0.036261 0.000000
# 6 0.000000 0.000000 0.000000 0.008109 0.000000 0.042264
#
#
# Mechanical properties :
#
#
# Convention : Reuss Voigt Hill
#
# Bulk Modulus (GPa) = 17.06609 55.57244 36.31926
# Shear Modulus (GPa) = 17.49110 26.56506 22.02808
#
# Velocity S-wave (km/s) = 3.01588 3.71672 3.38449
# Velocity P-wave (km/s) = 4.58278 6.87872 5.84460
#
# Compressibility (1/GPa) = 0.05859574
#
# Stress axis : x y z
#
# Youngs Moduli (GPa) = 59.61487 13.46309 69.76758
#
# Poissons Ratio (x) = 0.12026 0.63967
# Poissons Ratio (y) = 0.53252 0.36929
# Poissons Ratio (z) = 0.54659 0.07126
#
# Static dielectric constant tensor:
#      x y z
#    x 1.656750 0.000000 0.023940 
#    y 0.000000 1.666100 0.000000 
#    z 0.023940 0.000000 1.667800 
# 
# From -- ./inp_files/38226.got.cif
#   From: 2010.05.17/outbox.cif.g08.bks.cpg/sg11_20_cif.got.tgz:38226.got - 2010.06.03 12:22:45.
