data_PCOD9161535
_publ_section_title
;
Structure prediction by ZEFSAII (Michael W. Deem and Ramdas Pophale) SiO2 
 PCOD9161535
Probable space group: P 21/M
;
_chemical_formula_sum "Si O2"
_cell_formula_units_Z 20
_cell_length_a 16.663809
_cell_length_b 9.331924
_cell_length_c 15.170698
_cell_angle_alpha 90.000000
_cell_angle_beta 25.844828
_cell_angle_gamma 90.000000
_cell_volume 1028.426230
_symmetry_space_group_name_H-M "P 21/M"
_symmetry_group_IT_number 11
_symmetry_cell_setting 'monoclinic'
loop_
_space_group_symop_operation_xyz
x,y,z
-x,1/2+y,-z
-x,-y,-z
x,1/2-y,z
loop_
_atom_site_type_symbol
_atom_site_label
_atom_site_fract_x
_atom_site_fract_y
_atom_site_fract_z
Si Si1 0.186797 0.414677 0.917711
Si Si2 0.575286 0.577423 0.011349
Si Si3 0.896032 0.924691 0.810040
Si Si4 0.742881 0.085023 0.320344
Si Si5 0.310875 0.924133 0.434272
O O1 0.248192 0.250000 0.856394
O O2 0.282552 0.497253 0.743663
O O3 0.202332 0.472286 0.001790
O O4 0.965081 0.415648 0.119206
O O5 0.567093 0.750000 0.008040
O O6 0.452279 0.539033 0.218209
O O7 0.500000 0.500000 0.000000
O O8 0.781372 0.535362 0.837336
O O9 0.895065 0.750000 0.815146
O O10 0.107050 0.971173 0.605643
O O11 0.689498 0.250000 0.359659
O O12 0.656551 0.027867 0.497082
O O13 0.308530 0.750000 0.442501
#
# Coordination Sequence:
#
# PCOD9161535 Si02
#       5
#     4   4   4   4   4
#     4   8  13  23  41  64  89 117 147 177 211 255
#     4  10  20  34  51  68  88 116 151 192 233 270
#     4   8  15  29  48  68  91 121 153 181 217 271
#     4   8  13  23  41  64  89 117 147 177 211 255
#     4   8  15  29  48  68  91 121 153 181 217 271
#
# _framework density 19.447191
#
# number of rings (size 3 to 8) (size 9 to 14) (size 15 to 20)
#    0.000    3.600    0.000    2.400    0.000    0.800 
#    0.000    3.000    0.000    2.400    0.000    0.000 
#    0.000    0.000    0.000    0.000    0.000    0.000 
#
# Total GULP energy -111452.583442 kJ/mol
# GULP energy per Si atom -5572.629172 kJ/mol
# Density = 1.940293 g / cm^3
# Si number density = 19.447191 Si / 1000 Ang^3
#
#
#
# Elastic Constant Matrix: (Units=GPa)
#
#
# Indices 1 2 3 4 5 6 
#
# 1 103.3314 16.3281 8.3631 0.0000 0.7001 0.0000
# 2 16.3281 15.4716 5.2759 0.0000 4.9413 0.0000
# 3 8.3631 5.2759 53.6543 0.0000 1.7349 0.0000
# 4 0.0000 0.0000 0.0000 15.3827 0.0000 11.3482
# 5 0.7001 4.9413 1.7349 0.0000 20.5459 0.0000
# 6 0.0000 0.0000 0.0000 11.3482 0.0000 24.2729
#
#
#
# Elastic Compliance Matrix: (Units=1/GPa)
#
#
# Indices 1 2 3 4 5 6 
#
# 1 0.011782 -0.013113 -0.000638 0.000000 0.002806 0.000000
# 2 -0.013113 0.086839 -0.005850 0.000000 -0.019944 0.000000
# 3 -0.000638 -0.005850 0.019319 0.000000 -0.000203 0.000000
# 4 0.000000 0.000000 0.000000 0.099235 0.000000 -0.046395
# 5 0.002806 -0.019944 -0.000203 0.000000 0.053390 0.000000
# 6 0.000000 0.000000 0.000000 -0.046395 0.000000 0.062889
#
#
# Mechanical properties :
#
#
# Convention : Reuss Voigt Hill
#
# Bulk Modulus (GPa) = 12.70044 25.82129 19.26086
# Shear Modulus (GPa) = 12.53443 21.53964 17.03704
#
# Velocity S-wave (km/s) = 2.54153 3.33167 2.96305
# Velocity P-wave (km/s) = 3.89325 5.30155 4.65101
#
# Compressibility (1/GPa) = 0.07873743
#
# Stress axis : x y z
#
# Youngs Moduli (GPa) = 84.87275 11.51562 51.76235
#
# Poissons Ratio (x) = 0.15101 0.03301
# Poissons Ratio (y) = 1.11297 0.30282
# Poissons Ratio (z) = 0.05413 0.06737
#
# Static dielectric constant tensor:
#      x y z
#    x 1.712560 0.000000 -0.042030 
#    y 0.000000 1.647730 0.000000 
#    z -0.042030 0.000000 1.727470 
# 
# From -- ./inp_files/16368.got.cif
#   From: 2010.05.17/outbox.cif.g08.bks.cpg/sg11_9_cif.got.tgz:16368.got - 2010.06.03 12:22:45.
