data_PCOD9161320
_publ_section_title
;
Structure prediction by ZEFSAII (Michael W. Deem and Ramdas Pophale) SiO2 
 PCOD9161320
Probable space group: P 21/M
;
_chemical_formula_sum "Si O2"
_cell_formula_units_Z 28
_cell_length_a 9.385016
_cell_length_b 7.487016
_cell_length_c 23.484988
_cell_angle_alpha 90.000000
_cell_angle_beta 126.655004
_cell_angle_gamma 90.000000
_cell_volume 1323.856748
_symmetry_space_group_name_H-M "P 21/M"
_symmetry_group_IT_number 11
_symmetry_cell_setting 'monoclinic'
loop_
_space_group_symop_operation_xyz
x,y,z
-x,1/2+y,-z
-x,-y,-z
x,1/2-y,z
loop_
_atom_site_type_symbol
_atom_site_label
_atom_site_fract_x
_atom_site_fract_y
_atom_site_fract_z
Si Si1 0.481727 0.535960 0.928824
Si Si2 0.805557 0.963826 0.929133
Si Si3 0.775579 0.969054 0.791890
Si Si4 0.825311 0.961171 0.496507
Si Si5 0.603284 0.041870 0.340387
Si Si6 0.942472 0.030902 0.349291
Si Si7 0.897876 0.468426 0.208573
O O1 0.479654 0.750000 0.921713
O O2 0.650158 0.466973 0.933314
O O3 0.294309 0.470597 0.859266
O O4 0.500000 0.500000 0.000000
O O5 0.785568 0.750000 0.921891
O O6 0.787224 0.028406 0.860050
O O7 0.000000 0.000000 0.000000
O O8 0.778209 0.750000 0.791923
O O9 0.590186 0.030696 0.720087
O O10 0.945601 0.026127 0.796135
O O11 0.800340 0.750000 0.493943
O O12 0.885343 0.027073 0.573033
O O13 0.662433 0.031449 0.420363
O O14 0.000000 0.000000 0.500000
O O15 0.595232 0.250000 0.323116
O O16 0.764981 0.968770 0.340417
O O17 0.942784 0.250000 0.350931
O O18 0.935257 0.976042 0.282279
O O19 0.895984 0.250000 0.208073
#
# Coordination Sequence:
#
# PCOD9161320 Si02
#       7
#     4   4   4   4   4   4   4
#     4  10  20  33  52  75 100 128 161 201 244 289
#     4  10  20  34  52  76 102 130 164 204 247 293
#     4   9  17  29  47  69  94 124 162 201 237 282
#     4   9  16  27  45  69  94 121 153 193 236 282
#     4   9  16  28  46  68  92 120 154 195 237 282
#     4   8  14  25  43  65  89 116 151 191 231 273
#     4   9  16  28  47  70  92 121 161 201 235 277
#
# _framework density 21.150324999999999
#
# number of rings (size 3 to 8) (size 9 to 14) (size 15 to 20)
#    0.000    2.857    0.000    3.000    0.000    5.143 
#    0.000    1.429    0.000    8.571    0.000    0.000 
#    0.000    0.000    0.000    0.000    0.000    0.000 
#
# Total GULP energy -156234.645786 kJ/mol
# GULP energy per Si atom -5579.808778 kJ/mol
# Density = 2.110219 g / cm^3
# Si number density = 21.150325 Si / 1000 Ang^3
#
#
#
# Elastic Constant Matrix: (Units=GPa)
#
#
# Indices 1 2 3 4 5 6 
#
# 1 171.5399 5.4001 126.8997 0.0000 -0.2776 0.0000
# 2 5.4001 54.9318 -6.1356 0.0000 0.9780 0.0000
# 3 126.8997 -6.1356 236.5680 0.0000 0.7420 0.0000
# 4 0.0000 0.0000 0.0000 20.4262 0.0000 -0.1685
# 5 -0.2776 0.9780 0.7420 0.0000 35.7420 0.0000
# 6 0.0000 0.0000 0.0000 -0.1685 0.0000 5.6631
#
#
#
# Elastic Compliance Matrix: (Units=1/GPa)
#
#
# Indices 1 2 3 4 5 6 
#
# 1 0.009797 -0.001559 -0.005297 0.000000 0.000229 0.000000
# 2 -0.001559 0.018515 0.001318 0.000000 -0.000546 0.000000
# 3 -0.005297 0.001318 0.007103 0.000000 -0.000225 0.000000
# 4 0.000000 0.000000 0.000000 0.048969 0.000000 0.001457
# 5 0.000229 -0.000546 -0.000225 0.000000 0.028000 0.000000
# 6 0.000000 0.000000 0.000000 0.001457 0.000000 0.176624
#
#
# Mechanical properties :
#
#
# Convention : Reuss Voigt Hill
#
# Bulk Modulus (GPa) = 41.08394 79.48535 60.28465
# Shear Modulus (GPa) = 16.22347 34.82463 25.52405
#
# Velocity S-wave (km/s) = 2.77258 4.06215 3.47766
# Velocity P-wave (km/s) = 5.45129 7.72426 6.68508
#
# Compressibility (1/GPa) = 0.02434041
#
# Stress axis : x y z
#
# Youngs Moduli (GPa) = 102.06981 54.01149 140.78190
#
# Poissons Ratio (x) = 0.08419 0.74566
# Poissons Ratio (y) = 0.15911 -0.18556
# Poissons Ratio (z) = 0.54062 -0.07119
#
# Static dielectric constant tensor:
#      x y z
#    x 1.726560 0.000000 0.003310 
#    y 0.000000 1.834910 0.000000 
#    z 0.003310 0.000000 1.749630 
# 
# From -- ./inp_files/26446.got.cif
#   From: 2010.05.17/outbox.cif.g08.bks.cpg/sg11_14_cif.got.tgz:26446.got - 2010.06.03 12:22:45.
