data_PCOD9161179
_publ_section_title
;
Structure prediction by ZEFSAII (Michael W. Deem and Ramdas Pophale) SiO2 
 PCOD9161179
Probable space group: P 21/M
;
_chemical_formula_sum "Si O2"
_cell_formula_units_Z 32
_cell_length_a 12.872780
_cell_length_b 7.545835
_cell_length_c 19.463792
_cell_angle_alpha 90.000000
_cell_angle_beta 140.601683
_cell_angle_gamma 90.000000
_cell_volume 1199.999187
_symmetry_space_group_name_H-M "P 21/M"
_symmetry_group_IT_number 11
_symmetry_cell_setting 'monoclinic'
loop_
_space_group_symop_operation_xyz
x,y,z
-x,1/2+y,-z
-x,-y,-z
x,1/2-y,z
loop_
_atom_site_type_symbol
_atom_site_label
_atom_site_fract_x
_atom_site_fract_y
_atom_site_fract_z
Si Si1 0.259819 0.966031 0.859918
Si Si2 0.248943 0.465091 0.608520
Si Si3 0.543711 0.049928 0.662528
Si Si4 0.066127 0.034608 0.389677
Si Si5 0.547076 0.456145 0.162937
Si Si6 0.070814 0.536161 0.892079
Si Si7 0.246538 0.040169 0.352191
Si Si8 0.262263 0.459102 0.114582
O O1 0.267152 0.750000 0.864085
O O2 0.408559 0.033411 0.888765
O O3 0.217836 0.023032 0.915759
O O4 0.098559 0.016871 0.733412
O O5 0.249701 0.250000 0.614347
O O6 0.402121 0.527465 0.638499
O O7 0.097516 0.525084 0.483659
O O8 0.292252 0.535548 0.705726
O O9 0.490871 0.250000 0.624267
O O10 0.595225 0.985077 0.614083
O O11 0.702606 0.041152 0.793668
O O12 0.065638 0.250000 0.392704
O O13 0.212372 0.976177 0.412161
O O14 0.507053 0.250000 0.133342
O O15 0.403683 0.536324 0.135986
O O16 0.066276 0.750000 0.889172
O O17 0.905848 0.471507 0.771518
O O18 0.102863 0.482471 0.986431
O O19 0.225725 0.250000 0.346664
O O20 0.284770 0.250000 0.136947
#
# Coordination Sequence:
#
# PCOD9161179 Si02
#       8
#     4   4   4   4   4   4   4   4
#     4   8  15  30  51  72  96 127 159 191 232 283
#     4   9  18  32  49  71  98 127 160 195 232 277
#     4  10  20  33  49  70  97 127 158 195 237 280
#     4   8  15  30  51  72  96 127 159 191 232 283
#     4   9  18  32  49  71  98 127 160 195 232 277
#     4   9  18  33  52  72  94 123 159 196 235 282
#     4   9  18  33  52  72  94 123 159 196 235 282
#     4  10  20  33  49  70  97 127 158 195 237 280
#
# _framework density 26.666684
#
# number of rings (size 3 to 8) (size 9 to 14) (size 15 to 20)
#    0.000    3.000    0.000    2.250    0.000    3.500 
#    0.000    1.250    0.000    1.500    0.000    0.000 
#    0.000    0.000    0.000    0.000    0.000    0.000 
#
# Total GULP energy -178775.741354 kJ/mol
# GULP energy per Si atom -5586.741917 kJ/mol
# Density = 2.660599 g / cm^3
# Si number density = 26.666684 Si / 1000 Ang^3
#
#
#
# Elastic Constant Matrix: (Units=GPa)
#
#
# Indices 1 2 3 4 5 6 
#
# 1 135.4268 -4.7592 12.5076 0.0000 -37.1109 0.0000
# 2 -4.7592 75.7448 -4.6895 0.0000 0.3488 0.0000
# 3 12.5076 -4.6895 120.8283 0.0000 -35.8692 0.0000
# 4 0.0000 0.0000 0.0000 10.6104 0.0000 -2.8196
# 5 -37.1109 0.3488 -35.8692 0.0000 47.8162 0.0000
# 6 0.0000 0.0000 0.0000 -2.8196 0.0000 8.5062
#
#
#
# Elastic Compliance Matrix: (Units=1/GPa)
#
#
# Indices 1 2 3 4 5 6 
#
# 1 0.009637 0.000665 0.001604 0.000000 0.008678 0.000000
# 2 0.000665 0.013285 0.000735 0.000000 0.000970 0.000000
# 3 0.001604 0.000735 0.010944 0.000000 0.009449 0.000000
# 4 0.000000 0.000000 0.000000 0.103350 0.000000 0.034258
# 5 0.008678 0.000970 0.009449 0.000000 0.034730 0.000000
# 6 0.000000 0.000000 0.000000 0.034258 0.000000 0.128917
#
#
# Mechanical properties :
#
#
# Convention : Reuss Voigt Hill
#
# Bulk Modulus (GPa) = 25.07854 37.56863 31.32359
# Shear Modulus (GPa) = 16.22604 35.31596 25.77100
#
# Velocity S-wave (km/s) = 2.46941 3.64311 3.11209
# Velocity P-wave (km/s) = 4.18993 5.64049 4.96843
#
# Compressibility (1/GPa) = 0.03987472
#
# Stress axis : x y z
#
# Youngs Moduli (GPa) = 103.76237 75.27270 91.37609
#
# Poissons Ratio (x) = -0.05005 -0.14661
# Poissons Ratio (y) = -0.06899 -0.06715
# Poissons Ratio (z) = -0.16649 -0.05531
#
# Static dielectric constant tensor:
#      x y z
#    x 2.157670 0.000000 0.097060 
#    y 0.000000 1.987240 0.000000 
#    z 0.097060 0.000000 2.160060 
# 
# From -- ./inp_files/54288.got.cif
#   From: 2010.05.17/outbox.cif.g08.bks.cpg/sg11_28_cif.got.tgz:54288.got - 2010.06.03 12:22:45.
