data_PCOD9161146
_publ_section_title
;
Structure prediction by ZEFSAII (Michael W. Deem and Ramdas Pophale) SiO2 
 PCOD9161146
Probable space group: P 21/M
;
_chemical_formula_sum "Si O2"
_cell_formula_units_Z 32
_cell_length_a 11.643524
_cell_length_b 18.741976
_cell_length_c 15.851072
_cell_angle_alpha 90.000000
_cell_angle_beta 153.031894
_cell_angle_gamma 90.000000
_cell_volume 1568.665811
_symmetry_space_group_name_H-M "P 21/M"
_symmetry_group_IT_number 11
_symmetry_cell_setting 'monoclinic'
loop_
_space_group_symop_operation_xyz
x,y,z
-x,1/2+y,-z
-x,-y,-z
x,1/2-y,z
loop_
_atom_site_type_symbol
_atom_site_label
_atom_site_fract_x
_atom_site_fract_y
_atom_site_fract_z
Si Si1 0.893035 0.333517 0.654588
Si Si2 0.388802 0.668469 0.156445
Si Si3 0.191735 0.331531 0.424093
Si Si4 0.540735 0.083342 0.539342
Si Si5 0.283864 0.832550 0.787200
Si Si6 0.677694 0.833517 0.916140
Si Si7 0.963444 0.083342 0.962051
Si Si8 0.293879 0.167450 0.790542
O O1 0.826389 0.250000 0.599676
O O2 0.658394 0.378727 0.534367
O O3 0.037026 0.360926 0.664872
O O4 0.106120 0.335034 0.868707
O O5 0.313763 0.750000 0.084495
O O6 0.577373 0.673460 0.359123
O O7 0.151678 0.622360 0.031506
O O8 0.559164 0.635885 0.192911
O O9 0.125963 0.250000 0.355231
O O10 0.291165 0.377640 0.411337
O O11 0.960411 0.364115 0.326664
O O12 0.753021 0.091485 0.751008
O O13 0.500000 0.000000 0.500000
O O14 0.215914 0.750000 0.723185
O O15 0.420560 0.860926 0.792714
O O16 0.500254 0.831680 0.000083
O O17 0.646250 0.750000 0.872962
O O18 0.786312 0.878727 0.910339
O O19 0.000000 0.000000 0.000000
O O20 0.237733 0.250000 0.730463
#
# Coordination Sequence:
#
# PCOD9161146 Si02
#       8
#     4   4   4   4   4   4   4   4
#     4   8  14  28  51  73  90 115 155 195 226 263
#     4   9  17  30  49  71  93 119 151 186 227 275
#     4   9  17  30  49  71  93 119 151 186 227 275
#     4  10  20  33  48  67  93 124 156 190 227 268
#     4   8  14  26  47  73  94 112 143 190 234 268
#     4   8  14  28  51  73  90 115 155 195 226 263
#     4  10  20  33  48  67  93 124 156 190 227 268
#     4   8  14  26  47  73  94 112 143 190 234 268
#
# _framework density 20.399502999999999
#
# number of rings (size 3 to 8) (size 9 to 14) (size 15 to 20)
#    0.000    3.250    0.000    2.250    0.000    4.000 
#    0.000    2.500    0.000   11.250    0.000    0.000 
#    0.000    0.000    0.000    0.000    0.000    0.000 
#
# Total GULP energy -178277.280756 kJ/mol
# GULP energy per Si atom -5571.165024 kJ/mol
# Density = 2.035307 g / cm^3
# Si number density = 20.399503 Si / 1000 Ang^3
#
#
#
# Elastic Constant Matrix: (Units=GPa)
#
#
# Indices 1 2 3 4 5 6 
#
# 1 212.7718 84.8982 36.6973 0.0000 68.3617 0.0000
# 2 84.8982 78.5523 14.5619 0.0000 35.5357 0.0000
# 3 36.6973 14.5619 47.9261 0.0000 14.9230 0.0000
# 4 0.0000 0.0000 0.0000 13.1866 0.0000 -7.2617
# 5 68.3617 35.5357 14.9230 0.0000 47.3814 0.0000
# 6 0.0000 0.0000 0.0000 -7.2617 0.0000 -1.1868
#
#
#
# Elastic Compliance Matrix: (Units=1/GPa)
#
#
# Indices 1 2 3 4 5 6 
#
# 1 0.011308 -0.007105 -0.003414 0.000000 -0.009911 0.000000
# 2 -0.007105 0.023830 0.000635 0.000000 -0.007821 0.000000
# 3 -0.003414 0.000635 0.024282 0.000000 -0.003199 0.000000
# 4 0.000000 0.000000 0.000000 0.017355 0.000000 -0.106194
# 5 -0.009911 -0.007821 -0.003199 0.000000 0.042279 0.000000
# 6 0.000000 0.000000 0.000000 -0.106194 0.000000 -0.192838
#
#
# Mechanical properties :
#
#
# Convention : Reuss Voigt Hill
#
# Bulk Modulus (GPa) = 25.21859 67.95167 46.58513
# Shear Modulus (GPa) = -122.55075 25.41575 -48.56750
#
# Velocity S-wave (km/s) = -7.75924 3.53356 -4.88466
# Velocity P-wave (km/s) = 8.23925 7.07325 2.98784
#
# Compressibility (1/GPa) = 0.03965329
#
# Stress axis : x y z
#
# Youngs Moduli (GPa) = 88.43250 41.96424 41.18199
#
# Poissons Ratio (x) = 0.29816 0.14058
# Poissons Ratio (y) = 0.62832 -0.02616
# Poissons Ratio (z) = 0.30188 -0.02666
#
# Static dielectric constant tensor:
#      x y z
#    x 1.778420 0.000000 0.000140 
#    y 0.000000 1.671770 0.000000 
#    z 0.000140 0.000000 1.778150 
# 
# From -- ./inp_files/59649.got.cif
#   From: 2010.05.17/outbox.cif.g08.bks.cpg/sg11_30_cif.got.tgz:59649.got - 2010.06.03 12:22:45.
