data_PCOD9161962
_publ_section_title
;
Structure prediction by ZEFSAII (Michael W. Deem and Ramdas Pophale) SiO2 
 PCOD9161962
Probable space group: P 21/M
;
_chemical_formula_sum "Si O2"
_cell_formula_units_Z 24
_cell_length_a 15.177596
_cell_length_b 9.128876
_cell_length_c 14.523446
_cell_angle_alpha 90.000000
_cell_angle_beta 31.921370
_cell_angle_gamma 90.000000
_cell_volume 1064.006822
_symmetry_space_group_name_H-M "P 21/M"
_symmetry_group_IT_number 11
_symmetry_cell_setting 'monoclinic'
loop_
_space_group_symop_operation_xyz
x,y,z
-x,1/2+y,-z
-x,-y,-z
x,1/2-y,z
loop_
_atom_site_type_symbol
_atom_site_label
_atom_site_fract_x
_atom_site_fract_y
_atom_site_fract_z
Si Si1 0.675406 0.078248 0.865926
Si Si2 0.215363 0.079431 0.902220
Si Si3 0.562017 0.416232 0.165573
Si Si4 0.816730 0.580170 0.575913
Si Si5 0.916065 0.076553 0.311116
Si Si6 0.674923 0.075124 0.366957
O O1 0.665070 0.250000 0.852515
O O2 0.808057 0.003432 0.680878
O O3 0.682711 0.066127 0.969590
O O4 0.500000 0.000000 0.000000
O O5 0.219161 0.250000 0.872891
O O6 0.382490 0.032857 0.808565
O O7 0.205092 0.979220 0.821548
O O8 0.068340 0.055597 0.105759
O O9 0.583322 0.250000 0.182795
O O10 0.373891 0.428673 0.295008
O O11 0.858931 0.750000 0.552342
O O12 0.923351 0.509595 0.399871
O O13 0.904838 0.250000 0.341511
O O14 0.755257 0.031656 0.393090
O O15 0.660037 0.250000 0.378643
O O16 0.500000 0.000000 0.500000
#
# Coordination Sequence:
#
# PCOD9161962 Si02
#       6
#     4   4   4   4   4   4
#     4   9  17  31  53  80 111 144 182 229 275 321
#     4  11  23  38  57  82 112 146 183 223 271 326
#     4   9  19  35  55  82 112 144 184 228 273 322
#     4  10  20  34  56  84 111 143 185 230 275 324
#     4  10  23  40  56  79 112 148 183 222 271 325
#     4  11  23  40  62  85 110 141 180 226 272 322
#
# _framework density 22.556246000000002
#
# number of rings (size 3 to 8) (size 9 to 14) (size 15 to 20)
#    0.000    2.000    0.000    4.500    0.000    9.333 
#    0.000    0.833    0.000    0.000    0.000    0.000 
#    0.000    0.000    0.000    0.000    0.000    0.000 
#
# Total GULP energy -134222.842533 kJ/mol
# GULP energy per Si atom -5592.618439 kJ/mol
# Density = 2.250491 g / cm^3
# Si number density = 22.556246 Si / 1000 Ang^3
#
#
#
# Elastic Constant Matrix: (Units=GPa)
#
#
# Indices 1 2 3 4 5 6 
#
# 1 62.7685 35.8310 8.6208 0.0000 5.9250 0.0000
# 2 35.8310 78.9497 37.3912 0.0000 22.0976 0.0000
# 3 8.6208 37.3912 87.2935 0.0000 12.2592 0.0000
# 4 0.0000 0.0000 0.0000 40.3877 0.0000 10.3766
# 5 5.9250 22.0976 12.2592 0.0000 39.3002 0.0000
# 6 0.0000 0.0000 0.0000 10.3766 0.0000 19.1897
#
#
#
# Elastic Compliance Matrix: (Units=1/GPa)
#
#
# Indices 1 2 3 4 5 6 
#
# 1 0.022199 -0.012035 0.002596 0.000000 0.002610 0.000000
# 2 -0.012035 0.024581 -0.008005 0.000000 -0.009510 0.000000
# 3 0.002596 -0.008005 0.014695 0.000000 -0.000474 0.000000
# 4 0.000000 0.000000 0.000000 0.028755 0.000000 -0.015549
# 5 0.002610 -0.009510 -0.000474 0.000000 0.030547 0.000000
# 6 0.000000 0.000000 0.000000 -0.015549 0.000000 0.060519
#
#
# Mechanical properties :
#
#
# Convention : Reuss Voigt Hill
#
# Bulk Modulus (GPa) = 37.61236 43.63307 40.62271
# Shear Modulus (GPa) = 22.21769 29.58678 25.90223
#
# Velocity S-wave (km/s) = 3.14186 3.62565 3.39239
# Velocity P-wave (km/s) = 5.46560 6.07563 5.77867
#
# Compressibility (1/GPa) = 0.02658701
#
# Stress axis : x y z
#
# Youngs Moduli (GPa) = 45.04771 40.68111 68.05186
#
# Poissons Ratio (x) = 0.48960 -0.17667
# Poissons Ratio (y) = 0.54215 0.54476
# Poissons Ratio (z) = -0.11695 0.32566
#
# Static dielectric constant tensor:
#      x y z
#    x 1.844630 0.000000 -0.032100 
#    y 0.000000 1.741310 0.000000 
#    z -0.032100 0.000000 1.902020 
# 
# From -- ./inp_files/20589.got.cif
#   From: 2010.05.17/outbox.cif.g08.bks.cpg/sg11_11_cif.got.tgz:20589.got - 2010.06.03 12:22:45.
