data_PCOD9161557
_publ_section_title
;
Structure prediction by ZEFSAII (Michael W. Deem and Ramdas Pophale) SiO2 
 PCOD9161557
Probable space group: P 21/M
;
_chemical_formula_sum "Si O2"
_cell_formula_units_Z 32
_cell_length_a 22.345200
_cell_length_b 8.539001
_cell_length_c 22.323383
_cell_angle_alpha 90.000000
_cell_angle_beta 154.904894
_cell_angle_gamma 90.000000
_cell_volume 1806.517588
_symmetry_space_group_name_H-M "P 21/M"
_symmetry_group_IT_number 11
_symmetry_cell_setting 'monoclinic'
loop_
_space_group_symop_operation_xyz
x,y,z
-x,1/2+y,-z
-x,-y,-z
x,1/2-y,z
loop_
_atom_site_type_symbol
_atom_site_label
_atom_site_fract_x
_atom_site_fract_y
_atom_site_fract_z
Si Si1 0.438939 0.936950 0.382880
Si Si2 0.195011 0.937848 0.005397
Si Si3 0.505324 0.063340 0.319794
Si Si4 0.118807 0.561878 0.063710
Si Si5 0.569105 0.059112 0.249459
Si Si6 0.807040 0.439106 0.372955
Si Si7 0.873829 0.561029 0.307785
Si Si8 0.752497 0.560684 0.070192
O O1 0.437571 0.750000 0.382722
O O2 0.276346 0.991139 0.225887
O O3 0.500000 0.000000 0.500000
O O4 0.528003 0.990379 0.405495
O O5 0.210711 0.750000 0.019337
O O6 0.098972 0.981171 0.975509
O O7 0.345903 0.015188 0.157505
O O8 0.160520 0.995949 0.907693
O O9 0.515440 0.250000 0.334092
O O10 0.592761 0.011567 0.340277
O O11 0.118170 0.750000 0.066109
O O12 0.000000 0.500000 0.000000
O O13 0.570249 0.250000 0.250177
O O14 0.686870 0.005148 0.309630
O O15 0.411285 0.011737 0.086417
O O16 0.804065 0.250000 0.369500
O O17 0.791457 0.498640 0.291075
O O18 0.962891 0.488240 0.536364
O O19 0.869703 0.750000 0.305372
O O20 0.811558 0.509485 0.187814
O O21 0.756693 0.750000 0.071387
#
# Coordination Sequence:
#
# PCOD9161557 Si02
#       8
#     4   4   4   4   4   4   4   4
#     4  10  20  34  51  74 101 130 165 202 241 288
#     4   9  17  30  47  70  97 122 154 195 235 280
#     4   9  16  29  49  70  94 126 158 191 236 284
#     4   9  19  33  50  72  98 127 161 199 238 285
#     4   8  15  28  47  68  89 115 150 187 223 270
#     4   9  17  31  48  64  87 121 153 182 224 275
#     4   9  18  31  46  65  90 118 150 186 224 272
#     4   9  17  30  47  67  90 118 152 188 229 275
#
# _framework density 17.713640000000002
#
# number of rings (size 3 to 8) (size 9 to 14) (size 15 to 20)
#    0.000    3.000    0.000    2.625    0.000    4.000 
#    0.000    4.375    0.000    3.000    0.000    0.000 
#    0.000    0.000    0.000    0.000    0.000    0.000 
#
# Total GULP energy -178187.263498 kJ/mol
# GULP energy per Si atom -5568.351984 kJ/mol
# Density = 1.767332 g / cm^3
# Si number density = 17.713640 Si / 1000 Ang^3
#
#
#
# Elastic Constant Matrix: (Units=GPa)
#
#
# Indices 1 2 3 4 5 6 
#
# 1 217.2913 29.7618 76.0348 0.0000 -23.2218 0.0000
# 2 29.7618 17.9923 16.7983 0.0000 -6.1321 0.0000
# 3 76.0348 16.7983 58.5352 0.0000 -24.3232 0.0000
# 4 0.0000 0.0000 0.0000 16.7414 0.0000 -5.0567
# 5 -23.2218 -6.1321 -24.3232 0.0000 33.2328 0.0000
# 6 0.0000 0.0000 0.0000 -5.0567 0.0000 31.5241
#
#
#
# Elastic Compliance Matrix: (Units=1/GPa)
#
#
# Indices 1 2 3 4 5 6 
#
# 1 0.009004 -0.005231 -0.011470 0.000000 -0.003068 0.000000
# 2 -0.005231 0.079140 -0.016335 0.000000 -0.001008 0.000000
# 3 -0.011470 -0.016335 0.046112 0.000000 0.022720 0.000000
# 4 0.000000 0.000000 0.000000 0.062774 0.000000 0.010069
# 5 -0.003068 -0.001008 0.022720 0.000000 0.044390 0.000000
# 6 0.000000 0.000000 0.000000 0.010069 0.000000 0.033337
#
#
# Mechanical properties :
#
#
# Convention : Reuss Voigt Hill
#
# Bulk Modulus (GPa) = 14.66633 59.88982 37.27808
# Shear Modulus (GPa) = 13.75299 27.71459 20.73379
#
# Velocity S-wave (km/s) = 2.78943 3.95978 3.42497
# Velocity P-wave (km/s) = 4.32114 7.40202 6.06062
#
# Compressibility (1/GPa) = 0.06818337
#
# Stress axis : x y z
#
# Youngs Moduli (GPa) = 111.05813 12.63577 21.68655
#
# Poissons Ratio (x) = 0.06610 0.24874
# Poissons Ratio (y) = 0.58099 0.35425
# Poissons Ratio (z) = 1.27383 0.20641
#
# Static dielectric constant tensor:
#      x y z
#    x 1.632930 0.000000 -0.009520 
#    y 0.000000 1.603890 0.000000 
#    z -0.009520 0.000000 1.607820 
# 
# From -- ./inp_files/66459.got.cif
#   From: 2010.05.17/outbox.cif.g08.bks.cpg/sg11_34_cif.got.tgz:66459.got - 2010.06.03 12:22:45.
