data_PCOD9161723
_publ_section_title
;
Structure prediction by ZEFSAII (Michael W. Deem and Ramdas Pophale) SiO2 
 PCOD9161723
Probable space group: P 21/M
;
_chemical_formula_sum "Si O2"
_cell_formula_units_Z 32
_cell_length_a 16.591460
_cell_length_b 8.356714
_cell_length_c 11.714458
_cell_angle_alpha 90.000000
_cell_angle_beta 91.138949
_cell_angle_gamma 90.000000
_cell_volume 1623.889716
_symmetry_space_group_name_H-M "P 21/M"
_symmetry_group_IT_number 11
_symmetry_cell_setting 'monoclinic'
loop_
_space_group_symop_operation_xyz
x,y,z
-x,1/2+y,-z
-x,-y,-z
x,1/2-y,z
loop_
_atom_site_type_symbol
_atom_site_label
_atom_site_fract_x
_atom_site_fract_y
_atom_site_fract_z
Si Si1 0.330006 0.942751 0.650799
Si Si2 0.460040 0.942674 0.823885
Si Si3 0.171872 0.059837 0.776484
Si Si4 0.243685 0.556225 0.427977
Si Si5 0.081272 0.941038 0.560457
Si Si6 0.908559 0.941392 0.991270
Si Si7 0.776216 0.441355 0.828098
Si Si8 0.380291 0.057891 0.054504
O O1 0.334291 0.750000 0.644757
O O2 0.411850 0.002759 0.712003
O O3 0.308221 0.003139 0.523341
O O4 0.254008 0.983357 0.730292
O O5 0.461890 0.750000 0.818875
O O6 0.551240 0.996245 0.852310
O O7 0.408837 0.992509 0.933477
O O8 0.184853 0.250000 0.782966
O O9 0.141708 0.001279 0.898798
O O10 0.102770 0.021503 0.681577
O O11 0.251185 0.750000 0.423823
O O12 0.156537 0.521152 0.479917
O O13 0.245789 0.496389 0.298966
O O14 0.079037 0.750000 0.576512
O O15 0.000000 0.000000 0.500000
O O16 0.908564 0.750000 0.993995
O O17 0.861359 0.998478 0.877927
O O18 0.000000 0.000000 0.000000
O O19 0.778446 0.250000 0.824655
O O20 0.706387 0.497333 0.911189
O O21 0.379798 0.250000 0.049258
#
# Coordination Sequence:
#
# PCOD9161723 Si02
#       8
#     4   4   4   4   4   4   4   4
#     4   9  17  34  58  81 105 139 183 228 273 322
#     4   9  18  33  57  84 111 144 185 229 275 330
#     4  10  21  36  53  77 108 138 174 221 273 327
#     4   8  18  35  54  76 104 141 181 223 271 323
#     4  10  20  35  56  80 105 136 178 227 275 321
#     4  11  25  41  57  80 109 143 183 229 278 331
#     4  11  22  38  58  78 109 150 186 222 273 335
#     4  10  20  34  53  83 117 147 181 227 278 327
#
# _framework density 19.705772
#
# number of rings (size 3 to 8) (size 9 to 14) (size 15 to 20)
#    0.000    2.250    0.000    3.375    1.750    5.000 
#    0.000    6.250    0.000    0.000    0.000    0.000 
#    0.000    0.000    0.000    0.000    0.000    0.000 
#
# Total GULP energy -178619.390698 kJ/mol
# GULP energy per Si atom -5581.855959 kJ/mol
# Density = 1.966092 g / cm^3
# Si number density = 19.705772 Si / 1000 Ang^3
#
#
#
# Elastic Constant Matrix: (Units=GPa)
#
#
# Indices 1 2 3 4 5 6 
#
# 1 241.0223 387.5838 349.1086 0.0000 58.5262 0.0000
# 2 387.5838 967.2823 798.3655 0.0000 63.2452 0.0000
# 3 349.1086 798.3655 735.1885 0.0000 71.8046 0.0000
# 4 0.0000 0.0000 0.0000 20.2190 0.0000 5.1837
# 5 58.5262 63.2452 71.8046 0.0000 37.7282 0.0000
# 6 0.0000 0.0000 0.0000 5.1837 0.0000 21.7069
#
#
#
# Elastic Compliance Matrix: (Units=1/GPa)
#
#
# Indices 1 2 3 4 5 6 
#
# 1 0.019438 -0.004209 -0.002953 0.000000 -0.017479 0.000000
# 2 -0.004209 0.011636 -0.011509 0.000000 0.008928 0.000000
# 3 -0.002953 -0.011509 0.015880 0.000000 -0.006351 0.000000
# 4 0.000000 0.000000 0.000000 0.052684 0.000000 -0.012581
# 5 -0.017479 0.008928 -0.006351 0.000000 0.050740 0.000000
# 6 0.000000 0.000000 0.000000 -0.012581 0.000000 0.049073
#
#
# Mechanical properties :
#
#
# Convention : Reuss Voigt Hill
#
# Bulk Modulus (GPa) = 104.02016 557.06763 330.54390
# Shear Modulus (GPa) = 20.83363 43.15983 31.99673
#
# Velocity S-wave (km/s) = 3.25504 4.68505 4.03392
# Velocity P-wave (km/s) = 8.18708 17.67972 13.77681
#
# Compressibility (1/GPa) = 0.00961352
#
# Stress axis : x y z
#
# Youngs Moduli (GPa) = 51.44434 85.94344 62.97136
#
# Poissons Ratio (x) = 0.36173 0.18593
# Poissons Ratio (y) = 0.21653 0.72472
# Poissons Ratio (z) = 0.15190 0.98910
#
# Static dielectric constant tensor:
#      x y z
#    x 1.674320 0.000000 0.035370 
#    y 0.000000 1.675930 0.000000 
#    z 0.035370 0.000000 1.712380 
# 
# From -- ./inp_files/38198.got.cif
#   From: 2010.05.17/outbox.cif.g08.bks.cpg/sg11_20_cif.got.tgz:38198.got - 2010.06.03 12:22:45.
