data_PCOD9161527
_publ_section_title
;
Structure prediction by ZEFSAII (Michael W. Deem and Ramdas Pophale) SiO2 
 PCOD9161527
Probable space group: P 21/M
;
_chemical_formula_sum "Si O2"
_cell_formula_units_Z 32
_cell_length_a 15.899588
_cell_length_b 8.882448
_cell_length_c 14.924208
_cell_angle_alpha 90.000000
_cell_angle_beta 62.347605
_cell_angle_gamma 90.000000
_cell_volume 1866.962018
_symmetry_space_group_name_H-M "P 21/M"
_symmetry_group_IT_number 11
_symmetry_cell_setting 'monoclinic'
loop_
_space_group_symop_operation_xyz
x,y,z
-x,1/2+y,-z
-x,-y,-z
x,1/2-y,z
loop_
_atom_site_type_symbol
_atom_site_label
_atom_site_fract_x
_atom_site_fract_y
_atom_site_fract_z
Si Si1 0.734343 0.070676 0.852207
Si Si2 0.351304 0.568774 0.917649
Si Si3 0.348870 0.070423 0.727508
Si Si4 0.572082 0.572280 0.813026
Si Si5 0.893101 0.570383 0.654430
Si Si6 0.113106 0.569415 0.533132
Si Si7 0.277663 0.930466 0.589927
Si Si8 0.443073 0.070882 0.389275
O O1 0.743190 0.250000 0.843863
O O2 0.644859 0.020118 0.836412
O O3 0.827021 0.996191 0.763909
O O4 0.712004 0.027963 0.965766
O O5 0.347988 0.750000 0.905120
O O6 0.324652 0.486895 0.839030
O O7 0.461820 0.532486 0.884230
O O8 0.352859 0.250000 0.722290
O O9 0.279313 0.005505 0.686441
O O10 0.452921 0.001512 0.654504
O O11 0.584455 0.750000 0.825896
O O12 0.588285 0.549748 0.698790
O O13 0.885554 0.750000 0.657911
O O14 0.860915 0.508017 0.573574
O O15 0.004163 0.528406 0.609164
O O16 0.116835 0.750000 0.518349
O O17 0.185798 0.530210 0.575826
O O18 0.283548 0.750000 0.594989
O O19 0.368669 0.992803 0.491287
O O20 0.448702 0.250000 0.403808
#
# Coordination Sequence:
#
# PCOD9161527 Si02
#       8
#     4   4   4   4   4   4   4   4
#     4  11  21  32  51  77 104 135 170 207 250 302
#     4   9  20  37  52  70 100 137 174 211 251 293
#     4  11  22  35  52  74 100 133 172 212 254 297
#     4   9  18  32  50  73 103 137 171 209 249 291
#     4  10  20  35  55  79 107 134 163 204 250 298
#     4   9  20  37  56  78 103 134 168 202 248 302
#     4  11  21  34  53  75 101 133 170 210 251 299
#     4  10  20  34  50  73 106 139 171 206 247 296
#
# _framework density 17.140146000000001
#
# number of rings (size 3 to 8) (size 9 to 14) (size 15 to 20)
#    0.000    2.000    0.000    4.875    0.000    7.000 
#    0.000    0.000    0.000    0.750    0.000    0.000 
#    0.000    0.000    0.000    0.000    0.000    0.000 
#
# Total GULP energy -178747.250604 kJ/mol
# GULP energy per Si atom -5585.851581 kJ/mol
# Density = 1.710113 g / cm^3
# Si number density = 17.140146 Si / 1000 Ang^3
#
#
#
# Elastic Constant Matrix: (Units=GPa)
#
#
# Indices 1 2 3 4 5 6 
#
# 1 88.2783 44.9607 57.1699 0.0000 20.4347 0.0000
# 2 44.9607 59.8475 47.7819 0.0000 10.0960 0.0000
# 3 57.1699 47.7819 121.9669 0.0000 1.5233 0.0000
# 4 0.0000 0.0000 0.0000 29.1537 0.0000 2.4114
# 5 20.4347 10.0960 1.5233 0.0000 14.3411 0.0000
# 6 0.0000 0.0000 0.0000 2.4114 0.0000 24.3559
#
#
#
# Elastic Compliance Matrix: (Units=1/GPa)
#
#
# Indices 1 2 3 4 5 6 
#
# 1 0.031502 -0.008578 -0.010935 0.000000 -0.037687 0.000000
# 2 -0.008578 0.031048 -0.008033 0.000000 -0.008781 0.000000
# 3 -0.010935 -0.008033 0.016228 0.000000 0.019512 0.000000
# 4 0.000000 0.000000 0.000000 0.034584 0.000000 -0.003424
# 5 -0.037687 -0.008781 0.019512 0.000000 0.127539 0.000000
# 6 0.000000 0.000000 0.000000 -0.003424 0.000000 0.041397
#
#
# Mechanical properties :
#
#
# Convention : Reuss Voigt Hill
#
# Bulk Modulus (GPa) = 42.21860 63.32419 52.77139
# Shear Modulus (GPa) = 14.48079 21.58217 18.03148
#
# Velocity S-wave (km/s) = 2.90978 3.55231 3.24698
# Velocity P-wave (km/s) = 5.99783 7.33828 6.70165
#
# Compressibility (1/GPa) = 0.02368624
#
# Stress axis : x y z
#
# Youngs Moduli (GPa) = 31.74420 32.20778 61.62300
#
# Poissons Ratio (x) = 0.27628 0.67383
# Poissons Ratio (y) = 0.27231 0.49502
# Poissons Ratio (z) = 0.34711 0.25873
#
# Static dielectric constant tensor:
#      x y z
#    x 1.573140 0.000000 0.004540 
#    y 0.000000 1.568190 0.000000 
#    z 0.004540 0.000000 1.575160 
# 
# From -- ./inp_files/51697.got.cif
#   From: 2010.05.17/outbox.cif.g08.bks.cpg/sg11_26_cif.got.tgz:51697.got - 2010.06.03 12:22:45.
