data_PCOD9161341
_publ_section_title
;
Structure prediction by ZEFSAII (Michael W. Deem and Ramdas Pophale) SiO2 
 PCOD9161341
Probable space group: P 21/M
;
_chemical_formula_sum "Si O2"
_cell_formula_units_Z 32
_cell_length_a 23.204106
_cell_length_b 9.057938
_cell_length_c 28.494510
_cell_angle_alpha 90.000000
_cell_angle_beta 162.176642
_cell_angle_gamma 90.000000
_cell_volume 1833.138203
_symmetry_space_group_name_H-M "P 21/M"
_symmetry_group_IT_number 11
_symmetry_cell_setting 'monoclinic'
loop_
_space_group_symop_operation_xyz
x,y,z
-x,1/2+y,-z
-x,-y,-z
x,1/2-y,z
loop_
_atom_site_type_symbol
_atom_site_label
_atom_site_fract_x
_atom_site_fract_y
_atom_site_fract_z
Si Si1 0.169882 0.424389 0.418345
Si Si2 0.561274 0.574469 0.698463
Si Si3 0.148503 0.575763 0.906777
Si Si4 0.852864 0.926772 0.849772
Si Si5 0.849899 0.927429 0.349338
Si Si6 0.581186 0.072285 0.966869
Si Si7 0.908058 0.574735 0.038167
Si Si8 0.108387 0.072982 0.727204
O O1 0.174870 0.250000 0.431933
O O2 0.374828 0.485543 0.565534
O O3 0.030994 0.447249 0.266300
O O4 0.072278 0.507935 0.386008
O O5 0.522868 0.750000 0.670471
O O6 0.651009 0.540612 0.716849
O O7 0.725267 0.543338 0.863806
O O8 0.158541 0.750000 0.926194
O O9 0.130628 0.482759 0.939874
O O10 0.327942 0.537530 0.013341
O O11 0.876202 0.750000 0.867786
O O12 0.912929 0.993742 0.846651
O O13 0.000000 0.000000 0.000000
O O14 0.862784 0.750000 0.363121
O O15 0.636066 0.969442 0.196812
O O16 0.887432 0.967418 0.324261
O O17 0.000000 0.000000 0.500000
O O18 0.598817 0.250000 0.986823
O O19 0.710075 0.993959 0.105659
O O20 0.938460 0.750000 0.060723
O O21 0.111095 0.250000 0.733353
#
# Coordination Sequence:
#
# PCOD9161341 Si02
#       8
#     4   4   4   4   4   4   4   4
#     4  10  21  36  55  78 104 138 177 214 257 310
#     4   9  19  34  52  77 106 134 170 217 261 305
#     4   9  19  35  53  75 103 134 172 217 259 304
#     4   9  17  31  51  75 104 136 172 214 258 307
#     4  10  22  37  54  80 111 139 171 215 262 307
#     4   9  19  37  57  77 103 137 178 217 255 308
#     4  10  20  33  52  78 105 136 174 214 259 311
#     4  10  20  35  56  80 105 136 174 214 258 310
#
# _framework density 17.456402000000001
#
# number of rings (size 3 to 8) (size 9 to 14) (size 15 to 20)
#    0.000    2.500    0.000    3.375    0.000    8.000 
#    0.000    3.125    0.000    0.000    0.000    0.000 
#    0.000    0.000    0.000    0.000    0.000    0.000 
#
# Total GULP energy -178492.887364 kJ/mol
# GULP energy per Si atom -5577.902730 kJ/mol
# Density = 1.741667 g / cm^3
# Si number density = 17.456402 Si / 1000 Ang^3
#
#
#
# Elastic Constant Matrix: (Units=GPa)
#
#
# Indices 1 2 3 4 5 6 
#
# 1 166.7028 74.3158 82.5878 0.0000 18.2519 0.0000
# 2 74.3158 60.7627 56.8151 0.0000 12.9052 0.0000
# 3 82.5878 56.8151 101.5083 0.0000 31.8868 0.0000
# 4 0.0000 0.0000 0.0000 30.5779 0.0000 -1.8435
# 5 18.2519 12.9052 31.8868 0.0000 22.3597 0.0000
# 6 0.0000 0.0000 0.0000 -1.8435 0.0000 31.5254
#
#
#
# Elastic Compliance Matrix: (Units=1/GPa)
#
#
# Indices 1 2 3 4 5 6 
#
# 1 0.013979 -0.012957 -0.005228 0.000000 0.003523 0.000000
# 2 -0.012957 0.049069 -0.020558 0.000000 0.011573 0.000000
# 3 -0.005228 -0.020558 0.037215 0.000000 -0.036939 0.000000
# 4 0.000000 0.000000 0.000000 0.032819 0.000000 0.001919
# 5 0.003523 0.011573 -0.036939 0.000000 0.087846 0.000000
# 6 0.000000 0.000000 0.000000 0.001919 0.000000 0.031833
#
#
# Mechanical properties :
#
#
# Convention : Reuss Voigt Hill
#
# Bulk Modulus (GPa) = 43.90341 84.04567 63.97454
# Shear Modulus (GPa) = 14.79994 24.57628 19.68811
#
# Velocity S-wave (km/s) = 2.91490 3.75622 3.36198
# Velocity P-wave (km/s) = 6.04432 8.18919 7.19710
#
# Compressibility (1/GPa) = 0.02277727
#
# Stress axis : x y z
#
# Youngs Moduli (GPa) = 71.53370 20.37942 26.87101
#
# Poissons Ratio (x) = 0.26406 0.14048
# Poissons Ratio (y) = 0.92689 0.55240
# Poissons Ratio (z) = 0.37398 0.41895
#
# Static dielectric constant tensor:
#      x y z
#    x 1.598590 0.000000 0.014220 
#    y 0.000000 1.579880 0.000000 
#    z 0.014220 0.000000 1.572790 
# 
# From -- ./inp_files/72141.got.cif
#   From: 2010.05.17/outbox.cif.g08.bks.cpg/sg11_37_cif.got.tgz:72141.got - 2010.06.03 12:22:45.
