data_PCOD9161018
_publ_section_title
;
Structure prediction by ZEFSAII (Michael W. Deem and Ramdas Pophale) SiO2 
 PCOD9161018
Probable space group: P 21/M
;
_chemical_formula_sum "Si O2"
_cell_formula_units_Z 32
_cell_length_a 12.847579
_cell_length_b 8.469552
_cell_length_c 24.026343
_cell_angle_alpha 90.000000
_cell_angle_beta 43.601429
_cell_angle_gamma 90.000000
_cell_volume 1802.977650
_symmetry_space_group_name_H-M "P 21/M"
_symmetry_group_IT_number 11
_symmetry_cell_setting 'monoclinic'
loop_
_space_group_symop_operation_xyz
x,y,z
-x,1/2+y,-z
-x,-y,-z
x,1/2-y,z
loop_
_atom_site_type_symbol
_atom_site_label
_atom_site_fract_x
_atom_site_fract_y
_atom_site_fract_z
Si Si1 0.959689 0.440341 0.779437
Si Si2 0.337670 0.438808 0.825213
Si Si3 0.177934 0.060141 0.997223
Si Si4 0.857426 0.559912 0.519975
Si Si5 0.328697 0.439677 0.306494
Si Si6 0.657586 0.060912 0.961775
Si Si7 0.958062 0.058498 0.652816
Si Si8 0.880042 0.438739 0.176986
O O1 0.967317 0.250000 0.776959
O O2 0.796139 0.486431 0.867698
O O3 0.973376 0.494775 0.710526
O O4 0.082472 0.503647 0.775510
O O5 0.334225 0.250000 0.826432
O O6 0.227893 0.498105 0.917392
O O7 0.507291 0.494580 0.770873
O O8 0.271880 0.501059 0.792637
O O9 0.169670 0.250000 0.998391
O O10 0.019503 0.001459 0.083988
O O11 0.303593 0.010447 0.993249
O O12 0.855486 0.750000 0.520493
O O13 0.716755 0.509375 0.612553
O O14 0.000000 0.500000 0.500000
O O15 0.899643 0.509205 0.441078
O O16 0.331696 0.250000 0.303099
O O17 0.195734 0.498377 0.316903
O O18 0.656029 0.250000 0.966016
O O19 0.500000 0.000000 0.000000
O O20 0.950800 0.250000 0.655510
O O21 0.881408 0.250000 0.175999
#
# Coordination Sequence:
#
# PCOD9161018 Si02
#       8
#     4   4   4   4   4   4   4   4
#     4   9  19  34  52  73  98 131 170 205 243 297
#     4  11  22  35  53  74 100 133 169 210 252 301
#     4   9  20  36  52  71  95 129 171 210 250 296
#     4   8  15  29  49  72 101 133 163 199 245 297
#     4  10  20  32  48  77 109 133 163 205 253 299
#     4  10  20  32  47  69 101 137 167 203 247 293
#     4   9  17  32  54  77 102 135 169 202 245 301
#     4  10  20  36  55  74  98 128 167 213 256 295
#
# _framework density 17.748417
#
# number of rings (size 3 to 8) (size 9 to 14) (size 15 to 20)
#    0.000    2.500    0.000    1.875    1.750    3.000 
#    0.000    0.000    0.000    0.750    0.000    0.000 
#    0.000    0.000    0.000    0.000    0.000    0.000 
#
# Total GULP energy -178366.823215 kJ/mol
# GULP energy per Si atom -5573.963225 kJ/mol
# Density = 1.770802 g / cm^3
# Si number density = 17.748417 Si / 1000 Ang^3
#
#
#
# Elastic Constant Matrix: (Units=GPa)
#
#
# Indices 1 2 3 4 5 6 
#
# 1 79.2727 7.7961 38.7200 0.0000 22.5725 0.0000
# 2 7.7961 11.1325 14.7056 0.0000 6.6835 0.0000
# 3 38.7200 14.7056 80.5878 0.0000 31.7518 0.0000
# 4 0.0000 0.0000 0.0000 15.3833 0.0000 1.3531
# 5 22.5725 6.6835 31.7518 0.0000 26.0835 0.0000
# 6 0.0000 0.0000 0.0000 1.3531 0.0000 27.3790
#
#
#
# Elastic Compliance Matrix: (Units=1/GPa)
#
#
# Indices 1 2 3 4 5 6 
#
# 1 0.017631 -0.000527 -0.004644 0.000000 -0.009470 0.000000
# 2 -0.000527 0.119195 -0.018532 0.000000 -0.007527 0.000000
# 3 -0.004644 -0.018532 0.027994 0.000000 -0.025310 0.000000
# 4 0.000000 0.000000 0.000000 0.065289 0.000000 -0.003227
# 5 -0.009470 -0.007527 -0.025310 0.000000 0.079272 0.000000
# 6 0.000000 0.000000 0.000000 -0.003227 0.000000 0.036684
#
#
# Mechanical properties :
#
#
# Convention : Reuss Voigt Hill
#
# Bulk Modulus (GPa) = 8.51685 32.60405 20.56045
# Shear Modulus (GPa) = 11.55776 21.08725 16.32250
#
# Velocity S-wave (km/s) = 2.55463 3.45065 3.03588
# Velocity P-wave (km/s) = 3.67567 5.85542 4.88859
#
# Compressibility (1/GPa) = 0.11741430
#
# Stress axis : x y z
#
# Youngs Moduli (GPa) = 56.71723 8.38961 35.72202
#
# Poissons Ratio (x) = 0.00442 0.16589
# Poissons Ratio (y) = 0.02991 0.66199
# Poissons Ratio (z) = 0.26340 0.15547
#
# Static dielectric constant tensor:
#      x y z
#    x 1.572040 0.000000 0.019820 
#    y 0.000000 1.594820 0.000000 
#    z 0.019820 0.000000 1.652050 
# 
# From -- ./inp_files/42858.got.cif
#   From: 2010.05.17/outbox.cif.g08.bks.cpg/sg11_22_cif.got.tgz:42858.got - 2010.06.03 12:22:45.
