data_PCOD9161408
_publ_section_title
;
Structure prediction by ZEFSAII (Michael W. Deem and Ramdas Pophale) SiO2 
 PCOD9161408
Probable space group: P 21/M
;
_chemical_formula_sum "Si O2"
_cell_formula_units_Z 32
_cell_length_a 21.132673
_cell_length_b 9.257320
_cell_length_c 22.618286
_cell_angle_alpha 90.000000
_cell_angle_beta 18.955590
_cell_angle_gamma 90.000000
_cell_volume 1437.349772
_symmetry_space_group_name_H-M "P 21/M"
_symmetry_group_IT_number 11
_symmetry_cell_setting 'monoclinic'
loop_
_space_group_symop_operation_xyz
x,y,z
-x,1/2+y,-z
-x,-y,-z
x,1/2-y,z
loop_
_atom_site_type_symbol
_atom_site_label
_atom_site_fract_x
_atom_site_fract_y
_atom_site_fract_z
Si Si1 0.578091 0.418236 0.873472
Si Si2 0.927854 0.414833 0.186774
Si Si3 0.874115 0.581075 0.530763
Si Si4 0.870135 0.413140 0.891875
Si Si5 0.153617 0.082743 0.203618
Si Si6 0.478211 0.586100 0.381850
Si Si7 0.670169 0.076381 0.311211
Si Si8 0.578047 0.591122 0.683274
O O1 0.620108 0.250000 0.848514
O O2 0.388479 0.422909 0.998049
O O3 0.500000 0.500000 0.000000
O O4 0.762254 0.496657 0.681289
O O5 0.001692 0.250000 0.122901
O O6 0.721566 0.415598 0.404150
O O7 0.867489 0.455104 0.173346
O O8 0.060389 0.520138 0.107740
O O9 0.902606 0.750000 0.520033
O O10 0.067432 0.504901 0.335338
O O11 0.729773 0.571782 0.601745
O O12 0.944657 0.250000 0.818386
O O13 0.923110 0.511676 0.789099
O O14 0.637400 0.407803 0.099362
O O15 0.094118 0.250000 0.260227
O O16 0.548578 0.750000 0.317450
O O17 0.636330 0.487826 0.276123
O O18 0.423692 0.526846 0.366061
O O19 0.645279 0.250000 0.333268
O O20 0.500000 0.000000 0.500000
O O21 0.611667 0.750000 0.626172
#
# Coordination Sequence:
#
# PCOD9161408 Si02
#       8
#     4   4   4   4   4   4   4   4
#     4  11  25  45  70  99 135 174 212 259 308 365
#     4   9  19  34  52  79 110 145 191 246 306 370
#     4  11  23  42  69  97 130 170 214 264 313 369
#     4  11  22  37  58  85 118 157 202 254 310 367
#     4  11  24  42  66  97 131 169 213 259 313 373
#     4  10  20  33  53  80 109 145 193 246 303 368
#     4   9  17  31  51  74 106 144 188 244 302 364
#     4  10  22  38  56  83 118 155 199 251 308 365
#
# _framework density 22.263197000000002
#
# number of rings (size 3 to 8) (size 9 to 14) (size 15 to 20)
#    0.000    1.750    1.250    3.750    0.000    9.000 
#    0.000    0.625    0.000    0.000    0.000    0.000 
#    0.000    0.000    0.000    0.000    0.000    0.000 
#
# Total GULP energy -178942.678783 kJ/mol
# GULP energy per Si atom -5591.958712 kJ/mol
# Density = 2.221253 g / cm^3
# Si number density = 22.263197 Si / 1000 Ang^3
#
#
#
# Elastic Constant Matrix: (Units=GPa)
#
#
# Indices 1 2 3 4 5 6 
#
# 1 82.7912 47.1844 -1.1554 0.0000 -0.7875 0.0000
# 2 47.1844 138.1719 25.6458 0.0000 8.5410 0.0000
# 3 -1.1554 25.6458 87.0496 0.0000 5.7731 0.0000
# 4 0.0000 0.0000 0.0000 23.0000 0.0000 7.3708
# 5 -0.7875 8.5410 5.7731 0.0000 35.1194 0.0000
# 6 0.0000 0.0000 0.0000 7.3708 0.0000 33.7227
#
#
#
# Elastic Compliance Matrix: (Units=1/GPa)
#
#
# Indices 1 2 3 4 5 6 
#
# 1 0.015341 -0.005656 0.001775 0.000000 0.001428 0.000000
# 2 -0.005656 0.009821 -0.002833 0.000000 -0.002050 0.000000
# 3 0.001775 -0.002833 0.012433 0.000000 -0.001315 0.000000
# 4 0.000000 0.000000 0.000000 0.046753 0.000000 -0.010219
# 5 0.001428 -0.002050 -0.001315 0.000000 0.029221 0.000000
# 6 0.000000 0.000000 0.000000 -0.010219 0.000000 0.031887
#
#
# Mechanical properties :
#
#
# Convention : Reuss Voigt Hill
#
# Bulk Modulus (GPa) = 41.37760 50.15137 45.76448
# Shear Modulus (GPa) = 29.95092 34.12428 32.03760
#
# Velocity S-wave (km/s) = 3.67183 3.91930 3.79758
# Velocity P-wave (km/s) = 6.04999 6.56176 6.31107
#
# Compressibility (1/GPa) = 0.02416766
#
# Stress axis : x y z
#
# Youngs Moduli (GPa) = 65.18618 101.81781 80.43102
#
# Poissons Ratio (x) = 0.57593 -0.14280
# Poissons Ratio (y) = 0.36872 0.22783
# Poissons Ratio (z) = -0.11573 0.28842
#
# Static dielectric constant tensor:
#      x y z
#    x 1.840470 0.000000 -0.013510 
#    y 0.000000 1.776300 0.000000 
#    z -0.013510 0.000000 1.832930 
# 
# From -- ./inp_files/69920.got.cif
#   From: 2010.05.17/outbox.cif.g08.bks.cpg/sg11_35_cif.got.tgz:69920.got - 2010.06.03 12:22:45.
