data_PCOD9161348
_publ_section_title
;
Structure prediction by ZEFSAII (Michael W. Deem and Ramdas Pophale) SiO2 
 PCOD9161348
Probable space group: P 21/M
;
_chemical_formula_sum "Si O2"
_cell_formula_units_Z 32
_cell_length_a 19.135009
_cell_length_b 10.917810
_cell_length_c 14.656939
_cell_angle_alpha 90.000000
_cell_angle_beta 34.766804
_cell_angle_gamma 90.000000
_cell_volume 1746.077118
_symmetry_space_group_name_H-M "P 21/M"
_symmetry_group_IT_number 11
_symmetry_cell_setting 'monoclinic'
loop_
_space_group_symop_operation_xyz
x,y,z
-x,1/2+y,-z
-x,-y,-z
x,1/2-y,z
loop_
_atom_site_type_symbol
_atom_site_label
_atom_site_fract_x
_atom_site_fract_y
_atom_site_fract_z
Si Si1 0.493947 0.896503 0.777578
Si Si2 0.935174 0.616859 0.778679
Si Si3 0.436797 0.604690 0.628240
Si Si4 0.163271 0.887584 0.857859
Si Si5 0.937416 0.518928 0.206794
Si Si6 0.885298 0.447302 0.567691
Si Si7 0.773530 0.108920 0.874790
Si Si8 0.756034 0.605062 0.560344
O O1 0.501562 0.750000 0.779983
O O2 0.477949 0.919004 0.687501
O O3 0.621766 0.946513 0.678782
O O4 0.367066 0.931191 0.961647
O O5 0.871353 0.750000 0.843977
O O6 0.856085 0.496306 0.835001
O O7 0.992876 0.591229 0.815772
O O8 0.047911 0.622424 0.586254
O O9 0.500000 0.500000 0.500000
O O10 0.464289 0.750000 0.577384
O O11 0.290438 0.589267 0.773407
O O12 0.169285 0.750000 0.814846
O O13 0.140548 0.976419 0.796806
O O14 0.047537 0.899428 0.049170
O O15 0.850423 0.577639 0.376568
O O16 0.807093 0.386848 0.731723
O O17 0.806021 0.547671 0.599785
O O18 0.000000 0.500000 0.500000
O O19 0.790269 0.250000 0.893146
O O20 0.749801 0.750000 0.577756
#
# Coordination Sequence:
#
# PCOD9161348 Si02
#       8
#     4   4   4   4   4   4   4   4
#     4   9  19  35  55  80 109 142 182 225 266 315
#     4  10  20  34  53  79 112 144 179 229 279 320
#     4  10  20  36  57  80 109 144 182 223 267 318
#     4  10  20  34  53  78 109 145 184 227 275 323
#     4  10  20  33  52  78 108 143 185 227 273 325
#     4   9  20  33  52  79 105 136 176 218 265 320
#     4  10  20  36  58  81 109 145 183 222 268 326
#     4  10  20  35  56  81 110 144 181 222 271 326
#
# _framework density 18.326796000000002
#
# number of rings (size 3 to 8) (size 9 to 14) (size 15 to 20)
#    0.000    2.250    0.000    2.625    0.000    8.500 
#    0.000    5.000    0.000    5.250    0.000    0.000 
#    0.000    0.000    0.000    0.000    0.000    0.000 
#
# Total GULP energy -178200.201310 kJ/mol
# GULP energy per Si atom -5568.756291 kJ/mol
# Density = 1.828508 g / cm^3
# Si number density = 18.326796 Si / 1000 Ang^3
#
#
#
# Elastic Constant Matrix: (Units=GPa)
#
#
# Indices 1 2 3 4 5 6 
#
# 1 102.2302 37.4162 34.5533 0.0000 -17.6870 0.0000
# 2 37.4162 87.5834 30.3306 0.0000 -14.8291 0.0000
# 3 34.5533 30.3306 87.3942 0.0000 -14.2804 0.0000
# 4 0.0000 0.0000 0.0000 14.2435 0.0000 -3.6099
# 5 -17.6870 -14.8291 -14.2804 0.0000 27.3160 0.0000
# 6 0.0000 0.0000 0.0000 -3.6099 0.0000 21.2144
#
#
#
# Elastic Compliance Matrix: (Units=1/GPa)
#
#
# Indices 1 2 3 4 5 6 
#
# 1 0.012999 -0.003672 -0.003078 0.000000 0.004814 0.000000
# 2 -0.003672 0.014707 -0.002992 0.000000 0.004042 0.000000
# 3 -0.003078 -0.002992 0.014331 0.000000 0.003875 0.000000
# 4 0.000000 0.000000 0.000000 0.073372 0.000000 0.012485
# 5 0.004814 0.004042 0.003875 0.000000 0.043946 0.000000
# 6 0.000000 0.000000 0.000000 0.012485 0.000000 0.049262
#
#
# Mechanical properties :
#
#
# Convention : Reuss Voigt Hill
#
# Bulk Modulus (GPa) = 44.34128 53.53424 48.93776
# Shear Modulus (GPa) = 21.22069 24.21529 22.71799
#
# Velocity S-wave (km/s) = 3.40649 3.63892 3.52462
# Velocity P-wave (km/s) = 6.30235 6.85055 6.58216
#
# Compressibility (1/GPa) = 0.02255235
#
# Stress axis : x y z
#
# Youngs Moduli (GPa) = 76.92752 67.99523 69.77893
#
# Poissons Ratio (x) = 0.24969 0.21481
# Poissons Ratio (y) = 0.28249 0.20876
# Poissons Ratio (z) = 0.23682 0.20342
#
# Static dielectric constant tensor:
#      x y z
#    x 1.670640 0.000000 -0.018840 
#    y 0.000000 1.624420 0.000000 
#    z -0.018840 0.000000 1.658270 
# 
# From -- ./inp_files/53622.got.cif
#   From: 2010.05.17/outbox.cif.g08.bks.cpg/sg11_27_cif.got.tgz:53622.got - 2010.06.03 12:22:45.
