data_PCOD9161395
_publ_section_title
;
Structure prediction by ZEFSAII (Michael W. Deem and Ramdas Pophale) SiO2 
 PCOD9161395
Probable space group: P 21/M
;
_chemical_formula_sum "Si O2"
_cell_formula_units_Z 32
_cell_length_a 12.496506
_cell_length_b 8.568645
_cell_length_c 16.457186
_cell_angle_alpha 90.000000
_cell_angle_beta 98.372875
_cell_angle_gamma 90.000000
_cell_volume 1743.421930
_symmetry_space_group_name_H-M "P 21/M"
_symmetry_group_IT_number 11
_symmetry_cell_setting 'monoclinic'
loop_
_space_group_symop_operation_xyz
x,y,z
-x,1/2+y,-z
-x,-y,-z
x,1/2-y,z
loop_
_atom_site_type_symbol
_atom_site_label
_atom_site_fract_x
_atom_site_fract_y
_atom_site_fract_z
Si Si1 0.584470 0.062251 0.855468
Si Si2 0.522926 0.562358 0.591552
Si Si3 0.956653 0.571590 0.770051
Si Si4 0.107238 0.429079 0.049263
Si Si5 0.724781 0.939654 0.720749
Si Si6 0.299580 0.568500 0.979013
Si Si7 0.611761 0.063415 0.268259
Si Si8 0.196936 0.434479 0.802562
O O1 0.590155 0.250000 0.856135
O O2 0.672214 0.997800 0.799897
O O3 0.469972 0.006761 0.807815
O O4 0.605276 0.008023 0.950808
O O5 0.500000 0.500000 0.500000
O O6 0.522196 0.750000 0.588757
O O7 0.638754 0.514378 0.642116
O O8 0.434120 0.513443 0.649061
O O9 0.975621 0.750000 0.744696
O O10 0.071883 0.486902 0.783458
O O11 0.914404 0.576416 0.857944
O O12 0.847451 0.506126 0.716137
O O13 0.129026 0.250000 0.024075
O O14 0.200387 0.543982 0.030500
O O15 0.000000 0.500000 0.000000
O O16 0.727884 0.750000 0.725947
O O17 0.317879 0.750000 0.961741
O O18 0.256303 0.487629 0.892730
O O19 0.604330 0.250000 0.262561
O O20 0.731650 0.008878 0.260993
O O21 0.202000 0.250000 0.798725
#
# Coordination Sequence:
#
# PCOD9161395 Si02
#       8
#     4   4   4   4   4   4   4   4
#     4  10  20  33  53  79 106 139 184 236 280 314
#     4   9  19  36  63  93 115 137 165 207 263 324
#     4  10  20  34  53  75 107 147 186 227 273 321
#     4  11  20  30  48  71 100 141 188 238 279 312
#     4   9  18  34  55  82 113 145 179 217 270 324
#     4  11  22  34  49  72 106 146 189 234 279 322
#     4  10  22  41  60  78 108 145 180 217 269 330
#     4  12  25  37  53  76 106 146 192 233 273 320
#
# _framework density 18.354709
#
# number of rings (size 3 to 8) (size 9 to 14) (size 15 to 20)
#    0.000    1.750    2.500    3.375    0.000    5.500 
#    0.000    0.000    0.000    0.750    0.000    0.000 
#    0.000    0.000    0.000    0.000    0.000    0.000 
#
# Total GULP energy -178448.395679 kJ/mol
# GULP energy per Si atom -5576.512365 kJ/mol
# Density = 1.831293 g / cm^3
# Si number density = 18.354709 Si / 1000 Ang^3
#
#
#
# Elastic Constant Matrix: (Units=GPa)
#
#
# Indices 1 2 3 4 5 6 
#
# 1 100.9692 18.1631 61.9499 0.0000 -3.8679 0.0000
# 2 18.1631 39.3779 17.1512 0.0000 3.8365 0.0000
# 3 61.9499 17.1512 95.4526 0.0000 13.2745 0.0000
# 4 0.0000 0.0000 0.0000 22.2000 0.0000 -3.3853
# 5 -3.8679 3.8365 13.2745 0.0000 18.3035 0.0000
# 6 0.0000 0.0000 0.0000 -3.3853 0.0000 23.9798
#
#
#
# Elastic Compliance Matrix: (Units=1/GPa)
#
#
# Indices 1 2 3 4 5 6 
#
# 1 0.020216 -0.004546 -0.014492 0.000000 0.015735 0.000000
# 2 -0.004546 0.028671 -0.001370 0.000000 -0.005976 0.000000
# 3 -0.014492 -0.001370 0.022815 0.000000 -0.019322 0.000000
# 4 0.000000 0.000000 0.000000 0.046036 0.000000 0.006499
# 5 0.015735 -0.005976 -0.019322 0.000000 0.073225 0.000000
# 6 0.000000 0.000000 0.000000 0.006499 0.000000 0.042619
#
#
# Mechanical properties :
#
#
# Convention : Reuss Voigt Hill
#
# Bulk Modulus (GPa) = 32.37710 47.81423 40.09566
# Shear Modulus (GPa) = 17.56276 22.13238 19.84757
#
# Velocity S-wave (km/s) = 3.09666 3.47625 3.29193
# Velocity P-wave (km/s) = 5.51939 6.49762 6.02838
#
# Compressibility (1/GPa) = 0.03088603
#
# Stress axis : x y z
#
# Youngs Moduli (GPa) = 49.46573 34.87877 43.83064
#
# Poissons Ratio (x) = 0.15855 0.63519
# Poissons Ratio (y) = 0.22485 0.06006
# Poissons Ratio (z) = 0.71685 0.04780
#
# Static dielectric constant tensor:
#      x y z
#    x 1.678340 0.000000 0.019240 
#    y 0.000000 1.618040 0.000000 
#    z 0.019240 0.000000 1.630660 
# 
# From -- ./inp_files/49361.got.cif
#   From: 2010.05.17/outbox.cif.g08.bks.cpg/sg11_25_cif.got.tgz:49361.got - 2010.06.03 12:22:45.
