data_PCOD9161040
_publ_section_title
;
Structure prediction by ZEFSAII (Michael W. Deem and Ramdas Pophale) SiO2 
 PCOD9161040
Probable space group: P 21/M
;
_chemical_formula_sum "Si O2"
_cell_formula_units_Z 24
_cell_length_a 15.169967
_cell_length_b 8.949741
_cell_length_c 20.692905
_cell_angle_alpha 90.000000
_cell_angle_beta 145.540662
_cell_angle_gamma 90.000000
_cell_volume 1589.629087
_symmetry_space_group_name_H-M "P 21/M"
_symmetry_group_IT_number 11
_symmetry_cell_setting 'monoclinic'
loop_
_space_group_symop_operation_xyz
x,y,z
-x,1/2+y,-z
-x,-y,-z
x,1/2-y,z
loop_
_atom_site_type_symbol
_atom_site_label
_atom_site_fract_x
_atom_site_fract_y
_atom_site_fract_z
Si Si1 0.328705 0.427863 0.899954
Si Si2 0.147659 0.574480 0.056335
Si Si3 0.283304 0.925496 0.005177
Si Si4 0.805960 0.073090 0.441699
Si Si5 0.542451 0.929036 0.779613
Si Si6 0.119144 0.574226 0.664345
O O1 0.340906 0.250000 0.907763
O O2 0.225491 0.483544 0.777910
O O3 0.500000 0.500000 0.000000
O O4 0.255991 0.487740 0.922999
O O5 0.155839 0.750000 0.076250
O O6 0.148763 0.560031 0.978474
O O7 0.311327 0.493456 0.172121
O O8 0.000000 0.500000 0.000000
O O9 0.310114 0.750000 0.009346
O O10 0.428979 0.997472 0.132368
O O11 0.828628 0.250000 0.467821
O O12 0.627810 0.032349 0.349526
O O13 0.826615 0.050899 0.376975
O O14 0.940463 0.980834 0.557978
O O15 0.552974 0.750000 0.791677
O O16 0.131020 0.750000 0.685824
#
# Coordination Sequence:
#
# PCOD9161040 Si02
#       6
#     4   4   4   4   4   4
#     4  12  23  34  49  68  96 131 166 202 241 290
#     4   9  18  30  48  73 101 128 160 201 247 297
#     4   9  19  32  47  70  98 127 161 197 238 289
#     4   9  18  32  47  67  93 127 165 202 241 283
#     4   9  16  28  48  70  97 127 158 197 242 287
#     4  10  20  32  48  68  94 127 165 204 241 281
#
# _framework density 15.097861999999999
#
# number of rings (size 3 to 8) (size 9 to 14) (size 15 to 20)
#    1.000    1.333    0.000    4.000    0.000    3.333 
#    0.000    0.000    0.000    0.000    0.000    1.167 
#    0.000    0.000    0.000    0.000    0.000    0.000 
#
# Total GULP energy -133609.988215 kJ/mol
# GULP energy per Si atom -5567.082842 kJ/mol
# Density = 1.506350 g / cm^3
# Si number density = 15.097862 Si / 1000 Ang^3
#
#
#
# Elastic Constant Matrix: (Units=GPa)
#
#
# Indices 1 2 3 4 5 6 
#
# 1 65.4888 47.9807 35.1520 0.0000 19.5927 0.0000
# 2 47.9807 118.2189 59.2489 0.0000 8.1256 0.0000
# 3 35.1520 59.2489 81.2809 0.0000 14.6382 0.0000
# 4 0.0000 0.0000 0.0000 28.6553 0.0000 1.4291
# 5 19.5927 8.1256 14.6382 0.0000 24.6996 0.0000
# 6 0.0000 0.0000 0.0000 1.4291 0.0000 24.1915
#
#
#
# Elastic Compliance Matrix: (Units=1/GPa)
#
#
# Indices 1 2 3 4 5 6 
#
# 1 0.028835 -0.009216 -0.002440 0.000000 -0.018395 0.000000
# 2 -0.009216 0.016326 -0.009252 0.000000 0.007423 0.000000
# 3 -0.002440 -0.009252 0.021500 0.000000 -0.007763 0.000000
# 4 0.000000 0.000000 0.000000 0.035001 0.000000 -0.002068
# 5 -0.018395 0.007423 -0.007763 0.000000 0.057237 0.000000
# 6 0.000000 0.000000 0.000000 -0.002068 0.000000 0.041459
#
#
# Mechanical properties :
#
#
# Convention : Reuss Voigt Hill
#
# Bulk Modulus (GPa) = 40.24735 61.08351 50.66543
# Shear Modulus (GPa) = 19.96371 23.68307 21.82339
#
# Velocity S-wave (km/s) = 3.64027 3.96490 3.80605
# Velocity P-wave (km/s) = 6.66215 7.84263 7.27637
#
# Compressibility (1/GPa) = 0.02484636
#
# Stress axis : x y z
#
# Youngs Moduli (GPa) = 34.68027 61.25248 46.51134
#
# Poissons Ratio (x) = 0.56450 0.11347
# Poissons Ratio (y) = 0.31961 0.43031
# Poissons Ratio (z) = 0.08461 0.56669
#
# Static dielectric constant tensor:
#      x y z
#    x 1.511270 0.000000 0.009090 
#    y 0.000000 1.501600 0.000000 
#    z 0.009090 0.000000 1.483810 
# 
# From -- ./inp_files/52855.got.cif
#   From: 2010.05.17/outbox.cif.g08.bks.cpg/sg11_27_cif.got.tgz:52855.got - 2010.06.03 12:22:45.
