data_PCOD9161548
_publ_section_title
;
Structure prediction by ZEFSAII (Michael W. Deem and Ramdas Pophale) SiO2 
 PCOD9161548
Probable space group: P 21/M
;
_chemical_formula_sum "Si O2"
_cell_formula_units_Z 28
_cell_length_a 31.149531
_cell_length_b 7.949143
_cell_length_c 9.823265
_cell_angle_alpha 90.000000
_cell_angle_beta 142.385491
_cell_angle_gamma 90.000000
_cell_volume 1484.580067
_symmetry_space_group_name_H-M "P 21/M"
_symmetry_group_IT_number 11
_symmetry_cell_setting 'monoclinic'
loop_
_space_group_symop_operation_xyz
x,y,z
-x,1/2+y,-z
-x,-y,-z
x,1/2-y,z
loop_
_atom_site_type_symbol
_atom_site_label
_atom_site_fract_x
_atom_site_fract_y
_atom_site_fract_z
Si Si1 0.844508 0.453930 0.460914
Si Si2 0.279576 0.550480 0.046022
Si Si3 0.151058 0.452917 0.210666
Si Si4 0.563985 0.547287 0.256654
Si Si5 0.998002 0.452374 0.835721
Si Si6 0.564826 0.950880 0.568911
Si Si7 0.280935 0.050255 0.362121
O O1 0.844190 0.250000 0.459248
O O2 0.838741 0.507153 0.604059
O O3 0.920883 0.511590 0.595393
O O4 0.779753 0.513789 0.206538
O O5 0.270528 0.750000 0.037328
O O6 0.358797 0.516585 0.194156
O O7 0.272528 0.474546 0.179248
O O8 0.149727 0.250000 0.194731
O O9 0.215541 0.520186 0.282974
O O10 0.073227 0.515086 0.969725
O O11 0.567447 0.750000 0.269052
O O12 0.552948 0.487885 0.384108
O O13 0.641200 0.483902 0.405174
O O14 0.500000 0.500000 0.000000
O O15 0.998116 0.250000 0.823373
O O16 0.000000 0.500000 0.000000
O O17 0.569755 0.750000 0.578045
O O18 0.500000 0.000000 0.500000
O O19 0.282179 0.250000 0.391667
#
# Coordination Sequence:
#
# PCOD9161548 Si02
#       7
#     4   4   4   4   4   4   4
#     4   9  18  31  48  72 101 128 161 205 248 289
#     4  10  20  34  51  72  99 133 166 197 240 292
#     4   9  17  30  51  74  95 125 167 206 246 295
#     4   9  19  34  51  71  96 124 157 196 239 285
#     4   8  14  27  46  68  95 126 158 200 248 290
#     4  10  21  37  55  76 101 129 162 201 242 288
#     4   9  19  35  50  69  98 129 161 201 244 289
#
# _framework density 18.860552999999999
#
# number of rings (size 3 to 8) (size 9 to 14) (size 15 to 20)
#    0.000    2.857    0.000    1.714    0.000    5.714 
#    0.000    3.571    0.000    0.000    0.000    0.000 
#    0.000    0.000    0.000    0.000    0.000    0.000 
#
# Total GULP energy -155979.021228 kJ/mol
# GULP energy per Si atom -5570.679330 kJ/mol
# Density = 1.881763 g / cm^3
# Si number density = 18.860553 Si / 1000 Ang^3
#
#
#
# Elastic Constant Matrix: (Units=GPa)
#
#
# Indices 1 2 3 4 5 6 
#
# 1 150.3305 0.2834 78.6198 0.0000 46.6331 0.0000
# 2 0.2834 11.4026 -5.2535 0.0000 4.7697 0.0000
# 3 78.6198 -5.2535 155.6903 0.0000 41.1668 0.0000
# 4 0.0000 0.0000 0.0000 20.0500 0.0000 -3.5202
# 5 46.6331 4.7697 41.1668 0.0000 25.4641 0.0000
# 6 0.0000 0.0000 0.0000 -3.5202 0.0000 18.5386
#
#
#
# Elastic Compliance Matrix: (Units=1/GPa)
#
#
# Indices 1 2 3 4 5 6 
#
# 1 0.017414 0.016118 0.001713 0.000000 -0.037679 0.000000
# 2 0.016118 0.130879 0.018452 0.000000 -0.083862 0.000000
# 3 0.001713 0.018452 0.013840 0.000000 -0.028969 0.000000
# 4 0.000000 0.000000 0.000000 0.051596 0.000000 0.009797
# 5 -0.037679 -0.083862 -0.028969 0.000000 0.170815 0.000000
# 6 0.000000 0.000000 0.000000 0.009797 0.000000 0.055802
#
#
# Mechanical properties :
#
#
# Convention : Reuss Voigt Hill
#
# Bulk Modulus (GPa) = 4.26079 51.63586 27.94833
# Shear Modulus (GPa) = 11.21044 29.06212 20.13628
#
# Velocity S-wave (km/s) = 2.44065 3.92968 3.27102
# Velocity P-wave (km/s) = 3.19474 6.93015 5.39599
#
# Compressibility (1/GPa) = 0.23469799
#
# Stress axis : x y z
#
# Youngs Moduli (GPa) = 57.42536 7.64065 72.25327
#
# Poissons Ratio (x) = -0.12315 -0.12379
# Poissons Ratio (y) = -0.92556 -1.33318
# Poissons Ratio (z) = -0.09838 -0.14098
#
# Static dielectric constant tensor:
#      x y z
#    x 1.822900 0.000000 -0.005700 
#    y 0.000000 1.687760 0.000000 
#    z -0.005700 0.000000 1.677970 
# 
# From -- ./inp_files/28969.got.cif
#   From: 2010.05.17/outbox.cif.g08.bks.cpg/sg11_15_cif.got.tgz:28969.got - 2010.06.03 12:22:45.
