data_PCOD9161417
_publ_section_title
;
Structure prediction by ZEFSAII (Michael W. Deem and Ramdas Pophale) SiO2 
 PCOD9161417
Probable space group: P 21/M
;
_chemical_formula_sum "Si O2"
_cell_formula_units_Z 28
_cell_length_a 9.818494
_cell_length_b 7.674468
_cell_length_c 26.416563
_cell_angle_alpha 90.000000
_cell_angle_beta 141.264405
_cell_angle_gamma 90.000000
_cell_volume 1245.531249
_symmetry_space_group_name_H-M "P 21/M"
_symmetry_group_IT_number 11
_symmetry_cell_setting 'monoclinic'
loop_
_space_group_symop_operation_xyz
x,y,z
-x,1/2+y,-z
-x,-y,-z
x,1/2-y,z
loop_
_atom_site_type_symbol
_atom_site_label
_atom_site_fract_x
_atom_site_fract_y
_atom_site_fract_z
Si Si1 0.514057 0.954229 0.747662
Si Si2 0.926593 0.540239 0.813908
Si Si3 0.425045 0.041085 0.535499
Si Si4 0.035287 0.956389 0.624242
Si Si5 0.327356 0.959024 0.993009
Si Si6 0.743850 0.458247 0.918550
Si Si7 0.885588 0.457066 0.692764
O O1 0.488920 0.750000 0.728168
O O2 0.688218 0.030318 0.758810
O O3 0.271499 0.031075 0.679270
O O4 0.631010 0.965015 0.836263
O O5 0.921075 0.750000 0.816142
O O6 0.000833 0.496082 0.778911
O O7 0.097200 0.474870 0.904869
O O8 0.413671 0.250000 0.539200
O O9 0.635945 0.974512 0.626709
O O10 0.178459 0.971612 0.466849
O O11 0.500000 0.000000 0.500000
O O12 0.039693 0.750000 0.615279
O O13 0.991081 0.973908 0.671771
O O14 0.312774 0.750000 0.992629
O O15 0.368335 0.021588 0.061785
O O16 0.500000 0.000000 0.000000
O O17 0.721665 0.250000 0.907685
O O18 0.000000 0.500000 0.000000
O O19 0.876188 0.250000 0.683330
#
# Coordination Sequence:
#
# PCOD9161417 Si02
#       7
#     4   4   4   4   4   4   4
#     4  10  21  38  58  80 107 141 182 223 266 318
#     4  10  21  39  55  74 108 144 179 217 264 322
#     4   8  15  30  51  77 107 138 175 217 262 314
#     4   9  18  34  58  82 105 140 181 220 266 320
#     4  10  23  40  57  79 108 140 178 222 264 316
#     4  11  22  39  60  82 108 141 180 221 266 317
#     4  10  20  33  53  81 112 142 176 222 269 313
#
# _framework density 22.480367999999999
#
# number of rings (size 3 to 8) (size 9 to 14) (size 15 to 20)
#    0.000    2.286    1.429    0.857    2.000    3.429 
#    0.000    0.714    0.000    0.000    0.000    0.000 
#    0.000    0.000    0.000    0.000    0.000    0.000 
#
# Total GULP energy -156201.117051 kJ/mol
# GULP energy per Si atom -5578.611323 kJ/mol
# Density = 2.242920 g / cm^3
# Si number density = 22.480368 Si / 1000 Ang^3
#
#
#
# Elastic Constant Matrix: (Units=GPa)
#
#
# Indices 1 2 3 4 5 6 
#
# 1 65.4019 -7.7208 -6.5854 0.0000 17.8938 0.0000
# 2 -7.7208 45.9095 -6.4838 0.0000 7.3548 0.0000
# 3 -6.5854 -6.4838 24.5645 0.0000 15.7362 0.0000
# 4 0.0000 0.0000 0.0000 10.2002 0.0000 3.9768
# 5 17.8938 7.3548 15.7362 0.0000 45.6589 0.0000
# 6 0.0000 0.0000 0.0000 3.9768 0.0000 13.7775
#
#
#
# Elastic Compliance Matrix: (Units=1/GPa)
#
#
# Indices 1 2 3 4 5 6 
#
# 1 0.023215 0.009528 0.019956 0.000000 -0.017511 0.000000
# 2 0.009528 0.028617 0.019831 0.000000 -0.015178 0.000000
# 3 0.019956 0.019831 0.074883 0.000000 -0.036823 0.000000
# 4 0.000000 0.000000 0.000000 0.110469 0.000000 -0.031886
# 5 -0.017511 -0.015178 -0.036823 0.000000 0.043900 0.000000
# 6 0.000000 0.000000 0.000000 -0.031886 0.000000 0.081786
#
#
# Mechanical properties :
#
#
# Convention : Reuss Voigt Hill
#
# Bulk Modulus (GPa) = 4.43766 10.47731 7.45749
# Shear Modulus (GPa) = 14.73386 24.37173 19.55280
#
# Velocity S-wave (km/s) = 2.56288 3.29619 2.95239
# Velocity P-wave (km/s) = 3.27660 4.37690 3.86609
#
# Compressibility (1/GPa) = 0.22534374
#
# Stress axis : x y z
#
# Youngs Moduli (GPa) = 43.07549 34.94476 13.35419
#
# Poissons Ratio (x) = -0.33295 -0.26650
# Poissons Ratio (y) = -0.41041 -0.26483
# Poissons Ratio (z) = -0.85961 -0.69299
#
# Static dielectric constant tensor:
#      x y z
#    x 1.726910 0.000000 0.114200 
#    y 0.000000 1.889200 0.000000 
#    z 0.114200 0.000000 1.831400 
# 
# From -- ./inp_files/70915.got.cif
#   From: 2010.05.17/outbox.cif.g08.bks.cpg/sg11_36_cif.got.tgz:70915.got - 2010.06.03 12:22:45.
