data_PCOD9161654
_publ_section_title
;
Structure prediction by ZEFSAII (Michael W. Deem and Ramdas Pophale) SiO2 
 PCOD9161654
Probable space group: P 21/M
;
_chemical_formula_sum "Si O2"
_cell_formula_units_Z 32
_cell_length_a 13.112914
_cell_length_b 9.178398
_cell_length_c 32.554205
_cell_angle_alpha 90.000000
_cell_angle_beta 153.260163
_cell_angle_gamma 90.000000
_cell_volume 1762.900637
_symmetry_space_group_name_H-M "P 21/M"
_symmetry_group_IT_number 11
_symmetry_cell_setting 'monoclinic'
loop_
_space_group_symop_operation_xyz
x,y,z
-x,1/2+y,-z
-x,-y,-z
x,1/2-y,z
loop_
_atom_site_type_symbol
_atom_site_label
_atom_site_fract_x
_atom_site_fract_y
_atom_site_fract_z
Si Si1 0.573691 0.916967 0.643637
Si Si2 0.434124 0.426592 0.214805
Si Si3 0.767861 0.423511 0.405003
Si Si4 0.841299 0.924706 0.210347
Si Si5 0.053857 0.573070 0.925995
Si Si6 0.891081 0.080894 0.144666
Si Si7 0.638301 0.423109 0.585639
Si Si8 0.441660 0.574333 0.129059
O O1 0.530007 0.750000 0.614390
O O2 0.413547 0.949728 0.624179
O O3 0.835419 0.923199 0.751641
O O4 0.539754 0.025073 0.593772
O O5 0.431420 0.250000 0.210916
O O6 0.648814 0.470418 0.319801
O O7 0.442625 0.496410 0.173086
O O8 0.201972 0.470693 0.154734
O O9 0.803885 0.250000 0.415572
O O10 0.000000 0.500000 0.500000
O O11 0.836123 0.750000 0.203607
O O12 0.657347 0.964658 0.178388
O O13 0.094990 0.965810 0.316417
O O14 0.795502 0.995122 0.149360
O O15 0.052049 0.750000 0.922148
O O16 0.145340 0.521814 0.914538
O O17 0.220555 0.533740 0.022937
O O18 0.818603 0.250000 0.120717
O O19 0.500000 0.500000 0.500000
O O20 0.625776 0.250000 0.576566
O O21 0.441595 0.750000 0.134582
#
# Coordination Sequence:
#
# PCOD9161654 Si02
#       8
#     4   4   4   4   4   4   4   4
#     4   9  17  33  54  74 100 135 173 215 264 315
#     4  10  20  37  57  78 108 142 181 226 266 310
#     4  10  21  36  55  80 108 139 176 222 275 321
#     4   9  20  36  50  73 111 142 168 216 274 316
#     4   9  17  33  58  82 105 139 181 221 265 318
#     4   9  16  31  57  80  99 134 179 217 257 313
#     4  10  20  34  53  76 102 136 177 219 264 316
#     4  10  21  36  54  78 111 148 179 214 268 325
#
# _framework density 18.151902
#
# number of rings (size 3 to 8) (size 9 to 14) (size 15 to 20)
#    0.000    2.500    1.250    0.750    0.000    3.500 
#    0.000    5.000    0.000    0.000    0.000    0.000 
#    0.000    0.000    0.000    0.000    0.000    0.000 
#
# Total GULP energy -178495.154997 kJ/mol
# GULP energy per Si atom -5577.973594 kJ/mol
# Density = 1.811059 g / cm^3
# Si number density = 18.151902 Si / 1000 Ang^3
#
#
#
# Elastic Constant Matrix: (Units=GPa)
#
#
# Indices 1 2 3 4 5 6 
#
# 1 91.9088 29.8193 51.6777 0.0000 -20.7858 0.0000
# 2 29.8193 19.2489 30.8676 0.0000 -9.9306 0.0000
# 3 51.6777 30.8676 102.4392 0.0000 -25.8863 0.0000
# 4 0.0000 0.0000 0.0000 20.7502 0.0000 -5.7115
# 5 -20.7858 -9.9306 -25.8863 0.0000 31.6520 0.0000
# 6 0.0000 0.0000 0.0000 -5.7115 0.0000 32.7664
#
#
#
# Elastic Compliance Matrix: (Units=1/GPa)
#
#
# Indices 1 2 3 4 5 6 
#
# 1 0.022448 -0.031240 -0.000836 0.000000 0.004257 0.000000
# 2 -0.031240 0.145859 -0.027494 0.000000 0.002762 0.000000
# 3 -0.000836 -0.027494 0.020357 0.000000 0.007474 0.000000
# 4 0.000000 0.000000 0.000000 0.050621 0.000000 0.008824
# 5 0.004257 0.002762 0.007474 0.000000 0.041368 0.000000
# 6 0.000000 0.000000 0.000000 0.008824 0.000000 0.032057
#
#
# Mechanical properties :
#
#
# Convention : Reuss Voigt Hill
#
# Bulk Modulus (GPa) = 14.38299 48.70290 31.54294
# Shear Modulus (GPa) = 10.98845 23.78255 17.38550
#
# Velocity S-wave (km/s) = 2.46308 3.62359 3.09816
# Velocity P-wave (km/s) = 4.00373 6.66305 5.49664
#
# Compressibility (1/GPa) = 0.06952659
#
# Stress axis : x y z
#
# Youngs Moduli (GPa) = 44.54652 6.85594 49.12426
#
# Poissons Ratio (x) = 0.21418 0.04104
# Poissons Ratio (y) = 1.39161 1.35060
# Poissons Ratio (z) = 0.03722 0.18849
#
# Static dielectric constant tensor:
#      x y z
#    x 1.610950 0.000000 0.004050 
#    y 0.000000 1.611730 0.000000 
#    z 0.004050 0.000000 1.626680 
# 
# From -- ./inp_files/54249.got.cif
#   From: 2010.05.17/outbox.cif.g08.bks.cpg/sg11_28_cif.got.tgz:54249.got - 2010.06.03 12:22:45.
