data_PCOD9161908
_publ_section_title
;
Structure prediction by ZEFSAII (Michael W. Deem and Ramdas Pophale) SiO2 
 PCOD9161908
Probable space group: P 21/M
;
_chemical_formula_sum "Si O2"
_cell_formula_units_Z 26
_cell_length_a 16.793021
_cell_length_b 7.461021
_cell_length_c 13.573022
_cell_angle_alpha 90.000000
_cell_angle_beta 35.019373
_cell_angle_gamma 90.000000
_cell_volume 975.898361
_symmetry_space_group_name_H-M "P 21/M"
_symmetry_group_IT_number 11
_symmetry_cell_setting 'monoclinic'
loop_
_space_group_symop_operation_xyz
x,y,z
-x,1/2+y,-z
-x,-y,-z
x,1/2-y,z
loop_
_atom_site_type_symbol
_atom_site_label
_atom_site_fract_x
_atom_site_fract_y
_atom_site_fract_z
Si Si1 0.698994 0.967081 0.239698
Si Si2 0.988825 0.548148 0.881057
Si Si3 0.758744 0.750000 0.642284
Si Si4 0.453427 0.031821 0.808343
Si Si5 0.710446 0.454191 0.828017
Si Si6 0.289219 0.958379 0.558223
Si Si7 0.037047 0.552205 0.305308
O O1 0.696907 0.750000 0.244703
O O2 0.627333 0.020315 0.210268
O O3 0.643395 0.033878 0.401147
O O4 0.859095 0.031648 0.069485
O O5 0.005048 0.750000 0.902287
O O6 0.138363 0.455705 0.723946
O O7 0.945057 0.557599 0.811338
O O8 0.666268 0.592908 0.790472
O O9 0.876653 0.594285 0.489235
O O10 0.456102 0.250000 0.808717
O O11 0.609300 0.962660 0.626671
O O12 0.379696 0.967319 0.981056
O O13 0.716434 0.250000 0.786619
O O14 0.865692 0.519094 0.706461
O O15 0.267775 0.750000 0.553818
O O16 0.098682 0.750000 0.222182
#
# Coordination Sequence:
#
# PCOD9161908 Si02
#       7
#     4   4   2   4   4   4   4
#     4  10  20  34  55  83 116 158 203 251 292 338
#     4  10  20  36  57  83 117 158 201 242 294 356
#     4  10  22  38  58  94 124 152 188 260 300 362
#     4  10  20  37  57  82 122 159 197 250 299 344
#     4  11  21  35  60  92 121 157 195 242 309 357
#     4  10  22  36  55  84 116 164 201 241 292 353
#     4   9  21  34  54  88 113 149 188 239 307 342
#
# _framework density 26.642116999999999
#
# number of rings (size 3 to 8) (size 9 to 14) (size 15 to 20)
#    0.462    1.538    2.308    1.385    1.077    3.077 
#    0.000    0.000    0.000    0.923    0.000    0.000 
#    0.000    0.000    0.000    0.000    0.000    0.000 
#
# Total GULP energy -144936.125815 kJ/mol
# GULP energy per Si atom -5574.466377 kJ/mol
# Density = 2.658148 g / cm^3
# Si number density = 26.642117 Si / 1000 Ang^3
#
#
#
# Elastic Constant Matrix: (Units=GPa)
#
#
# Indices 1 2 3 4 5 6 
#
# 1 78.4288 -1.6680 17.2866 0.0000 2.7224 0.0000
# 2 -1.6680 105.1670 -1.2600 0.0000 6.7466 0.0000
# 3 17.2866 -1.2600 158.7144 0.0000 6.5470 0.0000
# 4 0.0000 0.0000 0.0000 12.9884 0.0000 -3.7544
# 5 2.7224 6.7466 6.5470 0.0000 47.8762 0.0000
# 6 0.0000 0.0000 0.0000 -3.7544 0.0000 -60.2876
#
#
#
# Elastic Compliance Matrix: (Units=1/GPa)
#
#
# Indices 1 2 3 4 5 6 
#
# 1 0.013084 0.000228 -0.001399 0.000000 -0.000585 0.000000
# 2 0.000228 0.009602 0.000108 0.000000 -0.001381 0.000000
# 3 -0.001399 0.000108 0.006488 0.000000 -0.000823 0.000000
# 4 0.000000 0.000000 0.000000 0.075631 0.000000 -0.004710
# 5 -0.000585 -0.001381 -0.000823 0.000000 0.021228 0.000000
# 6 0.000000 0.000000 0.000000 -0.004710 0.000000 -0.016294
#
#
# Mechanical properties :
#
#
# Convention : Reuss Voigt Hill
#
# Bulk Modulus (GPa) = 36.97002 41.22525 39.09764
# Shear Modulus (GPa) = 41.36344 21.97881 31.67113
#
# Velocity S-wave (km/s) = 3.94453 2.87534 3.45158
# Velocity P-wave (km/s) = 5.88663 5.15080 5.53096
#
# Compressibility (1/GPa) = 0.02704894
#
# Stress axis : x y z
#
# Youngs Moduli (GPa) = 76.42944 104.14287 154.13503
#
# Poissons Ratio (x) = -0.02377 0.21565
# Poissons Ratio (y) = -0.01745 -0.01670
# Poissons Ratio (z) = 0.10693 -0.01128
#
# Static dielectric constant tensor:
#      x y z
#    x 2.260740 0.000000 -0.067480 
#    y 0.000000 1.968800 0.000000 
#    z -0.067480 0.000000 2.087840 
# 
# From -- ./inp_files/54165.got.cif
#   From: 2010.05.17/outbox.cif.g08.bks.cpg/sg11_28_cif.got.tgz:54165.got - 2010.06.03 12:22:45.
