data_PCOD9161811
_publ_section_title
;
Structure prediction by ZEFSAII (Michael W. Deem and Ramdas Pophale) SiO2 
 PCOD9161811
Probable space group: P 21/M
;
_chemical_formula_sum "Si O2"
_cell_formula_units_Z 28
_cell_length_a 12.077104
_cell_length_b 8.805048
_cell_length_c 15.443600
_cell_angle_alpha 90.000000
_cell_angle_beta 116.174028
_cell_angle_gamma 90.000000
_cell_volume 1473.863998
_symmetry_space_group_name_H-M "P 21/M"
_symmetry_group_IT_number 11
_symmetry_cell_setting 'monoclinic'
loop_
_space_group_symop_operation_xyz
x,y,z
-x,1/2+y,-z
-x,-y,-z
x,1/2-y,z
loop_
_atom_site_type_symbol
_atom_site_label
_atom_site_fract_x
_atom_site_fract_y
_atom_site_fract_z
Si Si1 0.564534 0.429997 0.198136
Si Si2 0.887087 0.067645 0.906753
Si Si3 0.070653 0.567339 0.276759
Si Si4 0.214741 0.068050 0.823573
Si Si5 0.672250 0.431992 0.962748
Si Si6 0.502632 0.571025 0.359688
Si Si7 0.691930 0.929019 0.579384
O O1 0.575484 0.250000 0.194276
O O2 0.692876 0.509111 0.217734
O O3 0.459528 0.491155 0.096881
O O4 0.522834 0.479100 0.279301
O O5 0.898552 0.250000 0.912024
O O6 0.896100 0.019175 0.810249
O O7 0.759942 0.029012 0.911160
O O8 0.000000 0.000000 0.000000
O O9 0.083645 0.750000 0.286752
O O10 0.169220 0.489233 0.372966
O O11 0.927855 0.528859 0.242951
O O12 0.223176 0.250000 0.835007
O O13 0.259982 0.992298 0.928492
O O14 0.658632 0.250000 0.962423
O O15 0.491616 0.750000 0.335856
O O16 0.383317 0.517335 0.372043
O O17 0.617465 0.546834 0.464622
O O18 0.688498 0.750000 0.596891
#
# Coordination Sequence:
#
# PCOD9161811 Si02
#       7
#     4   4   4   4   4   4   4
#     4  12  25  40  60  85 113 151 199 246 293 344
#     4  10  20  34  54  82 114 148 186 231 281 332
#     4  10  21  37  58  85 119 158 195 235 290 345
#     4  11  23  40  59  81 116 159 200 242 287 342
#     4  11  22  37  59  86 117 155 195 242 294 343
#     4  10  21  40  63  89 120 150 189 238 289 345
#     4  10  21  37  63  94 120 150 187 234 290 346
#
# _framework density 18.997682999999999
#
# number of rings (size 3 to 8) (size 9 to 14) (size 15 to 20)
#    0.000    1.429    1.429    4.286    0.000    5.143 
#    0.000    0.714    0.000    0.000    0.000    0.000 
#    0.000    0.000    0.000    0.000    0.000    0.000 
#
# Total GULP energy -156573.220882 kJ/mol
# GULP energy per Si atom -5591.900746 kJ/mol
# Density = 1.895444 g / cm^3
# Si number density = 18.997683 Si / 1000 Ang^3
#
#
#
# Elastic Constant Matrix: (Units=GPa)
#
#
# Indices 1 2 3 4 5 6 
#
# 1 81.0488 29.8099 31.4070 0.0000 19.7808 0.0000
# 2 29.8099 48.3870 24.5411 0.0000 13.0964 0.0000
# 3 31.4070 24.5411 50.7013 0.0000 25.4191 0.0000
# 4 0.0000 0.0000 0.0000 31.6195 0.0000 2.0345
# 5 19.7808 13.0964 25.4191 0.0000 29.8372 0.0000
# 6 0.0000 0.0000 0.0000 2.0345 0.0000 31.3087
#
#
#
# Elastic Compliance Matrix: (Units=1/GPa)
#
#
# Indices 1 2 3 4 5 6 
#
# 1 0.018202 -0.007197 -0.005805 0.000000 -0.003963 0.000000
# 2 -0.007197 0.030264 -0.010339 0.000000 0.000295 0.000000
# 3 -0.005805 -0.010339 0.042101 0.000000 -0.027480 0.000000
# 4 0.000000 0.000000 0.000000 0.031759 0.000000 -0.002064
# 5 -0.003963 0.000295 -0.027480 0.000000 0.059424 0.000000
# 6 0.000000 0.000000 0.000000 -0.002064 0.000000 0.032074
#
#
# Mechanical properties :
#
#
# Convention : Reuss Voigt Hill
#
# Bulk Modulus (GPa) = 22.78649 39.07258 30.92953
# Shear Modulus (GPa) = 18.17296 24.84501 21.50899
#
# Velocity S-wave (km/s) = 3.09623 3.62026 3.36845
# Velocity P-wave (km/s) = 4.98022 6.17145 5.60755
#
# Compressibility (1/GPa) = 0.04388565
#
# Stress axis : x y z
#
# Youngs Moduli (GPa) = 54.93924 33.04213 23.75251
#
# Poissons Ratio (x) = 0.23780 0.13788
# Poissons Ratio (y) = 0.39540 0.24557
# Poissons Ratio (z) = 0.31891 0.34162
#
# Static dielectric constant tensor:
#      x y z
#    x 1.654920 0.000000 -0.000690 
#    y 0.000000 1.631520 0.000000 
#    z -0.000690 0.000000 1.648980 
# 
# From -- ./inp_files/37633.got.cif
#   From: 2010.05.17/outbox.cif.g08.bks.cpg/sg11_19_cif.got.tgz:37633.got - 2010.06.03 12:22:45.
