data_PCOD9161546
_publ_section_title
;
Structure prediction by ZEFSAII (Michael W. Deem and Ramdas Pophale) SiO2 
 PCOD9161546
Probable space group: P 21/M
;
_chemical_formula_sum "Si O2"
_cell_formula_units_Z 32
_cell_length_a 20.224772
_cell_length_b 7.456935
_cell_length_c 25.530914
_cell_angle_alpha 90.000000
_cell_angle_beta 161.112515
_cell_angle_gamma 90.000000
_cell_volume 1246.428838
_symmetry_space_group_name_H-M "P 21/M"
_symmetry_group_IT_number 11
_symmetry_cell_setting 'monoclinic'
loop_
_space_group_symop_operation_xyz
x,y,z
-x,1/2+y,-z
-x,-y,-z
x,1/2-y,z
loop_
_atom_site_type_symbol
_atom_site_label
_atom_site_fract_x
_atom_site_fract_y
_atom_site_fract_z
Si Si1 0.734413 0.969156 0.845153
Si Si2 0.702886 0.457045 0.477499
Si Si3 0.814445 0.957202 0.788461
Si Si4 0.709274 0.543456 0.328920
Si Si5 0.157069 0.963267 0.684383
Si Si6 0.724949 0.043422 0.999607
Si Si7 0.179234 0.469212 0.318740
Si Si8 0.153956 0.036434 0.796180
O O1 0.738690 0.750000 0.848701
O O2 0.516270 0.031946 0.703288
O O3 0.752923 0.034081 0.798540
O O4 0.937946 0.033348 0.026207
O O5 0.705576 0.250000 0.463074
O O6 0.708297 0.465583 0.545033
O O7 0.919566 0.536331 0.622400
O O8 0.752361 0.750000 0.743160
O O9 0.741513 0.032208 0.678272
O O10 0.706208 0.750000 0.344205
O O11 0.923027 0.464203 0.508729
O O12 0.732155 0.541332 0.283004
O O13 0.490589 0.460320 0.178831
O O14 0.150900 0.750000 0.671075
O O15 0.243842 0.998382 0.806707
O O16 0.725968 0.250000 0.983245
O O17 0.943635 0.966885 0.147312
O O18 0.732366 0.040208 0.068471
O O19 0.181749 0.250000 0.321988
O O20 0.147987 0.250000 0.799518
#
# Coordination Sequence:
#
# PCOD9161546 Si02
#       8
#     4   4   4   4   4   4   4   4
#     4   9  18  33  50  70  99 132 165 201 241 287
#     4   9  19  34  50  70  98 131 165 201 241 287
#     4   9  18  32  50  73 100 129 163 203 244 287
#     4   9  19  35  53  73  98 128 161 198 241 289
#     4  10  20  34  53  76 100 127 160 199 243 289
#     4   9  18  34  53  72  97 128 162 201 243 287
#     4   9  18  32  50  73  99 126 160 203 246 287
#     4  10  20  34  51  72  99 130 164 201 241 287
#
# _framework density 25.673347
#
# number of rings (size 3 to 8) (size 9 to 14) (size 15 to 20)
#    0.000    2.750    0.000    0.750    0.000    4.500 
#    0.000    1.250    0.000    0.000    0.000    0.000 
#    0.000    0.000    0.000    0.000    0.000    0.000 
#
# Total GULP energy -178849.345405 kJ/mol
# GULP energy per Si atom -5589.042044 kJ/mol
# Density = 2.561491 g / cm^3
# Si number density = 25.673347 Si / 1000 Ang^3
#
#
#
# Elastic Constant Matrix: (Units=GPa)
#
#
# Indices 1 2 3 4 5 6 
#
# 1 103.3411 -12.7383 26.1210 0.0000 -47.1130 0.0000
# 2 -12.7383 98.6270 -5.7394 0.0000 7.0481 0.0000
# 3 26.1210 -5.7394 109.6193 0.0000 40.9655 0.0000
# 4 0.0000 0.0000 0.0000 7.7651 0.0000 -2.6531
# 5 -47.1130 7.0481 40.9655 0.0000 9.4317 0.0000
# 6 0.0000 0.0000 0.0000 -2.6531 0.0000 8.3718
#
#
#
# Elastic Compliance Matrix: (Units=1/GPa)
#
#
# Indices 1 2 3 4 5 6 
#
# 1 0.001792 0.001595 0.005203 0.000000 -0.014842 0.000000
# 2 0.001595 0.010292 -0.000090 0.000000 0.000666 0.000000
# 3 0.005203 -0.000090 0.002985 0.000000 0.013092 0.000000
# 4 0.000000 0.000000 0.000000 0.144418 0.000000 0.045767
# 5 -0.014842 0.000666 0.013092 0.000000 -0.025477 0.000000
# 6 0.000000 0.000000 0.000000 0.045767 0.000000 0.133953
#
#
# Mechanical properties :
#
#
# Convention : Reuss Voigt Hill
#
# Bulk Modulus (GPa) = 35.10558 36.31932 35.71245
# Shear Modulus (GPa) = 18.93640 25.37666 22.15653
#
# Velocity S-wave (km/s) = 2.71881 3.14736 2.94090
# Velocity P-wave (km/s) = 4.85381 5.23309 5.04702
#
# Compressibility (1/GPa) = 0.02848550
#
# Stress axis : x y z
#
# Youngs Moduli (GPa) = 558.16889 97.15904 334.99042
#
# Poissons Ratio (x) = -0.15495 -1.74303
# Poissons Ratio (y) = -0.89019 0.03011
# Poissons Ratio (z) = -2.90427 0.00873
#
# Static dielectric constant tensor:
#      x y z
#    x 2.007410 0.000000 0.019470 
#    y 0.000000 1.951800 0.000000 
#    z 0.019470 0.000000 2.027210 
# 
# From -- ./inp_files/40619.got.cif
#   From: 2010.05.17/outbox.cif.g08.bks.cpg/sg11_21_cif.got.tgz:40619.got - 2010.06.03 12:22:45.
