data_PCOD9161072
_publ_section_title
;
Structure prediction by ZEFSAII (Michael W. Deem and Ramdas Pophale) SiO2 
 PCOD9161072
Probable space group: P 21/M
;
_chemical_formula_sum "Si O2"
_cell_formula_units_Z 28
_cell_length_a 17.644092
_cell_length_b 8.232830
_cell_length_c 13.479278
_cell_angle_alpha 90.000000
_cell_angle_beta 136.718681
_cell_angle_gamma 90.000000
_cell_volume 1342.375088
_symmetry_space_group_name_H-M "P 21/M"
_symmetry_group_IT_number 11
_symmetry_cell_setting 'monoclinic'
loop_
_space_group_symop_operation_xyz
x,y,z
-x,1/2+y,-z
-x,-y,-z
x,1/2-y,z
loop_
_atom_site_type_symbol
_atom_site_label
_atom_site_fract_x
_atom_site_fract_y
_atom_site_fract_z
Si Si1 0.088120 0.433049 0.945844
Si Si2 0.693412 0.437212 0.482960
Si Si3 0.143229 0.065070 0.229830
Si Si4 0.525075 0.439590 0.636453
Si Si5 0.891258 0.446073 0.524912
Si Si6 0.861390 0.446351 0.268585
Si Si7 0.290120 0.565536 0.040336
O O1 0.104714 0.250000 0.922128
O O2 0.116153 0.428827 0.088829
O O3 0.171483 0.561327 0.980478
O O4 0.962406 0.487010 0.818408
O O5 0.668383 0.250000 0.435733
O O6 0.753821 0.453600 0.646748
O O7 0.581174 0.533498 0.393917
O O8 0.788968 0.498200 0.498288
O O9 0.163839 0.250000 0.282427
O O10 0.500000 0.500000 0.500000
O O11 0.548491 0.250000 0.645950
O O12 0.626015 0.512008 0.799442
O O13 0.893285 0.250000 0.533191
O O14 0.862528 0.496684 0.384661
O O15 0.018628 0.502359 0.660953
O O16 0.857672 0.250000 0.261960
O O17 0.752437 0.507265 0.105181
O O18 0.328832 0.750000 0.058882
#
# Coordination Sequence:
#
# PCOD9161072 Si02
#       7
#     4   4   4   4   4   4   4
#     4  10  20  32  49  75 106 137 171 217 272 329
#     4  11  22  36  55  79 108 143 183 227 275 325
#     4  10  20  33  50  74 105 140 176 217 269 328
#     4  11  24  41  59  80 108 145 190 234 277 326
#     4   9  19  35  56  84 115 144 176 219 273 330
#     4   9  18  35  58  83 112 144 178 220 272 328
#     4  10  21  36  55  77 103 140 183 226 271 323
#
# _framework density 20.858550000000001
#
# number of rings (size 3 to 8) (size 9 to 14) (size 15 to 20)
#    0.000    2.000    0.000    3.429    0.000    9.143 
#    0.000    0.714    0.000    0.000    0.000    0.000 
#    0.000    0.000    0.000    0.000    0.000    0.000 
#
# Total GULP energy -156001.929799 kJ/mol
# GULP energy per Si atom -5571.497493 kJ/mol
# Density = 2.081108 g / cm^3
# Si number density = 20.858550 Si / 1000 Ang^3
#
#
#
# Elastic Constant Matrix: (Units=GPa)
#
#
# Indices 1 2 3 4 5 6 
#
# 1 62.9328 6.0393 31.3404 0.0000 -2.9763 0.0000
# 2 6.0393 25.9951 0.2187 0.0000 -9.6701 0.0000
# 3 31.3404 0.2187 151.2910 0.0000 -4.8816 0.0000
# 4 0.0000 0.0000 0.0000 18.3010 0.0000 2.6209
# 5 -2.9763 -9.6701 -4.8816 0.0000 29.8794 0.0000
# 6 0.0000 0.0000 0.0000 2.6209 0.0000 25.1594
#
#
#
# Elastic Compliance Matrix: (Units=1/GPa)
#
#
# Indices 1 2 3 4 5 6 
#
# 1 0.018163 -0.004256 -0.003762 0.000000 -0.000183 0.000000
# 2 -0.004256 0.044755 0.001277 0.000000 0.014269 0.000000
# 3 -0.003762 0.001277 0.007428 0.000000 0.001252 0.000000
# 4 0.000000 0.000000 0.000000 0.055469 0.000000 -0.005778
# 5 -0.000183 0.014269 0.001252 0.000000 0.038272 0.000000
# 6 0.000000 0.000000 0.000000 -0.005778 0.000000 0.040349
#
#
# Mechanical properties :
#
#
# Convention : Reuss Voigt Hill
#
# Bulk Modulus (GPa) = 17.58590 35.04618 26.31604
# Shear Modulus (GPa) = 21.10836 28.17600 24.64218
#
# Velocity S-wave (km/s) = 3.18461 3.67933 3.44087
# Velocity P-wave (km/s) = 4.68739 5.90663 5.33197
#
# Compressibility (1/GPa) = 0.05686375
#
# Stress axis : x y z
#
# Youngs Moduli (GPa) = 55.05574 22.34390 134.63078
#
# Poissons Ratio (x) = 0.09510 0.50653
# Poissons Ratio (y) = 0.23433 -0.17198
# Poissons Ratio (z) = 0.20714 -0.02854
#
# Static dielectric constant tensor:
#      x y z
#    x 1.773770 0.000000 -0.067810 
#    y 0.000000 1.766020 0.000000 
#    z -0.067810 0.000000 1.810770 
# 
# From -- ./inp_files/53273.got.cif
#   From: 2010.05.17/outbox.cif.g08.bks.cpg/sg11_27_cif.got.tgz:53273.got - 2010.06.03 12:22:45.
