data_PCOD9161433
_publ_section_title
;
Structure prediction by ZEFSAII (Michael W. Deem and Ramdas Pophale) SiO2 
 PCOD9161433
Probable space group: P 21/M
;
_chemical_formula_sum "Si O2"
_cell_formula_units_Z 30
_cell_length_a 14.091178
_cell_length_b 18.312864
_cell_length_c 17.577256
_cell_angle_alpha 90.000000
_cell_angle_beta 160.572069
_cell_angle_gamma 90.000000
_cell_volume 1508.704501
_symmetry_space_group_name_H-M "P 21/M"
_symmetry_group_IT_number 11
_symmetry_cell_setting 'monoclinic'
loop_
_space_group_symop_operation_xyz
x,y,z
-x,1/2+y,-z
-x,-y,-z
x,1/2-y,z
loop_
_atom_site_type_symbol
_atom_site_label
_atom_site_fract_x
_atom_site_fract_y
_atom_site_fract_z
Si Si1 0.885640 0.167314 0.561413
Si Si2 0.775867 0.100723 0.323884
Si Si3 0.569476 0.550061 0.188832
Si Si4 0.870049 0.381948 0.722098
Si Si5 0.740527 0.892938 0.777854
Si Si6 0.869149 0.750000 0.978932
Si Si7 0.789381 0.489121 0.942683
Si Si8 0.454349 0.671506 0.991254
O O1 0.765586 0.250000 0.477136
O O2 0.723352 0.127102 0.370330
O O3 0.885881 0.130207 0.643174
O O4 0.211482 0.170690 0.778927
O O5 0.103359 0.076841 0.562857
O O6 0.579049 0.030654 0.160118
O O7 0.709141 0.160881 0.211223
O O8 0.399381 0.606068 0.007594
O O9 0.449391 0.542599 0.182332
O O10 0.531852 0.384916 0.482826
O O11 0.022307 0.314440 0.878445
O O12 0.013828 0.456734 0.858151
O O13 0.788242 0.816268 0.856483
O O14 0.676310 0.958143 0.790195
O O15 0.020848 0.923926 0.948229
O O16 0.389385 0.750000 0.976994
#
# Coordination Sequence:
#
# PCOD9161433 Si02
#       8
#     4   4   4   4   4   2   4   4
#     4  10  20  33  53  90 120 148 187 236 290 350
#     4  10  20  36  59  84 117 157 192 237 291 342
#     4  10  21  37  58  85 114 152 198 242 282 343
#     4  11  20  37  61  89 120 152 190 237 298 356
#     4  10  22  40  61  86 119 153 195 245 296 349
#     4  10  22  38  58  86 120 150 190 242 300 342
#     4  10  22  39  61  87 115 156 198 246 289 344
#     4  10  21  37  55  80 119 154 192 237 286 339
#
# _framework density 19.884611
#
# number of rings (size 3 to 8) (size 9 to 14) (size 15 to 20)
#    0.000    1.867    0.667    3.200    0.000    4.800 
#    1.200    0.000    2.933    0.000    0.000    0.000 
#    0.000    0.000    0.000    0.000    0.000    0.000 
#
# Total GULP energy -167051.375897 kJ/mol
# GULP energy per Si atom -5568.379197 kJ/mol
# Density = 1.983935 g / cm^3
# Si number density = 19.884611 Si / 1000 Ang^3
#
#
#
# Elastic Constant Matrix: (Units=GPa)
#
#
# Indices 1 2 3 4 5 6 
#
# 1 58.7181 22.9077 3.5576 0.0000 2.4848 0.0000
# 2 22.9077 96.0895 26.7676 0.0000 -9.7805 0.0000
# 3 3.5576 26.7676 31.0711 0.0000 -13.1631 0.0000
# 4 0.0000 0.0000 0.0000 25.2385 0.0000 -7.4012
# 5 2.4848 -9.7805 -13.1631 0.0000 26.0973 0.0000
# 6 0.0000 0.0000 0.0000 -7.4012 0.0000 25.2314
#
#
#
# Elastic Compliance Matrix: (Units=1/GPa)
#
#
# Indices 1 2 3 4 5 6 
#
# 1 0.019121 -0.005124 0.000814 0.000000 -0.003330 0.000000
# 2 -0.005124 0.015089 -0.012476 0.000000 -0.000150 0.000000
# 3 0.000814 -0.012476 0.051919 0.000000 0.021434 0.000000
# 4 0.000000 0.000000 0.000000 0.043351 0.000000 0.012716
# 5 -0.003330 -0.000150 0.021434 0.000000 0.049390 0.000000
# 6 0.000000 0.000000 0.000000 0.012716 0.000000 0.043363
#
#
# Mechanical properties :
#
#
# Convention : Reuss Voigt Hill
#
# Bulk Modulus (GPa) = 19.02658 32.48273 25.75466
# Shear Modulus (GPa) = 18.29331 24.15649 21.22490
#
# Velocity S-wave (km/s) = 3.03640 3.48923 3.27066
# Velocity P-wave (km/s) = 4.67784 5.70999 5.21949
#
# Compressibility (1/GPa) = 0.05255804
#
# Stress axis : x y z
#
# Youngs Moduli (GPa) = 52.29774 66.27489 19.26073
#
# Poissons Ratio (x) = 0.33962 -0.01569
# Poissons Ratio (y) = 0.26799 0.24029
# Poissons Ratio (z) = -0.04259 0.82682
#
# Static dielectric constant tensor:
#      x y z
#    x 1.696980 0.000000 0.020150 
#    y 0.000000 1.712010 0.000000 
#    z 0.020150 0.000000 1.741830 
# 
# From -- ./inp_files/60564.got.cif
#   From: 2010.05.17/outbox.cif.g08.bks.cpg/sg11_31_cif.got.tgz:60564.got - 2010.06.03 12:22:45.
