data_PCOD9161423
_publ_section_title
;
Structure prediction by ZEFSAII (Michael W. Deem and Ramdas Pophale) SiO2 
 PCOD9161423
Probable space group: P 21/M
;
_chemical_formula_sum "Si O2"
_cell_formula_units_Z 32
_cell_length_a 12.591142
_cell_length_b 8.090199
_cell_length_c 16.605010
_cell_angle_alpha 90.000000
_cell_angle_beta 99.881388
_cell_angle_gamma 90.000000
_cell_volume 1666.374060
_symmetry_space_group_name_H-M "P 21/M"
_symmetry_group_IT_number 11
_symmetry_cell_setting 'monoclinic'
loop_
_space_group_symop_operation_xyz
x,y,z
-x,1/2+y,-z
-x,-y,-z
x,1/2-y,z
loop_
_atom_site_type_symbol
_atom_site_label
_atom_site_fract_x
_atom_site_fract_y
_atom_site_fract_z
Si Si1 0.054674 0.553816 0.713349
Si Si2 0.615900 0.550652 0.775178
Si Si3 0.190976 0.446873 0.298905
Si Si4 0.695609 0.437820 0.523477
Si Si5 0.725227 0.551746 0.219763
Si Si6 0.586981 0.450541 0.355793
Si Si7 0.480463 0.053356 0.906550
Si Si8 0.112271 0.439138 0.549010
O O1 0.048491 0.750000 0.694047
O O2 0.157598 0.524653 0.783917
O O3 0.095144 0.454922 0.641047
O O4 0.933202 0.494293 0.716818
O O5 0.616970 0.750000 0.772220
O O6 0.732415 0.488168 0.762255
O O7 0.525999 0.495518 0.698069
O O8 0.573783 0.501230 0.857075
O O9 0.182621 0.250000 0.288849
O O10 0.257482 0.478650 0.390200
O O11 0.666893 0.250000 0.540521
O O12 0.606703 0.511437 0.449994
O O13 0.797320 0.444186 0.475905
O O14 0.733350 0.750000 0.217112
O O15 0.676487 0.505648 0.301870
O O16 0.632580 0.491592 0.146087
O O17 0.589394 0.250000 0.359534
O O18 0.475601 0.250000 0.903364
O O19 0.500000 0.000000 0.000000
O O20 0.136345 0.250000 0.528741
O O21 0.000000 0.500000 0.500000
#
# Coordination Sequence:
#
# PCOD9161423 Si02
#       8
#     4   4   4   4   4   4   4   4
#     4  11  21  33  50  74 106 145 185 224 269 318
#     4   9  19  38  58  78 107 144 179 219 269 323
#     4  10  22  36  51  72 105 149 191 226 268 318
#     4  11  21  31  47  72 102 142 190 235 276 316
#     4  10  20  33  53  82 111 137 173 220 269 316
#     4   9  18  32  51  73 102 139 183 229 275 321
#     4  10  21  38  63  93 115 135 165 209 265 325
#     4  12  22  32  47  69  99 139 187 239 282 315
#
# _framework density 19.203371000000001
#
# number of rings (size 3 to 8) (size 9 to 14) (size 15 to 20)
#    0.000    1.750    2.500    2.625    0.000    3.500 
#    0.000    0.000    0.000    0.750    0.000    0.000 
#    0.000    0.000    0.000    0.000    0.000    0.000 
#
# Total GULP energy -178431.787356 kJ/mol
# GULP energy per Si atom -5575.993355 kJ/mol
# Density = 1.915966 g / cm^3
# Si number density = 19.203371 Si / 1000 Ang^3
#
#
#
# Elastic Constant Matrix: (Units=GPa)
#
#
# Indices 1 2 3 4 5 6 
#
# 1 111.4299 6.4628 62.8645 0.0000 -12.4740 0.0000
# 2 6.4628 30.7322 -4.1363 0.0000 -0.4325 0.0000
# 3 62.8645 -4.1363 91.4120 0.0000 0.1339 0.0000
# 4 0.0000 0.0000 0.0000 21.6097 0.0000 2.3193
# 5 -12.4740 -0.4325 0.1339 0.0000 19.0389 0.0000
# 6 0.0000 0.0000 0.0000 2.3193 0.0000 14.7153
#
#
#
# Elastic Compliance Matrix: (Units=1/GPa)
#
#
# Indices 1 2 3 4 5 6 
#
# 1 0.017472 -0.005164 -0.012266 0.000000 0.011416 0.000000
# 2 -0.005164 0.034275 0.005106 0.000000 -0.002641 0.000000
# 3 -0.012266 0.005106 0.019618 0.000000 -0.008058 0.000000
# 4 0.000000 0.000000 0.000000 0.047072 0.000000 -0.007419
# 5 0.011416 -0.002641 -0.008058 0.000000 0.060000 0.000000
# 6 0.000000 0.000000 0.000000 -0.007419 0.000000 0.069126
#
#
# Mechanical properties :
#
#
# Convention : Reuss Voigt Hill
#
# Bulk Modulus (GPa) = 21.40547 40.43955 30.92251
# Shear Modulus (GPa) = 17.37425 22.29832 19.83628
#
# Velocity S-wave (km/s) = 3.01117 3.41129 3.21745
# Velocity P-wave (km/s) = 4.82291 6.05146 5.47177
#
# Compressibility (1/GPa) = 0.04671703
#
# Stress axis : x y z
#
# Youngs Moduli (GPa) = 57.23569 29.17548 50.97478
#
# Poissons Ratio (x) = 0.15067 0.62524
# Poissons Ratio (y) = 0.29559 -0.26030
# Poissons Ratio (z) = 0.70204 -0.14898
#
# Static dielectric constant tensor:
#      x y z
#    x 1.743540 0.000000 0.038060 
#    y 0.000000 1.675180 0.000000 
#    z 0.038060 0.000000 1.676920 
# 
# From -- ./inp_files/42920.got.cif
#   From: 2010.05.17/outbox.cif.g08.bks.cpg/sg11_22_cif.got.tgz:42920.got - 2010.06.03 12:22:45.
