data_PCOD9161279
_publ_section_title
;
Structure prediction by ZEFSAII (Michael W. Deem and Ramdas Pophale) SiO2 
 PCOD9161279
Probable space group: P 21/M
;
_chemical_formula_sum "Si O2"
_cell_formula_units_Z 32
_cell_length_a 15.127645
_cell_length_b 18.432530
_cell_length_c 13.261195
_cell_angle_alpha 90.000000
_cell_angle_beta 28.590637
_cell_angle_gamma 90.000000
_cell_volume 1769.557917
_symmetry_space_group_name_H-M "P 21/M"
_symmetry_group_IT_number 11
_symmetry_cell_setting 'monoclinic'
loop_
_space_group_symop_operation_xyz
x,y,z
-x,1/2+y,-z
-x,-y,-z
x,1/2-y,z
loop_
_atom_site_type_symbol
_atom_site_label
_atom_site_fract_x
_atom_site_fract_y
_atom_site_fract_z
Si Si1 0.167508 0.118403 0.975548
Si Si2 0.766727 0.667852 0.309717
Si Si3 0.726837 0.963529 0.485328
Si Si4 0.457494 0.482291 0.928010
Si Si5 0.461041 0.170031 0.825807
Si Si6 0.787183 0.332878 0.104539
Si Si7 0.732989 0.383596 0.380448
Si Si8 0.837696 0.466417 0.920110
O O1 0.257134 0.141437 0.780627
O O2 0.263103 0.161952 0.969542
O O3 0.948883 0.131132 0.188062
O O4 0.202435 0.033568 0.963688
O O5 0.702315 0.750000 0.386779
O O6 0.684672 0.610866 0.470180
O O7 0.989540 0.666774 0.102841
O O8 0.940834 0.961668 0.305896
O O9 0.599957 0.980298 0.707636
O O10 0.705917 0.030537 0.427778
O O11 0.474701 0.396347 0.889339
O O12 0.500000 0.500000 0.000000
O O13 0.259397 0.510917 0.086563
O O14 0.486534 0.250000 0.842947
O O15 0.606518 0.156084 0.589363
O O16 0.734336 0.250000 0.134349
O O17 0.702682 0.358600 0.296086
O O18 0.758346 0.392701 0.047159
#
# Coordination Sequence:
#
# PCOD9161279 Si02
#       8
#     4   4   4   4   4   4   4   4
#     4   9  17  30  49  73 103 136 163 188 227 284
#     4   9  16  27  46  74 107 137 162 190 227 279
#     4   9  18  33  52  72  97 130 164 199 240 287
#     4  10  22  39  55  71  91 121 166 211 251 294
#     4  10  20  33  51  75  99 123 158 205 247 282
#     4   9  16  27  46  74 107 137 162 190 227 279
#     4   9  17  30  49  73 103 136 163 188 227 284
#     4   9  18  33  52  72  97 130 164 199 240 287
#
# _framework density 18.083613
#
# number of rings (size 3 to 8) (size 9 to 14) (size 15 to 20)
#    0.000    2.750    0.000    1.500    0.000    6.000 
#    0.000    6.875    0.000    0.000    0.000    0.000 
#    0.000    0.000    0.000    0.000    0.000    0.000 
#
# Total GULP energy -178576.725628 kJ/mol
# GULP energy per Si atom -5580.522676 kJ/mol
# Density = 1.804245 g / cm^3
# Si number density = 18.083613 Si / 1000 Ang^3
#
#
#
# Elastic Constant Matrix: (Units=GPa)
#
#
# Indices 1 2 3 4 5 6 
#
# 1 66.5060 43.7486 3.8975 0.0000 11.2931 0.0000
# 2 43.7486 122.7609 15.7466 0.0000 16.1316 0.0000
# 3 3.8975 15.7466 29.7795 0.0000 -2.7975 0.0000
# 4 0.0000 0.0000 0.0000 11.6059 0.0000 -0.6045
# 5 11.2931 16.1316 -2.7975 0.0000 23.6724 0.0000
# 6 0.0000 0.0000 0.0000 -0.6045 0.0000 11.2973
#
#
#
# Elastic Compliance Matrix: (Units=1/GPa)
#
#
# Indices 1 2 3 4 5 6 
#
# 1 0.020210 -0.006574 0.000350 0.000000 -0.005120 0.000000
# 2 -0.006574 0.012021 -0.006038 0.000000 -0.005769 0.000000
# 3 0.000350 -0.006038 0.037514 0.000000 0.008381 0.000000
# 4 0.000000 0.000000 0.000000 0.086404 0.000000 0.004624
# 5 -0.005120 -0.005769 0.008381 0.000000 0.049607 0.000000
# 6 0.000000 0.000000 0.000000 0.004624 0.000000 0.088764
#
#
# Mechanical properties :
#
#
# Convention : Reuss Voigt Hill
#
# Bulk Modulus (GPa) = 22.11342 38.42576 30.26959
# Shear Modulus (GPa) = 14.96474 19.69205 17.32839
#
# Velocity S-wave (km/s) = 2.87980 3.30350 3.09890
# Velocity P-wave (km/s) = 4.82832 5.98714 5.43868
#
# Compressibility (1/GPa) = 0.04522140
#
# Stress axis : x y z
#
# Youngs Moduli (GPa) = 49.48089 83.18439 26.65642
#
# Poissons Ratio (x) = 0.54689 -0.00934
# Poissons Ratio (y) = 0.32531 0.16096
# Poissons Ratio (z) = -0.01734 0.50228
#
# Static dielectric constant tensor:
#      x y z
#    x 1.607380 0.000000 -0.062800 
#    y 0.000000 1.638140 0.000000 
#    z -0.062800 0.000000 1.625130 
# 
# From -- ./inp_files/18626.got.cif
#   From: 2010.05.17/outbox.cif.g08.bks.cpg/sg11_10_cif.got.tgz:18626.got - 2010.06.03 12:22:45.
