data_PCOD9161095
_publ_section_title
;
Structure prediction by ZEFSAII (Michael W. Deem and Ramdas Pophale) SiO2 
 PCOD9161095
Probable space group: P 21/M
;
_chemical_formula_sum "Si O2"
_cell_formula_units_Z 24
_cell_length_a 8.991069
_cell_length_b 19.706529
_cell_length_c 11.455013
_cell_angle_alpha 90.000000
_cell_angle_beta 42.394594
_cell_angle_gamma 90.000000
_cell_volume 1368.443502
_symmetry_space_group_name_H-M "P 21/M"
_symmetry_group_IT_number 11
_symmetry_cell_setting 'monoclinic'
loop_
_space_group_symop_operation_xyz
x,y,z
-x,1/2+y,-z
-x,-y,-z
x,1/2-y,z
loop_
_atom_site_type_symbol
_atom_site_label
_atom_site_fract_x
_atom_site_fract_y
_atom_site_fract_z
Si Si1 0.380727 0.671740 0.460206
Si Si2 0.708277 0.018761 0.220711
Si Si3 0.977570 0.596374 0.814457
Si Si4 0.925167 0.030177 0.668820
Si Si5 0.473928 0.418259 0.844752
Si Si6 0.699957 0.593486 0.421692
O O1 0.366707 0.750000 0.435810
O O2 0.427142 0.623704 0.321737
O O3 0.583142 0.658771 0.433571
O O4 0.156057 0.646248 0.652744
O O5 0.491160 0.056197 0.394071
O O6 0.909573 0.069327 0.130221
O O7 0.644042 0.986973 0.134981
O O8 0.746738 0.955175 0.284262
O O9 0.953759 0.532643 0.740580
O O10 0.730267 0.622002 0.980195
O O11 0.677925 0.058338 0.804434
O O12 0.086060 0.090103 0.621280
O O13 0.000000 0.000000 0.500000
#
# Coordination Sequence:
#
# PCOD9161095 Si02
#       6
#     4   4   4   4   4   4
#     4  10  21  37  53  69  97 140 183 217 244 291
#     4   8  14  28  48  75 102 126 164 211 260 302
#     4  10  20  32  51  80 106 134 167 214 262 310
#     4  11  17  31  53  81 113 132 157 210 276 325
#     4  11  19  31  54  81 104 134 168 210 265 314
#     4   8  15  29  50  71 100 134 165 206 255 306
#
# _framework density 17.538173
#
# number of rings (size 3 to 8) (size 9 to 14) (size 15 to 20)
#    0.000    2.333    3.333    3.000    0.000    0.667 
#    0.000    0.833    0.000    0.000    0.000    0.000 
#    0.000    0.000    0.000    0.000    0.000    0.000 
#
# Total GULP energy -133610.379709 kJ/mol
# GULP energy per Si atom -5567.099155 kJ/mol
# Density = 1.749826 g / cm^3
# Si number density = 17.538173 Si / 1000 Ang^3
#
#
#
# Elastic Constant Matrix: (Units=GPa)
#
#
# Indices 1 2 3 4 5 6 
#
# 1 105.5164 11.5276 19.7413 0.0000 -24.4253 0.0000
# 2 11.5276 43.6529 1.2245 0.0000 -1.1114 0.0000
# 3 19.7413 1.2245 70.0410 0.0000 -19.0145 0.0000
# 4 0.0000 0.0000 0.0000 4.0381 0.0000 -1.4758
# 5 -24.4253 -1.1114 -19.0145 0.0000 25.8228 0.0000
# 6 0.0000 0.0000 0.0000 -1.4758 0.0000 11.9282
#
#
#
# Elastic Compliance Matrix: (Units=1/GPa)
#
#
# Indices 1 2 3 4 5 6 
#
# 1 0.012524 -0.003005 -0.000371 0.000000 0.011444 0.000000
# 2 -0.003005 0.023656 -0.000077 0.000000 -0.001882 0.000000
# 3 -0.000371 -0.000077 0.017857 0.000000 0.012795 0.000000
# 4 0.000000 0.000000 0.000000 0.259367 0.000000 0.032091
# 5 0.011444 -0.001882 0.012795 0.000000 0.058890 0.000000
# 6 0.000000 0.000000 0.000000 0.032091 0.000000 0.087806
#
#
# Mechanical properties :
#
#
# Convention : Reuss Voigt Hill
#
# Bulk Modulus (GPa) = 21.21802 31.57746 26.39774
# Shear Modulus (GPa) = 10.35806 20.80563 15.58185
#
# Velocity S-wave (km/s) = 2.43286 3.44802 2.98393
# Velocity P-wave (km/s) = 4.47395 5.82201 5.19192
#
# Compressibility (1/GPa) = 0.04712974
#
# Stress axis : x y z
#
# Youngs Moduli (GPa) = 79.84691 42.27270 56.00165
#
# Poissons Ratio (x) = 0.12705 0.02076
# Poissons Ratio (y) = 0.23998 0.00433
# Poissons Ratio (z) = 0.02959 0.00327
#
# Static dielectric constant tensor:
#      x y z
#    x 1.631450 0.000000 -0.006810 
#    y 0.000000 1.574260 0.000000 
#    z -0.006810 0.000000 1.653220 
# 
# From -- ./inp_files/13788.got.cif
#   From: 2010.05.17/outbox.cif.g08.bks.cpg/sg11_7_cif.got.tgz:13788.got - 2010.06.03 12:22:45.
