data_PCOD9161293
_publ_section_title
;
Structure prediction by ZEFSAII (Michael W. Deem and Ramdas Pophale) SiO2 
 PCOD9161293
Probable space group: P 21/M
;
_chemical_formula_sum "Si O2"
_cell_formula_units_Z 32
_cell_length_a 15.279121
_cell_length_b 7.607369
_cell_length_c 12.342106
_cell_angle_alpha 90.000000
_cell_angle_beta 88.023904
_cell_angle_gamma 90.000000
_cell_volume 1433.718117
_symmetry_space_group_name_H-M "P 21/M"
_symmetry_group_IT_number 11
_symmetry_cell_setting 'monoclinic'
loop_
_space_group_symop_operation_xyz
x,y,z
-x,1/2+y,-z
-x,-y,-z
x,1/2-y,z
loop_
_atom_site_type_symbol
_atom_site_label
_atom_site_fract_x
_atom_site_fract_y
_atom_site_fract_z
Si Si1 0.150273 0.545657 0.709395
Si Si2 0.998486 0.961306 0.872230
Si Si3 0.413806 0.538909 0.434129
Si Si4 0.517419 0.461207 0.796807
Si Si5 0.824459 0.962569 0.754862
Si Si6 0.318963 0.464056 0.835336
Si Si7 0.220513 0.959416 0.487658
Si Si8 0.677462 0.540829 0.922795
O O1 0.124952 0.750000 0.697608
O O2 0.081152 0.470256 0.798856
O O3 0.246162 0.533607 0.757892
O O4 0.161751 0.468091 0.588460
O O5 0.998754 0.750000 0.866677
O O6 0.910522 0.022646 0.815481
O O7 0.000000 0.000000 0.000000
O O8 0.500000 0.500000 0.500000
O O9 0.405795 0.750000 0.428449
O O10 0.433215 0.471594 0.312367
O O11 0.320896 0.470940 0.482610
O O12 0.514020 0.250000 0.791235
O O13 0.417550 0.522306 0.804185
O O14 0.577073 0.507739 0.896324
O O15 0.823666 0.750000 0.756446
O O16 0.740356 0.029052 0.825822
O O17 0.818501 0.014427 0.629986
O O18 0.316541 0.250000 0.831623
O O19 0.299436 0.523879 0.958801
O O20 0.226702 0.750000 0.506014
O O21 0.689737 0.750000 0.925603
#
# Coordination Sequence:
#
# PCOD9161293 Si02
#       8
#     4   4   4   4   4   4   4   4
#     4  10  22  39  59  84 114 148 187 232 282 337
#     4  10  22  41  63  89 118 148 187 233 284 343
#     4  10  20  33  51  76 108 147 190 234 277 327
#     4  10  20  34  52  78 110 146 189 234 281 335
#     4  10  21  37  58  83 113 149 190 236 285 341
#     4  10  21  36  55  81 114 149 188 235 284 336
#     4  10  21  38  57  81 115 150 189 236 285 337
#     4  10  20  34  53  79 110 146 186 231 284 339
#
# _framework density 22.319589000000001
#
# number of rings (size 3 to 8) (size 9 to 14) (size 15 to 20)
#    0.000    2.000    1.250    1.875    0.000    5.000 
#    0.000    0.000    0.000    0.000    0.000    0.000 
#    0.000    0.000    0.000    0.000    0.000    0.000 
#
# Total GULP energy -178790.876154 kJ/mol
# GULP energy per Si atom -5587.214880 kJ/mol
# Density = 2.226879 g / cm^3
# Si number density = 22.319589 Si / 1000 Ang^3
#
#
#
# Elastic Constant Matrix: (Units=GPa)
#
#
# Indices 1 2 3 4 5 6 
#
# 1 122.1899 -0.1768 75.6351 0.0000 -11.1925 0.0000
# 2 -0.1768 45.3141 2.1181 0.0000 -10.7109 0.0000
# 3 75.6351 2.1181 150.7408 0.0000 -22.5176 0.0000
# 4 0.0000 0.0000 0.0000 5.0352 0.0000 -11.3282
# 5 -11.1925 -10.7109 -22.5176 0.0000 39.8325 0.0000
# 6 0.0000 0.0000 0.0000 -11.3282 0.0000 -29.3932
#
#
#
# Elastic Compliance Matrix: (Units=1/GPa)
#
#
# Indices 1 2 3 4 5 6 
#
# 1 0.011876 0.000339 -0.005954 0.000000 0.000062 0.000000
# 2 0.000339 0.023638 0.000504 0.000000 0.006736 0.000000
# 3 -0.005954 0.000504 0.010250 0.000000 0.004257 0.000000
# 4 0.000000 0.000000 0.000000 0.106370 0.000000 -0.040995
# 5 0.000062 0.006736 0.004257 0.000000 0.029341 0.000000
# 6 0.000000 0.000000 0.000000 -0.040995 0.000000 -0.018222
#
#
# Mechanical properties :
#
#
# Convention : Reuss Voigt Hill
#
# Bulk Modulus (GPa) = 28.13544 52.59974 40.36759
# Shear Modulus (GPa) = 26.98002 19.13948 23.05975
#
# Velocity S-wave (km/s) = 3.48056 2.93152 3.21777
# Velocity P-wave (km/s) = 5.36521 5.92252 5.65074
#
# Compressibility (1/GPa) = 0.03554237
#
# Stress axis : x y z
#
# Youngs Moduli (GPa) = 84.20473 42.30432 97.55810
#
# Poissons Ratio (x) = -0.01436 0.58088
# Poissons Ratio (y) = -0.02857 -0.04916
# Poissons Ratio (z) = 0.50137 -0.02132
#
# Static dielectric constant tensor:
#      x y z
#    x 1.815290 0.000000 -0.039550 
#    y 0.000000 1.850040 0.000000 
#    z -0.039550 0.000000 1.822130 
# 
# From -- ./inp_files/38170.got.cif
#   From: 2010.05.17/outbox.cif.g08.bks.cpg/sg11_20_cif.got.tgz:38170.got - 2010.06.03 12:22:45.
