data_PCOD9161758
_publ_section_title
;
Structure prediction by ZEFSAII (Michael W. Deem and Ramdas Pophale) SiO2 
 PCOD9161758
Probable space group: P 21/M
;
_chemical_formula_sum "Si O2"
_cell_formula_units_Z 32
_cell_length_a 16.568764
_cell_length_b 9.013209
_cell_length_c 11.293569
_cell_angle_alpha 90.000000
_cell_angle_beta 87.223377
_cell_angle_gamma 90.000000
_cell_volume 1684.575948
_symmetry_space_group_name_H-M "P 21/M"
_symmetry_group_IT_number 11
_symmetry_cell_setting 'monoclinic'
loop_
_space_group_symop_operation_xyz
x,y,z
-x,1/2+y,-z
-x,-y,-z
x,1/2-y,z
loop_
_atom_site_type_symbol
_atom_site_label
_atom_site_fract_x
_atom_site_fract_y
_atom_site_fract_z
Si Si1 0.263337 0.926423 0.662000
Si Si2 0.680634 0.424189 0.729686
Si Si3 0.413490 0.575569 0.018865
Si Si4 0.412300 0.571256 0.499719
Si Si5 0.170542 0.071524 0.154087
Si Si6 0.260279 0.427867 0.910793
Si Si7 0.121312 0.422498 0.555061
Si Si8 0.024909 0.424685 0.315401
O O1 0.258751 0.750000 0.675742
O O2 0.353852 0.965920 0.613782
O O3 0.239975 0.006075 0.785061
O O4 0.200728 0.979967 0.566774
O O5 0.700351 0.250000 0.713176
O O6 0.619276 0.437470 0.844572
O O7 0.635770 0.476912 0.614978
O O8 0.761440 0.508646 0.762307
O O9 0.417287 0.750000 0.988367
O O10 0.500000 0.500000 0.000000
O O11 0.346597 0.494313 0.943833
O O12 0.500000 0.500000 0.500000
O O13 0.420272 0.750000 0.494214
O O14 0.172868 0.250000 0.161779
O O15 0.081595 0.025861 0.203092
O O16 0.197751 0.028746 0.019790
O O17 0.264137 0.250000 0.905969
O O18 0.140072 0.250000 0.573143
O O19 0.080992 0.437589 0.428817
O O20 0.054231 0.480317 0.652649
O O21 0.003573 0.250000 0.304521
#
# Coordination Sequence:
#
# PCOD9161758 Si02
#       8
#     4   4   4   4   4   4   4   4
#     4  11  23  39  57  79 112 149 185 226 276 330
#     4   9  19  35  53  76 106 137 174 220 271 323
#     4  10  20  34  54  79 106 137 178 226 276 326
#     4  10  23  39  55  79 107 141 181 223 272 326
#     4   9  18  34  57  83 108 140 181 224 273 322
#     4  10  21  37  56  79 107 144 187 229 274 328
#     4  10  20  34  56  87 115 147 184 220 272 330
#     4   9  18  34  57  85 117 144 178 227 274 324
#
# _framework density 18.995878999999999
#
# number of rings (size 3 to 8) (size 9 to 14) (size 15 to 20)
#    0.000    2.250    0.000    2.250    1.750    3.500 
#    0.000    0.625    0.000    0.000    0.000    0.000 
#    0.000    0.000    0.000    0.000    0.000    0.000 
#
# Total GULP energy -178664.563943 kJ/mol
# GULP energy per Si atom -5583.267623 kJ/mol
# Density = 1.895264 g / cm^3
# Si number density = 18.995879 Si / 1000 Ang^3
#
#
#
# Elastic Constant Matrix: (Units=GPa)
#
#
# Indices 1 2 3 4 5 6 
#
# 1 68.1384 21.7107 6.2738 0.0000 -23.1309 0.0000
# 2 21.7107 43.8539 21.1342 0.0000 -11.1174 0.0000
# 3 6.2738 21.1342 47.6590 0.0000 0.5936 0.0000
# 4 0.0000 0.0000 0.0000 25.8750 0.0000 3.3233
# 5 -23.1309 -11.1174 0.5936 0.0000 21.8813 0.0000
# 6 0.0000 0.0000 0.0000 3.3233 0.0000 34.3159
#
#
#
# Elastic Compliance Matrix: (Units=1/GPa)
#
#
# Indices 1 2 3 4 5 6 
#
# 1 0.024365 -0.005847 -0.000899 0.000000 0.022810 0.000000
# 2 -0.005847 0.036416 -0.015538 0.000000 0.012743 0.000000
# 3 -0.000899 -0.015538 0.028110 0.000000 -0.009607 0.000000
# 4 0.000000 0.000000 0.000000 0.039134 0.000000 -0.003790
# 5 0.022810 0.012743 -0.009607 0.000000 0.076549 0.000000
# 6 0.000000 0.000000 0.000000 -0.003790 0.000000 0.029508
#
#
# Mechanical properties :
#
#
# Convention : Reuss Voigt Hill
#
# Bulk Modulus (GPa) = 22.56042 28.65431 25.60737
# Shear Modulus (GPa) = 17.04020 23.78328 20.41174
#
# Velocity S-wave (km/s) = 2.99832 3.54223 3.28157
# Velocity P-wave (km/s) = 4.88762 5.64333 5.27901
#
# Compressibility (1/GPa) = 0.04432541
#
# Stress axis : x y z
#
# Youngs Moduli (GPa) = 41.04236 27.46056 35.57392
#
# Poissons Ratio (x) = 0.16055 0.03198
# Poissons Ratio (y) = 0.23996 0.55273
# Poissons Ratio (z) = 0.03689 0.42667
#
# Static dielectric constant tensor:
#      x y z
#    x 1.637740 0.000000 -0.017400 
#    y 0.000000 1.629850 0.000000 
#    z -0.017400 0.000000 1.683400 
# 
# From -- ./inp_files/38163.got.cif
#   From: 2010.05.17/outbox.cif.g08.bks.cpg/sg11_20_cif.got.tgz:38163.got - 2010.06.03 12:22:45.
