data_PCOD9161233
_publ_section_title
;
Structure prediction by ZEFSAII (Michael W. Deem and Ramdas Pophale) SiO2 
 PCOD9161233
Probable space group: P 21/M
;
_chemical_formula_sum "Si O2"
_cell_formula_units_Z 28
_cell_length_a 22.510083
_cell_length_b 7.786651
_cell_length_c 12.856627
_cell_angle_alpha 90.000000
_cell_angle_beta 138.059031
_cell_angle_gamma 90.000000
_cell_volume 1506.150221
_symmetry_space_group_name_H-M "P 21/M"
_symmetry_group_IT_number 11
_symmetry_cell_setting 'monoclinic'
loop_
_space_group_symop_operation_xyz
x,y,z
-x,1/2+y,-z
-x,-y,-z
x,1/2-y,z
loop_
_atom_site_type_symbol
_atom_site_label
_atom_site_fract_x
_atom_site_fract_y
_atom_site_fract_z
Si Si1 0.709950 0.460204 0.309257
Si Si2 0.626285 0.449064 0.982068
Si Si3 0.730890 0.550314 0.917101
Si Si4 0.425554 0.952277 0.692669
Si Si5 0.405486 0.456082 0.428920
Si Si6 0.904074 0.958235 0.251040
Si Si7 0.102647 0.544062 0.516064
O O1 0.710912 0.250000 0.312083
O O2 0.651578 0.516796 0.331056
O O3 0.812068 0.519479 0.436274
O O4 0.662600 0.512769 0.139889
O O5 0.652844 0.250000 0.006746
O O6 0.669718 0.542306 0.940442
O O7 0.520279 0.462478 0.838980
O O8 0.746193 0.750000 0.911290
O O9 0.673416 0.475401 0.747822
O O10 0.826246 0.475946 0.074596
O O11 0.437873 0.750000 0.728706
O O12 0.402235 0.977203 0.541804
O O13 0.500000 0.500000 0.500000
O O14 0.400057 0.250000 0.425435
O O15 0.904085 0.750000 0.246402
O O16 0.004244 0.020852 0.359176
O O17 0.883058 0.005595 0.343123
O O18 0.100188 0.750000 0.501968
#
# Coordination Sequence:
#
# PCOD9161233 Si02
#       7
#     4   4   4   4   4   4   4
#     4   9  19  33  50  74 103 136 167 203 247 298
#     4  11  20  32  51  75 102 133 168 202 248 301
#     4  10  20  33  50  74 103 131 161 205 254 297
#     4  11  22  36  51  70 101 136 173 209 247 296
#     4  11  22  36  53  72  98 131 172 213 253 292
#     4   9  17  29  49  76 101 128 161 199 250 300
#     4   9  16  30  50  73 102 131 161 198 243 300
#
# _framework density 18.590443
#
# number of rings (size 3 to 8) (size 9 to 14) (size 15 to 20)
#    0.000    2.000    2.857    1.714    0.000    0.571 
#    0.000    3.571    0.000    0.857    0.000    0.000 
#    0.000    0.000    0.000    0.000    0.000    0.286 
#
# Total GULP energy -156261.164667 kJ/mol
# GULP energy per Si atom -5580.755881 kJ/mol
# Density = 1.854813 g / cm^3
# Si number density = 18.590443 Si / 1000 Ang^3
#
#
#
# Elastic Constant Matrix: (Units=GPa)
#
#
# Indices 1 2 3 4 5 6 
#
# 1 109.5967 -11.7897 69.0731 0.0000 10.8748 0.0000
# 2 -11.7897 28.7889 -7.8367 0.0000 1.0347 0.0000
# 3 69.0731 -7.8367 125.0345 0.0000 26.5979 0.0000
# 4 0.0000 0.0000 0.0000 15.5139 0.0000 -5.7339
# 5 10.8748 1.0347 26.5979 0.0000 28.7815 0.0000
# 6 0.0000 0.0000 0.0000 -5.7339 0.0000 6.6266
#
#
#
# Elastic Compliance Matrix: (Units=1/GPa)
#
#
# Indices 1 2 3 4 5 6 
#
# 1 0.014482 0.003630 -0.008192 0.000000 0.001968 0.000000
# 2 0.003630 0.036647 0.001075 0.000000 -0.003682 0.000000
# 3 -0.008192 0.001075 0.014862 0.000000 -0.010678 0.000000
# 4 0.000000 0.000000 0.000000 0.094765 0.000000 0.081999
# 5 0.001968 -0.003682 -0.010678 0.000000 0.044001 0.000000
# 6 0.000000 0.000000 0.000000 0.081999 0.000000 0.221859
#
#
# Mechanical properties :
#
#
# Convention : Reuss Voigt Hill
#
# Bulk Modulus (GPa) = 16.94385 40.25706 28.60045
# Shear Modulus (GPa) = 11.03113 24.44930 17.74022
#
# Velocity S-wave (km/s) = 2.43857 3.63044 3.09247
# Velocity P-wave (km/s) = 4.13073 6.26699 5.30745
#
# Compressibility (1/GPa) = 0.05901847
#
# Stress axis : x y z
#
# Youngs Moduli (GPa) = 69.04961 27.28720 67.28629
#
# Poissons Ratio (x) = -0.09906 0.55118
# Poissons Ratio (y) = -0.25067 -0.07232
# Poissons Ratio (z) = 0.56562 -0.02933
#
# Static dielectric constant tensor:
#      x y z
#    x 1.622810 0.000000 0.036860 
#    y 0.000000 1.675100 0.000000 
#    z 0.036860 0.000000 1.646590 
# 
# From -- ./inp_files/42313.got.cif
#   From: 2010.05.17/outbox.cif.g08.bks.cpg/sg11_22_cif.got.tgz:42313.got - 2010.06.03 12:22:45.
