data_PCOD9161235
_publ_section_title
;
Structure prediction by ZEFSAII (Michael W. Deem and Ramdas Pophale) SiO2 
 PCOD9161235
Probable space group: P 21/M
;
_chemical_formula_sum "Si O2"
_cell_formula_units_Z 32
_cell_length_a 14.531659
_cell_length_b 8.869043
_cell_length_c 16.316628
_cell_angle_alpha 90.000000
_cell_angle_beta 63.557330
_cell_angle_gamma 90.000000
_cell_volume 1882.911654
_symmetry_space_group_name_H-M "P 21/M"
_symmetry_group_IT_number 11
_symmetry_cell_setting 'monoclinic'
loop_
_space_group_symop_operation_xyz
x,y,z
-x,1/2+y,-z
-x,-y,-z
x,1/2-y,z
loop_
_atom_site_type_symbol
_atom_site_label
_atom_site_fract_x
_atom_site_fract_y
_atom_site_fract_z
Si Si1 0.583959 0.431002 0.275222
Si Si2 0.712868 0.930073 0.359808
Si Si3 0.072675 0.430073 0.640192
Si Si4 0.859180 0.931002 0.724778
Si Si5 0.168555 0.572976 0.442761
Si Si6 0.388684 0.572976 0.442761
Si Si7 0.442523 0.568468 0.902114
Si Si8 0.344637 0.068468 0.097886
O O1 0.584131 0.250000 0.279185
O O2 0.679292 0.497211 0.287917
O O3 0.482445 0.493685 0.360171
O O4 0.581288 0.477774 0.181164
O O5 0.701800 0.750000 0.361405
O O6 0.828880 0.966160 0.342239
O O7 0.638867 0.996151 0.459971
O O8 0.063205 0.250000 0.638595
O O9 0.098837 0.496151 0.540029
O O10 0.967210 0.502789 0.712083
O O11 0.863316 0.750000 0.720815
O O12 0.762452 0.977774 0.818836
O O13 0.842617 0.993685 0.639829
O O14 0.142828 0.750000 0.446483
O O15 0.285627 0.559721 0.428745
O O16 0.410689 0.750000 0.446483
O O17 0.436980 0.750000 0.908273
O O18 0.558489 0.524298 0.883021
O O19 0.367474 0.500000 1.000000
O O20 0.345252 0.250000 0.091727
#
# Coordination Sequence:
#
# PCOD9161235 Si02
#       8
#     4   4   4   4   4   4   4   4
#     4  11  21  33  52  76 103 134 168 207 251 301
#     4  10  21  36  52  71  99 135 173 213 253 293
#     4  10  21  36  52  71  99 135 173 213 253 293
#     4  11  21  33  52  76 103 134 168 207 251 301
#     4  10  20  33  50  74 104 137 172 208 247 295
#     4  10  20  33  50  74 104 137 172 208 247 295
#     4   9  19  35  54  77 104 132 161 197 245 298
#     4   9  19  35  54  77 104 132 161 197 245 298
#
# _framework density 16.994955999999998
#
# number of rings (size 3 to 8) (size 9 to 14) (size 15 to 20)
#    0.000    2.000    0.000    3.750    0.000    6.000 
#    0.000    2.500    0.000    0.750    0.000    0.000 
#    0.000    0.000    0.000    0.000    0.000    0.000 
#
# Total GULP energy -178743.248191 kJ/mol
# GULP energy per Si atom -5585.726506 kJ/mol
# Density = 1.695627 g / cm^3
# Si number density = 16.994956 Si / 1000 Ang^3
#
#
#
# Elastic Constant Matrix: (Units=GPa)
#
#
# Indices 1 2 3 4 5 6 
#
# 1 101.7397 50.4032 96.8318 0.0000 0.0000 0.0000
# 2 50.4032 64.2446 52.2793 0.0000 0.0000 0.0000
# 3 96.8318 52.2793 136.0967 0.0000 0.0000 0.0000
# 4 0.0000 0.0000 0.0000 30.0582 0.0000 0.0000
# 5 0.0000 0.0000 0.0000 0.0000 31.8349 0.0000
# 6 0.0000 0.0000 0.0000 0.0000 0.0000 30.0090
#
#
#
# Elastic Compliance Matrix: (Units=1/GPa)
#
#
# Indices 1 2 3 4 5 6 
#
# 1 0.034608 -0.010350 -0.020648 0.000000 0.000000 0.000000
# 2 -0.010350 0.025739 -0.002523 0.000000 0.000000 0.000000
# 3 -0.020648 -0.002523 0.023008 0.000000 0.000000 0.000000
# 4 0.000000 0.000000 0.000000 0.033269 0.000000 0.000000
# 5 0.000000 0.000000 0.000000 0.000000 0.031412 0.000000
# 6 0.000000 0.000000 0.000000 0.000000 0.000000 0.033323
#
#
# Mechanical properties :
#
#
# Convention : Reuss Voigt Hill
#
# Bulk Modulus (GPa) = 61.30084 77.90107 69.60096
# Shear Modulus (GPa) = 19.69761 25.21819 22.45790
#
# Velocity S-wave (km/s) = 3.40814 3.85627 3.63911
# Velocity P-wave (km/s) = 7.18579 8.10957 7.66161
#
# Compressibility (1/GPa) = 0.01631299
#
# Stress axis : x y z
#
# Youngs Moduli (GPa) = 28.89506 38.85185 43.46366
#
# Poissons Ratio (x) = 0.40210 0.89742
# Poissons Ratio (y) = 0.29905 0.10968
# Poissons Ratio (z) = 0.59662 0.09804
#
# Static dielectric constant tensor:
#      x y z
#    x 1.595440 0.000000 0.000000 
#    y 0.000000 1.566830 0.000000 
#    z 0.000000 0.000000 1.536060 
# 
# From -- ./inp_files/51606.got.cif
#   From: 2010.05.17/outbox.cif.g08.bks.cpg/sg11_26_cif.got.tgz:51606.got - 2010.06.03 12:22:45.
