data_PCOD9161993
_publ_section_title
;
Structure prediction by ZEFSAII (Michael W. Deem and Ramdas Pophale) SiO2 
 PCOD9161993
Probable space group: P 21/M
;
_chemical_formula_sum "Si O2"
_cell_formula_units_Z 32
_cell_length_a 14.722177
_cell_length_b 7.719586
_cell_length_c 22.934061
_cell_angle_alpha 90.000000
_cell_angle_beta 31.911834
_cell_angle_gamma 90.000000
_cell_volume 1377.797522
_symmetry_space_group_name_H-M "P 21/M"
_symmetry_group_IT_number 11
_symmetry_cell_setting 'monoclinic'
loop_
_space_group_symop_operation_xyz
x,y,z
-x,1/2+y,-z
-x,-y,-z
x,1/2-y,z
loop_
_atom_site_type_symbol
_atom_site_label
_atom_site_fract_x
_atom_site_fract_y
_atom_site_fract_z
Si Si1 0.095214 0.449129 0.297398
Si Si2 0.445402 0.549155 0.146309
Si Si3 0.642730 0.542547 0.471042
Si Si4 0.625258 0.040555 0.293932
Si Si5 0.520696 0.450740 0.230275
Si Si6 0.091356 0.456501 0.764486
Si Si7 0.862071 0.041296 0.524545
Si Si8 0.250260 0.452584 0.094653
O O1 0.049254 0.250000 0.310162
O O2 0.264354 0.452982 0.246006
O O3 0.169336 0.531097 0.197588
O O4 0.940773 0.524924 0.419940
O O5 0.408944 0.750000 0.153800
O O6 0.533467 0.540015 0.161176
O O7 0.574302 0.474811 0.027340
O O8 0.500000 0.500000 0.500000
O O9 0.659985 0.750000 0.466842
O O10 0.551402 0.475110 0.579018
O O11 0.815431 0.476706 0.346060
O O12 0.614344 0.250000 0.298352
O O13 0.630697 0.978781 0.224622
O O14 0.784013 0.996108 0.249291
O O15 0.563983 0.250000 0.197572
O O16 0.322410 0.465162 0.359122
O O17 0.077187 0.250000 0.768173
O O18 0.901897 0.532757 0.869548
O O19 0.846169 0.250000 0.530370
O O20 0.000000 0.000000 0.500000
O O21 0.283407 0.250000 0.088195
#
# Coordination Sequence:
#
# PCOD9161993 Si02
#       8
#     4   4   4   4   4   4   4   4
#     4  10  22  40  62  87 118 153 192 238 292 353
#     4  11  23  40  62  85 114 153 197 246 294 346
#     4   8  15  29  48  74 106 140 178 219 272 330
#     4   9  19  36  57  80 114 157 193 234 287 348
#     4  11  23  38  60  87 119 159 199 239 290 351
#     4  10  20  34  56  86 116 149 192 244 290 340
#     4  11  22  37  59  89 123 157 191 237 293 349
#     4  10  23  41  60  85 116 154 197 241 294 349
#
# _framework density 23.225472
#
# number of rings (size 3 to 8) (size 9 to 14) (size 15 to 20)
#    0.000    2.000    1.250    1.875    1.750    3.500 
#    0.000    0.625    0.000    0.000    0.000    0.000 
#    0.000    0.000    0.000    0.000    0.000    0.000 
#
# Total GULP energy -178749.406280 kJ/mol
# GULP energy per Si atom -5585.918946 kJ/mol
# Density = 2.317261 g / cm^3
# Si number density = 23.225472 Si / 1000 Ang^3
#
#
#
# Elastic Constant Matrix: (Units=GPa)
#
#
# Indices 1 2 3 4 5 6 
#
# 1 92.9256 5.7375 9.8904 0.0000 17.5927 0.0000
# 2 5.7375 61.3836 -0.4711 0.0000 2.0881 0.0000
# 3 9.8904 -0.4711 80.4101 0.0000 13.1209 0.0000
# 4 0.0000 0.0000 0.0000 11.1248 0.0000 -0.0040
# 5 17.5927 2.0881 13.1209 0.0000 30.5507 0.0000
# 6 0.0000 0.0000 0.0000 -0.0040 0.0000 23.3742
#
#
#
# Elastic Compliance Matrix: (Units=1/GPa)
#
#
# Indices 1 2 3 4 5 6 
#
# 1 0.012139 -0.000908 -0.000396 0.000000 -0.006758 0.000000
# 2 -0.000908 0.016404 0.000328 0.000000 -0.000739 0.000000
# 3 -0.000396 0.000328 0.013392 0.000000 -0.005546 0.000000
# 4 0.000000 0.000000 0.000000 0.089889 0.000000 0.000015
# 5 -0.006758 -0.000739 -0.005546 0.000000 0.039057 0.000000
# 6 0.000000 0.000000 0.000000 0.000015 0.000000 0.042782
#
#
# Mechanical properties :
#
#
# Convention : Reuss Voigt Hill
#
# Bulk Modulus (GPa) = 25.00977 29.44810 27.22894
# Shear Modulus (GPa) = 21.83974 27.64745 24.74360
#
# Velocity S-wave (km/s) = 3.06982 3.45395 3.26753
# Velocity P-wave (km/s) = 4.83287 5.34912 5.09754
#
# Compressibility (1/GPa) = 0.03998437
#
# Stress axis : x y z
#
# Youngs Moduli (GPa) = 82.37955 60.96248 74.67249
#
# Poissons Ratio (x) = 0.05534 0.02954
# Poissons Ratio (y) = 0.07478 -0.02452
# Poissons Ratio (z) = 0.03259 -0.02002
#
# Static dielectric constant tensor:
#      x y z
#    x 1.914200 0.000000 0.028930 
#    y 0.000000 1.851230 0.000000 
#    z 0.028930 0.000000 1.879440 
# 
# From -- ./inp_files/68962.got.cif
#   From: 2010.05.17/outbox.cif.g08.bks.cpg/sg11_35_cif.got.tgz:68962.got - 2010.06.03 12:22:45.
