data_PCOD9161934
_publ_section_title
;
Structure prediction by ZEFSAII (Michael W. Deem and Ramdas Pophale) SiO2 
 PCOD9161934
Probable space group: P 21/M
;
_chemical_formula_sum "Si O2"
_cell_formula_units_Z 32
_cell_length_a 22.140470
_cell_length_b 8.834906
_cell_length_c 28.626428
_cell_angle_alpha 90.000000
_cell_angle_beta 161.191476
_cell_angle_gamma 90.000000
_cell_volume 1805.343114
_symmetry_space_group_name_H-M "P 21/M"
_symmetry_group_IT_number 11
_symmetry_cell_setting 'monoclinic'
loop_
_space_group_symop_operation_xyz
x,y,z
-x,1/2+y,-z
-x,-y,-z
x,1/2-y,z
loop_
_atom_site_type_symbol
_atom_site_label
_atom_site_fract_x
_atom_site_fract_y
_atom_site_fract_z
Si Si1 0.326645 0.567339 0.165484
Si Si2 0.997303 0.070222 0.698698
Si Si3 0.818034 0.567342 0.656866
Si Si4 0.293048 0.931510 0.845729
Si Si5 0.909815 0.932400 0.829909
Si Si6 0.393133 0.567721 0.321574
Si Si7 0.302888 0.929779 0.601490
Si Si8 0.996218 0.568490 0.548902
O O1 0.342944 0.750000 0.174670
O O2 0.353384 0.522291 0.239121
O O3 0.491052 0.494743 0.255396
O O4 0.119835 0.522888 0.997745
O O5 0.027724 0.250000 0.722576
O O6 0.816777 0.040581 0.533389
O O7 0.951592 0.005260 0.715930
O O8 0.169929 0.991285 0.798957
O O9 0.830184 0.750000 0.661902
O O10 0.603701 0.522286 0.489436
O O11 0.868578 0.522886 0.746474
O O12 0.302871 0.750000 0.854160
O O13 0.175122 0.974978 0.712560
O O14 0.500000 0.000000 0.000000
O O15 0.898156 0.750000 0.824079
O O16 0.758212 0.000076 0.754100
O O17 0.382786 0.750000 0.316401
O O18 0.307141 0.750000 0.612285
O O19 0.186046 0.008707 0.557016
O O20 0.991961 0.750000 0.543253
O O21 0.000000 0.500000 0.500000
#
# Coordination Sequence:
#
# PCOD9161934 Si02
#       8
#     4   4   4   4   4   4   4   4
#     4  10  20  36  55  78 108 143 183 226 275 329
#     4  10  20  35  58  85 110 143 188 232 273 325
#     4  10  20  36  55  78 108 143 183 226 275 329
#     4  10  21  38  61  88 118 151 188 231 277 331
#     4  10  22  36  52  78 111 142 177 226 280 330
#     4  10  20  34  56  78 103 142 185 226 272 332
#     4  10  20  35  58  85 110 143 188 232 273 325
#     4  10  21  38  61  88 118 151 188 231 277 331
#
# _framework density 17.725162999999998
#
# number of rings (size 3 to 8) (size 9 to 14) (size 15 to 20)
#    0.000    2.000    1.250    2.250    0.000    4.500 
#    2.250    0.000    0.000    0.000    0.000    0.000 
#    0.000    0.000    0.000    0.000    0.000    0.000 
#
# Total GULP energy -178698.528134 kJ/mol
# GULP energy per Si atom -5584.329004 kJ/mol
# Density = 1.768482 g / cm^3
# Si number density = 17.725163 Si / 1000 Ang^3
#
#
#
# Elastic Constant Matrix: (Units=GPa)
#
#
# Indices 1 2 3 4 5 6 
#
# 1 171.4196 50.7653 101.2524 0.0000 4.3185 0.0000
# 2 50.7653 33.4702 44.8576 0.0000 4.1178 0.0000
# 3 101.2524 44.8576 153.8910 0.0000 7.8732 0.0000
# 4 0.0000 0.0000 0.0000 20.8132 0.0000 10.5243
# 5 4.3185 4.1178 7.8732 0.0000 29.4924 0.0000
# 6 0.0000 0.0000 0.0000 10.5243 0.0000 35.8933
#
#
#
# Elastic Compliance Matrix: (Units=1/GPa)
#
#
# Indices 1 2 3 4 5 6 
#
# 1 0.012137 -0.012750 -0.004328 0.000000 0.001158 0.000000
# 2 -0.012750 0.062703 -0.009668 0.000000 -0.004307 0.000000
# 3 -0.004328 -0.009668 0.012229 0.000000 -0.001281 0.000000
# 4 0.000000 0.000000 0.000000 0.056410 0.000000 -0.016540
# 5 0.001158 -0.004307 -0.001281 0.000000 0.034681 0.000000
# 6 0.000000 0.000000 0.000000 -0.016540 0.000000 0.032710
#
#
# Mechanical properties :
#
#
# Convention : Reuss Voigt Hill
#
# Bulk Modulus (GPa) = 29.78241 83.61461 56.69851
# Shear Modulus (GPa) = 18.14515 28.03348 23.08932
#
# Velocity S-wave (km/s) = 3.20299 3.98120 3.61311
# Velocity P-wave (km/s) = 5.52428 8.27095 7.03300
#
# Compressibility (1/GPa) = 0.03357687
#
# Stress axis : x y z
#
# Youngs Moduli (GPa) = 82.39317 15.94810 81.76955
#
# Poissons Ratio (x) = 0.20334 0.35391
# Poissons Ratio (y) = 1.05054 0.79055
# Poissons Ratio (z) = 0.35661 0.15419
#
# Static dielectric constant tensor:
#      x y z
#    x 1.569110 0.000000 -0.016130 
#    y 0.000000 1.592560 0.000000 
#    z -0.016130 0.000000 1.592220 
# 
# From -- ./inp_files/72126.got.cif
#   From: 2010.05.17/outbox.cif.g08.bks.cpg/sg11_37_cif.got.tgz:72126.got - 2010.06.03 12:22:45.
