data_PCOD9161619
_publ_section_title
;
Structure prediction by ZEFSAII (Michael W. Deem and Ramdas Pophale) SiO2 
 PCOD9161619
Probable space group: P 21/M
;
_chemical_formula_sum "Si O2"
_cell_formula_units_Z 28
_cell_length_a 20.083214
_cell_length_b 7.716577
_cell_length_c 15.130060
_cell_angle_alpha 90.000000
_cell_angle_beta 147.118806
_cell_angle_gamma 90.000000
_cell_volume 1272.967952
_symmetry_space_group_name_H-M "P 21/M"
_symmetry_group_IT_number 11
_symmetry_cell_setting 'monoclinic'
loop_
_space_group_symop_operation_xyz
x,y,z
-x,1/2+y,-z
-x,-y,-z
x,1/2-y,z
loop_
_atom_site_type_symbol
_atom_site_label
_atom_site_fract_x
_atom_site_fract_y
_atom_site_fract_z
Si Si1 0.291575 0.460394 0.970676
Si Si2 0.565432 0.453964 0.701858
Si Si3 0.188959 0.955473 0.117068
Si Si4 0.705592 0.959979 0.588572
Si Si5 0.642818 0.958544 0.151007
Si Si6 0.772179 0.549642 0.469843
Si Si7 0.955318 0.951455 0.207019
O O1 0.293950 0.250000 0.975695
O O2 0.308637 0.521507 0.889720
O O3 0.162677 0.517352 0.870007
O O4 0.398793 0.523561 0.155431
O O5 0.560806 0.250000 0.676303
O O6 0.681460 0.527845 0.777708
O O7 0.429868 0.525144 0.534173
O O8 0.185340 0.750000 0.098168
O O9 0.194812 0.990127 0.227278
O O10 0.081879 0.031465 0.937340
O O11 0.702899 0.750000 0.583149
O O12 0.733471 0.026458 0.521338
O O13 0.658343 0.750000 0.166348
O O14 0.712972 0.027692 0.315598
O O15 0.500000 0.000000 0.000000
O O16 0.731385 0.750000 0.426746
O O17 0.918805 0.543580 0.630132
O O18 0.971904 0.750000 0.246813
#
# Coordination Sequence:
#
# PCOD9161619 Si02
#       7
#     4   4   4   4   4   4   4
#     4   9  19  35  56  81 109 141 176 219 267 312
#     4   9  18  33  54  81 110 140 176 217 265 322
#     4  10  20  34  55  81 107 138 178 222 267 318
#     4  10  20  34  52  76 108 144 179 218 267 317
#     4  10  21  38  59  84 113 142 174 214 263 318
#     4  10  22  38  55  77 108 144 180 220 263 312
#     4  10  21  38  57  78 106 140 180 223 266 313
#
# _framework density 21.995840999999999
#
# number of rings (size 3 to 8) (size 9 to 14) (size 15 to 20)
#    0.000    2.286    0.000    2.143    0.000    5.714 
#    0.000    0.000    0.000    0.000    0.000    0.000 
#    0.000    0.000    0.000    0.000    0.000    0.000 
#
# Total GULP energy -156413.479650 kJ/mol
# GULP energy per Si atom -5586.195702 kJ/mol
# Density = 2.194578 g / cm^3
# Si number density = 21.995841 Si / 1000 Ang^3
#
#
#
# Elastic Constant Matrix: (Units=GPa)
#
#
# Indices 1 2 3 4 5 6 
#
# 1 66.3042 -6.9357 45.2115 0.0000 -28.6618 0.0000
# 2 -6.9357 37.9931 -16.5901 0.0000 0.0173 0.0000
# 3 45.2115 -16.5901 138.4208 0.0000 -23.5950 0.0000
# 4 0.0000 0.0000 0.0000 20.0716 0.0000 0.6531
# 5 -28.6618 0.0173 -23.5950 0.0000 38.5988 0.0000
# 6 0.0000 0.0000 0.0000 0.6531 0.0000 14.8242
#
#
#
# Elastic Compliance Matrix: (Units=1/GPa)
#
#
# Indices 1 2 3 4 5 6 
#
# 1 0.025942 0.002335 -0.005481 0.000000 0.015912 0.000000
# 2 0.002335 0.028162 0.003244 0.000000 0.003704 0.000000
# 3 -0.005481 0.003244 0.009722 0.000000 0.001872 0.000000
# 4 0.000000 0.000000 0.000000 0.049893 0.000000 -0.002198
# 5 0.015912 0.003704 0.001872 0.000000 0.038866 0.000000
# 6 0.000000 0.000000 0.000000 -0.002198 0.000000 0.067554
#
#
# Mechanical properties :
#
#
# Convention : Reuss Voigt Hill
#
# Bulk Modulus (GPa) = 15.61957 31.78773 23.70365
# Shear Modulus (GPa) = 20.72249 29.43440 25.07845
#
# Velocity S-wave (km/s) = 3.07271 3.66208 3.38027
# Velocity P-wave (km/s) = 4.43906 5.68896 5.10243
#
# Compressibility (1/GPa) = 0.06402225
#
# Stress axis : x y z
#
# Youngs Moduli (GPa) = 38.54743 35.50922 102.85460
#
# Poissons Ratio (x) = -0.08292 0.56376
# Poissons Ratio (y) = -0.09001 -0.33366
# Poissons Ratio (z) = 0.21128 -0.11519
#
# Static dielectric constant tensor:
#      x y z
#    x 1.834430 0.000000 -0.011460 
#    y 0.000000 1.798030 0.000000 
#    z -0.011460 0.000000 1.772520 
# 
# From -- ./inp_files/37797.got.cif
#   From: 2010.05.17/outbox.cif.g08.bks.cpg/sg11_19_cif.got.tgz:37797.got - 2010.06.03 12:22:45.
