data_PCOD9161450
_publ_section_title
;
Structure prediction by ZEFSAII (Michael W. Deem and Ramdas Pophale) SiO2 
 PCOD9161450
Probable space group: P 21/M
;
_chemical_formula_sum "Si O2"
_cell_formula_units_Z 24
_cell_length_a 19.047216
_cell_length_b 10.514769
_cell_length_c 12.338722
_cell_angle_alpha 90.000000
_cell_angle_beta 26.823091
_cell_angle_gamma 90.000000
_cell_volume 1115.080819
_symmetry_space_group_name_H-M "P 21/M"
_symmetry_group_IT_number 11
_symmetry_cell_setting 'monoclinic'
loop_
_space_group_symop_operation_xyz
x,y,z
-x,1/2+y,-z
-x,-y,-z
x,1/2-y,z
loop_
_atom_site_type_symbol
_atom_site_label
_atom_site_fract_x
_atom_site_fract_y
_atom_site_fract_z
Si Si1 0.534193 0.386885 0.371067
Si Si2 0.024132 0.600360 0.131720
Si Si3 0.686604 0.400647 0.846849
Si Si4 0.869137 0.396766 0.791347
Si Si5 0.579798 0.110121 0.759284
Si Si6 0.246103 0.477307 0.650416
O O1 0.500000 0.500000 0.500000
O O2 0.540224 0.250000 0.419149
O O3 0.388007 0.390842 0.492225
O O4 0.695474 0.402468 0.084689
O O5 0.067081 0.750000 0.074630
O O6 0.027164 0.552547 0.251961
O O7 0.863694 0.586628 0.287969
O O8 0.146149 0.521489 0.891101
O O9 0.657041 0.250000 0.915017
O O10 0.545091 0.496739 0.066714
O O11 0.832467 0.444319 0.720112
O O12 0.691773 0.403727 0.709506
O O13 0.918743 0.250000 0.708688
O O14 0.505268 0.250000 0.870060
O O15 0.677792 0.096839 0.515310
#
# Coordination Sequence:
#
# PCOD9161450 Si02
#       6
#     4   4   4   4   4   4
#     4  11  21  34  54  81 109 142 181 222 270 320
#     4  10  21  35  52  75 105 145 183 216 264 326
#     4   9  18  34  56  81 110 141 179 222 269 322
#     4   9  17  33  54  76 105 139 177 219 262 315
#     4  10  20  33  54  83 111 142 177 224 275 316
#     4  11  21  34  52  78 112 142 178 221 270 321
#
# _framework density 21.523104
#
# number of rings (size 3 to 8) (size 9 to 14) (size 15 to 20)
#    0.000    2.000    3.333    1.000    0.000    1.333 
#    0.000    0.833    0.000    0.000    0.000    0.000 
#    0.000    0.000    0.000    0.000    0.000    0.000 
#
# Total GULP energy -133770.277966 kJ/mol
# GULP energy per Si atom -5573.761582 kJ/mol
# Density = 2.147412 g / cm^3
# Si number density = 21.523104 Si / 1000 Ang^3
#
#
#
# Elastic Constant Matrix: (Units=GPa)
#
#
# Indices 1 2 3 4 5 6 
#
# 1 162.3049 30.8157 11.2012 0.0000 -6.6771 0.0000
# 2 30.8157 84.1829 11.1520 0.0000 2.5866 0.0000
# 3 11.2012 11.1520 21.1306 0.0000 -3.7736 0.0000
# 4 0.0000 0.0000 0.0000 10.4190 0.0000 3.9465
# 5 -6.6771 2.5866 -3.7736 0.0000 42.6366 0.0000
# 6 0.0000 0.0000 0.0000 3.9465 0.0000 32.7333
#
#
#
# Elastic Compliance Matrix: (Units=1/GPa)
#
#
# Indices 1 2 3 4 5 6 
#
# 1 0.006778 -0.002214 -0.002246 0.000000 0.000997 0.000000
# 2 -0.002214 0.013577 -0.006300 0.000000 -0.001728 0.000000
# 3 -0.002246 -0.006300 0.052679 0.000000 0.004693 0.000000
# 4 0.000000 0.000000 0.000000 0.100571 0.000000 -0.012125
# 5 0.000997 -0.001728 0.004693 0.000000 0.024130 0.000000
# 6 0.000000 0.000000 0.000000 -0.012125 0.000000 0.032012
#
#
# Mechanical properties :
#
#
# Convention : Reuss Voigt Hill
#
# Bulk Modulus (GPa) = 19.41302 41.55070 30.48186
# Shear Modulus (GPa) = 18.62622 31.45441 25.04031
#
# Velocity S-wave (km/s) = 2.94497 3.82701 3.41459
# Velocity P-wave (km/s) = 4.53905 6.23499 5.45335
#
# Compressibility (1/GPa) = 0.05151181
#
# Stress axis : x y z
#
# Youngs Moduli (GPa) = 147.54379 73.65331 18.98303
#
# Poissons Ratio (x) = 0.16307 0.04264
# Poissons Ratio (y) = 0.32667 0.11960
# Poissons Ratio (z) = 0.33142 0.46405
#
# Static dielectric constant tensor:
#      x y z
#    x 1.849260 0.000000 -0.005170 
#    y 0.000000 1.780550 0.000000 
#    z -0.005170 0.000000 1.776490 
# 
# From -- ./inp_files/34668.got.cif
#   From: 2010.05.17/outbox.cif.g08.bks.cpg/sg11_18_cif.got.tgz:34668.got - 2010.06.03 12:22:45.
