data_PCOD9161255
_publ_section_title
;
Structure prediction by ZEFSAII (Michael W. Deem and Ramdas Pophale) SiO2 
 PCOD9161255
Probable space group: P 21/M
;
_chemical_formula_sum "Si O2"
_cell_formula_units_Z 28
_cell_length_a 16.076590
_cell_length_b 8.858317
_cell_length_c 13.012158
_cell_angle_alpha 90.000000
_cell_angle_beta 124.043894
_cell_angle_gamma 90.000000
_cell_volume 1535.479751
_symmetry_space_group_name_H-M "P 21/M"
_symmetry_group_IT_number 11
_symmetry_cell_setting 'monoclinic'
loop_
_space_group_symop_operation_xyz
x,y,z
-x,1/2+y,-z
-x,-y,-z
x,1/2-y,z
loop_
_atom_site_type_symbol
_atom_site_label
_atom_site_fract_x
_atom_site_fract_y
_atom_site_fract_z
Si Si1 0.957957 0.931385 0.575433
Si Si2 0.420544 0.067976 0.806638
Si Si3 0.009405 0.430530 0.823595
Si Si4 0.364661 0.070054 0.997429
Si Si5 0.729570 0.568904 0.475398
Si Si6 0.207533 0.931044 0.043648
Si Si7 0.220830 0.569576 0.280535
O O1 0.966839 0.750000 0.581677
O O2 0.840290 0.971584 0.509259
O O3 0.000000 0.000000 0.500000
O O4 0.014527 0.001093 0.712645
O O5 0.434901 0.250000 0.812416
O O6 0.354880 0.019550 0.663689
O O7 0.528091 0.988784 0.887693
O O8 0.363711 0.035045 0.874818
O O9 0.020640 0.250000 0.828316
O O10 0.096587 0.502952 0.951357
O O11 0.897631 0.466247 0.786806
O O12 0.357444 0.250000 0.003915
O O13 0.277425 0.991909 0.001435
O O14 0.725925 0.750000 0.478412
O O15 0.721696 0.504261 0.584571
O O16 0.202855 0.750000 0.037771
O O17 0.249109 0.976945 0.184732
O O18 0.231181 0.750000 0.295893
#
# Coordination Sequence:
#
# PCOD9161255 Si02
#       7
#     4   4   4   4   4   4   4
#     4  10  20  33  50  78 112 146 182 223 268 322
#     4   9  19  38  59  80 109 141 175 224 278 325
#     4  10  20  35  54  77 108 147 186 226 271 319
#     4  10  21  36  57  84 110 140 179 224 273 329
#     4   9  19  35  57  79 105 143 181 221 273 325
#     4  11  22  36  55  81 112 144 183 227 274 323
#     4   9  20  37  55  79 111 145 182 227 270 320
#
# _framework density 18.235344000000001
#
# number of rings (size 3 to 8) (size 9 to 14) (size 15 to 20)
#    0.000    2.286    0.000    2.143    2.000    3.429 
#    0.000    0.714    0.000    0.000    0.000    0.000 
#    0.000    0.000    0.000    0.000    0.000    0.000 
#
# Total GULP energy -156296.189066 kJ/mol
# GULP energy per Si atom -5582.006752 kJ/mol
# Density = 1.819384 g / cm^3
# Si number density = 18.235344 Si / 1000 Ang^3
#
#
#
# Elastic Constant Matrix: (Units=GPa)
#
#
# Indices 1 2 3 4 5 6 
#
# 1 22.0117 17.7177 13.0939 0.0000 -4.4531 0.0000
# 2 17.7177 38.3738 30.1142 0.0000 -1.7675 0.0000
# 3 13.0939 30.1142 129.1596 0.0000 3.0653 0.0000
# 4 0.0000 0.0000 0.0000 32.6598 0.0000 -0.5476
# 5 -4.4531 -1.7675 3.0653 0.0000 17.1076 0.0000
# 6 0.0000 0.0000 0.0000 -0.5476 0.0000 26.0254
#
#
#
# Elastic Compliance Matrix: (Units=1/GPa)
#
#
# Indices 1 2 3 4 5 6 
#
# 1 0.076605 -0.034533 -0.000103 0.000000 0.016391 0.000000
# 2 -0.034533 0.047835 -0.007588 0.000000 -0.002687 0.000000
# 3 -0.000103 -0.007588 0.009582 0.000000 -0.002528 0.000000
# 4 0.000000 0.000000 0.000000 0.030629 0.000000 0.000644
# 5 0.016391 -0.002687 -0.002528 0.000000 0.062895 0.000000
# 6 0.000000 0.000000 0.000000 0.000644 0.000000 0.038438
#
#
# Mechanical properties :
#
#
# Convention : Reuss Voigt Hill
#
# Bulk Modulus (GPa) = 20.17275 34.59964 27.38620
# Shear Modulus (GPa) = 13.62552 23.73318 18.67935
#
# Velocity S-wave (km/s) = 2.73647 3.61154 3.20402
# Velocity P-wave (km/s) = 4.59030 6.03374 5.36082
#
# Compressibility (1/GPa) = 0.04957183
#
# Stress axis : x y z
#
# Youngs Moduli (GPa) = 13.05404 20.90510 104.36137
#
# Poissons Ratio (x) = 0.72192 0.01079
# Poissons Ratio (y) = 0.45080 0.79193
# Poissons Ratio (z) = 0.00135 0.15864
#
# Static dielectric constant tensor:
#      x y z
#    x 1.610650 0.000000 -0.007660 
#    y 0.000000 1.607810 0.000000 
#    z -0.007660 0.000000 1.625010 
# 
# From -- ./inp_files/37770.got.cif
#   From: 2010.05.17/outbox.cif.g08.bks.cpg/sg11_19_cif.got.tgz:37770.got - 2010.06.03 12:22:45.
