data_PCOD9161644
_publ_section_title
;
Structure prediction by ZEFSAII (Michael W. Deem and Ramdas Pophale) SiO2 
 PCOD9161644
Probable space group: P 21/M
;
_chemical_formula_sum "Si O2"
_cell_formula_units_Z 24
_cell_length_a 5.250475
_cell_length_b 14.829384
_cell_length_c 15.960630
_cell_angle_alpha 90.000000
_cell_angle_beta 113.214690
_cell_angle_gamma 90.000000
_cell_volume 1142.098233
_symmetry_space_group_name_H-M "P 21/M"
_symmetry_group_IT_number 11
_symmetry_cell_setting 'monoclinic'
loop_
_space_group_symop_operation_xyz
x,y,z
-x,1/2+y,-z
-x,-y,-z
x,1/2-y,z
loop_
_atom_site_type_symbol
_atom_site_label
_atom_site_fract_x
_atom_site_fract_y
_atom_site_fract_z
Si Si1 0.643168 0.356177 0.555697
Si Si2 0.831961 0.250000 0.879572
Si Si3 0.639036 0.565929 0.950843
Si Si4 0.121644 0.561390 0.137785
Si Si5 0.514904 0.750000 0.996544
Si Si6 0.596465 0.023853 0.394403
Si Si7 0.011742 0.477155 0.702370
O O1 0.586194 0.250000 0.547388
O O2 0.404858 0.424307 0.561102
O O3 0.699253 0.400391 0.471871
O O4 0.903754 0.382608 0.648520
O O5 0.733251 0.156707 0.824392
O O6 0.700616 0.250000 0.955380
O O7 0.171065 0.250000 0.922921
O O8 0.683369 0.518723 0.867962
O O9 0.488075 0.661014 0.936997
O O10 0.500000 0.500000 0.000000
O O11 0.941783 0.582084 0.031552
O O12 0.934117 0.536106 0.192480
O O13 0.269064 0.036902 0.336547
O O14 0.764138 0.016861 0.330804
#
# Coordination Sequence:
#
# PCOD9161644 Si02
#       7
#     4   2   4   4   2   4   4
#     4   9  20  37  62  87 111 149 186 223 281 343
#     4  10  20  34  52  86 108 138 174 240 282 326
#     4  10  20  36  57  81 107 160 189 230 283 328
#     4  10  22  34  57  83 116 146 190 230 286 333
#     4  10  20  36  56  76 108 138 196 232 268 334
#     4   9  21  38  56  83 116 147 179 227 282 329
#     4  10  21  37  56  84 119 146 181 236 279 329
#
# _framework density 21.013953000000001
#
# number of rings (size 3 to 8) (size 9 to 14) (size 15 to 20)
#    1.000    1.333    1.667    0.500    3.500    0.667 
#    0.000    0.000    3.667    0.000    0.000    0.000 
#    0.000    0.000    0.000    0.000    0.000    0.000 
#
# Total GULP energy -133615.073513 kJ/mol
# GULP energy per Si atom -5567.294730 kJ/mol
# Density = 2.096612 g / cm^3
# Si number density = 21.013953 Si / 1000 Ang^3
#
#
#
# Elastic Constant Matrix: (Units=GPa)
#
#
# Indices 1 2 3 4 5 6 
#
# 1 103.6540 24.7462 39.1257 0.0000 -39.1102 0.0000
# 2 24.7462 104.9107 24.9410 0.0000 -19.2786 0.0000
# 3 39.1257 24.9410 98.4649 0.0000 -31.0859 0.0000
# 4 0.0000 0.0000 0.0000 6.1196 0.0000 -5.0573
# 5 -39.1102 -19.2786 -31.0859 0.0000 44.9419 0.0000
# 6 0.0000 0.0000 0.0000 -5.0573 0.0000 16.0819
#
#
#
# Elastic Compliance Matrix: (Units=1/GPa)
#
#
# Indices 1 2 3 4 5 6 
#
# 1 0.014853 -0.000962 -0.002185 0.000000 0.011002 0.000000
# 2 -0.000962 0.010601 -0.001448 0.000000 0.002709 0.000000
# 3 -0.002185 -0.001448 0.013554 0.000000 0.006853 0.000000
# 4 0.000000 0.000000 0.000000 0.220788 0.000000 0.069431
# 5 0.011002 0.002709 0.006853 0.000000 0.037727 0.000000
# 6 0.000000 0.000000 0.000000 0.069431 0.000000 0.084015
#
#
# Mechanical properties :
#
#
# Convention : Reuss Voigt Hill
#
# Bulk Modulus (GPa) = 33.53660 53.85061 43.69361
# Shear Modulus (GPa) = 12.47915 27.97645 20.22780
#
# Velocity S-wave (km/s) = 2.43955 3.65269 3.10593
# Velocity P-wave (km/s) = 4.89173 6.59328 5.80519
#
# Compressibility (1/GPa) = 0.02981816
#
# Stress axis : x y z
#
# Youngs Moduli (GPa) = 67.32636 94.33241 73.77714
#
# Poissons Ratio (x) = 0.09079 0.16120
# Poissons Ratio (y) = 0.06480 0.10680
# Poissons Ratio (z) = 0.14710 0.13656
#
# Static dielectric constant tensor:
#      x y z
#    x 1.813230 0.000000 0.065140 
#    y 0.000000 1.837130 0.000000 
#    z 0.065140 0.000000 1.809450 
# 
# From -- ./inp_files/45763.got.cif
#   From: 2010.05.17/outbox.cif.g08.bks.cpg/sg11_23_cif.got.tgz:45763.got - 2010.06.03 12:22:45.
