data_PCOD9161366
_publ_section_title
;
Structure prediction by ZEFSAII (Michael W. Deem and Ramdas Pophale) SiO2 
 PCOD9161366
Probable space group: P 21/M
;
_chemical_formula_sum "Si O2"
_cell_formula_units_Z 30
_cell_length_a 14.041559
_cell_length_b 14.449462
_cell_length_c 7.341962
_cell_angle_alpha 90.000000
_cell_angle_beta 67.963017
_cell_angle_gamma 90.000000
_cell_volume 1380.802723
_symmetry_space_group_name_H-M "P 21/M"
_symmetry_group_IT_number 11
_symmetry_cell_setting 'monoclinic'
loop_
_space_group_symop_operation_xyz
x,y,z
-x,1/2+y,-z
-x,-y,-z
x,1/2-y,z
loop_
_atom_site_type_symbol
_atom_site_label
_atom_site_fract_x
_atom_site_fract_y
_atom_site_fract_z
Si Si1 0.518722 0.360631 0.608071
Si Si2 0.857704 0.750000 0.926172
Si Si3 0.407019 0.860019 0.818182
Si Si4 0.656120 0.038865 0.785085
Si Si5 0.820329 0.354281 0.149662
Si Si6 0.888960 0.409247 0.717948
Si Si7 0.348430 0.350442 0.025130
Si Si8 0.012946 0.905006 0.718733
O O1 0.542906 0.250000 0.602770
O O2 0.512144 0.381918 0.398566
O O3 0.417096 0.376227 0.800912
O O4 0.607635 0.420202 0.638391
O O5 0.945363 0.830627 0.871678
O O6 0.766763 0.829126 0.958211
O O7 0.405807 0.750000 0.855325
O O8 0.410207 0.914275 0.003871
O O9 0.295961 0.883151 0.809113
O O10 0.651088 0.929750 0.825304
O O11 0.774166 0.069353 0.727707
O O12 0.817871 0.250000 0.228524
O O13 0.883938 0.419385 0.238257
O O14 0.874815 0.353480 0.913484
O O15 0.948419 0.502743 0.730824
O O16 0.953425 0.367687 0.504632
O O17 0.387281 0.250000 0.067783
#
# Coordination Sequence:
#
# PCOD9161366 Si02
#       8
#     4   2   4   4   4   4   4   4
#     4  10  20  36  59  83 111 146 184 229 284 335
#     4  10  20  38  60  76 108 152 184 224 276 320
#     4   9  20  35  53  84 116 137 176 236 278 331
#     4  11  19  36  60  83 113 147 183 227 287 331
#     4  10  20  33  52  80 110 138 174 221 273 323
#     4  10  22  34  55  84 109 139 183 229 265 325
#     4   9  20  37  57  81 111 148 190 232 272 327
#     4  11  20  37  58  76 107 150 184 218 273 323
#
# _framework density 21.726493000000001
#
# number of rings (size 3 to 8) (size 9 to 14) (size 15 to 20)
#    0.400    1.600    2.000    2.000    0.933    1.067 
#    0.000    0.000    0.000    5.600    0.000    0.000 
#    0.000    0.000    0.000    0.000    0.000    0.000 
#
# Total GULP energy -167045.484467 kJ/mol
# GULP energy per Si atom -5568.182816 kJ/mol
# Density = 2.167704 g / cm^3
# Si number density = 21.726493 Si / 1000 Ang^3
#
#
#
# Elastic Constant Matrix: (Units=GPa)
#
#
# Indices 1 2 3 4 5 6 
#
# 1 69.9724 2.1043 -2.1383 0.0000 0.1565 0.0000
# 2 2.1043 50.8458 15.5606 0.0000 -0.8617 0.0000
# 3 -2.1383 15.5606 67.4497 0.0000 8.1429 0.0000
# 4 0.0000 0.0000 0.0000 16.2127 0.0000 -0.0241
# 5 0.1565 -0.8617 8.1429 0.0000 16.9508 0.0000
# 6 0.0000 0.0000 0.0000 -0.0241 0.0000 6.6474
#
#
#
# Elastic Compliance Matrix: (Units=1/GPa)
#
#
# Indices 1 2 3 4 5 6 
#
# 1 0.014339 -0.000818 0.000705 0.000000 -0.000513 0.000000
# 2 -0.000818 0.021421 -0.005414 0.000000 0.003697 0.000000
# 3 0.000705 -0.005414 0.017124 0.000000 -0.008508 0.000000
# 4 0.000000 0.000000 0.000000 0.061680 0.000000 0.000224
# 5 -0.000513 0.003697 -0.008508 0.000000 0.063274 0.000000
# 6 0.000000 0.000000 0.000000 0.000224 0.000000 0.150436
#
#
# Mechanical properties :
#
#
# Convention : Reuss Voigt Hill
#
# Bulk Modulus (GPa) = 23.90619 24.36900 24.13760
# Shear Modulus (GPa) = 14.15347 19.47829 16.81588
#
# Velocity S-wave (km/s) = 2.55510 2.99745 2.78507
# Velocity P-wave (km/s) = 4.44205 4.81873 4.63422
#
# Compressibility (1/GPa) = 0.04183016
#
# Stress axis : x y z
#
# Youngs Moduli (GPa) = 69.74160 46.68388 58.39644
#
# Poissons Ratio (x) = 0.03818 -0.04118
# Poissons Ratio (y) = 0.05704 0.31616
# Poissons Ratio (z) = -0.04918 0.25275
#
# Static dielectric constant tensor:
#      x y z
#    x 1.787720 0.000000 -0.019410 
#    y 0.000000 1.796580 0.000000 
#    z -0.019410 0.000000 1.797820 
# 
# From -- ./inp_files/6813.got.cif
#   From: 2010.05.17/outbox.cif.g08.bks.cpg/sg11_4_cif.got.tgz:6813.got - 2010.06.03 12:22:45.
