data_PCOD9161971
_publ_section_title
;
Structure prediction by ZEFSAII (Michael W. Deem and Ramdas Pophale) SiO2 
 PCOD9161971
Probable space group: P 21/M
;
_chemical_formula_sum "Si O2"
_cell_formula_units_Z 20
_cell_length_a 14.649316
_cell_length_b 13.783413
_cell_length_c 11.777993
_cell_angle_alpha 90.000000
_cell_angle_beta 153.397236
_cell_angle_gamma 90.000000
_cell_volume 1064.955971
_symmetry_space_group_name_H-M "P 21/M"
_symmetry_group_IT_number 11
_symmetry_cell_setting 'monoclinic'
loop_
_space_group_symop_operation_xyz
x,y,z
-x,1/2+y,-z
-x,-y,-z
x,1/2-y,z
loop_
_atom_site_type_symbol
_atom_site_label
_atom_site_fract_x
_atom_site_fract_y
_atom_site_fract_z
Si Si1 0.581794 0.135183 0.391743
Si Si2 0.371771 0.361042 0.392961
Si Si3 0.134985 0.472420 0.309148
Si Si4 0.759685 0.361916 0.992515
Si Si5 0.487324 0.520025 0.118249
O O1 0.591448 0.250000 0.395634
O O2 0.462145 0.106024 0.373242
O O3 0.805975 0.085568 0.639084
O O4 0.464709 0.082613 0.158881
O O5 0.301283 0.250000 0.302092
O O6 0.199837 0.423905 0.262494
O O7 0.562423 0.361547 0.691564
O O8 0.300139 0.441572 0.590534
O O9 0.922765 0.432757 0.116081
O O10 0.831339 0.250000 0.081244
O O11 0.686010 0.407061 0.030113
O O12 0.500000 0.500000 0.000000
#
# Coordination Sequence:
#
# PCOD9161971 Si02
#       5
#     4   4   4   4   4
#     4   9  19  36  54  77 112 147 179 221 270 322
#     4   9  17  33  54  81 113 142 175 219 273 328
#     4   9  19  33  57  79 110 140 178 221 269 318
#     4  10  20  34  56  85 108 137 180 224 272 325
#     4   9  21  38  56  75 106 143 185 224 269 313
#
# _framework density 18.780118000000002
#
# number of rings (size 3 to 8) (size 9 to 14) (size 15 to 20)
#    1.200    1.600    0.000    1.200    0.000    3.200 
#    0.000    1.000    0.000    0.000    0.000    0.000 
#    0.000    0.000    0.000    0.000    0.000    0.000 
#
# Total GULP energy -111365.476826 kJ/mol
# GULP energy per Si atom -5568.273841 kJ/mol
# Density = 1.873737 g / cm^3
# Si number density = 18.780118 Si / 1000 Ang^3
#
#
#
# Elastic Constant Matrix: (Units=GPa)
#
#
# Indices 1 2 3 4 5 6 
#
# 1 160.1563 50.8354 17.3309 0.0000 -8.2504 0.0000
# 2 50.8354 100.1095 14.6292 0.0000 7.6360 0.0000
# 3 17.3309 14.6292 25.6440 0.0000 7.6593 0.0000
# 4 0.0000 0.0000 0.0000 20.5389 0.0000 2.5707
# 5 -8.2504 7.6360 7.6593 0.0000 23.3718 0.0000
# 6 0.0000 0.0000 0.0000 2.5707 0.0000 15.9024
#
#
#
# Elastic Compliance Matrix: (Units=1/GPa)
#
#
# Indices 1 2 3 4 5 6 
#
# 1 0.008361 -0.003942 -0.005174 0.000000 0.005935 0.000000
# 2 -0.003942 0.012817 -0.003304 0.000000 -0.004496 0.000000
# 3 -0.005174 -0.003304 0.049440 0.000000 -0.016949 0.000000
# 4 0.000000 0.000000 0.000000 0.049694 0.000000 -0.008033
# 5 0.005935 -0.004496 -0.016949 0.000000 0.051905 0.000000
# 6 0.000000 0.000000 0.000000 -0.008033 0.000000 0.064182
#
#
# Mechanical properties :
#
#
# Convention : Reuss Voigt Hill
#
# Bulk Modulus (GPa) = 21.84569 50.16675 36.00622
# Shear Modulus (GPa) = 18.08326 25.50357 21.79342
#
# Velocity S-wave (km/s) = 3.10642 3.68912 3.41024
# Velocity P-wave (km/s) = 4.95218 6.70200 5.89240
#
# Compressibility (1/GPa) = 0.04577563
#
# Stress axis : x y z
#
# Youngs Moduli (GPa) = 119.60471 78.02292 20.22660
#
# Poissons Ratio (x) = 0.30758 0.10466
# Poissons Ratio (y) = 0.47151 0.06684
# Poissons Ratio (z) = 0.61887 0.25782
#
# Static dielectric constant tensor:
#      x y z
#    x 1.626290 0.000000 0.000450 
#    y 0.000000 1.680420 0.000000 
#    z 0.000450 0.000000 1.674070 
# 
# From -- ./inp_files/4314.got.cif
#   From: 2010.05.17/outbox.cif.g08.bks.cpg/sg11_3_cif.got.tgz:4314.got - 2010.06.03 12:22:45.
