data_PCOD9161204
_publ_section_title
;
Structure prediction by ZEFSAII (Michael W. Deem and Ramdas Pophale) SiO2 
 PCOD9161204
Probable space group: P 21/M
;
_chemical_formula_sum "Si O2"
_cell_formula_units_Z 32
_cell_length_a 28.893477
_cell_length_b 8.717260
_cell_length_c 14.625995
_cell_angle_alpha 90.000000
_cell_angle_beta 28.625110
_cell_angle_gamma 90.000000
_cell_volume 1764.859662
_symmetry_space_group_name_H-M "P 21/M"
_symmetry_group_IT_number 11
_symmetry_cell_setting 'monoclinic'
loop_
_space_group_symop_operation_xyz
x,y,z
-x,1/2+y,-z
-x,-y,-z
x,1/2-y,z
loop_
_atom_site_type_symbol
_atom_site_label
_atom_site_fract_x
_atom_site_fract_y
_atom_site_fract_z
Si Si1 0.734719 0.933700 0.635676
Si Si2 0.234396 0.565153 0.092240
Si Si3 0.869427 0.432984 0.544346
Si Si4 0.607394 0.932677 0.309951
Si Si5 0.531030 0.565484 0.044258
Si Si6 0.327392 0.564658 0.452265
Si Si7 0.080123 0.933394 0.202573
Si Si8 0.253613 0.935172 0.775816
O O1 0.738015 0.750000 0.627071
O O2 0.829304 0.997942 0.520012
O O3 0.714493 0.995031 0.568657
O O4 0.642208 0.983527 0.859016
O O5 0.246241 0.750000 0.069713
O O6 0.199907 0.515792 0.251991
O O7 0.146457 0.527808 0.175114
O O8 0.331035 0.490480 0.884380
O O9 0.865420 0.250000 0.547179
O O10 0.977987 0.484705 0.377153
O O11 0.603207 0.750000 0.316400
O O12 0.500000 0.000000 0.500000
O O13 0.668223 0.991079 0.291964
O O14 0.531693 0.750000 0.040474
O O15 0.441404 0.520470 0.263818
O O16 0.500000 0.500000 0.000000
O O17 0.322877 0.750000 0.452127
O O18 0.271754 0.518333 0.640155
O O19 0.064489 0.750000 0.230708
O O20 0.147898 0.972566 0.998413
O O21 0.264627 0.750000 0.763238
#
# Coordination Sequence:
#
# PCOD9161204 Si02
#       8
#     4   4   4   4   4   4   4   4
#     4  10  20  33  49  75 110 141 175 218 262 312
#     4   9  20  38  57  79 107 138 175 219 266 318
#     4  11  22  35  54  79 106 137 175 221 271 320
#     4  11  22  36  56  82 114 147 179 217 260 310
#     4   8  15  28  47  70  96 128 164 202 246 298
#     4   9  17  33  56  78 103 138 177 215 260 313
#     4   9  18  35  56  77 104 135 170 218 273 324
#     4   9  19  36  57  80 107 140 179 222 267 317
#
# _framework density 18.131754000000001
#
# number of rings (size 3 to 8) (size 9 to 14) (size 15 to 20)
#    0.000    2.500    0.000    3.000    0.000    5.000 
#    0.000    1.875    0.000    0.000    0.000    0.000 
#    0.000    0.000    0.000    0.000    0.000    0.000 
#
# Total GULP energy -178409.647224 kJ/mol
# GULP energy per Si atom -5575.301476 kJ/mol
# Density = 1.809049 g / cm^3
# Si number density = 18.131754 Si / 1000 Ang^3
#
#
#
# Elastic Constant Matrix: (Units=GPa)
#
#
# Indices 1 2 3 4 5 6 
#
# 1 66.6386 26.9262 60.2676 0.0000 8.8987 0.0000
# 2 26.9262 34.7730 40.2727 0.0000 0.8932 0.0000
# 3 60.2676 40.2727 115.4873 0.0000 4.0333 0.0000
# 4 0.0000 0.0000 0.0000 27.5710 0.0000 -2.4116
# 5 8.8987 0.8932 4.0333 0.0000 30.1761 0.0000
# 6 0.0000 0.0000 0.0000 -2.4116 0.0000 20.5962
#
#
#
# Elastic Compliance Matrix: (Units=1/GPa)
#
#
# Indices 1 2 3 4 5 6 
#
# 1 0.031349 -0.009117 -0.012928 0.000000 -0.007247 0.000000
# 2 -0.009117 0.050913 -0.013099 0.000000 0.002932 0.000000
# 3 -0.012928 -0.013099 0.019919 0.000000 0.001538 0.000000
# 4 0.000000 0.000000 0.000000 0.036645 0.000000 0.004291
# 5 -0.007247 0.002932 0.001538 0.000000 0.034984 0.000000
# 6 0.000000 0.000000 0.000000 0.004291 0.000000 0.049055
#
#
# Mechanical properties :
#
#
# Convention : Reuss Voigt Hill
#
# Bulk Modulus (GPa) = 31.35295 52.42578 41.88937
# Shear Modulus (GPa) = 16.45903 21.63082 19.04493
#
# Velocity S-wave (km/s) = 3.01615 3.45770 3.24445
# Velocity P-wave (km/s) = 5.42760 6.70205 6.09821
#
# Compressibility (1/GPa) = 0.03189492
#
# Stress axis : x y z
#
# Youngs Moduli (GPa) = 31.89850 19.64131 50.20215
#
# Poissons Ratio (x) = 0.17907 0.64899
# Poissons Ratio (y) = 0.29082 0.65760
# Poissons Ratio (z) = 0.41237 0.25728
#
# Static dielectric constant tensor:
#      x y z
#    x 1.598940 0.000000 0.008680 
#    y 0.000000 1.606260 0.000000 
#    z 0.008680 0.000000 1.642460 
# 
# From -- ./inp_files/56144.got.cif
#   From: 2010.05.17/outbox.cif.g08.bks.cpg/sg11_29_cif.got.tgz:56144.got - 2010.06.03 12:22:45.
