data_PCOD9161486
_publ_section_title
;
Structure prediction by ZEFSAII (Michael W. Deem and Ramdas Pophale) SiO2 
 PCOD9161486
Probable space group: P 21/M
;
_chemical_formula_sum "Si O2"
_cell_formula_units_Z 32
_cell_length_a 14.104103
_cell_length_b 17.334895
_cell_length_c 10.405846
_cell_angle_alpha 90.000000
_cell_angle_beta 149.772840
_cell_angle_gamma 90.000000
_cell_volume 1280.804408
_symmetry_space_group_name_H-M "P 21/M"
_symmetry_group_IT_number 11
_symmetry_cell_setting 'monoclinic'
loop_
_space_group_symop_operation_xyz
x,y,z
-x,1/2+y,-z
-x,-y,-z
x,1/2-y,z
loop_
_atom_site_type_symbol
_atom_site_label
_atom_site_fract_x
_atom_site_fract_y
_atom_site_fract_z
Si Si1 0.351083 0.836469 0.797799
Si Si2 0.407623 0.839055 0.162318
Si Si3 0.377021 0.999822 0.227357
Si Si4 0.843868 0.612828 0.628162
Si Si5 0.803402 0.836738 0.305809
Si Si6 0.713657 0.452564 0.488674
Si Si7 0.132624 0.831205 0.168244
Si Si8 0.833351 0.837853 0.047893
O O1 0.287672 0.750000 0.684553
O O2 0.262306 0.904980 0.612405
O O3 0.331673 0.843443 0.927463
O O4 0.575743 0.840710 0.030787
O O5 0.378389 0.750000 0.171196
O O6 0.316627 0.910268 0.134557
O O7 0.635811 0.853280 0.420352
O O8 0.500000 0.000000 0.500000
O O9 0.506429 0.011486 0.251617
O O10 0.260885 0.079475 0.096676
O O11 0.864398 0.613426 0.498444
O O12 0.852524 0.522969 0.675234
O O13 0.997422 0.657164 0.889590
O O14 0.852292 0.750000 0.404328
O O15 0.882702 0.848048 0.256567
O O16 0.724515 0.396326 0.622420
O O17 0.233289 0.750000 0.278507
O O18 0.993936 0.831761 0.129352
O O19 0.740540 0.750000 0.935886
#
# Coordination Sequence:
#
# PCOD9161486 Si02
#       8
#     4   4   4   4   4   4   4   4
#     4   9  17  32  56  86 114 147 190 243 301 352
#     4   9  19  35  58  87 120 153 196 247 298 354
#     4  11  23  36  59  91 122 156 195 247 300 354
#     4  10  20  33  57  83 113 150 198 242 291 354
#     4   9  17  32  57  85 110 143 192 245 287 343
#     4  11  22  35  58  86 116 148 192 246 295 352
#     4  11  23  40  59  81 117 164 202 239 294 363
#     4  10  21  37  59  86 118 154 201 251 297 350
#
# _framework density 24.984300000000001
#
# number of rings (size 3 to 8) (size 9 to 14) (size 15 to 20)
#    0.000    2.000    1.250    4.125    1.750    3.500 
#    0.000    0.625    2.750    0.000    0.000    0.875 
#    0.000    0.000    0.000    0.000    0.000    0.000 
#
# Total GULP energy -178755.334418 kJ/mol
# GULP energy per Si atom -5586.104201 kJ/mol
# Density = 2.492743 g / cm^3
# Si number density = 24.984300 Si / 1000 Ang^3
#
#
#
# Elastic Constant Matrix: (Units=GPa)
#
#
# Indices 1 2 3 4 5 6 
#
# 1 103.7757 32.0455 9.1823 0.0000 -9.3197 0.0000
# 2 32.0455 202.3915 46.8275 0.0000 -13.9796 0.0000
# 3 9.1823 46.8275 54.7181 0.0000 -16.2794 0.0000
# 4 0.0000 0.0000 0.0000 40.3236 0.0000 -6.2519
# 5 -9.3197 -13.9796 -16.2794 0.0000 28.8724 0.0000
# 6 0.0000 0.0000 0.0000 -6.2519 0.0000 27.7366
#
#
#
# Elastic Compliance Matrix: (Units=1/GPa)
#
#
# Indices 1 2 3 4 5 6 
#
# 1 0.010328 -0.001538 0.000425 0.000000 0.002828 0.000000
# 2 -0.001538 0.006390 -0.005332 0.000000 -0.000409 0.000000
# 3 0.000425 -0.005332 0.026482 0.000000 0.012487 0.000000
# 4 0.000000 0.000000 0.000000 0.025697 0.000000 0.005792
# 5 0.002828 -0.000409 0.012487 0.000000 0.042391 0.000000
# 6 0.000000 0.000000 0.000000 0.005792 0.000000 0.037359
#
#
# Mechanical properties :
#
#
# Convention : Reuss Voigt Hill
#
# Bulk Modulus (GPa) = 32.99338 59.66621 46.32979
# Shear Modulus (GPa) = 29.13052 37.57516 33.35284
#
# Velocity S-wave (km/s) = 3.41831 3.88229 3.65766
# Velocity P-wave (km/s) = 5.36788 6.63548 6.03505
#
# Compressibility (1/GPa) = 0.03030911
#
# Stress axis : x y z
#
# Youngs Moduli (GPa) = 96.82830 156.49758 37.76081
#
# Poissons Ratio (x) = 0.24071 -0.01604
# Poissons Ratio (y) = 0.14893 0.20134
# Poissons Ratio (z) = -0.04112 0.83445
#
# Static dielectric constant tensor:
#      x y z
#    x 1.984940 0.000000 0.057500 
#    y 0.000000 2.067670 0.000000 
#    z 0.057500 0.000000 1.974910 
# 
# From -- ./inp_files/41712.got.cif
#   From: 2010.05.17/outbox.cif.g08.bks.cpg/sg11_21_cif.got.tgz:41712.got - 2010.06.03 12:22:45.
