data_PCOD9161956
_publ_section_title
;
Structure prediction by ZEFSAII (Michael W. Deem and Ramdas Pophale) SiO2 
 PCOD9161956
Probable space group: P 21/M
;
_chemical_formula_sum "Si O2"
_cell_formula_units_Z 32
_cell_length_a 23.391344
_cell_length_b 7.616046
_cell_length_c 14.318817
_cell_angle_alpha 90.000000
_cell_angle_beta 32.383136
_cell_angle_gamma 90.000000
_cell_volume 1366.201670
_symmetry_space_group_name_H-M "P 21/M"
_symmetry_group_IT_number 11
_symmetry_cell_setting 'monoclinic'
loop_
_space_group_symop_operation_xyz
x,y,z
-x,1/2+y,-z
-x,-y,-z
x,1/2-y,z
loop_
_atom_site_type_symbol
_atom_site_label
_atom_site_fract_x
_atom_site_fract_y
_atom_site_fract_z
Si Si1 0.264195 0.543990 0.249822
Si Si2 0.886457 0.041591 0.704093
Si Si3 0.333866 0.037117 0.701020
Si Si4 0.515530 0.536854 0.130001
Si Si5 0.064630 0.539308 0.817069
Si Si6 0.475077 0.456522 0.678560
Si Si7 0.109924 0.458804 0.082219
Si Si8 0.727690 0.465272 0.557308
O O1 0.237945 0.750000 0.286974
O O2 0.204006 0.468549 0.242128
O O3 0.231505 0.476812 0.396617
O O4 0.391791 0.524876 0.066119
O O5 0.873927 0.250000 0.726316
O O6 0.882532 0.982437 0.817006
O O7 0.000000 0.000000 0.500000
O O8 0.334728 0.250000 0.699175
O O9 0.403780 0.971019 0.693094
O O10 0.400718 0.978640 0.519101
O O11 0.214664 0.973643 0.883485
O O12 0.515596 0.750000 0.127647
O O13 0.549376 0.472319 0.186268
O O14 0.394381 0.476256 0.283822
O O15 0.071014 0.750000 0.802438
O O16 0.186416 0.475835 0.638095
O O17 0.995132 0.473433 0.824742
O O18 0.000000 0.500000 0.000000
O O19 0.452199 0.250000 0.713344
O O20 0.110008 0.250000 0.067667
O O21 0.723533 0.250000 0.561998
#
# Coordination Sequence:
#
# PCOD9161956 Si02
#       8
#     4   4   4   4   4   4   4   4
#     4  10  21  38  59  85 117 152 190 236 289 344
#     4  11  23  38  60  88 117 153 194 237 292 351
#     4   9  18  32  50  73 105 143 182 228 283 335
#     4  10  20  34  56  83 111 150 194 234 285 343
#     4  10  22  40  61  85 116 154 195 242 294 349
#     4   9  18  31  48  74 106 141 183 229 277 331
#     4  10  21  38  59  83 114 150 189 237 292 344
#     4   9  19  37  58  80 113 154 192 233 290 349
#
# _framework density 23.422602999999999
#
# number of rings (size 3 to 8) (size 9 to 14) (size 15 to 20)
#    0.000    2.250    0.000    2.250    1.750    5.500 
#    0.000    3.750    0.000    0.000    0.000    0.000 
#    0.000    0.000    0.000    0.000    0.000    0.000 
#
# Total GULP energy -178733.228498 kJ/mol
# GULP energy per Si atom -5585.413391 kJ/mol
# Density = 2.336929 g / cm^3
# Si number density = 23.422603 Si / 1000 Ang^3
#
#
#
# Elastic Constant Matrix: (Units=GPa)
#
#
# Indices 1 2 3 4 5 6 
#
# 1 52.6470 -4.7446 17.0465 0.0000 -5.1999 0.0000
# 2 -4.7446 41.8288 -20.1027 0.0000 -2.5708 0.0000
# 3 17.0465 -20.1027 125.4848 0.0000 -3.3577 0.0000
# 4 0.0000 0.0000 0.0000 25.5563 0.0000 2.7474
# 5 -5.1999 -2.5708 -3.3577 0.0000 39.5799 0.0000
# 6 0.0000 0.0000 0.0000 2.7474 0.0000 10.5262
#
#
#
# Elastic Compliance Matrix: (Units=1/GPa)
#
#
# Indices 1 2 3 4 5 6 
#
# 1 0.020156 0.001254 -0.002470 0.000000 0.002520 0.000000
# 2 0.001254 0.026144 0.004077 0.000000 0.002209 0.000000
# 3 -0.002470 0.004077 0.008977 0.000000 0.000702 0.000000
# 4 0.000000 0.000000 0.000000 0.040259 0.000000 -0.010508
# 5 0.002520 0.002209 0.000702 0.000000 0.025799 0.000000
# 6 0.000000 0.000000 0.000000 -0.010508 0.000000 0.097744
#
#
# Mechanical properties :
#
#
# Convention : Reuss Voigt Hill
#
# Bulk Modulus (GPa) = 16.39344 22.70655 19.54999
# Shear Modulus (GPa) = 21.39588 30.31657 25.85622
#
# Velocity S-wave (km/s) = 3.02565 3.60158 3.32610
# Velocity P-wave (km/s) = 4.38409 5.19717 4.80785
#
# Compressibility (1/GPa) = 0.06100002
#
# Stress axis : x y z
#
# Youngs Moduli (GPa) = 49.61291 38.24913 111.40174
#
# Poissons Ratio (x) = -0.04797 0.27513
# Poissons Ratio (y) = -0.06223 -0.45419
# Poissons Ratio (z) = 0.12253 -0.15594
#
# Static dielectric constant tensor:
#      x y z
#    x 1.908980 0.000000 -0.024310 
#    y 0.000000 2.015570 0.000000 
#    z -0.024310 0.000000 1.869700 
# 
# From -- ./inp_files/55608.got.cif
#   From: 2010.05.17/outbox.cif.g08.bks.cpg/sg11_28_cif.got.tgz:55608.got - 2010.06.03 12:22:45.
