data_PCOD9161754
_publ_section_title
;
Structure prediction by ZEFSAII (Michael W. Deem and Ramdas Pophale) SiO2 
 PCOD9161754
Probable space group: P 21/M
;
_chemical_formula_sum "Si O2"
_cell_formula_units_Z 32
_cell_length_a 16.497981
_cell_length_b 8.939958
_cell_length_c 24.737953
_cell_angle_alpha 90.000000
_cell_angle_beta 29.128362
_cell_angle_gamma 90.000000
_cell_volume 1776.036641
_symmetry_space_group_name_H-M "P 21/M"
_symmetry_group_IT_number 11
_symmetry_cell_setting 'monoclinic'
loop_
_space_group_symop_operation_xyz
x,y,z
-x,1/2+y,-z
-x,-y,-z
x,1/2-y,z
loop_
_atom_site_type_symbol
_atom_site_label
_atom_site_fract_x
_atom_site_fract_y
_atom_site_fract_z
Si Si1 0.093483 0.429931 0.653930
Si Si2 0.065241 0.428958 0.146596
Si Si3 0.441680 0.924149 0.478859
Si Si4 0.036290 0.069804 0.562895
Si Si5 0.167040 0.916171 0.915294
Si Si6 0.360791 0.931735 0.907149
Si Si7 0.259817 0.069469 0.334146
Si Si8 0.740620 0.081243 0.260929
O O1 0.086520 0.250000 0.662573
O O2 0.281196 0.487929 0.551964
O O3 0.043420 0.473133 0.621795
O O4 0.988848 0.501729 0.764245
O O5 0.082182 0.250000 0.141427
O O6 0.913550 0.455104 0.191545
O O7 0.236369 0.499460 0.024138
O O8 0.402679 0.750000 0.506854
O O9 0.500000 0.000000 0.500000
O O10 0.604321 0.954981 0.349132
O O11 0.022785 0.250000 0.568896
O O12 0.197235 0.029507 0.431650
O O13 0.877990 0.997997 0.625514
O O14 0.121725 0.750000 0.960419
O O15 0.281225 0.979044 0.895943
O O16 0.248885 0.907257 0.809333
O O17 0.000000 0.000000 0.000000
O O18 0.358923 0.750000 0.912955
O O19 0.554500 0.978174 0.791407
O O20 0.255632 0.250000 0.333624
O O21 0.691773 0.250000 0.308996
#
# Coordination Sequence:
#
# PCOD9161754 Si02
#       8
#     4   4   4   4   4   4   4   4
#     4  11  23  39  61  85 115 152 193 237 287 346
#     4  11  22  37  57  81 116 155 196 240 284 333
#     4  12  24  37  55  81 113 152 196 237 282 334
#     4   9  20  39  64  90 115 146 183 231 292 348
#     4  10  20  34  54  78 111 151 191 232 277 331
#     4  10  21  36  58  85 115 153 194 233 284 345
#     4   9  19  38  63  89 117 147 182 231 290 348
#     4  10  21  36  53  76 112 154 192 237 286 332
#
# _framework density 18.017645999999999
#
# number of rings (size 3 to 8) (size 9 to 14) (size 15 to 20)
#    0.000    1.750    2.500    1.875    1.750    2.500 
#    0.000    0.625    0.000    0.000    0.000    0.000 
#    0.000    0.000    0.000    0.000    0.000    0.000 
#
# Total GULP energy -178338.621931 kJ/mol
# GULP energy per Si atom -5573.081935 kJ/mol
# Density = 1.797664 g / cm^3
# Si number density = 18.017646 Si / 1000 Ang^3
#
#
#
# Elastic Constant Matrix: (Units=GPa)
#
#
# Indices 1 2 3 4 5 6 
#
# 1 110.2154 30.0464 62.9204 0.0000 8.1027 0.0000
# 2 30.0464 39.1595 40.5966 0.0000 3.9969 0.0000
# 3 62.9204 40.5966 137.5965 0.0000 -2.7415 0.0000
# 4 0.0000 0.0000 0.0000 27.4626 0.0000 -1.5826
# 5 8.1027 3.9969 -2.7415 0.0000 24.8690 0.0000
# 6 0.0000 0.0000 0.0000 -1.5826 0.0000 23.9991
#
#
#
# Elastic Compliance Matrix: (Units=1/GPa)
#
#
# Indices 1 2 3 4 5 6 
#
# 1 0.013449 -0.004954 -0.004770 0.000000 -0.004112 0.000000
# 2 -0.004954 0.039919 -0.009629 0.000000 -0.005863 0.000000
# 3 -0.004770 -0.009629 0.012379 0.000000 0.004466 0.000000
# 4 0.000000 0.000000 0.000000 0.036552 0.000000 0.002410
# 5 -0.004112 -0.005863 0.004466 0.000000 0.042985 0.000000
# 6 0.000000 0.000000 0.000000 0.002410 0.000000 0.041827
#
#
# Mechanical properties :
#
#
# Convention : Reuss Voigt Hill
#
# Bulk Modulus (GPa) = 36.98269 61.56648 49.27458
# Shear Modulus (GPa) = 21.29185 25.49334 23.39259
#
# Velocity S-wave (km/s) = 3.44135 3.76561 3.60712
# Velocity P-wave (km/s) = 6.03000 7.29045 6.68998
#
# Compressibility (1/GPa) = 0.02703968
#
# Stress axis : x y z
#
# Youngs Moduli (GPa) = 74.35283 25.05096 80.78263
#
# Poissons Ratio (x) = 0.12411 0.38536
# Poissons Ratio (y) = 0.36838 0.77784
# Poissons Ratio (z) = 0.35469 0.24121
#
# Static dielectric constant tensor:
#      x y z
#    x 1.617280 0.000000 0.030420 
#    y 0.000000 1.661400 0.000000 
#    z 0.030420 0.000000 1.629370 
# 
# From -- ./inp_files/69038.got.cif
#   From: 2010.05.17/outbox.cif.g08.bks.cpg/sg11_35_cif.got.tgz:69038.got - 2010.06.03 12:22:45.
