data_PCOD9161749
_publ_section_title
;
Structure prediction by ZEFSAII (Michael W. Deem and Ramdas Pophale) SiO2 
 PCOD9161749
Probable space group: P 21/M
;
_chemical_formula_sum "Si O2"
_cell_formula_units_Z 28
_cell_length_a 7.665053
_cell_length_b 18.029718
_cell_length_c 15.862843
_cell_angle_alpha 90.000000
_cell_angle_beta 44.961074
_cell_angle_gamma 90.000000
_cell_volume 1549.083648
_symmetry_space_group_name_H-M "P 21/M"
_symmetry_group_IT_number 11
_symmetry_cell_setting 'monoclinic'
loop_
_space_group_symop_operation_xyz
x,y,z
-x,1/2+y,-z
-x,-y,-z
x,1/2-y,z
loop_
_atom_site_type_symbol
_atom_site_label
_atom_site_fract_x
_atom_site_fract_y
_atom_site_fract_z
Si Si1 0.853738 0.563208 0.370223
Si Si2 0.413517 0.523095 0.216466
Si Si3 0.418996 0.166884 0.925350
Si Si4 0.540957 0.043745 0.355990
Si Si5 0.163351 0.933711 0.984457
Si Si6 0.880668 0.336803 0.159760
Si Si7 0.049831 0.666924 0.173051
O O1 0.699036 0.567685 0.509012
O O2 0.695080 0.513065 0.360667
O O3 0.124261 0.528731 0.295144
O O4 0.901370 0.640785 0.306253
O O5 0.530005 0.604646 0.161853
O O6 0.465287 0.492825 0.292524
O O7 0.565952 0.470022 0.100364
O O8 0.382833 0.250000 0.902416
O O9 0.662273 0.168101 0.899175
O O10 0.175087 0.149382 0.062710
O O11 0.719256 0.112941 0.276117
O O12 0.183810 0.866403 0.911533
O O13 0.038259 0.898616 0.108748
O O14 0.000000 0.000000 0.000000
O O15 0.833773 0.250000 0.186054
O O16 0.980660 0.750000 0.168640
#
# Coordination Sequence:
#
# PCOD9161749 Si02
#       7
#     4   4   4   4   4   4   4
#     4  10  22  37  57  80 107 145 189 226 266 319
#     4  10  20  35  59  79 110 144 178 229 277 318
#     4   9  19  33  52  83 111 140 178 222 283 336
#     4  10  22  38  55  80 108 143 192 226 262 325
#     4  11  20  33  53  86 110 139 180 224 279 337
#     4  10  20  34  54  78 109 144 174 222 280 328
#     4  10  21  35  54  81 111 142 179 227 277 332
#
# _framework density 18.075202999999998
#
# number of rings (size 3 to 8) (size 9 to 14) (size 15 to 20)
#    0.000    2.000    1.429    2.571    2.000    1.714 
#    0.000    0.000    0.000    0.857    0.000    0.000 
#    0.000    0.000    0.000    0.000    0.000    0.000 
#
# Total GULP energy -156140.255854 kJ/mol
# GULP energy per Si atom -5576.437709 kJ/mol
# Density = 1.803406 g / cm^3
# Si number density = 18.075203 Si / 1000 Ang^3
#
#
#
# Elastic Constant Matrix: (Units=GPa)
#
#
# Indices 1 2 3 4 5 6 
#
# 1 45.5911 25.5245 20.4783 0.0000 -6.6834 0.0000
# 2 25.5245 91.3146 43.3905 0.0000 1.6381 0.0000
# 3 20.4783 43.3905 90.4412 0.0000 -10.2175 0.0000
# 4 0.0000 0.0000 0.0000 17.9428 0.0000 -2.9582
# 5 -6.6834 1.6381 -10.2175 0.0000 31.7193 0.0000
# 6 0.0000 0.0000 0.0000 -2.9582 0.0000 19.4122
#
#
#
# Elastic Compliance Matrix: (Units=1/GPa)
#
#
# Indices 1 2 3 4 5 6 
#
# 1 0.027529 -0.006627 -0.002449 0.000000 0.005354 0.000000
# 2 -0.006627 0.016068 -0.006704 0.000000 -0.004386 0.000000
# 3 -0.002449 -0.006704 0.015368 0.000000 0.004780 0.000000
# 4 0.000000 0.000000 0.000000 0.057169 0.000000 0.008712
# 5 0.005354 -0.004386 0.004780 0.000000 0.034421 0.000000
# 6 0.000000 0.000000 0.000000 0.008712 0.000000 0.052842
#
#
# Mechanical properties :
#
#
# Convention : Reuss Voigt Hill
#
# Bulk Modulus (GPa) = 36.48989 45.12595 40.80792
# Shear Modulus (GPa) = 20.48414 23.01175 21.74795
#
# Velocity S-wave (km/s) = 3.37006 3.57194 3.47247
# Velocity P-wave (km/s) = 5.94767 6.48317 6.22119
#
# Compressibility (1/GPa) = 0.02740485
#
# Stress axis : x y z
#
# Youngs Moduli (GPa) = 36.32480 62.23663 65.07203
#
# Poissons Ratio (x) = 0.41247 0.15936
# Poissons Ratio (y) = 0.24074 0.43621
# Poissons Ratio (z) = 0.08896 0.41720
#
# Static dielectric constant tensor:
#      x y z
#    x 1.643680 0.000000 -0.007200 
#    y 0.000000 1.630090 0.000000 
#    z -0.007200 0.000000 1.625360 
# 
# From -- ./inp_files/22770.got.cif
#   From: 2010.05.17/outbox.cif.g08.bks.cpg/sg11_12_cif.got.tgz:22770.got - 2010.06.03 12:22:45.
