data_PCOD9161778
_publ_section_title
;
Structure prediction by ZEFSAII (Michael W. Deem and Ramdas Pophale) SiO2 
 PCOD9161778
Probable space group: P 21/M
;
_chemical_formula_sum "Si O2"
_cell_formula_units_Z 32
_cell_length_a 16.395646
_cell_length_b 8.953106
_cell_length_c 26.451436
_cell_angle_alpha 90.000000
_cell_angle_beta 151.745263
_cell_angle_gamma 90.000000
_cell_volume 1838.115855
_symmetry_space_group_name_H-M "P 21/M"
_symmetry_group_IT_number 11
_symmetry_cell_setting 'monoclinic'
loop_
_space_group_symop_operation_xyz
x,y,z
-x,1/2+y,-z
-x,-y,-z
x,1/2-y,z
loop_
_atom_site_type_symbol
_atom_site_label
_atom_site_fract_x
_atom_site_fract_y
_atom_site_fract_z
Si Si1 0.917747 0.429608 0.809369
Si Si2 0.464248 0.427343 0.220273
Si Si3 0.210847 0.427777 0.472220
Si Si4 0.038332 0.927157 0.281440
Si Si5 0.136216 0.927468 0.536629
Si Si6 0.713547 0.428373 0.973336
Si Si7 0.360214 0.071642 0.960485
Si Si8 0.603695 0.428752 0.711745
O O1 0.948829 0.250000 0.828682
O O2 0.889284 0.466042 0.734707
O O3 0.755290 0.465880 0.755569
O O4 0.089827 0.512890 0.920943
O O5 0.437638 0.250000 0.200571
O O6 0.668977 0.455989 0.337572
O O7 0.386368 0.511889 0.130006
O O8 0.380951 0.486505 0.226798
O O9 0.192606 0.250000 0.466353
O O10 0.126658 0.485372 0.374896
O O11 0.126167 0.503839 0.475083
O O12 0.414961 0.464100 0.586161
O O13 0.063348 0.750000 0.303016
O O14 0.833196 0.955394 0.166035
O O15 0.110751 0.750000 0.520287
O O16 0.000000 0.000000 0.500000
O O17 0.709268 0.250000 0.973477
O O18 0.633784 0.498436 0.980821
O O19 0.383605 0.250000 0.977251
O O20 0.500000 0.000000 0.000000
O O21 0.608905 0.250000 0.723815
#
# Coordination Sequence:
#
# PCOD9161778 Si02
#       8
#     4   4   4   4   4   4   4   4
#     4   9  19  37  57  77 107 143 178 220 266 313
#     4  10  21  37  56  79 107 140 177 218 266 318
#     4  10  20  34  54  80 109 140 176 218 262 312
#     4   9  19  35  54  77 107 142 176 214 263 313
#     4  10  21  37  57  79 105 138 176 218 263 313
#     4  11  22  36  56  81 108 140 178 220 266 316
#     4  10  21  38  58  80 108 141 178 221 266 314
#     4   9  19  36  56  79 107 140 178 220 266 313
#
# _framework density 17.409130999999999
#
# number of rings (size 3 to 8) (size 9 to 14) (size 15 to 20)
#    0.000    2.250    0.000    3.375    0.000    7.000 
#    0.000    0.000    0.000    0.000    0.000    0.000 
#    0.000    0.000    0.000    0.000    0.000    0.000 
#
# Total GULP energy -178655.657280 kJ/mol
# GULP energy per Si atom -5582.989290 kJ/mol
# Density = 1.736951 g / cm^3
# Si number density = 17.409131 Si / 1000 Ang^3
#
#
#
# Elastic Constant Matrix: (Units=GPa)
#
#
# Indices 1 2 3 4 5 6 
#
# 1 184.9817 90.5917 93.2609 0.0000 2.1603 0.0000
# 2 90.5917 87.5031 74.0623 0.0000 -10.9518 0.0000
# 3 93.2609 74.0623 93.8420 0.0000 -28.0151 0.0000
# 4 0.0000 0.0000 0.0000 31.7141 0.0000 -4.1093
# 5 2.1603 -10.9518 -28.0151 0.0000 29.4069 0.0000
# 6 0.0000 0.0000 0.0000 -4.1093 0.0000 34.2034
#
#
#
# Elastic Compliance Matrix: (Units=1/GPa)
#
#
# Indices 1 2 3 4 5 6 
#
# 1 0.020213 -0.000943 -0.027797 0.000000 -0.028318 0.000000
# 2 -0.000943 0.043269 -0.039661 0.000000 -0.021600 0.000000
# 3 -0.027797 -0.039661 0.091927 0.000000 0.074848 0.000000
# 4 0.000000 0.000000 0.000000 0.032030 0.000000 0.003848
# 5 -0.028318 -0.021600 0.074848 0.000000 0.099347 0.000000
# 6 0.000000 0.000000 0.000000 0.003848 0.000000 0.029699
#
#
# Mechanical properties :
#
#
# Convention : Reuss Voigt Hill
#
# Bulk Modulus (GPa) = 53.74035 98.01741 75.87888
# Shear Modulus (GPa) = 10.88164 26.29234 18.58699
#
# Velocity S-wave (km/s) = 2.50282 3.89042 3.27105
# Velocity P-wave (km/s) = 6.26803 8.75243 7.61227
#
# Compressibility (1/GPa) = 0.01860799
#
# Stress axis : x y z
#
# Youngs Moduli (GPa) = 49.47376 23.11099 10.87819
#
# Poissons Ratio (x) = 0.02179 0.30238
# Poissons Ratio (y) = 0.04665 0.43143
# Poissons Ratio (z) = 1.37523 0.91659
#
# Static dielectric constant tensor:
#      x y z
#    x 1.566700 0.000000 0.007050 
#    y 0.000000 1.579020 0.000000 
#    z 0.007050 0.000000 1.568270 
# 
# From -- ./inp_files/55591.got.cif
#   From: 2010.05.17/outbox.cif.g08.bks.cpg/sg11_28_cif.got.tgz:55591.got - 2010.06.03 12:22:45.
