data_PCOD9161794
_publ_section_title
;
Structure prediction by ZEFSAII (Michael W. Deem and Ramdas Pophale) SiO2 
 PCOD9161794
Probable space group: P 21/M
;
_chemical_formula_sum "Si O2"
_cell_formula_units_Z 24
_cell_length_a 5.302799
_cell_length_b 21.221805
_cell_length_c 11.816155
_cell_angle_alpha 90.000000
_cell_angle_beta 82.246416
_cell_angle_gamma 90.000000
_cell_volume 1317.573490
_symmetry_space_group_name_H-M "P 21/M"
_symmetry_group_IT_number 11
_symmetry_cell_setting 'monoclinic'
loop_
_space_group_symop_operation_xyz
x,y,z
-x,1/2+y,-z
-x,-y,-z
x,1/2-y,z
loop_
_atom_site_type_symbol
_atom_site_label
_atom_site_fract_x
_atom_site_fract_y
_atom_site_fract_z
Si Si1 0.247523 0.425220 0.739555
Si Si2 0.330422 0.871813 0.959405
Si Si3 0.175003 0.984821 0.096289
Si Si4 0.746150 0.956558 0.507255
Si Si5 0.543358 0.559045 0.756526
Si Si6 0.223958 0.177530 0.927385
O O1 0.239354 0.413906 0.605855
O O2 0.412339 0.489428 0.751455
O O3 0.309414 0.366331 0.815975
O O4 0.970330 0.445710 0.798933
O O5 0.355745 0.890983 0.826017
O O6 0.372586 0.936919 0.028527
O O7 0.556512 0.828141 0.990882
O O8 0.050147 0.846791 0.009319
O O9 0.253466 0.047013 0.156891
O O10 0.000000 0.000000 0.000000
O O11 0.680866 0.924694 0.631184
O O12 0.500000 0.000000 0.500000
O O13 0.000000 0.000000 0.500000
O O14 0.196130 0.250000 0.894494
#
# Coordination Sequence:
#
# PCOD9161794 Si02
#       6
#     4   4   4   4   4   4
#     4  10  20  34  54  80 116 148 181 227 280 341
#     4  11  22  34  57  82 111 144 182 231 288 339
#     4  11  18  29  51  82 118 144 176 217 285 349
#     4  10  21  33  51  80 116 147 173 213 270 338
#     4  11  19  33  53  85 118 140 178 226 291 345
#     4  11  24  39  56  78 109 149 194 239 276 327
#
# _framework density 18.215304
#
# number of rings (size 3 to 8) (size 9 to 14) (size 15 to 20)
#    0.000    1.333    5.000    3.000    0.000    0.000 
#    0.000    0.000    0.000    2.000    0.000    0.000 
#    0.000    0.000    0.000    0.000    0.000    0.000 
#
# Total GULP energy -133668.899213 kJ/mol
# GULP energy per Si atom -5569.537467 kJ/mol
# Density = 1.817385 g / cm^3
# Si number density = 18.215304 Si / 1000 Ang^3
#
#
#
# Elastic Constant Matrix: (Units=GPa)
#
#
# Indices 1 2 3 4 5 6 
#
# 1 78.8624 14.4628 39.0278 0.0000 1.7895 0.0000
# 2 14.4628 74.2799 38.6156 0.0000 -2.9693 0.0000
# 3 39.0278 38.6156 181.5507 0.0000 -17.3120 0.0000
# 4 0.0000 0.0000 0.0000 13.6390 0.0000 0.4672
# 5 1.7895 -2.9693 -17.3120 0.0000 25.2156 0.0000
# 6 0.0000 0.0000 0.0000 0.4672 0.0000 18.4377
#
#
#
# Elastic Compliance Matrix: (Units=1/GPa)
#
#
# Indices 1 2 3 4 5 6 
#
# 1 0.014569 -0.001322 -0.003172 0.000000 -0.003367 0.000000
# 2 -0.001322 0.015261 -0.002976 0.000000 -0.000152 0.000000
# 3 -0.003172 -0.002976 0.007288 0.000000 0.004878 0.000000
# 4 0.000000 0.000000 0.000000 0.073383 0.000000 -0.001859
# 5 -0.003367 -0.000152 0.004878 0.000000 0.043228 0.000000
# 6 0.000000 0.000000 0.000000 -0.001859 0.000000 0.054284
#
#
# Mechanical properties :
#
#
# Convention : Reuss Voigt Hill
#
# Bulk Modulus (GPa) = 45.09074 57.65613 51.37344
# Shear Modulus (GPa) = 21.70645 27.63092 24.66869
#
# Velocity S-wave (km/s) = 3.45579 3.89897 3.68405
# Velocity P-wave (km/s) = 6.38211 7.21045 6.80889
#
# Compressibility (1/GPa) = 0.02217750
#
# Stress axis : x y z
#
# Youngs Moduli (GPa) = 68.63960 65.52540 137.20895
#
# Poissons Ratio (x) = 0.08665 0.43518
# Poissons Ratio (y) = 0.09077 0.40838
# Poissons Ratio (z) = 0.21770 0.19502
#
# Static dielectric constant tensor:
#      x y z
#    x 1.718620 0.000000 0.001480 
#    y 0.000000 1.617740 0.000000 
#    z 0.001480 0.000000 1.673140 
# 
# From -- ./inp_files/29832.got.cif
#   From: 2010.05.17/outbox.cif.g08.bks.cpg/sg11_15_cif.got.tgz:29832.got - 2010.06.03 12:22:45.
