data_PCOD9161924
_publ_section_title
;
Structure prediction by ZEFSAII (Michael W. Deem and Ramdas Pophale) SiO2 
 PCOD9161924
Probable space group: P 21/M
;
_chemical_formula_sum "Si O2"
_cell_formula_units_Z 28
_cell_length_a 22.155389
_cell_length_b 9.133569
_cell_length_c 15.257377
_cell_angle_alpha 90.000000
_cell_angle_beta 152.069541
_cell_angle_gamma 90.000000
_cell_volume 1446.159703
_symmetry_space_group_name_H-M "P 21/M"
_symmetry_group_IT_number 11
_symmetry_cell_setting 'monoclinic'
loop_
_space_group_symop_operation_xyz
x,y,z
-x,1/2+y,-z
-x,-y,-z
x,1/2-y,z
loop_
_atom_site_type_symbol
_atom_site_label
_atom_site_fract_x
_atom_site_fract_y
_atom_site_fract_z
Si Si1 0.640018 0.926501 0.697041
Si Si2 0.914014 0.573898 0.966229
Si Si3 0.907103 0.423560 0.638589
Si Si4 0.312370 0.918870 0.059372
Si Si5 0.685556 0.916863 0.291289
Si Si6 0.020644 0.582150 0.616920
Si Si7 0.391066 0.918422 0.974341
O O1 0.628870 0.750000 0.679260
O O2 0.500000 0.000000 0.500000
O O3 0.677063 0.980717 0.842145
O O4 0.762986 0.967579 0.791266
O O5 0.915306 0.750000 0.954662
O O6 0.993698 0.539962 0.157168
O O7 0.000000 0.500000 0.000000
O O8 0.902208 0.250000 0.624123
O O9 0.764613 0.489587 0.463550
O O10 0.951296 0.498066 0.605926
O O11 0.348217 0.750000 0.128215
O O12 0.168747 0.918057 0.836906
O O13 0.391645 0.969062 0.075678
O O14 0.731356 0.750000 0.350015
O O15 0.688094 0.986247 0.196951
O O16 0.536751 0.916546 0.127769
O O17 0.978976 0.750000 0.554878
O O18 0.000000 0.500000 0.500000
O O19 0.341691 0.750000 0.909966
#
# Coordination Sequence:
#
# PCOD9161924 Si02
#       7
#     4   4   4   4   4   4   4
#     4  11  24  44  67  94 126 163 209 265 325 387
#     4  10  24  44  67  93 124 163 210 267 327 387
#     4  11  22  39  59  83 119 158 201 252 307 367
#     4  10  21  38  60  87 119 157 200 250 307 366
#     4  10  20  34  55  85 119 160 206 249 303 367
#     4  11  22  35  58  91 125 162 201 244 300 365
#     4   9  19  36  56  82 121 162 201 249 304 367
#
# _framework density 19.361622000000001
#
# number of rings (size 3 to 8) (size 9 to 14) (size 15 to 20)
#    0.000    1.714    1.429    2.571    0.000    6.286 
#    0.000    4.286    0.000    0.000    0.000    0.000 
#    0.000    0.000    0.000    0.000    0.000    0.000 
#
# Total GULP energy -156184.129339 kJ/mol
# GULP energy per Si atom -5578.004619 kJ/mol
# Density = 1.931755 g / cm^3
# Si number density = 19.361622 Si / 1000 Ang^3
#
#
#
# Elastic Constant Matrix: (Units=GPa)
#
#
# Indices 1 2 3 4 5 6 
#
# 1 122.9352 47.0224 48.6907 0.0000 2.5805 0.0000
# 2 47.0224 82.3371 58.4555 0.0000 -1.9255 0.0000
# 3 48.6907 58.4555 107.7337 0.0000 2.0845 0.0000
# 4 0.0000 0.0000 0.0000 34.2913 0.0000 -1.5635
# 5 2.5805 -1.9255 2.0845 0.0000 20.4010 0.0000
# 6 0.0000 0.0000 0.0000 -1.5635 0.0000 32.6231
#
#
#
# Elastic Compliance Matrix: (Units=1/GPa)
#
#
# Indices 1 2 3 4 5 6 
#
# 1 0.010854 -0.004511 -0.002428 0.000000 -0.001551 0.000000
# 2 -0.004511 0.021811 -0.009866 0.000000 0.003637 0.000000
# 3 -0.002428 -0.009866 0.015776 0.000000 -0.002236 0.000000
# 4 0.000000 0.000000 0.000000 0.029226 0.000000 0.001401
# 5 -0.001551 0.003637 -0.002236 0.000000 0.049785 0.000000
# 6 0.000000 0.000000 0.000000 0.001401 0.000000 0.030720
#
#
# Mechanical properties :
#
#
# Convention : Reuss Voigt Hill
#
# Bulk Modulus (GPa) = 67.42708 69.03813 68.23260
# Shear Modulus (GPa) = 25.41610 28.05225 26.73418
#
# Velocity S-wave (km/s) = 3.62706 3.81052 3.71992
# Velocity P-wave (km/s) = 7.24165 7.42258 7.33267
#
# Compressibility (1/GPa) = 0.01483084
#
# Stress axis : x y z
#
# Youngs Moduli (GPa) = 92.13151 45.84825 63.38838
#
# Poissons Ratio (x) = 0.20684 0.15388
# Poissons Ratio (y) = 0.41565 0.62539
# Poissons Ratio (z) = 0.22366 0.45234
#
# Static dielectric constant tensor:
#      x y z
#    x 1.732930 0.000000 0.091630 
#    y 0.000000 1.657050 0.000000 
#    z 0.091630 0.000000 1.736350 
# 
# From -- ./inp_files/54603.got.cif
#   From: 2010.05.17/outbox.cif.g08.bks.cpg/sg11_28_cif.got.tgz:54603.got - 2010.06.03 12:22:45.
