data_PCOD9161551
_publ_section_title
;
Structure prediction by ZEFSAII (Michael W. Deem and Ramdas Pophale) SiO2 
 PCOD9161551
Probable space group: P 21/M
;
_chemical_formula_sum "Si O2"
_cell_formula_units_Z 28
_cell_length_a 13.845912
_cell_length_b 11.560559
_cell_length_c 7.196713
_cell_angle_alpha 90.000000
_cell_angle_beta 100.150072
_cell_angle_gamma 90.000000
_cell_volume 1133.923957
_symmetry_space_group_name_H-M "P 21/M"
_symmetry_group_IT_number 11
_symmetry_cell_setting 'monoclinic'
loop_
_space_group_symop_operation_xyz
x,y,z
-x,1/2+y,-z
-x,-y,-z
x,1/2-y,z
loop_
_atom_site_type_symbol
_atom_site_label
_atom_site_fract_x
_atom_site_fract_y
_atom_site_fract_z
Si Si1 0.878912 0.128725 0.033618
Si Si2 0.882632 0.870809 0.553437
Si Si3 0.668577 0.623020 0.295582
Si Si4 0.992456 0.937603 0.242268
Si Si5 0.583366 0.877640 0.664503
Si Si6 0.683676 0.378570 0.722805
Si Si7 0.357880 0.624194 0.713539
O O1 0.877634 0.250000 0.139681
O O2 0.782285 0.121828 0.876315
O O3 0.899507 0.019403 0.167751
O O4 0.971888 0.128369 0.925571
O O5 0.888086 0.750000 0.662046
O O6 0.775051 0.877253 0.429766
O O7 0.915994 0.978836 0.682894
O O8 0.961102 0.870073 0.412683
O O9 0.657182 0.750000 0.198363
O O10 0.592239 0.618925 0.442532
O O11 0.659674 0.498778 0.191977
O O12 0.627525 0.750000 0.730112
O O13 0.472146 0.875016 0.695590
O O14 0.630002 0.999369 0.743432
O O15 0.635802 0.250000 0.739859
O O16 0.699136 0.380015 0.503686
O O17 0.337034 0.750000 0.795980
#
# Coordination Sequence:
#
# PCOD9161551 Si02
#       7
#     4   4   4   4   4   4   4
#     4  10  20  34  51  73 101 133 172 214 256 304
#     4  10  20  34  51  73 101 133 172 214 256 304
#     4   9  16  26  42  65  94 125 157 197 245 295
#     4  10  20  34  52  72  98 134 172 212 258 304
#     4   9  16  26  42  68 100 130 162 202 248 298
#     4   9  16  26  42  65  94 125 157 197 245 295
#     4   9  16  26  42  68 100 130 162 202 248 298
#
# _framework density 24.693012
#
# number of rings (size 3 to 8) (size 9 to 14) (size 15 to 20)
#    0.000    2.571    0.000    4.286    0.000    1.714 
#    0.000    7.143    0.000    0.000    0.000    4.000 
#    0.000    4.571    0.000    0.000    0.000    0.000 
#
# Total GULP energy -156204.342638 kJ/mol
# GULP energy per Si atom -5578.726523 kJ/mol
# Density = 2.463681 g / cm^3
# Si number density = 24.693012 Si / 1000 Ang^3
#
#
#
# Elastic Constant Matrix: (Units=GPa)
#
#
# Indices 1 2 3 4 5 6 
#
# 1 58.9602 32.2550 -3.5861 0.0000 -1.3590 0.0000
# 2 32.2550 279.9067 21.5897 0.0000 12.7782 0.0000
# 3 -3.5861 21.5897 43.8352 0.0000 -5.8684 0.0000
# 4 0.0000 0.0000 0.0000 92.6212 0.0000 31.0901
# 5 -1.3590 12.7782 -5.8684 0.0000 18.1051 0.0000
# 6 0.0000 0.0000 0.0000 31.0901 0.0000 -18.9828
#
#
#
# Elastic Compliance Matrix: (Units=1/GPa)
#
#
# Indices 1 2 3 4 5 6 
#
# 1 0.018699 -0.002616 0.003401 0.000000 0.004352 0.000000
# 2 -0.002616 0.004286 -0.002881 0.000000 -0.004155 0.000000
# 3 0.003401 -0.002881 0.025942 0.000000 0.010697 0.000000
# 4 0.000000 0.000000 0.000000 0.006967 0.000000 0.011410
# 5 0.004352 -0.004155 0.010697 0.000000 0.061960 0.000000
# 6 0.000000 0.000000 0.000000 0.011410 0.000000 -0.033992
#
#
# Mechanical properties :
#
#
# Convention : Reuss Voigt Hill
#
# Bulk Modulus (GPa) = 22.35431 53.69104 38.02267
# Shear Modulus (GPa) = 48.56018 40.51160 44.53589
#
# Velocity S-wave (km/s) = 4.43940 4.05484 4.25147
# Velocity P-wave (km/s) = 5.94560 6.61157 6.28741
#
# Compressibility (1/GPa) = 0.04473411
#
# Stress axis : x y z
#
# Youngs Moduli (GPa) = 53.47972 233.32016 38.54745
#
# Poissons Ratio (x) = 0.61029 -0.13108
# Poissons Ratio (y) = 0.13989 0.11106
# Poissons Ratio (z) = -0.18186 0.67224
#
# Static dielectric constant tensor:
#      x y z
#    x 1.928620 0.000000 0.017660 
#    y 0.000000 2.062650 0.000000 
#    z 0.017660 0.000000 1.885380 
# 
# From -- ./inp_files/21278.got.cif
#   From: 2010.05.17/outbox.cif.g08.bks.cpg/sg11_11_cif.got.tgz:21278.got - 2010.06.03 12:22:45.
