data_PCOD9161020
_publ_section_title
;
Structure prediction by ZEFSAII (Michael W. Deem and Ramdas Pophale) SiO2 
 PCOD9161020
Probable space group: P 21/M
;
_chemical_formula_sum "Si O2"
_cell_formula_units_Z 32
_cell_length_a 29.031304
_cell_length_b 7.470172
_cell_length_c 9.535176
_cell_angle_alpha 90.000000
_cell_angle_beta 131.063041
_cell_angle_gamma 90.000000
_cell_volume 1559.157103
_symmetry_space_group_name_H-M "P 21/M"
_symmetry_group_IT_number 11
_symmetry_cell_setting 'monoclinic'
loop_
_space_group_symop_operation_xyz
x,y,z
-x,1/2+y,-z
-x,-y,-z
x,1/2-y,z
loop_
_atom_site_type_symbol
_atom_site_label
_atom_site_fract_x
_atom_site_fract_y
_atom_site_fract_z
Si Si1 0.940641 0.964795 0.972340
Si Si2 0.675414 0.530512 0.763435
Si Si3 0.324586 0.030512 0.561781
Si Si4 0.940641 0.535204 0.290223
Si Si5 0.809202 0.957975 0.697518
Si Si6 0.809202 0.542025 0.039289
Si Si7 0.560027 0.535561 0.711205
Si Si8 0.560027 0.535561 0.028902
O O1 0.933874 0.750000 0.966335
O O2 0.875004 0.034113 0.785024
O O3 0.949545 0.031146 0.149090
O O4 0.000000 0.000000 0.000000
O O5 0.676725 0.750000 0.767034
O O6 0.665481 0.478936 0.580962
O O7 0.620255 0.469668 0.750780
O O8 0.742868 0.467127 0.945275
O O9 0.323275 0.250000 0.560134
O O10 0.257132 0.967127 0.473801
O O11 0.379745 0.969668 0.769760
O O12 0.933874 0.750000 0.269160
O O13 0.875004 0.465887 0.214992
O O14 0.000000 0.500000 0.500000
O O15 0.808030 0.750000 0.650796
O O16 0.810477 0.961226 0.870953
O O17 0.808031 0.750000 0.081326
O O18 0.500000 0.500000 0.500000
O O19 0.566203 0.750000 0.731820
O O20 0.554471 0.466766 0.858942
O O21 0.566203 0.750000 0.032990
O O22 0.500000 0.500000 0.000000
#
# Coordination Sequence:
#
# PCOD9161020 Si02
#       8
#     4   4   4   4   4   4   4   4
#     4   9  17  29  45  66  92 120 150 185 223 264
#     4   8  13  24  44  66  86 111 145 185 226 264
#     4   8  13  24  44  66  86 111 145 185 226 264
#     4   9  17  29  45  66  92 120 150 185 223 264
#     4   7  11  22  41  63  85 111 145 183 221 261
#     4   7  11  22  41  63  85 111 145 183 221 261
#     4  10  20  32  47  69  95 121 149 182 221 265
#     4  10  20  32  47  69  95 121 149 182 221 265
#
# _framework density 20.523910000000001
#
# number of rings (size 3 to 8) (size 9 to 14) (size 15 to 20)
#    0.000    3.500    0.000    3.750    0.000    2.000 
#    0.000    1.250    0.000    6.000    0.000    3.500 
#    0.000    0.000    0.000    0.000    0.000    0.000 
#
# Total GULP energy -178262.107685 kJ/mol
# GULP energy per Si atom -5570.690865 kJ/mol
# Density = 2.047720 g / cm^3
# Si number density = 20.523910 Si / 1000 Ang^3
#
#
#
# Elastic Constant Matrix: (Units=GPa)
#
#
# Indices 1 2 3 4 5 6 
#
# 1 192.3495 5.7384 113.2943 0.0000 41.2885 0.0000
# 2 5.7384 58.8966 5.6376 0.0000 1.1758 0.0000
# 3 113.2943 5.6376 185.2497 0.0000 41.3676 0.0000
# 4 0.0000 0.0000 0.0000 12.9691 0.0000 4.4397
# 5 41.2885 1.1758 41.3676 0.0000 36.8338 0.0000
# 6 0.0000 0.0000 0.0000 4.4397 0.0000 13.3504
#
#
#
# Elastic Compliance Matrix: (Units=1/GPa)
#
#
# Indices 1 2 3 4 5 6 
#
# 1 0.008795 -0.000350 -0.004230 0.000000 -0.005097 0.000000
# 2 -0.000350 0.017043 -0.000361 0.000000 0.000254 0.000000
# 3 -0.004230 -0.000361 0.009256 0.000000 -0.005642 0.000000
# 4 0.000000 0.000000 0.000000 0.087012 0.000000 -0.028936
# 5 -0.005097 0.000254 -0.005642 0.000000 0.039191 0.000000
# 6 0.000000 0.000000 0.000000 -0.028936 0.000000 0.084527
#
#
# Mechanical properties :
#
#
# Convention : Reuss Voigt Hill
#
# Bulk Modulus (GPa) = 39.66594 76.20403 57.93499
# Shear Modulus (GPa) = 18.93156 33.41901 26.17528
#
# Velocity S-wave (km/s) = 3.04042 4.03959 3.57509
# Velocity P-wave (km/s) = 5.62976 7.67905 6.73283
#
# Compressibility (1/GPa) = 0.02521055
#
# Stress axis : x y z
#
# Youngs Moduli (GPa) = 113.70427 58.67671 108.03836
#
# Poissons Ratio (x) = 0.02055 0.45699
# Poissons Ratio (y) = 0.03983 0.03903
# Poissons Ratio (z) = 0.48095 0.02120
#
# Static dielectric constant tensor:
#      x y z
#    x 1.734920 0.000000 0.034580 
#    y 0.000000 1.829980 0.000000 
#    z 0.034580 0.000000 1.731950 
# 
# From -- ./inp_files/27526.got.cif
#   From: 2010.05.17/outbox.cif.g08.bks.cpg/sg11_14_cif.got.tgz:27526.got - 2010.06.03 12:22:45.
