data_PCOD9161643
_publ_section_title
;
Structure prediction by ZEFSAII (Michael W. Deem and Ramdas Pophale) SiO2 
 PCOD9161643
Probable space group: P 21/M
;
_chemical_formula_sum "Si O2"
_cell_formula_units_Z 32
_cell_length_a 21.517838
_cell_length_b 7.634268
_cell_length_c 14.849454
_cell_angle_alpha 90.000000
_cell_angle_beta 35.307731
_cell_angle_gamma 90.000000
_cell_volume 1409.873411
_symmetry_space_group_name_H-M "P 21/M"
_symmetry_group_IT_number 11
_symmetry_cell_setting 'monoclinic'
loop_
_space_group_symop_operation_xyz
x,y,z
-x,1/2+y,-z
-x,-y,-z
x,1/2-y,z
loop_
_atom_site_type_symbol
_atom_site_label
_atom_site_fract_x
_atom_site_fract_y
_atom_site_fract_z
Si Si1 0.948251 0.953176 0.795734
Si Si2 0.710897 0.542862 0.399879
Si Si3 0.673579 0.460944 0.637216
Si Si4 0.902499 0.960189 0.048575
Si Si5 0.799596 0.043976 0.814969
Si Si6 0.146707 0.964899 0.442009
Si Si7 0.435352 0.037020 0.865871
Si Si8 0.480341 0.060238 0.624262
O O1 0.976489 0.750000 0.779004
O O2 0.923234 0.030128 0.923685
O O3 0.048074 0.027028 0.620438
O O4 0.846296 0.960381 0.850152
O O5 0.689658 0.750000 0.410728
O O6 0.740506 0.517169 0.469175
O O7 0.601324 0.437759 0.518721
O O8 0.796152 0.478189 0.226374
O O9 0.670345 0.250000 0.642227
O O10 0.741196 0.517952 0.643645
O O11 0.549759 0.522805 0.772211
O O12 0.890752 0.750000 0.056405
O O13 0.000000 0.000000 0.000000
O O14 0.820507 0.250000 0.797928
O O15 0.856696 0.975400 0.657119
O O16 0.671997 0.016132 0.956325
O O17 0.144212 0.750000 0.442821
O O18 0.439206 0.250000 0.857108
O O19 0.423335 0.968514 0.776307
O O20 0.428130 0.250000 0.677221
O O21 0.500000 0.000000 0.500000
#
# Coordination Sequence:
#
# PCOD9161643 Si02
#       8
#     4   4   4   4   4   4   4   4
#     4  10  21  39  60  81 112 154 191 230 286 349
#     4  10  20  34  52  82 117 145 181 231 278 329
#     4   9  18  37  62  84 110 150 193 232 284 351
#     4  10  22  37  57  84 113 148 188 231 278 335
#     4  11  23  37  56  85 116 148 191 244 287 332
#     4   9  19  37  61  84 109 145 193 243 292 343
#     4   9  20  37  56  81 114 150 187 228 280 345
#     4  10  21  36  56  80 109 148 188 226 273 333
#
# _framework density 22.697073
#
# number of rings (size 3 to 8) (size 9 to 14) (size 15 to 20)
#    0.000    2.250    0.000    3.000    1.750    5.500 
#    0.000    2.500    0.000    0.000    0.000    0.000 
#    0.000    0.000    0.000    0.000    0.000    0.000 
#
# Total GULP energy -178551.235485 kJ/mol
# GULP energy per Si atom -5579.726109 kJ/mol
# Density = 2.264541 g / cm^3
# Si number density = 22.697073 Si / 1000 Ang^3
#
#
#
# Elastic Constant Matrix: (Units=GPa)
#
#
# Indices 1 2 3 4 5 6 
#
# 1 93.8428 -8.3737 36.6004 0.0000 22.0139 0.0000
# 2 -8.3737 46.6295 -11.1824 0.0000 3.0536 0.0000
# 3 36.6004 -11.1824 124.3224 0.0000 13.2434 0.0000
# 4 0.0000 0.0000 0.0000 15.9889 0.0000 -7.7742
# 5 22.0139 3.0536 13.2434 0.0000 33.9091 0.0000
# 6 0.0000 0.0000 0.0000 -7.7742 0.0000 3.1766
#
#
#
# Elastic Compliance Matrix: (Units=1/GPa)
#
#
# Indices 1 2 3 4 5 6 
#
# 1 0.013939 0.002303 -0.003037 0.000000 -0.008071 0.000000
# 2 0.002303 0.022569 0.001803 0.000000 -0.004232 0.000000
# 3 -0.003037 0.001803 0.009294 0.000000 -0.001821 0.000000
# 4 0.000000 0.000000 0.000000 -0.329213 0.000000 -0.805704
# 5 -0.008071 -0.004232 -0.001821 0.000000 0.035822 0.000000
# 6 0.000000 0.000000 0.000000 -0.805704 0.000000 -1.657049
#
#
# Mechanical properties :
#
#
# Convention : Reuss Voigt Hill
#
# Bulk Modulus (GPa) = 20.85922 33.20926 27.03424
# Shear Modulus (GPa) = -2.64439 27.13161 12.24361
#
# Velocity S-wave (km/s) = -1.08056 3.46118 2.32510
# Velocity P-wave (km/s) = 2.76648 5.53500 4.37548
#
# Compressibility (1/GPa) = 0.04794044
#
# Stress axis : x y z
#
# Youngs Moduli (GPa) = 71.73932 44.30911 107.59971
#
# Poissons Ratio (x) = -0.10206 0.32676
# Poissons Ratio (y) = -0.16525 -0.19396
# Poissons Ratio (z) = 0.21786 -0.07987
#
# Static dielectric constant tensor:
#      x y z
#    x 1.894260 0.000000 0.043420 
#    y 0.000000 1.853600 0.000000 
#    z 0.043420 0.000000 1.909490 
# 
# From -- ./inp_files/55542.got.cif
#   From: 2010.05.17/outbox.cif.g08.bks.cpg/sg11_28_cif.got.tgz:55542.got - 2010.06.03 12:22:45.
