data_PCOD9161108
_publ_section_title
;
Structure prediction by ZEFSAII (Michael W. Deem and Ramdas Pophale) SiO2 
 PCOD9161108
Probable space group: P 21/M
;
_chemical_formula_sum "Si O2"
_cell_formula_units_Z 30
_cell_length_a 14.779894
_cell_length_b 7.667109
_cell_length_c 24.144188
_cell_angle_alpha 90.000000
_cell_angle_beta 145.052979
_cell_angle_gamma 90.000000
_cell_volume 1567.230196
_symmetry_space_group_name_H-M "P 21/M"
_symmetry_group_IT_number 11
_symmetry_cell_setting 'monoclinic'
loop_
_space_group_symop_operation_xyz
x,y,z
-x,1/2+y,-z
-x,-y,-z
x,1/2-y,z
loop_
_atom_site_type_symbol
_atom_site_label
_atom_site_fract_x
_atom_site_fract_y
_atom_site_fract_z
Si Si1 0.353768 0.750000 0.591264
Si Si2 0.196994 0.037419 0.726070
Si Si3 0.913296 0.946965 0.899769
Si Si4 0.188417 0.045582 0.958191
Si Si5 0.508832 0.039919 0.816351
Si Si6 0.094845 0.450452 0.491956
Si Si7 0.434675 0.948600 0.282666
Si Si8 0.685702 0.959542 0.095044
O O1 0.482163 0.594646 0.639300
O O2 0.227548 0.594349 0.546880
O O3 0.187869 0.250000 0.720058
O O4 0.342833 0.984870 0.759526
O O5 0.240121 0.980929 0.809889
O O6 0.034475 0.963242 0.621773
O O7 0.859130 0.750000 0.879988
O O8 0.754962 0.052098 0.808563
O O9 0.042876 0.959820 0.916704
O O10 0.000000 0.000000 0.000000
O O11 0.150952 0.250000 0.934745
O O12 0.230596 0.974067 0.918619
O O13 0.345277 0.027441 0.074365
O O14 0.516223 0.250000 0.822372
O O15 0.526694 0.990490 0.761341
O O16 0.151549 0.250000 0.526182
O O17 0.000000 0.500000 0.500000
O O18 0.489306 0.750000 0.318280
O O19 0.699264 0.750000 0.101077
O O20 0.500000 0.000000 0.000000
#
# Coordination Sequence:
#
# PCOD9161108 Si02
#       8
#     2   4   4   4   4   4   4   4
#     4  12  24  42  62  86 120 158 206 260 314 370
#     4  10  20  38  59  83 123 168 206 254 307 365
#     4  12  23  38  57  84 122 165 209 259 312 372
#     4  11  22  34  53  85 122 165 208 254 299 366
#     4  10  20  32  53  81 116 166 206 240 299 364
#     4  12  24  41  62  90 124 165 209 261 315 371
#     4  11  23  39  59  89 123 162 207 258 312 375
#     4  10  21  36  56  85 125 165 208 251 297 365
#
# _framework density 19.142052
#
# number of rings (size 3 to 8) (size 9 to 14) (size 15 to 20)
#    0.000    1.067    4.667    2.800    0.933    2.667 
#    0.000    0.000    0.000    0.000    0.000    0.933 
#    0.000    0.000    0.000    0.000    0.000    0.000 
#
# Total GULP energy -167162.023007 kJ/mol
# GULP energy per Si atom -5572.067434 kJ/mol
# Density = 1.909848 g / cm^3
# Si number density = 19.142052 Si / 1000 Ang^3
#
#
#
# Elastic Constant Matrix: (Units=GPa)
#
#
# Indices 1 2 3 4 5 6 
#
# 1 90.3484 6.6221 25.0347 0.0000 7.9615 0.0000
# 2 6.6221 108.3583 20.4011 0.0000 9.0613 0.0000
# 3 25.0347 20.4011 82.2963 0.0000 16.2907 0.0000
# 4 0.0000 0.0000 0.0000 12.2169 0.0000 18.2270
# 5 7.9615 9.0613 16.2907 0.0000 33.1354 0.0000
# 6 0.0000 0.0000 0.0000 18.2270 0.0000 11.4317
#
#
#
# Elastic Compliance Matrix: (Units=1/GPa)
#
#
# Indices 1 2 3 4 5 6 
#
# 1 0.012131 0.000010 -0.003451 0.000000 -0.001221 0.000000
# 2 0.000010 0.009760 -0.002098 0.000000 -0.001640 0.000000
# 3 -0.003451 -0.002098 0.014893 0.000000 -0.005919 0.000000
# 4 0.000000 0.000000 0.000000 -0.059366 0.000000 0.094655
# 5 -0.001221 -0.001640 -0.005919 0.000000 0.033831 0.000000
# 6 0.000000 0.000000 0.000000 0.094655 0.000000 -0.063444
#
#
# Mechanical properties :
#
#
# Convention : Reuss Voigt Hill
#
# Bulk Modulus (GPa) = 38.90039 42.79098 40.84568
# Shear Modulus (GPa) = -153.62100 26.61982 -63.50059
#
# Velocity S-wave (km/s) = -8.96813 3.73318 -5.76588
# Velocity P-wave (km/s) = 9.32043 6.40197 4.78985
#
# Compressibility (1/GPa) = 0.02570669
#
# Stress axis : x y z
#
# Youngs Moduli (GPa) = 82.43069 102.45734 67.14617
#
# Poissons Ratio (x) = -0.00108 0.23174
# Poissons Ratio (y) = -0.00087 0.14088
# Poissons Ratio (z) = 0.28449 0.21496
#
# Static dielectric constant tensor:
#      x y z
#    x 1.658260 0.000000 0.010940 
#    y 0.000000 1.653470 0.000000 
#    z 0.010940 0.000000 1.688080 
# 
# From -- ./inp_files/71572.got.cif
#   From: 2010.05.17/outbox.cif.g08.bks.cpg/sg11_36_cif.got.tgz:71572.got - 2010.06.03 12:22:45.
