data_PCOD9161612
_publ_section_title
;
Structure prediction by ZEFSAII (Michael W. Deem and Ramdas Pophale) SiO2 
 PCOD9161612
Probable space group: P 21/M
;
_chemical_formula_sum "Si O2"
_cell_formula_units_Z 32
_cell_length_a 21.205056
_cell_length_b 7.524660
_cell_length_c 27.203980
_cell_angle_alpha 90.000000
_cell_angle_beta 159.312466
_cell_angle_gamma 90.000000
_cell_volume 1533.441168
_symmetry_space_group_name_H-M "P 21/M"
_symmetry_group_IT_number 11
_symmetry_cell_setting 'monoclinic'
loop_
_space_group_symop_operation_xyz
x,y,z
-x,1/2+y,-z
-x,-y,-z
x,1/2-y,z
loop_
_atom_site_type_symbol
_atom_site_label
_atom_site_fract_x
_atom_site_fract_y
_atom_site_fract_z
Si Si1 0.293801 0.463275 0.839141
Si Si2 0.641670 0.965366 0.415256
Si Si3 0.201265 0.036995 0.663131
Si Si4 0.471808 0.465292 0.776386
Si Si5 0.017571 0.534616 0.091011
Si Si6 0.707729 0.039192 0.787119
Si Si7 0.960413 0.959897 0.260160
Si Si8 0.885151 0.540410 0.097200
O O1 0.269045 0.250000 0.819648
O O2 0.239119 0.532282 0.745496
O O3 0.170559 0.533962 0.793382
O O4 0.500000 0.500000 0.000000
O O5 0.636506 0.750000 0.411181
O O6 0.597383 0.024739 0.327463
O O7 0.484382 0.030809 0.336625
O O8 0.836687 0.020114 0.574694
O O9 0.223401 0.250000 0.680796
O O10 0.341901 0.970854 0.725109
O O11 0.000000 0.000000 0.500000
O O12 0.469284 0.250000 0.774347
O O13 0.674774 0.521094 0.933585
O O14 0.024482 0.750000 0.097008
O O15 0.189791 0.468810 0.186256
O O16 0.989524 0.467666 0.125790
O O17 0.844773 0.486871 0.932295
O O18 0.687084 0.250000 0.764696
O O19 0.918579 0.750000 0.226190
O O20 0.930701 0.035596 0.183937
O O21 0.928032 0.750000 0.129946
#
# Coordination Sequence:
#
# PCOD9161612 Si02
#       8
#     4   4   4   4   4   4   4   4
#     4  10  21  37  55  76 101 134 174 213 256 306
#     4  10  20  34  52  76 104 136 171 207 255 308
#     4  10  21  35  52  76 103 131 168 213 259 306
#     4  10  20  34  53  77 103 130 167 215 260 304
#     4   9  17  30  51  77 103 132 168 209 253 299
#     4   9  17  31  51  76 105 133 165 209 254 300
#     4  10  22  37  52  73 106 140 171 210 254 304
#     4  10  20  34  52  77 103 133 172 211 252 300
#
# _framework density 20.868098
#
# number of rings (size 3 to 8) (size 9 to 14) (size 15 to 20)
#    0.000    2.250    1.250    1.500    0.000    3.000 
#    0.000    0.625    0.000    0.000    0.000    0.000 
#    0.000    0.000    0.000    0.000    0.000    0.000 
#
# Total GULP energy -178721.911453 kJ/mol
# GULP energy per Si atom -5585.059733 kJ/mol
# Density = 2.082060 g / cm^3
# Si number density = 20.868098 Si / 1000 Ang^3
#
#
#
# Elastic Constant Matrix: (Units=GPa)
#
#
# Indices 1 2 3 4 5 6 
#
# 1 240.4494 2.2543 110.5595 0.0000 10.3531 0.0000
# 2 2.2543 47.6758 -15.3361 0.0000 2.5541 0.0000
# 3 110.5595 -15.3361 122.7080 0.0000 -6.0116 0.0000
# 4 0.0000 0.0000 0.0000 26.9178 0.0000 2.0439
# 5 10.3531 2.5541 -6.0116 0.0000 38.3229 0.0000
# 6 0.0000 0.0000 0.0000 2.0439 0.0000 -1.2687
#
#
#
# Elastic Compliance Matrix: (Units=1/GPa)
#
#
# Indices 1 2 3 4 5 6 
#
# 1 0.007743 -0.002598 -0.007452 0.000000 -0.003088 0.000000
# 2 -0.002598 0.022766 0.005186 0.000000 -0.000002 0.000000
# 3 -0.007452 0.005186 0.015714 0.000000 0.004133 0.000000
# 4 0.000000 0.000000 0.000000 0.033101 0.000000 0.053326
# 5 -0.003088 -0.000002 0.004133 0.000000 0.027577 0.000000
# 6 0.000000 0.000000 0.000000 0.053326 0.000000 -0.702306
#
#
# Mechanical properties :
#
#
# Convention : Reuss Voigt Hill
#
# Bulk Modulus (GPa) = 27.40104 67.30987 47.35545
# Shear Modulus (GPa) = -8.71821 33.68476 12.48328
#
# Velocity S-wave (km/s) = -2.04618 4.02204 2.44846
# Velocity P-wave (km/s) = 2.75257 7.34125 5.54394
#
# Compressibility (1/GPa) = 0.03649497
#
# Stress axis : x y z
#
# Youngs Moduli (GPa) = 129.15465 43.92499 63.63634
#
# Poissons Ratio (x) = 0.11411 0.47422
# Poissons Ratio (y) = 0.33552 -0.33001
# Poissons Ratio (z) = 0.96247 -0.22779
#
# Static dielectric constant tensor:
#      x y z
#    x 1.781050 0.000000 0.006070 
#    y 0.000000 1.773780 0.000000 
#    z 0.006070 0.000000 1.668580 
# 
# From -- ./inp_files/66958.got.cif
#   From: 2010.05.17/outbox.cif.g08.bks.cpg/sg11_34_cif.got.tgz:66958.got - 2010.06.03 12:22:45.
