data_PCOD9161636
_publ_section_title
;
Structure prediction by ZEFSAII (Michael W. Deem and Ramdas Pophale) SiO2 
 PCOD9161636
Probable space group: P 21/M
;
_chemical_formula_sum "Si O2"
_cell_formula_units_Z 28
_cell_length_a 29.978730
_cell_length_b 9.241890
_cell_length_c 5.371350
_cell_angle_alpha 90.000000
_cell_angle_beta 109.566780
_cell_angle_gamma 90.000000
_cell_volume 1402.246771
_symmetry_space_group_name_H-M "P 21/M"
_symmetry_group_IT_number 11
_symmetry_cell_setting 'monoclinic'
loop_
_space_group_symop_operation_xyz
x,y,z
-x,1/2+y,-z
-x,-y,-z
x,1/2-y,z
loop_
_atom_site_type_symbol
_atom_site_label
_atom_site_fract_x
_atom_site_fract_y
_atom_site_fract_z
Si Si1 0.525819 0.406522 0.251054
Si Si2 0.648751 0.424930 0.117377
Si Si3 0.813891 0.072680 0.896515
Si Si4 0.978830 0.073674 0.710449
Si Si5 0.704922 0.424941 0.716939
Si Si6 0.866805 0.424821 0.495505
Si Si7 0.425867 0.409168 0.306202
O O1 0.539048 0.250000 0.176163
O O2 0.481534 0.387660 0.356105
O O3 0.570999 0.479385 0.461246
O O4 0.500000 0.500000 0.000000
O O5 0.641755 0.250000 0.104973
O O6 0.681160 0.461442 0.936198
O O7 0.601029 0.512524 0.967856
O O8 0.674797 0.470001 0.419375
O O9 0.814175 0.250000 0.896678
O O10 0.759247 0.025956 0.801568
O O11 0.840182 0.024265 0.694522
O O12 0.841671 0.024497 0.195472
O O13 0.985865 0.250000 0.723620
O O14 0.922462 0.044381 0.604565
O O15 0.000000 0.000000 0.500000
O O16 0.000000 0.000000 0.000000
O O17 0.705934 0.250000 0.708818
O O18 0.862600 0.250000 0.487342
O O19 0.405812 0.250000 0.320745
#
# Coordination Sequence:
#
# PCOD9161636 Si02
#       7
#     4   4   4   4   4   4   4
#     4  10  21  37  58  81 107 138 177 223 271 319
#     4  10  20  34  52  79 110 142 175 218 273 332
#     4   9  15  27  47  74 107 139 175 231 290 336
#     4  11  22  37  56  84 121 160 203 248 301 360
#     4   9  18  31  50  78 110 139 175 224 284 337
#     4   9  17  28  48  77 108 143 186 236 289 339
#     4  10  22  38  54  78 106 141 183 221 263 323
#
# _framework density 19.967955
#
# number of rings (size 3 to 8) (size 9 to 14) (size 15 to 20)
#    0.000    2.286    0.000    3.000    2.000    7.429 
#    0.000    0.000    0.000    0.000    0.000   20.000 
#    0.000    0.000    0.000    0.000    0.000    0.000 
#
# Total GULP energy -156124.000286 kJ/mol
# GULP energy per Si atom -5575.857153 kJ/mol
# Density = 1.992251 g / cm^3
# Si number density = 19.967955 Si / 1000 Ang^3
#
#
#
# Elastic Constant Matrix: (Units=GPa)
#
#
# Indices 1 2 3 4 5 6 
#
# 1 133.0375 12.8827 67.0046 0.0000 -1.1092 0.0000
# 2 12.8827 75.2145 38.0867 0.0000 6.1557 0.0000
# 3 67.0046 38.0867 175.7592 0.0000 7.8265 0.0000
# 4 0.0000 0.0000 0.0000 17.6219 0.0000 2.4444
# 5 -1.1092 6.1557 7.8265 0.0000 35.9987 0.0000
# 6 0.0000 0.0000 0.0000 2.4444 0.0000 16.7901
#
#
#
# Elastic Compliance Matrix: (Units=1/GPa)
#
#
# Indices 1 2 3 4 5 6 
#
# 1 0.009345 0.000158 -0.003644 0.000000 0.001053 0.000000
# 2 0.000158 0.015062 -0.003241 0.000000 -0.001866 0.000000
# 3 -0.003644 -0.003241 0.007837 0.000000 -0.001262 0.000000
# 4 0.000000 0.000000 0.000000 0.057917 0.000000 -0.008432
# 5 0.001053 -0.001866 -0.001262 0.000000 0.028405 0.000000
# 6 0.000000 0.000000 0.000000 -0.008432 0.000000 0.060787
#
#
# Mechanical properties :
#
#
# Convention : Reuss Voigt Hill
#
# Bulk Modulus (GPa) = 53.21618 68.88434 61.05026
# Shear Modulus (GPa) = 25.11669 31.81796 28.46732
#
# Velocity S-wave (km/s) = 3.55047 3.99614 3.77987
# Velocity P-wave (km/s) = 6.59670 7.47425 7.04914
#
# Compressibility (1/GPa) = 0.01879128
#
# Stress axis : x y z
#
# Youngs Moduli (GPa) = 107.00442 66.39149 127.59422
#
# Poissons Ratio (x) = -0.01051 0.46495
# Poissons Ratio (y) = -0.01694 0.41356
# Poissons Ratio (z) = 0.38992 0.21519
#
# Static dielectric constant tensor:
#      x y z
#    x 1.768880 0.000000 -0.041950 
#    y 0.000000 1.863210 0.000000 
#    z -0.041950 0.000000 1.689150 
# 
# From -- ./inp_files/9715.got.cif
#   From: 2010.05.17/outbox.cif.g08.bks.cpg/sg11_5_cif.got.tgz:9715.got - 2010.06.03 12:22:45.
