data_PCOD9161299
_publ_section_title
;
Structure prediction by ZEFSAII (Michael W. Deem and Ramdas Pophale) SiO2 
 PCOD9161299
Probable space group: P 21/M
;
_chemical_formula_sum "Si O2"
_cell_formula_units_Z 32
_cell_length_a 16.451571
_cell_length_b 8.801429
_cell_length_c 26.550323
_cell_angle_alpha 90.000000
_cell_angle_beta 28.859514
_cell_angle_gamma 90.000000
_cell_volume 1855.559843
_symmetry_space_group_name_H-M "P 21/M"
_symmetry_group_IT_number 11
_symmetry_cell_setting 'monoclinic'
loop_
_space_group_symop_operation_xyz
x,y,z
-x,1/2+y,-z
-x,-y,-z
x,1/2-y,z
loop_
_atom_site_type_symbol
_atom_site_label
_atom_site_fract_x
_atom_site_fract_y
_atom_site_fract_z
Si Si1 0.222888 0.066581 0.420237
Si Si2 0.339470 0.068134 0.152065
Si Si3 0.525451 0.065065 0.327494
Si Si4 0.160569 0.568211 0.346765
Si Si5 0.983199 0.433218 0.169525
Si Si6 0.275127 0.568292 0.079669
Si Si7 0.096052 0.933097 0.900558
Si Si8 0.599260 0.066944 0.399427
O O1 0.230660 0.250000 0.411257
O O2 0.370665 0.014654 0.377262
O O3 0.038352 0.028213 0.542314
O O4 0.237411 0.994940 0.357071
O O5 0.325525 0.250000 0.159637
O O6 0.249514 0.001371 0.249846
O O7 0.262063 0.002856 0.142429
O O8 0.538476 0.027838 0.042245
O O9 0.523232 0.250000 0.328890
O O10 0.707841 0.019306 0.207199
O O11 0.520650 0.017381 0.388470
O O12 0.174755 0.750000 0.337758
O O13 0.997619 0.250000 0.164420
O O14 0.983780 0.476643 0.110113
O O15 0.797096 0.474779 0.290918
O O16 0.130437 0.507641 0.121689
O O17 0.265981 0.750000 0.088565
O O18 0.092725 0.750000 0.904768
O O19 0.000000 0.000000 0.000000
O O20 0.591729 0.250000 0.405263
O O21 0.500000 0.000000 0.500000
#
# Coordination Sequence:
#
# PCOD9161299 Si02
#       8
#     4   4   4   4   4   4   4   4
#     4   9  18  34  54  74  99 134 173 211 252 298
#     4  10  21  37  55  75 103 136 168 208 257 306
#     4   8  16  33  53  70  95 132 168 202 245 298
#     4  10  20  33  51  77 106 134 168 210 253 302
#     4   9  19  35  52  73 105 139 166 202 259 314
#     4  10  21  36  55  78 101 131 173 214 252 301
#     4   9  18  33  52  73  99 131 166 205 249 296
#     4   9  18  33  52  75 102 133 169 209 255 302
#
# _framework density 17.245467999999999
#
# number of rings (size 3 to 8) (size 9 to 14) (size 15 to 20)
#    0.000    2.750    0.000    2.625    0.000    5.000 
#    0.000    8.125    0.000    0.000    0.000    0.000 
#    0.000    0.000    0.000    0.000    0.000    0.000 
#
# Total GULP energy -178466.210468 kJ/mol
# GULP energy per Si atom -5577.069077 kJ/mol
# Density = 1.720622 g / cm^3
# Si number density = 17.245468 Si / 1000 Ang^3
#
#
#
# Elastic Constant Matrix: (Units=GPa)
#
#
# Indices 1 2 3 4 5 6 
#
# 1 192.1972 47.9660 120.3894 0.0000 -3.9992 0.0000
# 2 47.9660 27.5189 42.7712 0.0000 4.6899 0.0000
# 3 120.3894 42.7712 136.4747 0.0000 29.5952 0.0000
# 4 0.0000 0.0000 0.0000 32.5632 0.0000 5.6859
# 5 -3.9992 4.6899 29.5952 0.0000 30.8876 0.0000
# 6 0.0000 0.0000 0.0000 5.6859 0.0000 30.6154
#
#
#
# Elastic Compliance Matrix: (Units=1/GPa)
#
#
# Indices 1 2 3 4 5 6 
#
# 1 0.021113 -0.007318 -0.021667 0.000000 0.024605 0.000000
# 2 -0.007318 0.077979 -0.019199 0.000000 0.005608 0.000000
# 3 -0.021667 -0.019199 0.040940 0.000000 -0.039118 0.000000
# 4 0.000000 0.000000 0.000000 0.031739 0.000000 -0.005895
# 5 0.024605 0.005608 -0.039118 0.000000 0.072190 0.000000
# 6 0.000000 0.000000 0.000000 -0.005895 0.000000 0.033758
#
#
# Mechanical properties :
#
#
# Convention : Reuss Voigt Hill
#
# Bulk Modulus (GPa) = 22.90224 86.49378 54.69801
# Shear Modulus (GPa) = 12.86529 28.48419 20.67474
#
# Velocity S-wave (km/s) = 2.73428 4.06851 3.46620
# Velocity P-wave (km/s) = 4.82466 8.50492 6.91416
#
# Compressibility (1/GPa) = 0.04366386
#
# Stress axis : x y z
#
# Youngs Moduli (GPa) = 47.36380 12.82401 24.42570
#
# Poissons Ratio (x) = 0.09385 0.52923
# Poissons Ratio (y) = 0.34661 0.46895
# Poissons Ratio (z) = 1.02623 0.24621
#
# Static dielectric constant tensor:
#      x y z
#    x 1.565810 0.000000 -0.011590 
#    y 0.000000 1.580320 0.000000 
#    z -0.011590 0.000000 1.566120 
# 
# From -- ./inp_files/69035.got.cif
#   From: 2010.05.17/outbox.cif.g08.bks.cpg/sg11_35_cif.got.tgz:69035.got - 2010.06.03 12:22:45.
