data_PCOD9161882
_publ_section_title
;
Structure prediction by ZEFSAII (Michael W. Deem and Ramdas Pophale) SiO2 
 PCOD9161882
Probable space group: P 21/M
;
_chemical_formula_sum "Si O2"
_cell_formula_units_Z 28
_cell_length_a 14.562498
_cell_length_b 8.849662
_cell_length_c 19.828564
_cell_angle_alpha 90.000000
_cell_angle_beta 145.218942
_cell_angle_gamma 90.000000
_cell_volume 1457.690652
_symmetry_space_group_name_H-M "P 21/M"
_symmetry_group_IT_number 11
_symmetry_cell_setting 'monoclinic'
loop_
_space_group_symop_operation_xyz
x,y,z
-x,1/2+y,-z
-x,-y,-z
x,1/2-y,z
loop_
_atom_site_type_symbol
_atom_site_label
_atom_site_fract_x
_atom_site_fract_y
_atom_site_fract_z
Si Si1 0.970021 0.932202 0.697136
Si Si2 0.615470 0.932635 0.513095
Si Si3 0.420974 0.568606 0.798437
Si Si4 0.065040 0.568025 0.608378
Si Si5 0.497807 0.072699 0.703274
Si Si6 0.227816 0.068852 0.949450
Si Si7 0.865808 0.427419 0.966109
O O1 0.981074 0.750000 0.706368
O O2 0.803013 0.976890 0.632139
O O3 0.969118 0.976414 0.617758
O O4 0.124037 0.000990 0.826642
O O5 0.606062 0.750000 0.510389
O O6 0.559363 0.979914 0.404313
O O7 0.500000 0.000000 0.500000
O O8 0.426031 0.750000 0.801015
O O9 0.252350 0.522158 0.729316
O O10 0.425863 0.512183 0.724263
O O11 0.585364 0.516432 0.933861
O O12 0.057884 0.750000 0.598902
O O13 0.000000 0.500000 0.500000
O O14 0.454766 0.250000 0.683649
O O15 0.690625 0.059154 0.825785
O O16 0.224598 0.250000 0.944763
O O17 0.148445 0.011906 0.971254
O O18 0.898219 0.250000 0.996960
O O19 0.000000 0.500000 0.000000
#
# Coordination Sequence:
#
# PCOD9161882 Si02
#       7
#     4   4   4   4   4   4   4
#     4  10  22  39  57  82 116 151 187 235 288 340
#     4  10  22  38  55  78 108 145 186 229 282 336
#     4   9  19  36  58  85 114 146 184 230 281 332
#     4  10  21  38  61  87 117 149 188 234 284 340
#     4   9  19  36  56  79 108 143 184 228 276 336
#     4  10  21  37  56  81 115 151 191 235 280 335
#     4  10  20  34  55  82 111 145 187 234 284 335
#
# _framework density 19.208465
#
# number of rings (size 3 to 8) (size 9 to 14) (size 15 to 20)
#    0.000    2.286    0.000    1.714    2.000    5.143 
#    0.000    0.000    0.000    0.000    0.000    0.000 
#    0.000    0.000    0.000    0.000    0.000    0.000 
#
# Total GULP energy -156316.339331 kJ/mol
# GULP energy per Si atom -5582.726405 kJ/mol
# Density = 1.916475 g / cm^3
# Si number density = 19.208465 Si / 1000 Ang^3
#
#
#
# Elastic Constant Matrix: (Units=GPa)
#
#
# Indices 1 2 3 4 5 6 
#
# 1 97.7514 21.3866 53.5823 0.0000 19.0389 0.0000
# 2 21.3866 19.1388 26.5382 0.0000 6.2837 0.0000
# 3 53.5823 26.5382 95.2439 0.0000 -10.5740 0.0000
# 4 0.0000 0.0000 0.0000 28.6813 0.0000 -4.2373
# 5 19.0389 6.2837 -10.5740 0.0000 30.4603 0.0000
# 6 0.0000 0.0000 0.0000 -4.2373 0.0000 27.1247
#
#
#
# Elastic Compliance Matrix: (Units=1/GPa)
#
#
# Indices 1 2 3 4 5 6 
#
# 1 0.021711 0.003486 -0.015364 0.000000 -0.019623 0.000000
# 2 0.003486 0.113741 -0.037963 0.000000 -0.038821 0.000000
# 3 -0.015364 -0.037963 0.032925 0.000000 0.028864 0.000000
# 4 0.000000 0.000000 0.000000 0.035690 0.000000 0.005575
# 5 -0.019623 -0.038821 0.028864 0.000000 0.063123 0.000000
# 6 0.000000 0.000000 0.000000 0.005575 0.000000 0.037738
#
#
# Mechanical properties :
#
#
# Convention : Reuss Voigt Hill
#
# Bulk Modulus (GPa) = 14.55718 46.12757 30.34237
# Shear Modulus (GPa) = 11.69567 24.62839 18.16203
#
# Velocity S-wave (km/s) = 2.47023 3.58462 3.07827
# Velocity P-wave (km/s) = 3.96623 6.41864 5.33526
#
# Compressibility (1/GPa) = 0.06869463
#
# Stress axis : x y z
#
# Youngs Moduli (GPa) = 46.05950 8.79189 30.37195
#
# Poissons Ratio (x) = -0.03065 0.46663
# Poissons Ratio (y) = -0.16055 1.15301
# Poissons Ratio (z) = 0.70766 0.33377
#
# Static dielectric constant tensor:
#      x y z
#    x 1.644700 0.000000 0.021150 
#    y 0.000000 1.649350 0.000000 
#    z 0.021150 0.000000 1.685720 
# 
# From -- ./inp_files/54639.got.cif
#   From: 2010.05.17/outbox.cif.g08.bks.cpg/sg11_28_cif.got.tgz:54639.got - 2010.06.03 12:22:45.
