data_PCOD9161151
_publ_section_title
;
Structure prediction by ZEFSAII (Michael W. Deem and Ramdas Pophale) SiO2 
 PCOD9161151
Probable space group: P 21/M
;
_chemical_formula_sum "Si O2"
_cell_formula_units_Z 24
_cell_length_a 19.671567
_cell_length_b 9.187701
_cell_length_c 7.354044
_cell_angle_alpha 90.000000
_cell_angle_beta 123.467736
_cell_angle_gamma 90.000000
_cell_volume 1108.767259
_symmetry_space_group_name_H-M "P 21/M"
_symmetry_group_IT_number 11
_symmetry_cell_setting 'monoclinic'
loop_
_space_group_symop_operation_xyz
x,y,z
-x,1/2+y,-z
-x,-y,-z
x,1/2-y,z
loop_
_atom_site_type_symbol
_atom_site_label
_atom_site_fract_x
_atom_site_fract_y
_atom_site_fract_z
Si Si1 0.756527 0.425982 0.441773
Si Si2 0.416222 0.584610 0.407221
Si Si3 0.917090 0.916720 0.658072
Si Si4 0.418108 0.912863 0.845654
Si Si5 0.255960 0.075106 0.179904
Si Si6 0.076496 0.416846 0.887807
O O1 0.758038 0.250000 0.461643
O O2 0.840860 0.485001 0.486153
O O3 0.670671 0.466992 0.220008
O O4 0.752380 0.503845 0.632363
O O5 0.500000 0.500000 0.500000
O O6 0.418617 0.750000 0.341540
O O7 0.408704 0.593311 0.614168
O O8 0.337324 0.497469 0.220768
O O9 0.904278 0.750000 0.585266
O O10 0.920763 0.920167 0.885811
O O11 0.003801 0.978468 0.722764
O O12 0.430160 0.750000 0.933379
O O13 0.500000 0.000000 0.000000
O O14 0.264913 0.250000 0.206748
O O15 0.168040 0.045361 0.960104
O O16 0.058416 0.250000 0.810503
#
# Coordination Sequence:
#
# PCOD9161151 Si02
#       6
#     4   4   4   4   4   4
#     4   9  16  26  38  55  81 111 143 179 219 264
#     4  10  20  33  48  68  92 120 153 188 227 269
#     4   9  15  21  32  51  74 105 142 175 212 258
#     4   9  19  32  47  67  90 118 152 188 227 269
#     4   9  16  26  40  58  80 110 145 179 219 264
#     4   8  14  22  32  49  75 106 138 172 212 258
#
# _framework density 21.645662999999999
#
# number of rings (size 3 to 8) (size 9 to 14) (size 15 to 20)
#    0.000    3.000    0.000    4.000    0.000    8.667 
#    0.000    0.000    0.000    0.000    0.000    0.000 
#    0.000    1.333    0.000    4.333    0.000   11.667 
#
# Total GULP energy -133824.056226 kJ/mol
# GULP energy per Si atom -5576.002343 kJ/mol
# Density = 2.159640 g / cm^3
# Si number density = 21.645663 Si / 1000 Ang^3
#
#
#
# Elastic Constant Matrix: (Units=GPa)
#
#
# Indices 1 2 3 4 5 6 
#
# 1 78.5945 54.2962 68.6821 0.0000 36.3743 0.0000
# 2 54.2962 133.1362 78.6159 0.0000 57.7048 0.0000
# 3 68.6821 78.6159 99.0214 0.0000 53.7782 0.0000
# 4 0.0000 0.0000 0.0000 30.4417 0.0000 22.9197
# 5 36.3743 57.7048 53.7782 0.0000 77.4312 0.0000
# 6 0.0000 0.0000 0.0000 22.9197 0.0000 19.9546
#
#
#
# Elastic Compliance Matrix: (Units=1/GPa)
#
#
# Indices 1 2 3 4 5 6 
#
# 1 0.032323 -0.000027 -0.022739 0.000000 0.000630 0.000000
# 2 -0.000027 0.015140 -0.009442 0.000000 -0.004713 0.000000
# 3 -0.022739 -0.009442 0.038125 0.000000 -0.008760 0.000000
# 4 0.000000 0.000000 0.000000 0.242930 0.000000 -0.279028
# 5 0.000630 -0.004713 -0.008760 0.000000 0.022215 0.000000
# 6 0.000000 0.000000 0.000000 -0.279028 0.000000 0.370603
#
#
# Mechanical properties :
#
#
# Convention : Reuss Voigt Hill
#
# Bulk Modulus (GPa) = 47.23593 79.32674 63.28133
# Shear Modulus (GPa) = 6.30668 32.84269 19.57468
#
# Velocity S-wave (km/s) = 1.70878 3.89946 3.01046
# Velocity P-wave (km/s) = 5.07572 7.54996 6.43292
#
# Compressibility (1/GPa) = 0.02117033
#
# Stress axis : x y z
#
# Youngs Moduli (GPa) = 30.93813 66.04957 26.22955
#
# Poissons Ratio (x) = 0.00181 0.59645
# Poissons Ratio (y) = 0.00085 0.24765
# Poissons Ratio (z) = 0.70352 0.62363
#
# Static dielectric constant tensor:
#      x y z
#    x 2.209780 0.000000 -0.149130 
#    y 0.000000 1.734200 0.000000 
#    z -0.149130 0.000000 1.872060 
# 
# From -- ./inp_files/23711.got.cif
#   From: 2010.05.17/outbox.cif.g08.bks.cpg/sg11_12_cif.got.tgz:23711.got - 2010.06.03 12:22:45.
