data_PCOD9161143
_publ_section_title
;
Structure prediction by ZEFSAII (Michael W. Deem and Ramdas Pophale) SiO2 
 PCOD9161143
Probable space group: P 21/M
;
_chemical_formula_sum "Si O2"
_cell_formula_units_Z 32
_cell_length_a 19.079442
_cell_length_b 8.713111
_cell_length_c 13.920771
_cell_angle_alpha 90.000000
_cell_angle_beta 68.446684
_cell_angle_gamma 90.000000
_cell_volume 2152.388681
_symmetry_space_group_name_H-M "P 21/M"
_symmetry_group_IT_number 11
_symmetry_cell_setting 'monoclinic'
loop_
_space_group_symop_operation_xyz
x,y,z
-x,1/2+y,-z
-x,-y,-z
x,1/2-y,z
loop_
_atom_site_type_symbol
_atom_site_label
_atom_site_fract_x
_atom_site_fract_y
_atom_site_fract_z
Si Si1 0.382028 0.566646 0.598535
Si Si2 0.919178 0.434220 0.144773
Si Si3 0.916115 0.567376 0.930629
Si Si4 0.461673 0.066402 0.375332
Si Si5 0.382745 0.433587 0.020333
Si Si6 0.461305 0.933697 0.164365
Si Si7 0.760856 0.067569 0.013587
Si Si8 0.235819 0.067006 0.772160
O O1 0.372179 0.750000 0.603226
O O2 0.453278 0.529671 0.631671
O O3 0.406305 0.508245 0.481385
O O4 0.307479 0.486687 0.675514
O O5 0.915054 0.250000 0.133721
O O6 0.842035 0.495035 0.228984
O O7 0.000333 0.469043 0.151536
O O8 0.920000 0.515492 0.040165
O O9 0.905034 0.750000 0.931224
O O10 0.841752 0.483983 0.930106
O O11 0.453350 0.250000 0.381234
O O12 0.449723 0.002331 0.275239
O O13 0.374885 0.250000 0.027156
O O14 0.405135 0.496656 0.113559
O O15 0.454175 0.471050 0.915762
O O16 0.307922 0.508352 0.015492
O O17 0.453982 0.750000 0.169859
O O18 0.758813 0.250000 0.024452
O O19 0.754519 0.994413 0.123421
O O20 0.230005 0.250000 0.777472
#
# Coordination Sequence:
#
# PCOD9161143 Si02
#       8
#     4   4   4   4   4   4   4   4
#     4  10  20  33  48  66  89 116 149 186 221 261
#     4   9  16  26  40  58  82 113 147 180 216 259
#     4   9  16  26  40  58  82 113 147 180 216 259
#     4  10  20  33  49  67  88 116 148 183 224 265
#     4  10  20  33  48  66  89 116 149 186 221 261
#     4  10  20  33  49  67  88 116 148 183 224 265
#     4  11  20  29  43  63  89 119 151 185 221 262
#     4  11  20  29  43  63  89 119 151 185 221 262
#
# _framework density 14.867203999999999
#
# number of rings (size 3 to 8) (size 9 to 14) (size 15 to 20)
#    0.000    2.000    0.000    6.750    0.000    6.500 
#    0.000    0.000    0.000    0.000    0.000    0.000 
#    0.000    1.000    0.000    3.750    0.000    6.250 
#
# Total GULP energy -178469.782633 kJ/mol
# GULP energy per Si atom -5577.180707 kJ/mol
# Density = 1.483337 g / cm^3
# Si number density = 14.867204 Si / 1000 Ang^3
#
#
#
# Elastic Constant Matrix: (Units=GPa)
#
#
# Indices 1 2 3 4 5 6 
#
# 1 117.4276 38.1213 47.7970 0.0000 -11.1446 0.0000
# 2 38.1213 58.0227 25.7207 0.0000 -0.6953 0.0000
# 3 47.7970 25.7207 73.6430 0.0000 -0.9768 0.0000
# 4 0.0000 0.0000 0.0000 21.6804 0.0000 0.7684
# 5 -11.1446 -0.6953 -0.9768 0.0000 21.3023 0.0000
# 6 0.0000 0.0000 0.0000 0.7684 0.0000 20.8579
#
#
#
# Elastic Compliance Matrix: (Units=1/GPa)
#
#
# Indices 1 2 3 4 5 6 
#
# 1 0.013888 -0.006019 -0.006822 0.000000 0.006756 0.000000
# 2 -0.006019 0.023003 -0.004162 0.000000 -0.002589 0.000000
# 3 -0.006822 -0.004162 0.019423 0.000000 -0.002814 0.000000
# 4 0.000000 0.000000 0.000000 0.046185 0.000000 -0.001701
# 5 0.006756 -0.002589 -0.002814 0.000000 0.050265 0.000000
# 6 0.000000 0.000000 0.000000 -0.001701 0.000000 0.048006
#
#
# Mechanical properties :
#
#
# Convention : Reuss Voigt Hill
#
# Bulk Modulus (GPa) = 44.82668 52.48569 48.65618
# Shear Modulus (GPa) = 20.64313 21.93174 21.28744
#
# Velocity S-wave (km/s) = 3.73030 3.84497 3.78807
# Velocity P-wave (km/s) = 6.98358 7.42235 7.20631
#
# Compressibility (1/GPa) = 0.02230814
#
# Stress axis : x y z
#
# Youngs Moduli (GPa) = 72.00482 43.47210 51.48589
#
# Poissons Ratio (x) = 0.26168 0.35123
# Poissons Ratio (y) = 0.43343 0.21427
# Poissons Ratio (z) = 0.49120 0.18092
#
# Static dielectric constant tensor:
#      x y z
#    x 1.513440 0.000000 -0.027720 
#    y 0.000000 1.491020 0.000000 
#    z -0.027720 0.000000 1.467020 
# 
# From -- ./inp_files/52938.got.cif
#   From: 2010.05.17/outbox.cif.g08.bks.cpg/sg11_27_cif.got.tgz:52938.got - 2010.06.03 12:22:45.
