data_PCOD9161092
_publ_section_title
;
Structure prediction by ZEFSAII (Michael W. Deem and Ramdas Pophale) SiO2 
 PCOD9161092
Probable space group: P 21/M
;
_chemical_formula_sum "Si O2"
_cell_formula_units_Z 28
_cell_length_a 14.198094
_cell_length_b 7.649659
_cell_length_c 14.030841
_cell_angle_alpha 90.000000
_cell_angle_beta 119.546176
_cell_angle_gamma 90.000000
_cell_volume 1325.727884
_symmetry_space_group_name_H-M "P 21/M"
_symmetry_group_IT_number 11
_symmetry_cell_setting 'monoclinic'
loop_
_space_group_symop_operation_xyz
x,y,z
-x,1/2+y,-z
-x,-y,-z
x,1/2-y,z
loop_
_atom_site_type_symbol
_atom_site_label
_atom_site_fract_x
_atom_site_fract_y
_atom_site_fract_z
Si Si1 0.333741 0.457660 0.461227
Si Si2 0.125385 0.046380 0.452593
Si Si3 0.117928 0.542534 0.654980
Si Si4 0.133735 0.039241 0.870034
Si Si5 0.456745 0.462182 0.334265
Si Si6 0.727447 0.953777 0.883479
Si Si7 0.928605 0.042258 0.870493
O O1 0.321231 0.250000 0.441733
O O2 0.216354 0.531728 0.429206
O O3 0.392040 0.527646 0.395906
O O4 0.419617 0.484730 0.589318
O O5 0.113048 0.250000 0.421685
O O6 0.004932 0.968749 0.394964
O O7 0.165753 0.035046 0.582257
O O8 0.112894 0.750000 0.637462
O O9 0.171371 0.507629 0.783442
O O10 0.129424 0.250000 0.876381
O O11 0.009482 0.977483 0.827990
O O12 0.211434 0.971148 0.993488
O O13 0.454171 0.250000 0.333155
O O14 0.386868 0.525748 0.209525
O O15 0.710625 0.750000 0.896381
O O16 0.812127 0.963734 0.836942
O O17 0.914172 0.250000 0.854753
O O18 0.000000 0.000000 0.000000
#
# Coordination Sequence:
#
# PCOD9161092 Si02
#       7
#     4   4   4   4   4   4   4
#     4   9  18  33  52  73  98 130 164 200 246 293
#     4   9  19  35  52  71  98 130 161 200 249 294
#     4  10  20  32  51  76  97 126 165 203 243 290
#     4   9  18  31  45  67  99 132 161 195 241 291
#     4   9  18  32  51  75 101 130 164 201 241 290
#     4   9  18  31  48  69  99 134 164 198 244 292
#     4   9  17  28  42  64  94 129 165 197 235 282
#
# _framework density 21.120474000000002
#
# number of rings (size 3 to 8) (size 9 to 14) (size 15 to 20)
#    0.000    2.857    0.000    1.714    2.000    4.571 
#    0.000    0.000    0.000    0.857    0.000    0.000 
#    0.000    0.000    0.000    0.000    0.000    0.000 
#
# Total GULP energy -156096.818046 kJ/mol
# GULP energy per Si atom -5574.886359 kJ/mol
# Density = 2.107240 g / cm^3
# Si number density = 21.120474 Si / 1000 Ang^3
#
#
#
# Elastic Constant Matrix: (Units=GPa)
#
#
# Indices 1 2 3 4 5 6 
#
# 1 40.7013 1.1232 -3.6692 0.0000 2.6951 0.0000
# 2 1.1232 49.2189 0.4138 0.0000 1.7560 0.0000
# 3 -3.6692 0.4138 72.5305 0.0000 1.9139 0.0000
# 4 0.0000 0.0000 0.0000 18.1699 0.0000 -0.5665
# 5 2.6951 1.7560 1.9139 0.0000 27.7535 0.0000
# 6 0.0000 0.0000 0.0000 -0.5665 0.0000 13.9826
#
#
#
# Elastic Compliance Matrix: (Units=1/GPa)
#
#
# Indices 1 2 3 4 5 6 
#
# 1 0.024866 -0.000490 0.001326 0.000000 -0.002475 0.000000
# 2 -0.000490 0.020374 -0.000108 0.000000 -0.001234 0.000000
# 3 0.001326 -0.000108 0.013883 0.000000 -0.001079 0.000000
# 4 0.000000 0.000000 0.000000 0.055106 0.000000 0.002233
# 5 -0.002475 -0.001234 -0.001079 0.000000 0.036424 0.000000
# 6 0.000000 0.000000 0.000000 0.002233 0.000000 0.071608
#
#
# Mechanical properties :
#
#
# Convention : Reuss Voigt Hill
#
# Bulk Modulus (GPa) = 16.50772 17.57627 17.04199
# Shear Modulus (GPa) = 20.74695 22.95340 21.85018
#
# Velocity S-wave (km/s) = 3.13759 3.30022 3.21993
# Velocity P-wave (km/s) = 4.57809 4.78141 4.68085
#
# Compressibility (1/GPa) = 0.06057772
#
# Stress axis : x y z
#
# Youngs Moduli (GPa) = 40.21522 49.08333 72.02805
#
# Poissons Ratio (x) = 0.02407 -0.09551
# Poissons Ratio (y) = 0.01972 0.00781
# Poissons Ratio (z) = -0.05333 0.00532
#
# Static dielectric constant tensor:
#      x y z
#    x 1.769380 0.000000 -0.000850 
#    y 0.000000 1.780530 0.000000 
#    z -0.000850 0.000000 1.823070 
# 
# From -- ./inp_files/51453.got.cif
#   From: 2010.05.17/outbox.cif.g08.bks.cpg/sg11_26_cif.got.tgz:51453.got - 2010.06.03 12:22:45.
