data_PCOD9161834
_publ_section_title
;
Structure prediction by ZEFSAII (Michael W. Deem and Ramdas Pophale) SiO2 
 PCOD9161834
Probable space group: P 21/M
;
_chemical_formula_sum "Si O2"
_cell_formula_units_Z 28
_cell_length_a 11.334063
_cell_length_b 9.339094
_cell_length_c 14.080802
_cell_angle_alpha 90.000000
_cell_angle_beta 68.095956
_cell_angle_gamma 90.000000
_cell_volume 1382.855416
_symmetry_space_group_name_H-M "P 21/M"
_symmetry_group_IT_number 11
_symmetry_cell_setting 'monoclinic'
loop_
_space_group_symop_operation_xyz
x,y,z
-x,1/2+y,-z
-x,-y,-z
x,1/2-y,z
loop_
_atom_site_type_symbol
_atom_site_label
_atom_site_fract_x
_atom_site_fract_y
_atom_site_fract_z
Si Si1 0.115570 0.415625 0.229737
Si Si2 0.231443 0.590905 0.786513
Si Si3 0.649801 0.417321 0.846274
Si Si4 0.592819 0.088507 0.084437
Si Si5 0.633802 0.416731 0.454197
Si Si6 0.002609 0.417422 0.900461
Si Si7 0.907749 0.082178 0.453979
O O1 0.141192 0.250000 0.201814
O O2 0.240002 0.490202 0.235625
O O3 0.092573 0.507205 0.142715
O O4 0.990665 0.424849 0.332278
O O5 0.166415 0.750000 0.798635
O O6 0.301367 0.589126 0.866539
O O7 0.323159 0.581361 0.669061
O O8 0.138354 0.456810 0.814944
O O9 0.668991 0.250000 0.823301
O O10 0.513290 0.474564 0.855335
O O11 0.642714 0.440958 0.963211
O O12 0.536826 0.250000 0.097540
O O13 0.500000 0.500000 0.500000
O O14 0.613359 0.250000 0.486969
O O15 0.761665 0.466175 0.474876
O O16 0.979055 0.250000 0.917704
O O17 0.000000 0.500000 0.000000
O O18 0.900266 0.250000 0.483850
O O19 0.000000 0.000000 0.500000
#
# Coordination Sequence:
#
# PCOD9161834 Si02
#       7
#     4   4   4   4   4   4   4
#     4  11  22  40  62  85 120 160 202 252 311 371
#     4  10  20  39  62  84 118 157 203 258 311 369
#     4  10  20  34  54  85 122 158 202 251 300 366
#     4   9  19  35  56  81 115 161 203 245 304 368
#     4  10  22  42  65  91 124 162 209 269 331 387
#     4  12  24  37  59  91 125 161 202 246 303 370
#     4  10  23  43  66  92 125 164 210 266 327 388
#
# _framework density 20.247959999999999
#
# number of rings (size 3 to 8) (size 9 to 14) (size 15 to 20)
#    0.000    1.714    1.429    3.000    0.000    5.714 
#    0.000    4.286    0.000    0.000    0.000    0.000 
#    0.000    0.000    0.000    0.000    0.000    0.000 
#
# Total GULP energy -156189.446594 kJ/mol
# GULP energy per Si atom -5578.194521 kJ/mol
# Density = 2.020187 g / cm^3
# Si number density = 20.247960 Si / 1000 Ang^3
#
#
#
# Elastic Constant Matrix: (Units=GPa)
#
#
# Indices 1 2 3 4 5 6 
#
# 1 108.8242 55.6437 17.0794 0.0000 -17.2892 0.0000
# 2 55.6437 121.3277 31.1889 0.0000 -17.0137 0.0000
# 3 17.0794 31.1889 27.2738 0.0000 -7.9184 0.0000
# 4 0.0000 0.0000 0.0000 30.1505 0.0000 -4.9283
# 5 -17.2892 -17.0137 -7.9184 0.0000 37.2467 0.0000
# 6 0.0000 0.0000 0.0000 -4.9283 0.0000 39.7573
#
#
#
# Elastic Compliance Matrix: (Units=1/GPa)
#
#
# Indices 1 2 3 4 5 6 
#
# 1 0.012415 -0.004931 -0.001190 0.000000 0.003257 0.000000
# 2 -0.004931 0.013885 -0.012377 0.000000 0.001422 0.000000
# 3 -0.001190 -0.012377 0.053036 0.000000 0.005069 0.000000
# 4 0.000000 0.000000 0.000000 0.033853 0.000000 0.004196
# 5 0.003257 0.001422 0.005069 0.000000 0.030087 0.000000
# 6 0.000000 0.000000 0.000000 0.004196 0.000000 0.025673
#
#
# Mechanical properties :
#
#
# Convention : Reuss Voigt Hill
#
# Bulk Modulus (GPa) = 23.61865 51.69442 37.65654
# Shear Modulus (GPa) = 22.72140 31.66515 27.19327
#
# Velocity S-wave (km/s) = 3.35350 3.95887 3.66869
# Velocity P-wave (km/s) = 5.16571 6.81784 6.04845
#
# Compressibility (1/GPa) = 0.04233941
#
# Stress axis : x y z
#
# Youngs Moduli (GPa) = 80.54975 72.02139 18.85523
#
# Poissons Ratio (x) = 0.35514 0.02243
# Poissons Ratio (y) = 0.39720 0.23337
# Poissons Ratio (z) = 0.09583 0.89141
#
# Static dielectric constant tensor:
#      x y z
#    x 1.809320 0.000000 -0.005100 
#    y 0.000000 1.700690 0.000000 
#    z -0.005100 0.000000 1.736840 
# 
# From -- ./inp_files/37686.got.cif
#   From: 2010.05.17/outbox.cif.g08.bks.cpg/sg11_19_cif.got.tgz:37686.got - 2010.06.03 12:22:45.
