data_PCOD9161031
_publ_section_title
;
Structure prediction by ZEFSAII (Michael W. Deem and Ramdas Pophale) SiO2 
 PCOD9161031
Probable space group: P 21/M
;
_chemical_formula_sum "Si O2"
_cell_formula_units_Z 32
_cell_length_a 11.686214
_cell_length_b 9.110030
_cell_length_c 20.832240
_cell_angle_alpha 90.000000
_cell_angle_beta 119.201372
_cell_angle_gamma 90.000000
_cell_volume 1935.972917
_symmetry_space_group_name_H-M "P 21/M"
_symmetry_group_IT_number 11
_symmetry_cell_setting 'monoclinic'
loop_
_space_group_symop_operation_xyz
x,y,z
-x,1/2+y,-z
-x,-y,-z
x,1/2-y,z
loop_
_atom_site_type_symbol
_atom_site_label
_atom_site_fract_x
_atom_site_fract_y
_atom_site_fract_z
Si Si1 0.930152 0.073298 0.919965
Si Si2 0.406800 0.422547 0.025900
Si Si3 0.139820 0.422312 0.875567
Si Si4 0.189426 0.924777 0.558822
Si Si5 0.375015 0.574666 0.152759
Si Si6 0.398319 0.576039 0.715180
Si Si7 0.843121 0.424654 0.254885
Si Si8 0.013222 0.923416 0.400628
O O1 0.941996 0.250000 0.929494
O O2 0.776756 0.036134 0.875905
O O3 0.009160 0.030732 0.877491
O O4 0.000000 0.000000 0.000000
O O5 0.438529 0.250000 0.040132
O O6 0.259528 0.436948 0.958261
O O7 0.500000 0.500000 0.000000
O O8 0.416023 0.499697 0.097043
O O9 0.129381 0.250000 0.855793
O O10 0.168184 0.511596 0.819189
O O11 0.160875 0.750000 0.562819
O O12 0.332676 0.950453 0.627550
O O13 0.151390 0.952984 0.474497
O O14 0.093209 0.022784 0.575903
O O15 0.385194 0.750000 0.149907
O O16 0.473327 0.514998 0.233439
O O17 0.424894 0.750000 0.728569
O O18 0.284679 0.538666 0.736540
O O19 0.852784 0.250000 0.256308
O O20 0.970250 0.491577 0.325331
O O21 0.002039 0.750000 0.386536
#
# Coordination Sequence:
#
# PCOD9161031 Si02
#       8
#     4   4   4   4   4   4   4   4
#     4  10  21  38  56  73  93 121 162 210 250 291
#     4  11  22  35  52  72  97 128 161 196 240 293
#     4  10  21  36  52  70  93 125 163 201 244 290
#     4   8  15  27  43  66  96 131 166 197 233 281
#     4  11  22  34  51  74  98 125 161 203 247 291
#     4   9  18  32  48  69 102 136 164 196 237 288
#     4  10  20  32  47  71 102 133 163 198 241 289
#     4   9  15  25  44  68  96 130 164 197 236 283
#
# _framework density 16.529156
#
# number of rings (size 3 to 8) (size 9 to 14) (size 15 to 20)
#    0.000    2.250    1.250    3.000    0.000    7.000 
#    0.000    0.000    0.000    0.000    0.000    0.875 
#    0.000    0.000    0.000    0.000    0.000    0.000 
#
# Total GULP energy -178389.448747 kJ/mol
# GULP energy per Si atom -5574.670273 kJ/mol
# Density = 1.649153 g / cm^3
# Si number density = 16.529156 Si / 1000 Ang^3
#
#
#
# Elastic Constant Matrix: (Units=GPa)
#
#
# Indices 1 2 3 4 5 6 
#
# 1 54.5964 22.7882 8.7489 0.0000 20.1101 0.0000
# 2 22.7882 42.5317 32.4997 0.0000 16.5388 0.0000
# 3 8.7489 32.4997 75.3212 0.0000 27.7912 0.0000
# 4 0.0000 0.0000 0.0000 31.6737 0.0000 1.9751
# 5 20.1101 16.5388 27.7912 0.0000 19.2608 0.0000
# 6 0.0000 0.0000 0.0000 1.9751 0.0000 17.5994
#
#
#
# Elastic Compliance Matrix: (Units=1/GPa)
#
#
# Indices 1 2 3 4 5 6 
#
# 1 0.056373 -0.022559 0.037970 0.000000 -0.094274 0.000000
# 2 -0.022559 0.047177 -0.024549 0.000000 0.018465 0.000000
# 3 0.037970 -0.024549 0.056260 0.000000 -0.099742 0.000000
# 4 0.000000 0.000000 0.000000 0.031794 0.000000 -0.003568
# 5 -0.094274 0.018465 -0.099742 0.000000 0.278412 0.000000
# 6 0.000000 0.000000 0.000000 -0.003568 0.000000 0.057220
#
#
# Mechanical properties :
#
#
# Convention : Reuss Voigt Hill
#
# Bulk Modulus (GPa) = 7.06539 33.39145 20.22842
# Shear Modulus (GPa) = 8.43612 20.93428 14.68520
#
# Velocity S-wave (km/s) = 2.26161 3.56266 2.98391
# Velocity P-wave (km/s) = 3.33221 6.09662 4.91286
#
# Compressibility (1/GPa) = 0.14153492
#
# Stress axis : x y z
#
# Youngs Moduli (GPa) = 17.73913 21.19681 17.77453
#
# Poissons Ratio (x) = 0.47818 -0.67490
# Poissons Ratio (y) = 0.40017 0.43634
# Poissons Ratio (z) = -0.67356 0.52035
#
# Static dielectric constant tensor:
#      x y z
#    x 1.541460 0.000000 0.026010 
#    y 0.000000 1.551130 0.000000 
#    z 0.026010 0.000000 1.583420 
# 
# From -- ./inp_files/40716.got.cif
#   From: 2010.05.17/outbox.cif.g08.bks.cpg/sg11_21_cif.got.tgz:40716.got - 2010.06.03 12:22:45.
