data_PCOD9161088
_publ_section_title
;
Structure prediction by ZEFSAII (Michael W. Deem and Ramdas Pophale) SiO2 
 PCOD9161088
Probable space group: P 21/M
;
_chemical_formula_sum "Si O2"
_cell_formula_units_Z 32
_cell_length_a 13.690123
_cell_length_b 8.174071
_cell_length_c 21.278722
_cell_angle_alpha 90.000000
_cell_angle_beta 144.908173
_cell_angle_gamma 90.000000
_cell_volume 1368.910165
_symmetry_space_group_name_H-M "P 21/M"
_symmetry_group_IT_number 11
_symmetry_cell_setting 'monoclinic'
loop_
_space_group_symop_operation_xyz
x,y,z
-x,1/2+y,-z
-x,-y,-z
x,1/2-y,z
loop_
_atom_site_type_symbol
_atom_site_label
_atom_site_fract_x
_atom_site_fract_y
_atom_site_fract_z
Si Si1 0.627811 0.945389 0.460224
Si Si2 0.253720 0.552473 0.273608
Si Si3 0.569448 0.059556 0.288247
Si Si4 0.682292 0.944130 0.071172
Si Si5 0.896390 0.054416 0.076441
Si Si6 0.985762 0.061229 0.684884
Si Si7 0.784797 0.437902 0.887813
Si Si8 0.900791 0.442054 0.386751
O O1 0.620888 0.750000 0.449573
O O2 0.444774 0.999912 0.392819
O O3 0.639098 0.017759 0.395144
O O4 0.795582 0.988925 0.587740
O O5 0.253370 0.750000 0.275132
O O6 0.235768 0.487756 0.192145
O O7 0.071349 0.496934 0.203484
O O8 0.517566 0.250000 0.261606
O O9 0.706708 0.038757 0.305814
O O10 0.409459 0.945992 0.191532
O O11 0.684989 0.750000 0.080168
O O12 0.846950 0.015583 0.194588
O O13 0.732459 0.988506 0.026582
O O14 0.500000 0.000000 0.000000
O O15 0.889994 0.250000 0.070664
O O16 0.890609 0.988726 0.001274
O O17 0.971012 0.250000 0.696596
O O18 0.038330 0.046612 0.639613
O O19 0.836766 0.250000 0.907292
O O20 0.934549 0.250000 0.391357
O O21 0.000000 0.500000 0.500000
#
# Coordination Sequence:
#
# PCOD9161088 Si02
#       8
#     4   4   4   4   4   4   4   4
#     4  10  20  36  60  89 123 160 195 242 303 364
#     4   9  19  37  61  93 130 165 199 245 307 370
#     4  10  20  32  50  83 121 159 201 243 297 364
#     4  11  27  49  69  90 120 160 208 262 310 361
#     4  11  23  40  64  93 123 163 211 259 309 364
#     4  11  24  41  62  87 118 158 204 255 309 363
#     4   9  20  36  57  88 127 165 203 248 305 365
#     4  11  22  34  54  86 122 159 200 246 301 365
#
# _framework density 23.376259000000001
#
# number of rings (size 3 to 8) (size 9 to 14) (size 15 to 20)
#    0.000    1.750    1.250    3.375    1.750    7.000 
#    0.000    0.625    0.000    0.000    0.000    0.000 
#    0.000    0.000    0.000    0.000    0.000    0.000 
#
# Total GULP energy -178653.028844 kJ/mol
# GULP energy per Si atom -5582.907151 kJ/mol
# Density = 2.332305 g / cm^3
# Si number density = 23.376259 Si / 1000 Ang^3
#
#
#
# Elastic Constant Matrix: (Units=GPa)
#
#
# Indices 1 2 3 4 5 6 
#
# 1 80.1336 9.4915 40.0984 0.0000 27.0848 0.0000
# 2 9.4915 52.4644 19.2505 0.0000 23.1754 0.0000
# 3 40.0984 19.2505 132.9170 0.0000 21.1524 0.0000
# 4 0.0000 0.0000 0.0000 30.9006 0.0000 11.2333
# 5 27.0848 23.1754 21.1524 0.0000 44.6216 0.0000
# 6 0.0000 0.0000 0.0000 11.2333 0.0000 27.9587
#
#
#
# Elastic Compliance Matrix: (Units=1/GPa)
#
#
# Indices 1 2 3 4 5 6 
#
# 1 0.017663 0.002839 -0.004109 0.000000 -0.010248 0.000000
# 2 0.002839 0.025537 -0.002347 0.000000 -0.013874 0.000000
# 3 -0.004109 -0.002347 0.009207 0.000000 -0.000651 0.000000
# 4 0.000000 0.000000 0.000000 0.037897 0.000000 -0.015226
# 5 -0.010248 -0.013874 -0.000651 0.000000 0.036145 0.000000
# 6 0.000000 0.000000 0.000000 -0.015226 0.000000 0.041885
#
#
# Mechanical properties :
#
#
# Convention : Reuss Voigt Hill
#
# Bulk Modulus (GPa) = 22.13752 44.79954 33.46853
# Shear Modulus (GPa) = 26.22960 33.80783 30.01871
#
# Velocity S-wave (km/s) = 3.35335 3.80708 3.58740
# Velocity P-wave (km/s) = 4.94813 6.20736 5.61316
#
# Compressibility (1/GPa) = 0.04517218
#
# Stress axis : x y z
#
# Youngs Moduli (GPa) = 56.61677 39.15928 108.61756
#
# Poissons Ratio (x) = -0.11118 0.44629
# Poissons Ratio (y) = -0.16074 0.25494
# Poissons Ratio (z) = 0.23263 0.09191
#
# Static dielectric constant tensor:
#      x y z
#    x 1.941050 0.000000 0.012780 
#    y 0.000000 1.823730 0.000000 
#    z 0.012780 0.000000 1.925100 
# 
# From -- ./inp_files/69092.got.cif
#   From: 2010.05.17/outbox.cif.g08.bks.cpg/sg11_35_cif.got.tgz:69092.got - 2010.06.03 12:22:45.
