data_PCOD9161605
_publ_section_title
;
Structure prediction by ZEFSAII (Michael W. Deem and Ramdas Pophale) SiO2 
 PCOD9161605
Probable space group: P 21/M
;
_chemical_formula_sum "Si O2"
_cell_formula_units_Z 28
_cell_length_a 16.118500
_cell_length_b 7.499472
_cell_length_c 10.303253
_cell_angle_alpha 90.000000
_cell_angle_beta 119.491288
_cell_angle_gamma 90.000000
_cell_volume 1084.086176
_symmetry_space_group_name_H-M "P 21/M"
_symmetry_group_IT_number 11
_symmetry_cell_setting 'monoclinic'
loop_
_space_group_symop_operation_xyz
x,y,z
-x,1/2+y,-z
-x,-y,-z
x,1/2-y,z
loop_
_atom_site_type_symbol
_atom_site_label
_atom_site_fract_x
_atom_site_fract_y
_atom_site_fract_z
Si Si1 0.072291 0.463567 0.171360
Si Si2 0.602781 0.039071 0.141530
Si Si3 0.816015 0.958597 0.209790
Si Si4 0.314745 0.534713 0.532125
Si Si5 0.896991 0.957731 0.531217
Si Si6 0.408926 0.059243 0.350600
Si Si7 0.229645 0.471121 0.102442
O O1 0.080470 0.250000 0.192149
O O2 0.051442 0.534506 0.300453
O O3 0.169169 0.532733 0.179442
O O4 0.000000 0.500000 0.000000
O O5 0.615392 0.250000 0.147172
O O6 0.608037 0.985958 0.297470
O O7 0.702377 0.968012 0.157764
O O8 0.500000 0.000000 0.000000
O O9 0.839072 0.750000 0.221907
O O10 0.885192 0.035374 0.376264
O O11 0.820905 0.032283 0.068422
O O12 0.315858 0.750000 0.514827
O O13 0.213008 0.474227 0.506816
O O14 0.337695 0.436200 0.417960
O O15 0.922279 0.750000 0.536868
O O16 0.434584 0.250000 0.312751
O O17 0.339960 0.966493 0.194028
O O18 0.500000 0.000000 0.500000
O O19 0.231466 0.250000 0.102679
#
# Coordination Sequence:
#
# PCOD9161605 Si02
#       7
#     4   4   4   4   4   4   4
#     4  10  20  37  59  85 112 144 181 224 275 334
#     4  10  21  34  49  73 106 143 185 234 275 323
#     4   9  18  34  57  79 101 142 184 224 279 333
#     4  10  20  34  52  75 104 141 186 229 274 324
#     4   9  17  34  58  80 106 139 180 222 270 330
#     4  11  22  36  53  77 111 150 189 232 279 330
#     4   9  19  37  58  79 112 146 181 229 282 332
#
# _framework density 25.828205000000001
#
# number of rings (size 3 to 8) (size 9 to 14) (size 15 to 20)
#    0.000    2.286    1.429    1.286    2.000    2.286 
#    0.000    2.143    0.000    0.000    0.000    0.000 
#    0.000    0.000    0.000    0.000    0.000    0.000 
#
# Total GULP energy -156188.589101 kJ/mol
# GULP energy per Si atom -5578.163896 kJ/mol
# Density = 2.576942 g / cm^3
# Si number density = 25.828205 Si / 1000 Ang^3
#
#
#
# Elastic Constant Matrix: (Units=GPa)
#
#
# Indices 1 2 3 4 5 6 
#
# 1 56.1748 1.1698 36.2925 0.0000 -0.7828 0.0000
# 2 1.1698 88.1213 8.9149 0.0000 2.5544 0.0000
# 3 36.2925 8.9149 232.5101 0.0000 1.1679 0.0000
# 4 0.0000 0.0000 0.0000 19.2257 0.0000 6.6655
# 5 -0.7828 2.5544 1.1679 0.0000 50.1918 0.0000
# 6 0.0000 0.0000 0.0000 6.6655 0.0000 11.5289
#
#
#
# Elastic Compliance Matrix: (Units=1/GPa)
#
#
# Indices 1 2 3 4 5 6 
#
# 1 0.019806 0.000039 -0.003095 0.000000 0.000379 0.000000
# 2 0.000039 0.011409 -0.000441 0.000000 -0.000570 0.000000
# 3 -0.003095 -0.000441 0.004802 0.000000 -0.000138 0.000000
# 4 0.000000 0.000000 0.000000 0.065053 0.000000 -0.037611
# 5 0.000379 -0.000570 -0.000138 0.000000 0.019962 0.000000
# 6 0.000000 0.000000 0.000000 -0.037611 0.000000 0.108483
#
#
# Mechanical properties :
#
#
# Convention : Reuss Voigt Hill
#
# Bulk Modulus (GPa) = 34.45546 52.17339 43.31443
# Shear Modulus (GPa) = 20.31032 38.21789 29.26411
#
# Velocity S-wave (km/s) = 2.80726 3.85085 3.36970
# Velocity P-wave (km/s) = 4.88639 6.32583 5.65212
#
# Compressibility (1/GPa) = 0.02902298
#
# Stress axis : x y z
#
# Youngs Moduli (GPa) = 50.49101 87.65335 208.26610
#
# Poissons Ratio (x) = -0.00344 0.64455
# Poissons Ratio (y) = -0.00198 0.09178
# Poissons Ratio (z) = 0.15626 0.03863
#
# Static dielectric constant tensor:
#      x y z
#    x 2.098810 0.000000 0.061650 
#    y 0.000000 1.828140 0.000000 
#    z 0.061650 0.000000 2.198040 
# 
# From -- ./inp_files/42592.got.cif
#   From: 2010.05.17/outbox.cif.g08.bks.cpg/sg11_22_cif.got.tgz:42592.got - 2010.06.03 12:22:45.
