data_PCOD9161787
_publ_section_title
;
Structure prediction by ZEFSAII (Michael W. Deem and Ramdas Pophale) SiO2 
 PCOD9161787
Probable space group: P 21/M
;
_chemical_formula_sum "Si O2"
_cell_formula_units_Z 32
_cell_length_a 16.161976
_cell_length_b 8.869088
_cell_length_c 23.902707
_cell_angle_alpha 90.000000
_cell_angle_beta 148.457813
_cell_angle_gamma 90.000000
_cell_volume 1792.367253
_symmetry_space_group_name_H-M "P 21/M"
_symmetry_group_IT_number 11
_symmetry_cell_setting 'monoclinic'
loop_
_space_group_symop_operation_xyz
x,y,z
-x,1/2+y,-z
-x,-y,-z
x,1/2-y,z
loop_
_atom_site_type_symbol
_atom_site_label
_atom_site_fract_x
_atom_site_fract_y
_atom_site_fract_z
Si Si1 0.256835 0.570047 0.651146
Si Si2 0.338839 0.581353 0.421101
Si Si3 0.139888 0.578759 0.193300
Si Si4 0.029137 0.567095 0.300687
Si Si5 0.602579 0.430668 0.863132
Si Si6 0.997518 0.931211 0.412272
Si Si7 0.823767 0.570208 0.895016
Si Si8 0.142721 0.930192 0.903467
O O1 0.277112 0.750000 0.665380
O O2 0.425559 0.491246 0.754926
O O3 0.162855 0.533788 0.539252
O O4 0.139612 0.514312 0.632501
O O5 0.500000 0.500000 0.500000
O O6 0.375472 0.750000 0.462476
O O7 0.246272 0.588872 0.309323
O O8 0.206585 0.513688 0.386363
O O9 0.102450 0.750000 0.153367
O O10 0.228019 0.488008 0.195798
O O11 0.982716 0.494092 0.123583
O O12 0.028267 0.750000 0.294038
O O13 0.995995 0.529583 0.345926
O O14 0.906821 0.501509 0.184536
O O15 0.605927 0.250000 0.858631
O O16 0.711010 0.504806 0.877690
O O17 0.686222 0.465952 0.971172
O O18 0.974801 0.750000 0.403983
O O19 0.828342 0.750000 0.900009
O O20 0.000000 0.500000 0.000000
O O21 0.126625 0.750000 0.890566
#
# Coordination Sequence:
#
# PCOD9161787 Si02
#       8
#     4   4   4   4   4   4   4   4
#     4  10  21  37  60  89 116 146 184 231 287 344
#     4   9  19  33  50  76 108 144 183 228 277 325
#     4  10  20  35  53  74 106 146 188 229 275 329
#     4   9  19  36  58  80 107 145 187 230 281 338
#     4  11  23  38  56  82 117 151 189 234 283 337
#     4   9  19  39  63  85 112 146 186 233 289 345
#     4  12  23  35  54  80 110 147 189 231 276 329
#     4  10  20  34  54  80 110 145 186 229 276 331
#
# _framework density 17.853484000000002
#
# number of rings (size 3 to 8) (size 9 to 14) (size 15 to 20)
#    0.000    2.000    1.250    3.375    0.000    6.000 
#    0.000    1.875    0.000    0.000    0.000    0.000 
#    0.000    0.000    0.000    0.000    0.000    0.000 
#
# Total GULP energy -178459.282558 kJ/mol
# GULP energy per Si atom -5576.852580 kJ/mol
# Density = 1.781285 g / cm^3
# Si number density = 17.853484 Si / 1000 Ang^3
#
#
#
# Elastic Constant Matrix: (Units=GPa)
#
#
# Indices 1 2 3 4 5 6 
#
# 1 112.4671 47.5835 65.1907 0.0000 -16.4527 0.0000
# 2 47.5835 76.9619 48.7831 0.0000 -1.0520 0.0000
# 3 65.1907 48.7831 105.8936 0.0000 5.8601 0.0000
# 4 0.0000 0.0000 0.0000 31.6080 0.0000 1.4761
# 5 -16.4527 -1.0520 5.8601 0.0000 24.5623 0.0000
# 6 0.0000 0.0000 0.0000 1.4761 0.0000 30.0477
#
#
#
# Elastic Compliance Matrix: (Units=1/GPa)
#
#
# Indices 1 2 3 4 5 6 
#
# 1 0.019283 -0.005167 -0.010329 0.000000 0.015159 0.000000
# 2 -0.005167 0.019935 -0.005937 0.000000 -0.001191 0.000000
# 3 -0.010329 -0.005937 0.019188 0.000000 -0.011751 0.000000
# 4 0.000000 0.000000 0.000000 0.031710 0.000000 -0.001558
# 5 0.015159 -0.001191 -0.011751 0.000000 0.053619 0.000000
# 6 0.000000 0.000000 0.000000 -0.001558 0.000000 0.033357
#
#
# Mechanical properties :
#
#
# Convention : Reuss Voigt Hill
#
# Bulk Modulus (GPa) = 64.35537 68.71524 66.53531
# Shear Modulus (GPa) = 22.20862 26.16130 24.18496
#
# Velocity S-wave (km/s) = 3.53078 3.83212 3.68453
# Velocity P-wave (km/s) = 7.26268 7.62576 7.44643
#
# Compressibility (1/GPa) = 0.01553872
#
# Stress axis : x y z
#
# Youngs Moduli (GPa) = 51.86003 50.16312 52.11725
#
# Poissons Ratio (x) = 0.25921 0.53833
# Poissons Ratio (y) = 0.26798 0.30939
# Poissons Ratio (z) = 0.53568 0.29779
#
# Static dielectric constant tensor:
#      x y z
#    x 1.602850 0.000000 -0.028760 
#    y 0.000000 1.616110 0.000000 
#    z -0.028760 0.000000 1.635590 
# 
# From -- ./inp_files/55689.got.cif
#   From: 2010.05.17/outbox.cif.g08.bks.cpg/sg11_28_cif.got.tgz:55689.got - 2010.06.03 12:22:45.
