data_PCOD9161837
_publ_section_title
;
Structure prediction by ZEFSAII (Michael W. Deem and Ramdas Pophale) SiO2 
 PCOD9161837
Probable space group: P 21/M
;
_chemical_formula_sum "Si O2"
_cell_formula_units_Z 32
_cell_length_a 19.252270
_cell_length_b 11.395903
_cell_length_c 19.603292
_cell_angle_alpha 90.000000
_cell_angle_beta 158.244908
_cell_angle_gamma 90.000000
_cell_volume 1594.086787
_symmetry_space_group_name_H-M "P 21/M"
_symmetry_group_IT_number 11
_symmetry_cell_setting 'monoclinic'
loop_
_space_group_symop_operation_xyz
x,y,z
-x,1/2+y,-z
-x,-y,-z
x,1/2-y,z
loop_
_atom_site_type_symbol
_atom_site_label
_atom_site_fract_x
_atom_site_fract_y
_atom_site_fract_z
Si Si1 0.446173 0.959480 0.340281
Si Si2 0.946096 0.112964 0.586182
Si Si3 0.744948 0.883536 0.719364
Si Si4 0.918658 0.383829 0.064154
Si Si5 0.232844 0.502718 0.945226
Si Si6 0.456793 0.878952 0.046529
Si Si7 0.699675 0.114321 0.242420
Si Si8 0.428360 0.887377 0.669757
O O1 0.333271 0.043867 0.288886
O O2 0.555826 0.035310 0.383828
O O3 0.588983 0.888837 0.517605
O O4 0.288472 0.886920 0.156883
O O5 0.982694 0.250000 0.629790
O O6 0.895025 0.096083 0.460171
O O7 0.754649 0.083174 0.452457
O O8 0.117340 0.047452 0.776623
O O9 0.779161 0.750000 0.772165
O O10 0.933559 0.931266 0.856226
O O11 0.974166 0.250000 0.130016
O O12 0.905292 0.458433 0.120651
O O13 0.349709 0.610163 0.020341
O O14 0.384922 0.414594 0.116102
O O15 0.553349 0.750000 0.130354
O O16 0.315814 0.881995 0.853213
O O17 0.576976 0.999236 0.150148
O O18 0.638798 0.250000 0.208937
O O19 0.420559 0.750000 0.645699
#
# Coordination Sequence:
#
# PCOD9161837 Si02
#       8
#     4   4   4   4   4   4   4   4
#     4  10  20  34  55  78 102 137 179 223 272 324
#     4  10  20  35  56  83 111 145 188 232 280 337
#     4  10  20  35  54  77 104 136 176 221 271 327
#     4  10  21  36  52  74 107 144 178 218 269 330
#     4  11  21  34  56  80 112 147 186 225 280 332
#     4  10  20  36  58  85 116 149 190 236 283 338
#     4   9  19  37  60  84 114 150 189 236 286 337
#     4  10  20  35  54  80 111 143 183 233 277 326
#
# _framework density 20.074190999999999
#
# number of rings (size 3 to 8) (size 9 to 14) (size 15 to 20)
#    0.000    2.000    1.250    2.625    0.000    1.000 
#    0.000    1.250    0.000   12.000    0.000    0.000 
#    0.000    0.000    0.000    0.000    0.000    0.000 
#
# Total GULP energy -178381.071290 kJ/mol
# GULP energy per Si atom -5574.408478 kJ/mol
# Density = 2.002850 g / cm^3
# Si number density = 20.074191 Si / 1000 Ang^3
#
#
#
# Elastic Constant Matrix: (Units=GPa)
#
#
# Indices 1 2 3 4 5 6 
#
# 1 47.8301 23.1928 -14.0760 0.0000 -2.3615 0.0000
# 2 23.1928 74.1766 11.3335 0.0000 -2.9299 0.0000
# 3 -14.0760 11.3335 47.1584 0.0000 -15.7578 0.0000
# 4 0.0000 0.0000 0.0000 12.3186 0.0000 8.6244
# 5 -2.3615 -2.9299 -15.7578 0.0000 29.3263 0.0000
# 6 0.0000 0.0000 0.0000 8.6244 0.0000 -3.0886
#
#
#
# Elastic Compliance Matrix: (Units=1/GPa)
#
#
# Indices 1 2 3 4 5 6 
#
# 1 0.031769 -0.011933 0.015609 0.000000 0.009753 0.000000
# 2 -0.011933 0.018483 -0.009395 0.000000 -0.004162 0.000000
# 3 0.015609 -0.009395 0.034406 0.000000 0.018806 0.000000
# 4 0.000000 0.000000 0.000000 0.027472 0.000000 0.076711
# 5 0.009753 -0.004162 0.018806 0.000000 0.044573 0.000000
# 6 0.000000 0.000000 0.000000 0.076711 0.000000 -0.109570
#
#
# Mechanical properties :
#
#
# Convention : Reuss Voigt Hill
#
# Bulk Modulus (GPa) = 13.65715 23.34063 18.49889
# Shear Modulus (GPa) = 60.25748 17.62559 38.94153
#
# Velocity S-wave (km/s) = 5.48476 2.96636 4.40919
# Velocity P-wave (km/s) = 6.85041 4.83578 5.92929
#
# Compressibility (1/GPa) = 0.07322172
#
# Stress axis : x y z
#
# Youngs Moduli (GPa) = 31.47736 54.10256 29.06480
#
# Poissons Ratio (x) = 0.64560 -0.45368
# Poissons Ratio (y) = 0.37562 0.27305
# Poissons Ratio (z) = -0.49134 0.50828
#
# Static dielectric constant tensor:
#      x y z
#    x 1.710030 0.000000 0.009930 
#    y 0.000000 1.717510 0.000000 
#    z 0.009930 0.000000 1.700800 
# 
# From -- ./inp_files/66535.got.cif
#   From: 2010.05.17/outbox.cif.g08.bks.cpg/sg11_34_cif.got.tgz:66535.got - 2010.06.03 12:22:45.
