data_PCOD9161566
_publ_section_title
;
Structure prediction by ZEFSAII (Michael W. Deem and Ramdas Pophale) SiO2 
 PCOD9161566
Probable space group: P 21/M
;
_chemical_formula_sum "Si O2"
_cell_formula_units_Z 28
_cell_length_a 21.183807
_cell_length_b 8.700520
_cell_length_c 23.980295
_cell_angle_alpha 90.000000
_cell_angle_beta 161.126821
_cell_angle_gamma 90.000000
_cell_volume 1429.696324
_symmetry_space_group_name_H-M "P 21/M"
_symmetry_group_IT_number 11
_symmetry_cell_setting 'monoclinic'
loop_
_space_group_symop_operation_xyz
x,y,z
-x,1/2+y,-z
-x,-y,-z
x,1/2-y,z
loop_
_atom_site_type_symbol
_atom_site_label
_atom_site_fract_x
_atom_site_fract_y
_atom_site_fract_z
Si Si1 0.919579 0.936159 0.262853
Si Si2 0.851559 0.424989 0.649241
Si Si3 0.448754 0.922728 0.515261
Si Si4 0.850289 0.577497 0.916783
Si Si5 0.906798 0.564907 0.478408
Si Si6 0.741507 0.574461 0.945105
Si Si7 0.453404 0.933430 0.114066
O O1 0.918597 0.750000 0.261159
O O2 0.088832 0.991233 0.360787
O O3 0.977170 0.997677 0.371466
O O4 0.710826 0.992548 0.063939
O O5 0.777002 0.250000 0.577223
O O6 0.703773 0.500448 0.569568
O O7 0.057361 0.416040 0.852760
O O8 0.373901 0.750000 0.440436
O O9 0.648316 0.912925 0.715606
O O10 0.500000 0.000000 0.500000
O O11 0.924084 0.750000 0.991030
O O12 0.798844 0.503832 0.933405
O O13 0.000000 0.500000 0.000000
O O14 0.918827 0.750000 0.489632
O O15 0.676665 0.521920 0.288092
O O16 0.000000 0.500000 0.500000
O O17 0.668707 0.750000 0.875221
O O18 0.596911 0.484970 0.864805
O O19 0.435527 0.750000 0.094451
#
# Coordination Sequence:
#
# PCOD9161566 Si02
#       7
#     4   4   4   4   4   4   4
#     4  10  21  39  66  94 121 161 205 251 305 361
#     4   8  16  32  54  79 107 140 184 235 288 345
#     4  10  20  34  51  75 106 144 188 236 287 340
#     4  10  21  34  52  77 108 147 192 240 291 346
#     4  11  25  43  64  93 127 164 204 251 305 363
#     4   9  18  34  56  81 109 147 193 242 295 354
#     4  10  22  40  62  91 127 161 198 250 306 363
#
# _framework density 19.584578
#
# number of rings (size 3 to 8) (size 9 to 14) (size 15 to 20)
#    0.000    2.286    0.000    3.000    2.000    5.143 
#    0.000    5.000    0.000    0.000    0.000    0.000 
#    0.000    0.000    0.000    0.000    0.000    0.000 
#
# Total GULP energy -156107.939884 kJ/mol
# GULP energy per Si atom -5575.283567 kJ/mol
# Density = 1.954000 g / cm^3
# Si number density = 19.584578 Si / 1000 Ang^3
#
#
#
# Elastic Constant Matrix: (Units=GPa)
#
#
# Indices 1 2 3 4 5 6 
#
# 1 215.9875 46.8294 75.8389 0.0000 5.5165 0.0000
# 2 46.8294 46.2597 30.7627 0.0000 7.3098 0.0000
# 3 75.8389 30.7627 87.5681 0.0000 13.1847 0.0000
# 4 0.0000 0.0000 0.0000 21.5005 0.0000 -0.2973
# 5 5.5165 7.3098 13.1847 0.0000 40.3817 0.0000
# 6 0.0000 0.0000 0.0000 -0.2973 0.0000 30.6276
#
#
#
# Elastic Compliance Matrix: (Units=1/GPa)
#
#
# Indices 1 2 3 4 5 6 
#
# 1 0.007280 -0.004252 -0.005024 0.000000 0.001416 0.000000
# 2 -0.004252 0.030840 -0.006729 0.000000 -0.002805 0.000000
# 3 -0.005024 -0.006729 0.018771 0.000000 -0.004224 0.000000
# 4 0.000000 0.000000 0.000000 0.046517 0.000000 0.000451
# 5 0.001416 -0.002805 -0.004224 0.000000 0.026457 0.000000
# 6 0.000000 0.000000 0.000000 0.000451 0.000000 0.032655
#
#
# Mechanical properties :
#
#
# Convention : Reuss Voigt Hill
#
# Bulk Modulus (GPa) = 40.19367 72.96413 56.57890
# Shear Modulus (GPa) = 24.65213 31.59427 28.12320
#
# Velocity S-wave (km/s) = 3.55174 4.02085 3.79355
# Velocity P-wave (km/s) = 6.11453 7.67418 6.93832
#
# Compressibility (1/GPa) = 0.02487954
#
# Stress axis : x y z
#
# Youngs Moduli (GPa) = 137.36780 32.42591 53.27439
#
# Poissons Ratio (x) = 0.13788 0.26765
# Poissons Ratio (y) = 0.58410 0.35849
# Poissons Ratio (z) = 0.69014 0.21820
#
# Static dielectric constant tensor:
#      x y z
#    x 1.718620 0.000000 0.017350 
#    y 0.000000 1.719610 0.000000 
#    z 0.017350 0.000000 1.666760 
# 
# From -- ./inp_files/69816.got.cif
#   From: 2010.05.17/outbox.cif.g08.bks.cpg/sg11_35_cif.got.tgz:69816.got - 2010.06.03 12:22:45.
