data_PCOD9161387
_publ_section_title
;
Structure prediction by ZEFSAII (Michael W. Deem and Ramdas Pophale) SiO2 
 PCOD9161387
Probable space group: P 21/M
;
_chemical_formula_sum "Si O2"
_cell_formula_units_Z 32
_cell_length_a 20.203467
_cell_length_b 8.637085
_cell_length_c 14.503521
_cell_angle_alpha 90.000000
_cell_angle_beta 46.097256
_cell_angle_gamma 90.000000
_cell_volume 1823.523315
_symmetry_space_group_name_H-M "P 21/M"
_symmetry_group_IT_number 11
_symmetry_cell_setting 'monoclinic'
loop_
_space_group_symop_operation_xyz
x,y,z
-x,1/2+y,-z
-x,-y,-z
x,1/2-y,z
loop_
_atom_site_type_symbol
_atom_site_label
_atom_site_fract_x
_atom_site_fract_y
_atom_site_fract_z
Si Si1 0.994568 0.563932 0.107952
Si Si2 0.508196 0.935173 0.889697
Si Si3 0.000490 0.063769 0.602362
Si Si4 0.493702 0.435392 0.608639
Si Si5 0.857079 0.063719 0.388672
Si Si6 0.643743 0.437346 0.112863
Si Si7 0.354635 0.936736 0.388537
Si Si8 0.147389 0.937872 0.106842
O O1 0.990623 0.750000 0.110740
O O2 0.907811 0.499995 0.248817
O O3 0.084401 0.516654 0.080741
O O4 0.000000 0.500000 0.000000
O O5 0.510667 0.750000 0.890497
O O6 0.420739 0.982358 0.911138
O O7 0.597172 0.995973 0.748945
O O8 0.500000 0.000000 0.000000
O O9 0.004385 0.250000 0.597793
O O10 0.908922 0.015848 0.747527
O O11 0.000000 0.000000 0.500000
O O12 0.085443 0.000105 0.580104
O O13 0.500000 0.500000 0.500000
O O14 0.491153 0.250000 0.608373
O O15 0.405122 0.497661 0.748942
O O16 0.581476 0.482976 0.586485
O O17 0.861460 0.250000 0.384024
O O18 0.750761 0.015777 0.497270
O O19 0.643560 0.250000 0.118287
O O20 0.748150 0.492257 0.000032
O O21 0.357155 0.750000 0.380002
O O22 0.150204 0.750000 0.104557
#
# Coordination Sequence:
#
# PCOD9161387 Si02
#       8
#     4   4   4   4   4   4   4   4
#     4  10  20  35  54  77 105 137 171 213 260 312
#     4  10  20  33  53  78 105 135 170 213 259 306
#     4  10  20  35  54  79 108 140 175 214 259 310
#     4  10  20  35  53  76 104 134 168 210 256 307
#     4  10  20  36  56  77 102 137 177 219 263 309
#     4   9  18  35  55  74  97 132 173 210 248 298
#     4   9  20  37  55  74 102 139 177 214 259 313
#     4   8  17  34  54  73  99 134 171 207 250 303
#
# _framework density 17.548445999999998
#
# number of rings (size 3 to 8) (size 9 to 14) (size 15 to 20)
#    0.000    2.500    0.000    2.625    0.000    4.000 
#    0.000   11.250    0.000    0.000    0.000    0.000 
#    0.000    0.000    0.000    0.000    0.000    0.000 
#
# Total GULP energy -178538.017107 kJ/mol
# GULP energy per Si atom -5579.313035 kJ/mol
# Density = 1.750851 g / cm^3
# Si number density = 17.548446 Si / 1000 Ang^3
#
#
#
# Elastic Constant Matrix: (Units=GPa)
#
#
# Indices 1 2 3 4 5 6 
#
# 1 111.6503 35.5251 133.4036 0.0000 5.7400 0.0000
# 2 35.5251 38.8634 45.7215 0.0000 1.2097 0.0000
# 3 133.4036 45.7215 194.0432 0.0000 -1.0803 0.0000
# 4 0.0000 0.0000 0.0000 34.2587 0.0000 5.4137
# 5 5.7400 1.2097 -1.0803 0.0000 44.5789 0.0000
# 6 0.0000 0.0000 0.0000 5.4137 0.0000 27.6431
#
#
#
# Elastic Compliance Matrix: (Units=1/GPa)
#
#
# Indices 1 2 3 4 5 6 
#
# 1 0.054181 -0.007494 -0.035526 0.000000 -0.007634 0.000000
# 2 -0.007494 0.036697 -0.003495 0.000000 -0.000116 0.000000
# 3 -0.035526 -0.003495 0.030431 0.000000 0.005407 0.000000
# 4 0.000000 0.000000 0.000000 0.030122 0.000000 -0.005899
# 5 -0.007634 -0.000116 0.005407 0.000000 0.023549 0.000000
# 6 0.000000 0.000000 0.000000 -0.005899 0.000000 0.037331
#
#
# Mechanical properties :
#
#
# Convention : Reuss Voigt Hill
#
# Bulk Modulus (GPa) = 35.36246 85.98416 60.67331
# Shear Modulus (GPa) = 15.88479 29.95658 22.92068
#
# Velocity S-wave (km/s) = 3.01191 4.13616 3.61797
# Velocity P-wave (km/s) = 5.68248 8.48027 7.21823
#
# Compressibility (1/GPa) = 0.02827858
#
# Stress axis : x y z
#
# Youngs Moduli (GPa) = 18.45677 27.25001 32.86156
#
# Poissons Ratio (x) = 0.20422 1.16742
# Poissons Ratio (y) = 0.13832 0.11485
# Poissons Ratio (z) = 0.65569 0.09524
#
# Static dielectric constant tensor:
#      x y z
#    x 1.585240 0.000000 -0.015410 
#    y 0.000000 1.557760 0.000000 
#    z -0.015410 0.000000 1.571520 
# 
# From -- ./inp_files/54275.got.cif
#   From: 2010.05.17/outbox.cif.g08.bks.cpg/sg11_28_cif.got.tgz:54275.got - 2010.06.03 12:22:45.
