data_PCOD9161898
_publ_section_title
;
Structure prediction by ZEFSAII (Michael W. Deem and Ramdas Pophale) SiO2 
 PCOD9161898
Probable space group: P 21/M
;
_chemical_formula_sum "Si O2"
_cell_formula_units_Z 28
_cell_length_a 21.276193
_cell_length_b 8.827944
_cell_length_c 15.974645
_cell_angle_alpha 90.000000
_cell_angle_beta 28.507037
_cell_angle_gamma 90.000000
_cell_volume 1432.009282
_symmetry_space_group_name_H-M "P 21/M"
_symmetry_group_IT_number 11
_symmetry_cell_setting 'monoclinic'
loop_
_space_group_symop_operation_xyz
x,y,z
-x,1/2+y,-z
-x,-y,-z
x,1/2-y,z
loop_
_atom_site_type_symbol
_atom_site_label
_atom_site_fract_x
_atom_site_fract_y
_atom_site_fract_z
Si Si1 0.920455 0.431411 0.349280
Si Si2 0.185082 0.067525 0.118597
Si Si3 0.655293 0.930034 0.397357
Si Si4 0.626333 0.567675 0.955100
Si Si5 0.347858 0.069037 0.270620
Si Si6 0.075572 0.430262 0.832726
Si Si7 0.646199 0.069572 0.228524
O O1 0.912071 0.250000 0.357959
O O2 0.779754 0.500579 0.536488
O O3 0.962906 0.490919 0.208495
O O4 0.033821 0.479434 0.282222
O O5 0.186909 0.250000 0.115696
O O6 0.258820 0.017089 0.116535
O O7 0.268178 0.009122 0.942481
O O8 0.654437 0.750000 0.379726
O O9 0.769396 0.957387 0.330679
O O10 0.508819 0.971354 0.598777
O O11 0.684669 0.016531 0.276708
O O12 0.614349 0.750000 0.973756
O O13 0.655970 0.528652 0.823884
O O14 0.486006 0.495315 0.142555
O O15 0.346990 0.250000 0.280015
O O16 0.053025 0.250000 0.854460
O O17 0.000000 0.500000 0.000000
O O18 0.659663 0.250000 0.206065
#
# Coordination Sequence:
#
# PCOD9161898 Si02
#       7
#     4   4   4   4   4   4   4
#     4  11  24  40  59  86 121 159 200 243 293 351
#     4  10  22  39  58  83 117 156 193 239 291 347
#     4   9  20  37  54  76 109 149 189 239 294 344
#     4   9  20  40  64  89 118 156 195 239 297 354
#     4  10  21  39  63  91 121 151 194 246 294 351
#     4  11  23  39  58  82 116 156 200 246 294 347
#     4  10  20  34  55  83 112 144 191 242 290 345
#
# _framework density 19.552945999999999
#
# number of rings (size 3 to 8) (size 9 to 14) (size 15 to 20)
#    0.000    2.000    0.000    2.571    2.000    8.000 
#    0.000    0.000    0.000    0.000    0.000    0.000 
#    0.000    0.000    0.000    0.000    0.000    0.000 
#
# Total GULP energy -156454.279348 kJ/mol
# GULP energy per Si atom -5587.652834 kJ/mol
# Density = 1.950844 g / cm^3
# Si number density = 19.552946 Si / 1000 Ang^3
#
#
#
# Elastic Constant Matrix: (Units=GPa)
#
#
# Indices 1 2 3 4 5 6 
#
# 1 105.2367 25.6561 28.7730 0.0000 -18.3188 0.0000
# 2 25.6561 17.9627 18.3223 0.0000 -6.2825 0.0000
# 3 28.7730 18.3223 75.8601 0.0000 -3.8096 0.0000
# 4 0.0000 0.0000 0.0000 28.8958 0.0000 0.7346
# 5 -18.3188 -6.2825 -3.8096 0.0000 18.6097 0.0000
# 6 0.0000 0.0000 0.0000 0.7346 0.0000 25.0625
#
#
#
# Elastic Compliance Matrix: (Units=1/GPa)
#
#
# Indices 1 2 3 4 5 6 
#
# 1 0.015879 -0.018289 -0.001142 0.000000 0.009223 0.000000
# 2 -0.018289 0.104565 -0.017631 0.000000 0.013688 0.000000
# 3 -0.001142 -0.017631 0.017700 0.000000 -0.003453 0.000000
# 4 0.000000 0.000000 0.000000 0.034633 0.000000 -0.001015
# 5 0.009223 0.013688 -0.003453 0.000000 0.066728 0.000000
# 6 0.000000 0.000000 0.000000 -0.001015 0.000000 0.039930
#
#
# Mechanical properties :
#
#
# Convention : Reuss Voigt Hill
#
# Bulk Modulus (GPa) = 15.62027 38.28469 26.95248
# Shear Modulus (GPa) = 13.33691 22.93414 18.13552
#
# Velocity S-wave (km/s) = 2.61452 3.42851 3.04881
# Velocity P-wave (km/s) = 4.13767 5.94100 5.11937
#
# Compressibility (1/GPa) = 0.06401938
#
# Stress axis : x y z
#
# Youngs Moduli (GPa) = 62.97678 9.56344 56.49596
#
# Poissons Ratio (x) = 0.17491 0.06453
# Poissons Ratio (y) = 1.15179 0.99608
# Poissons Ratio (z) = 0.07193 0.16861
#
# Static dielectric constant tensor:
#      x y z
#    x 1.701260 0.000000 -0.022540 
#    y 0.000000 1.649430 0.000000 
#    z -0.022540 0.000000 1.662450 
# 
# From -- ./inp_files/54478.got.cif
#   From: 2010.05.17/outbox.cif.g08.bks.cpg/sg11_28_cif.got.tgz:54478.got - 2010.06.03 12:22:45.
