data_PCOD9161385
_publ_section_title
;
Structure prediction by ZEFSAII (Michael W. Deem and Ramdas Pophale) SiO2 
 PCOD9161385
Probable space group: P 21/M
;
_chemical_formula_sum "Si O2"
_cell_formula_units_Z 24
_cell_length_a 24.369265
_cell_length_b 8.811446
_cell_length_c 11.459280
_cell_angle_alpha 90.000000
_cell_angle_beta 35.046587
_cell_angle_gamma 90.000000
_cell_volume 1412.999876
_symmetry_space_group_name_H-M "P 21/M"
_symmetry_group_IT_number 11
_symmetry_cell_setting 'monoclinic'
loop_
_space_group_symop_operation_xyz
x,y,z
-x,1/2+y,-z
-x,-y,-z
x,1/2-y,z
loop_
_atom_site_type_symbol
_atom_site_label
_atom_site_fract_x
_atom_site_fract_y
_atom_site_fract_z
Si Si1 0.686082 0.568511 0.854207
Si Si2 0.143664 0.569870 0.298795
Si Si3 0.718264 0.931656 0.523471
Si Si4 0.477835 0.932060 0.166099
Si Si5 0.088617 0.569113 0.916742
Si Si6 0.945884 0.930325 0.771671
O O1 0.698103 0.750000 0.846611
O O2 0.759268 0.483216 0.809798
O O3 0.709216 0.532501 0.677884
O O4 0.574131 0.532100 0.070275
O O5 0.143897 0.750000 0.277078
O O6 0.120889 0.483403 0.218589
O O7 0.054406 0.536686 0.540679
O O8 0.720252 0.750000 0.508989
O O9 0.623769 0.996874 0.624561
O O10 0.813510 0.004067 0.306504
O O11 0.470099 0.750000 0.172168
O O12 0.500000 0.000000 0.000000
O O13 0.087269 0.750000 0.909527
O O14 0.078070 0.517707 0.068829
O O15 0.000000 0.500000 0.000000
O O16 0.937224 0.750000 0.805276
#
# Coordination Sequence:
#
# PCOD9161385 Si02
#       6
#     4   4   4   4   4   4
#     4   9  18  31  50  76 105 136 170 210 254 303
#     4  10  20  33  53  78 102 132 171 214 256 301
#     4  10  20  34  52  76 106 139 174 213 260 308
#     4   9  17  30  48  73 104 137 173 213 259 306
#     4  12  24  37  54  77 106 138 173 210 252 306
#     4  10  21  37  54  74 103 137 172 211 256 303
#
# _framework density 16.985139
#
# number of rings (size 3 to 8) (size 9 to 14) (size 15 to 20)
#    0.000    2.000    0.000    5.500    0.000    8.667 
#    0.000    0.000    0.000    1.000    0.000    0.000 
#    0.000    0.000    0.000    0.000    0.000    0.000 
#
# Total GULP energy -133946.114237 kJ/mol
# GULP energy per Si atom -5581.088093 kJ/mol
# Density = 1.694648 g / cm^3
# Si number density = 16.985139 Si / 1000 Ang^3
#
#
#
# Elastic Constant Matrix: (Units=GPa)
#
#
# Indices 1 2 3 4 5 6 
#
# 1 93.2354 52.5981 66.3324 0.0000 -28.2424 0.0000
# 2 52.5981 87.4090 63.0959 0.0000 -14.5151 0.0000
# 3 66.3324 63.0959 121.9423 0.0000 -24.9803 0.0000
# 4 0.0000 0.0000 0.0000 29.1648 0.0000 -4.1759
# 5 -28.2424 -14.5151 -24.9803 0.0000 30.7240 0.0000
# 6 0.0000 0.0000 0.0000 -4.1759 0.0000 32.4650
#
#
#
# Elastic Compliance Matrix: (Units=1/GPa)
#
#
# Indices 1 2 3 4 5 6 
#
# 1 0.023122 -0.007346 -0.006159 0.000000 0.012776 0.000000
# 2 -0.007346 0.020628 -0.007276 0.000000 -0.002923 0.000000
# 3 -0.006159 -0.007276 0.016140 0.000000 0.004024 0.000000
# 4 0.000000 0.000000 0.000000 0.034931 0.000000 0.004493
# 5 0.012776 -0.002923 0.004024 0.000000 0.046182 0.000000
# 6 0.000000 0.000000 0.000000 0.004493 0.000000 0.031380
#
#
# Mechanical properties :
#
#
# Convention : Reuss Voigt Hill
#
# Bulk Modulus (GPa) = 54.56477 74.07107 64.31792
# Shear Modulus (GPa) = 22.72162 26.50812 24.61487
#
# Velocity S-wave (km/s) = 3.66147 3.95481 3.81097
# Velocity P-wave (km/s) = 7.07601 8.03480 7.57060
#
# Compressibility (1/GPa) = 0.01832684
#
# Stress axis : x y z
#
# Youngs Moduli (GPa) = 43.24954 48.47851 61.95704
#
# Poissons Ratio (x) = 0.35611 0.38161
# Poissons Ratio (y) = 0.31770 0.45082
# Poissons Ratio (z) = 0.26639 0.35274
#
# Static dielectric constant tensor:
#      x y z
#    x 1.557160 0.000000 -0.020040 
#    y 0.000000 1.560450 0.000000 
#    z -0.020040 0.000000 1.561340 
# 
# From -- ./inp_files/42254.got.cif
#   From: 2010.05.17/outbox.cif.g08.bks.cpg/sg11_22_cif.got.tgz:42254.got - 2010.06.03 12:22:45.
