data_PCOD9161338
_publ_section_title
;
Structure prediction by ZEFSAII (Michael W. Deem and Ramdas Pophale) SiO2 
 PCOD9161338
Probable space group: P 21/M
;
_chemical_formula_sum "Si O2"
_cell_formula_units_Z 32
_cell_length_a 16.068407
_cell_length_b 9.693589
_cell_length_c 24.499446
_cell_angle_alpha 90.000000
_cell_angle_beta 28.838436
_cell_angle_gamma 90.000000
_cell_volume 1840.637431
_symmetry_space_group_name_H-M "P 21/M"
_symmetry_group_IT_number 11
_symmetry_cell_setting 'monoclinic'
loop_
_space_group_symop_operation_xyz
x,y,z
-x,1/2+y,-z
-x,-y,-z
x,1/2-y,z
loop_
_atom_site_type_symbol
_atom_site_label
_atom_site_fract_x
_atom_site_fract_y
_atom_site_fract_z
Si Si1 0.080176 0.098954 0.497677
Si Si2 0.736603 0.096294 0.761017
Si Si3 0.230639 0.085219 0.665751
Si Si4 0.495407 0.085948 0.421176
Si Si5 0.886424 0.589671 0.882196
Si Si6 0.332227 0.091940 0.103142
Si Si7 0.577020 0.585370 0.143160
Si Si8 0.463414 0.085087 0.311359
O O1 0.110441 0.250000 0.455383
O O2 0.261446 0.053223 0.417634
O O3 0.927665 0.110164 0.628327
O O4 0.000000 0.000000 0.500000
O O5 0.683037 0.250000 0.812756
O O6 0.592364 0.059824 0.797966
O O7 0.753188 0.979143 0.796176
O O8 0.219422 0.250000 0.681444
O O9 0.311861 0.065496 0.558031
O O10 0.368488 0.011171 0.626265
O O11 0.049190 0.010400 0.781417
O O12 0.536356 0.250000 0.404608
O O13 0.498686 0.055092 0.354769
O O14 0.941412 0.750000 0.859165
O O15 0.780061 0.584919 0.886915
O O16 0.749015 0.553791 0.008973
O O17 0.374676 0.250000 0.089727
O O18 0.500000 0.000000 0.000000
O O19 0.576627 0.750000 0.154577
O O20 0.562787 0.499823 0.207379
O O21 0.490184 0.250000 0.288376
#
# Coordination Sequence:
#
# PCOD9161338 Si02
#       8
#     4   4   4   4   4   4   4   4
#     4  10  20  33  52  77 111 150 189 230 274 324
#     4  10  20  35  52  74 111 153 190 234 282 326
#     4  10  21  38  64  91 111 140 183 226 277 341
#     4   9  20  40  62  85 117 146 172 225 290 336
#     4  10  22  39  56  80 115 151 186 229 285 333
#     4  11  22  36  54  79 111 150 193 233 277 330
#     4  10  20  37  56  77 112 155 191 229 279 326
#     4  10  21  36  56  84 113 147 190 230 277 333
#
# _framework density 17.385282
#
# number of rings (size 3 to 8) (size 9 to 14) (size 15 to 20)
#    0.000    2.000    2.500    0.750    1.750    3.500 
#    0.000    0.625    0.000    0.000    0.000    0.000 
#    0.000    0.000    0.000    0.000    0.000    0.000 
#
# Total GULP energy -178290.387227 kJ/mol
# GULP energy per Si atom -5571.574601 kJ/mol
# Density = 1.734571 g / cm^3
# Si number density = 17.385282 Si / 1000 Ang^3
#
#
#
# Elastic Constant Matrix: (Units=GPa)
#
#
# Indices 1 2 3 4 5 6 
#
# 1 84.7466 62.5855 49.8486 0.0000 23.4763 0.0000
# 2 62.5855 99.0833 70.1460 0.0000 13.8712 0.0000
# 3 49.8486 70.1460 119.0903 0.0000 12.5223 0.0000
# 4 0.0000 0.0000 0.0000 30.0395 0.0000 1.5307
# 5 23.4763 13.8712 12.5223 0.0000 28.8090 0.0000
# 6 0.0000 0.0000 0.0000 1.5307 0.0000 31.2542
#
#
#
# Elastic Compliance Matrix: (Units=1/GPa)
#
#
# Indices 1 2 3 4 5 6 
#
# 1 0.027088 -0.013929 -0.001591 0.000000 -0.014675 0.000000
# 2 -0.013929 0.024946 -0.009215 0.000000 0.003345 0.000000
# 3 -0.001591 -0.009215 0.014553 0.000000 -0.000593 0.000000
# 4 0.000000 0.000000 0.000000 0.033373 0.000000 -0.001634
# 5 -0.014675 0.003345 -0.000593 0.000000 0.045317 0.000000
# 6 0.000000 0.000000 0.000000 -0.001634 0.000000 0.032076
#
#
# Mechanical properties :
#
#
# Convention : Reuss Voigt Hill
#
# Bulk Modulus (GPa) = 58.42111 74.23117 66.32614
# Shear Modulus (GPa) = 21.50277 26.04320 23.77299
#
# Velocity S-wave (km/s) = 3.52069 3.87460 3.70188
# Velocity P-wave (km/s) = 7.08546 7.92510 7.51701
#
# Compressibility (1/GPa) = 0.01711710
#
# Stress axis : x y z
#
# Youngs Moduli (GPa) = 36.91729 40.08608 68.71477
#
# Poissons Ratio (x) = 0.55836 0.10930
# Poissons Ratio (y) = 0.51423 0.63321
# Poissons Ratio (z) = 0.05872 0.36940
#
# Static dielectric constant tensor:
#      x y z
#    x 1.568900 0.000000 0.009320 
#    y 0.000000 1.576740 0.000000 
#    z 0.009320 0.000000 1.563700 
# 
# From -- ./inp_files/69046.got.cif
#   From: 2010.05.17/outbox.cif.g08.bks.cpg/sg11_35_cif.got.tgz:69046.got - 2010.06.03 12:22:45.
