data_PCOD9161991
_publ_section_title
;
Structure prediction by ZEFSAII (Michael W. Deem and Ramdas Pophale) SiO2 
 PCOD9161991
Probable space group: P 21/M
;
_chemical_formula_sum "Si O2"
_cell_formula_units_Z 32
_cell_length_a 12.581514
_cell_length_b 8.526713
_cell_length_c 29.949701
_cell_angle_alpha 90.000000
_cell_angle_beta 145.971292
_cell_angle_gamma 90.000000
_cell_volume 1798.005965
_symmetry_space_group_name_H-M "P 21/M"
_symmetry_group_IT_number 11
_symmetry_cell_setting 'monoclinic'
loop_
_space_group_symop_operation_xyz
x,y,z
-x,1/2+y,-z
-x,-y,-z
x,1/2-y,z
loop_
_atom_site_type_symbol
_atom_site_label
_atom_site_fract_x
_atom_site_fract_y
_atom_site_fract_z
Si Si1 0.427479 0.437912 0.779196
Si Si2 0.799566 0.937898 0.483810
Si Si3 0.189192 0.062246 0.043019
Si Si4 0.317753 0.938319 0.462808
Si Si5 0.759493 0.062205 0.372961
Si Si6 0.686913 0.560383 0.010227
Si Si7 0.260273 0.060574 0.872958
Si Si8 0.074923 0.441021 0.718961
O O1 0.435884 0.250000 0.783748
O O2 0.623216 0.505338 0.865955
O O3 0.378364 0.492553 0.712262
O O4 0.251848 0.490402 0.749598
O O5 0.791877 0.750000 0.480889
O O6 0.022880 0.986151 0.563222
O O7 0.694601 0.002613 0.490675
O O8 0.722174 0.001942 0.409920
O O9 0.185864 0.250000 0.042165
O O10 0.207746 0.008643 0.997879
O O11 0.000000 0.000000 0.000000
O O12 0.319258 0.750000 0.463279
O O13 0.124457 0.993650 0.370831
O O14 0.500000 0.000000 0.500000
O O15 0.750917 0.250000 0.369157
O O16 0.678859 0.750000 0.007297
O O17 0.776929 0.510329 0.088957
O O18 0.471721 0.497378 0.934682
O O19 0.262330 0.250000 0.873001
O O20 0.117932 0.007600 0.784582
O O21 0.072759 0.250000 0.717775
#
# Coordination Sequence:
#
# PCOD9161991 Si02
#       8
#     4   4   4   4   4   4   4   4
#     4  11  20  35  58  85 111 144 189 234 281 337
#     4  10  20  35  56  83 113 149 189 231 283 340
#     4  11  23  38  54  79 113 152 190 232 283 338
#     4  11  22  38  56  80 114 152 191 235 287 345
#     4  10  20  34  56  86 116 145 182 234 285 335
#     4   9  18  31  51  79 109 137 175 223 273 325
#     4   9  16  31  54  80 106 136 173 220 273 326
#     4   9  18  32  55  82 108 140 183 229 277 335
#
# _framework density 17.797494
#
# number of rings (size 3 to 8) (size 9 to 14) (size 15 to 20)
#    0.000    2.000    2.500    1.875    0.000    1.500 
#    0.000    2.500    0.000    3.000    0.000    0.000 
#    0.000    0.000    0.000    0.000    0.000    0.000 
#
# Total GULP energy -178595.706019 kJ/mol
# GULP energy per Si atom -5581.115813 kJ/mol
# Density = 1.775699 g / cm^3
# Si number density = 17.797494 Si / 1000 Ang^3
#
#
#
# Elastic Constant Matrix: (Units=GPa)
#
#
# Indices 1 2 3 4 5 6 
#
# 1 178.3361 35.9469 93.5935 0.0000 -15.6653 0.0000
# 2 35.9469 34.1579 24.2060 0.0000 -1.4932 0.0000
# 3 93.5935 24.2060 121.1974 0.0000 -11.1311 0.0000
# 4 0.0000 0.0000 0.0000 24.3331 0.0000 1.5271
# 5 -15.6653 -1.4932 -11.1311 0.0000 31.3993 0.0000
# 6 0.0000 0.0000 0.0000 1.5271 0.0000 25.0031
#
#
#
# Elastic Compliance Matrix: (Units=1/GPa)
#
#
# Indices 1 2 3 4 5 6 
#
# 1 0.010632 -0.006321 -0.006707 0.000000 0.002626 0.000000
# 2 -0.006321 0.037881 -0.002903 0.000000 -0.002381 0.000000
# 3 -0.006707 -0.002903 0.014151 0.000000 0.001532 0.000000
# 4 0.000000 0.000000 0.000000 0.041254 0.000000 -0.002520
# 5 0.002626 -0.002381 0.001532 0.000000 0.033588 0.000000
# 6 0.000000 0.000000 0.000000 -0.002520 0.000000 0.040149
#
#
# Mechanical properties :
#
#
# Convention : Reuss Voigt Hill
#
# Bulk Modulus (GPa) = 32.46539 71.24267 51.85403
# Shear Modulus (GPa) = 22.74952 28.14346 25.44649
#
# Velocity S-wave (km/s) = 3.57913 3.98089 3.78534
# Velocity P-wave (km/s) = 5.94654 7.82601 6.95010
#
# Compressibility (1/GPa) = 0.03080204
#
# Stress axis : x y z
#
# Youngs Moduli (GPa) = 94.05485 26.39826 70.66747
#
# Poissons Ratio (x) = 0.16687 0.47395
# Poissons Ratio (y) = 0.59455 0.20514
# Poissons Ratio (z) = 0.63081 0.07663
#
# Static dielectric constant tensor:
#      x y z
#    x 1.609250 0.000000 -0.027140 
#    y 0.000000 1.606990 0.000000 
#    z -0.027140 0.000000 1.592290 
# 
# From -- ./inp_files/73165.got.cif
#   From: 2010.05.17/outbox.cif.g08.bks.cpg/sg11_37_cif.got.tgz:73165.got - 2010.06.03 12:22:45.
