data_PCOD9161987
_publ_section_title
;
Structure prediction by ZEFSAII (Michael W. Deem and Ramdas Pophale) SiO2 
 PCOD9161987
Probable space group: P 21/M
;
_chemical_formula_sum "Si O2"
_cell_formula_units_Z 32
_cell_length_a 9.078039
_cell_length_b 14.890521
_cell_length_c 18.665349
_cell_angle_alpha 90.000000
_cell_angle_beta 143.334607
_cell_angle_gamma 90.000000
_cell_volume 1506.658303
_symmetry_space_group_name_H-M "P 21/M"
_symmetry_group_IT_number 11
_symmetry_cell_setting 'monoclinic'
loop_
_space_group_symop_operation_xyz
x,y,z
-x,1/2+y,-z
-x,-y,-z
x,1/2-y,z
loop_
_atom_site_type_symbol
_atom_site_label
_atom_site_fract_x
_atom_site_fract_y
_atom_site_fract_z
Si Si1 0.670922 0.146369 0.655354
Si Si2 0.578951 0.858603 0.588466
Si Si3 0.160963 0.027474 0.653070
Si Si4 0.593326 0.925381 0.752764
Si Si5 0.126374 0.564494 0.777778
Si Si6 0.584095 0.845097 0.893267
Si Si7 0.058606 0.478718 0.890424
Si Si8 0.132226 0.147329 0.518907
O O1 0.751516 0.250000 0.683935
O O2 0.601965 0.116267 0.547496
O O3 0.871738 0.085405 0.772641
O O4 0.412852 0.144614 0.599030
O O5 0.588783 0.750000 0.596146
O O6 0.515856 0.899080 0.641924
O O7 0.849917 0.896645 0.674187
O O8 0.424733 0.003028 0.721022
O O9 0.154283 0.020831 0.735543
O O10 0.000075 0.938843 0.568955
O O11 0.096124 0.119880 0.588380
O O12 0.565455 0.848404 0.800405
O O13 0.875442 0.955779 0.860651
O O14 0.314520 0.636825 0.819787
O O15 0.199857 0.535987 0.885977
O O16 0.683264 0.750000 0.956687
O O17 0.761082 0.923161 0.989800
O O18 0.044629 0.250000 0.471229
#
# Coordination Sequence:
#
# PCOD9161987 Si02
#       8
#     4   4   4   4   4   4   4   4
#     4  10  20  35  59  89 123 159 193 237 293 353
#     4  10  20  36  58  90 123 155 195 245 296 350
#     4  10  20  37  56  86 119 159 199 245 295 352
#     4  10  22  37  60  87 116 151 198 249 296 346
#     4  10  22  37  61  84 116 153 198 244 300 347
#     4  11  23  41  63  86 113 152 200 248 294 352
#     4  11  22  40  60  87 117 156 194 240 293 358
#     4  10  20  34  56  85 122 164 201 240 293 356
#
# _framework density 21.239056000000001
#
# number of rings (size 3 to 8) (size 9 to 14) (size 15 to 20)
#    0.000    1.750    2.500    1.875    0.000    6.500 
#    0.000    2.500    0.000    0.000    0.000    0.000 
#    0.000    0.000    0.000    0.000    0.000    0.000 
#
# Total GULP energy -178679.127443 kJ/mol
# GULP energy per Si atom -5583.722733 kJ/mol
# Density = 2.119071 g / cm^3
# Si number density = 21.239056 Si / 1000 Ang^3
#
#
#
# Elastic Constant Matrix: (Units=GPa)
#
#
# Indices 1 2 3 4 5 6 
#
# 1 123.5776 21.5688 21.8613 0.0000 -4.8350 0.0000
# 2 21.5688 68.3677 6.1985 0.0000 -3.4411 0.0000
# 3 21.8613 6.1985 46.8333 0.0000 -3.8273 0.0000
# 4 0.0000 0.0000 0.0000 29.6903 0.0000 -1.4610
# 5 -4.8350 -3.4411 -3.8273 0.0000 23.6321 0.0000
# 6 0.0000 0.0000 0.0000 -1.4610 0.0000 5.9226
#
#
#
# Elastic Compliance Matrix: (Units=1/GPa)
#
#
# Indices 1 2 3 4 5 6 
#
# 1 0.009260 -0.002521 -0.003916 0.000000 0.000893 0.000000
# 2 -0.002521 0.015572 -0.000751 0.000000 0.001630 0.000000
# 3 -0.003916 -0.000751 0.023516 0.000000 0.002898 0.000000
# 4 0.000000 0.000000 0.000000 0.034095 0.000000 0.008410
# 5 0.000893 0.001630 0.002898 0.000000 0.043205 0.000000
# 6 0.000000 0.000000 0.000000 0.008410 0.000000 0.170919
#
#
# Mechanical properties :
#
#
# Convention : Reuss Voigt Hill
#
# Bulk Modulus (GPa) = 29.43541 37.55953 33.49747
# Shear Modulus (GPa) = 15.51508 24.45899 19.98704
#
# Velocity S-wave (km/s) = 2.70570 3.39721 3.07098
# Velocity P-wave (km/s) = 4.86316 5.75418 5.32733
#
# Compressibility (1/GPa) = 0.03397269
#
# Stress axis : x y z
#
# Youngs Moduli (GPa) = 107.99384 64.21636 42.52361
#
# Poissons Ratio (x) = 0.16191 0.16651
# Poissons Ratio (y) = 0.27229 0.03193
# Poissons Ratio (z) = 0.42287 0.04822
#
# Static dielectric constant tensor:
#      x y z
#    x 1.791760 0.000000 -0.024230 
#    y 0.000000 1.771180 0.000000 
#    z -0.024230 0.000000 1.787670 
# 
# From -- ./inp_files/63821.got.cif
#   From: 2010.05.17/outbox.cif.g08.bks.cpg/sg11_32_cif.got.tgz:63821.got - 2010.06.03 12:22:45.
