data_PCOD9161278
_publ_section_title
;
Structure prediction by ZEFSAII (Michael W. Deem and Ramdas Pophale) SiO2 
 PCOD9161278
Probable space group: P 21/M
;
_chemical_formula_sum "Si O2"
_cell_formula_units_Z 32
_cell_length_a 12.411181
_cell_length_b 7.983782
_cell_length_c 24.000771
_cell_angle_alpha 90.000000
_cell_angle_beta 43.443319
_cell_angle_gamma 90.000000
_cell_volume 1635.332195
_symmetry_space_group_name_H-M "P 21/M"
_symmetry_group_IT_number 11
_symmetry_cell_setting 'monoclinic'
loop_
_space_group_symop_operation_xyz
x,y,z
-x,1/2+y,-z
-x,-y,-z
x,1/2-y,z
loop_
_atom_site_type_symbol
_atom_site_label
_atom_site_fract_x
_atom_site_fract_y
_atom_site_fract_z
Si Si1 0.482924 0.440267 0.837783
Si Si2 0.144719 0.940564 0.982994
Si Si3 0.750090 0.548450 0.404709
Si Si4 0.576997 0.450045 0.260004
Si Si5 0.517016 0.547263 0.583475
Si Si6 0.924988 0.446384 0.151569
Si Si7 0.026138 0.546741 0.230563
Si Si8 0.612597 0.452718 0.906083
O O1 0.538566 0.250000 0.814271
O O2 0.506064 0.513295 0.767330
O O3 0.553066 0.517387 0.868072
O O4 0.296536 0.448972 0.917931
O O5 0.187786 0.750000 0.953255
O O6 0.072628 0.955860 0.071312
O O7 0.000000 0.000000 0.000000
O O8 0.751733 0.750000 0.407023
O O9 0.669237 0.486393 0.491947
O O10 0.631189 0.501155 0.399295
O O11 0.926020 0.495610 0.322542
O O12 0.587938 0.250000 0.261168
O O13 0.501315 0.513710 0.346080
O O14 0.758525 0.509658 0.190777
O O15 0.521920 0.750000 0.583406
O O16 0.942811 0.250000 0.130867
O O17 0.930377 0.471857 0.215032
O O18 0.023652 0.750000 0.228195
O O19 0.206343 0.492821 0.157208
O O20 0.609886 0.250000 0.905422
O O21 0.500000 0.500000 0.000000
#
# Coordination Sequence:
#
# PCOD9161278 Si02
#       8
#     4   4   4   4   4   4   4   4
#     4  11  23  38  56  77 103 138 182 223 267 319
#     4  12  23  35  51  73 102 135 170 213 262 316
#     4   9  17  29  51  79 107 141 177 214 262 318
#     4  10  20  33  51  75 109 144 173 211 263 318
#     4   9  17  31  49  76 112 143 172 212 263 319
#     4  11  21  33  50  77 109 140 174 214 262 315
#     4  10  20  35  55  79 107 140 181 224 268 318
#     4  10  23  41  58  78 104 139 182 228 269 311
#
# _framework density 19.567889999999998
#
# number of rings (size 3 to 8) (size 9 to 14) (size 15 to 20)
#    0.000    1.750    2.500    2.625    0.000    4.500 
#    0.000    0.000    0.000    0.750    0.000    0.000 
#    0.000    0.000    0.000    0.000    0.000    0.125 
#
# Total GULP energy -178479.996427 kJ/mol
# GULP energy per Si atom -5577.499888 kJ/mol
# Density = 1.952335 g / cm^3
# Si number density = 19.567890 Si / 1000 Ang^3
#
#
#
# Elastic Constant Matrix: (Units=GPa)
#
#
# Indices 1 2 3 4 5 6 
#
# 1 78.4549 -0.2505 40.0656 0.0000 11.3366 0.0000
# 2 -0.2505 22.4512 5.1014 0.0000 -0.1795 0.0000
# 3 40.0656 5.1014 160.9506 0.0000 11.6328 0.0000
# 4 0.0000 0.0000 0.0000 19.0141 0.0000 5.3304
# 5 11.3366 -0.1795 11.6328 0.0000 32.7529 0.0000
# 6 0.0000 0.0000 0.0000 5.3304 0.0000 15.2389
#
#
#
# Elastic Compliance Matrix: (Units=1/GPa)
#
#
# Indices 1 2 3 4 5 6 
#
# 1 0.015114 0.000933 -0.003504 0.000000 -0.003982 0.000000
# 2 0.000933 0.044941 -0.001695 0.000000 0.000525 0.000000
# 3 -0.003504 -0.001695 0.007238 0.000000 -0.001367 0.000000
# 4 0.000000 0.000000 0.000000 0.058311 0.000000 -0.020397
# 5 -0.003982 0.000525 -0.001367 0.000000 0.032398 0.000000
# 6 0.000000 0.000000 0.000000 -0.020397 0.000000 0.072756
#
#
# Mechanical properties :
#
#
# Convention : Reuss Voigt Hill
#
# Bulk Modulus (GPa) = 17.01803 39.07661 28.04732
# Shear Modulus (GPa) = 19.31423 27.86384 23.58904
#
# Velocity S-wave (km/s) = 3.14512 3.77763 3.47579
# Velocity P-wave (km/s) = 4.68026 6.24823 5.52020
#
# Compressibility (1/GPa) = 0.05876120
#
# Stress axis : x y z
#
# Youngs Moduli (GPa) = 66.16381 22.25150 138.16170
#
# Poissons Ratio (x) = -0.02076 0.48414
# Poissons Ratio (y) = -0.06173 0.23414
# Poissons Ratio (z) = 0.23185 0.03771
#
# Static dielectric constant tensor:
#      x y z
#    x 1.683200 0.000000 0.033340 
#    y 0.000000 1.697200 0.000000 
#    z 0.033340 0.000000 1.758810 
# 
# From -- ./inp_files/64336.got.cif
#   From: 2010.05.17/outbox.cif.g08.bks.cpg/sg11_33_cif.got.tgz:64336.got - 2010.06.03 12:22:45.
