data_PCOD9161892
_publ_section_title
;
Structure prediction by ZEFSAII (Michael W. Deem and Ramdas Pophale) SiO2 
 PCOD9161892
Probable space group: P 21/M
;
_chemical_formula_sum "Si O2"
_cell_formula_units_Z 28
_cell_length_a 18.981022
_cell_length_b 7.846329
_cell_length_c 11.045721
_cell_angle_alpha 90.000000
_cell_angle_beta 129.826162
_cell_angle_gamma 90.000000
_cell_volume 1263.386983
_symmetry_space_group_name_H-M "P 21/M"
_symmetry_group_IT_number 11
_symmetry_cell_setting 'monoclinic'
loop_
_space_group_symop_operation_xyz
x,y,z
-x,1/2+y,-z
-x,-y,-z
x,1/2-y,z
loop_
_atom_site_type_symbol
_atom_site_label
_atom_site_fract_x
_atom_site_fract_y
_atom_site_fract_z
Si Si1 0.646909 0.543882 0.485141
Si Si2 0.686866 0.045533 0.164984
Si Si3 0.808858 0.047458 0.517275
Si Si4 0.196526 0.953086 0.951291
Si Si5 0.993520 0.449678 0.351457
Si Si6 0.627698 0.552016 0.730966
Si Si7 0.482499 0.552399 0.157630
O O1 0.641350 0.750000 0.479236
O O2 0.751210 0.493096 0.573419
O O3 0.612685 0.485645 0.578947
O O4 0.579554 0.475236 0.304983
O O5 0.676104 0.250000 0.169715
O O6 0.743730 0.973465 0.339225
O O7 0.751665 0.023738 0.119825
O O8 0.586526 0.975276 0.018128
O O9 0.814004 0.250000 0.507670
O O10 0.911165 0.982478 0.611301
O O11 0.195026 0.750000 0.976630
O O12 0.094408 0.023060 0.816472
O O13 0.263636 0.038434 0.121717
O O14 0.975659 0.250000 0.335155
O O15 0.000000 0.500000 0.500000
O O16 0.600433 0.750000 0.708804
O O17 0.575461 0.454383 0.780204
O O18 0.497101 0.750000 0.142847
#
# Coordination Sequence:
#
# PCOD9161892 Si02
#       7
#     4   4   4   4   4   4   4
#     4  10  22  38  53  76 111 150 185 226 274 320
#     4   8  15  31  52  78 108 137 173 219 266 316
#     4  11  22  36  54  80 113 146 184 225 269 326
#     4   9  18  35  57  80 109 141 176 220 272 324
#     4  11  21  36  59  85 112 142 178 221 270 327
#     4  10  20  34  55  83 111 137 183 236 271 315
#     4   9  18  35  58  78 106 146 184 222 274 328
#
# _framework density 22.162645999999999
#
# number of rings (size 3 to 8) (size 9 to 14) (size 15 to 20)
#    0.000    2.286    1.429    2.571    0.000    3.429 
#    0.000    1.429    0.000    0.000    0.000    0.000 
#    0.000    0.000    0.000    0.000    0.000    0.000 
#
# Total GULP energy -156323.593177 kJ/mol
# GULP energy per Si atom -5582.985471 kJ/mol
# Density = 2.211220 g / cm^3
# Si number density = 22.162646 Si / 1000 Ang^3
#
#
#
# Elastic Constant Matrix: (Units=GPa)
#
#
# Indices 1 2 3 4 5 6 
#
# 1 67.7567 -2.6047 12.5417 0.0000 31.0400 0.0000
# 2 -2.6047 40.7298 3.1522 0.0000 -2.1490 0.0000
# 3 12.5417 3.1522 70.7899 0.0000 25.7975 0.0000
# 4 0.0000 0.0000 0.0000 16.6092 0.0000 1.8751
# 5 31.0400 -2.1490 25.7975 0.0000 39.1387 0.0000
# 6 0.0000 0.0000 0.0000 1.8751 0.0000 23.3526
#
#
#
# Elastic Compliance Matrix: (Units=1/GPa)
#
#
# Indices 1 2 3 4 5 6 
#
# 1 0.023825 0.000135 0.003496 0.000000 -0.021192 0.000000
# 2 0.000135 0.024862 -0.002092 0.000000 0.002637 0.000000
# 3 0.003496 -0.002092 0.019285 0.000000 -0.015598 0.000000
# 4 0.000000 0.000000 0.000000 0.060758 0.000000 -0.004879
# 5 -0.021192 0.002637 -0.015598 0.000000 0.052783 0.000000
# 6 0.000000 0.000000 0.000000 -0.004879 0.000000 0.043213
#
#
# Mechanical properties :
#
#
# Convention : Reuss Voigt Hill
#
# Bulk Modulus (GPa) = 14.07484 22.82831 18.45158
# Shear Modulus (GPa) = 20.38060 26.89924 23.63992
#
# Velocity S-wave (km/s) = 3.03577 3.48763 3.26951
# Velocity P-wave (km/s) = 4.31884 5.15177 4.75358
#
# Compressibility (1/GPa) = 0.07104874
#
# Stress axis : x y z
#
# Youngs Moduli (GPa) = 41.97276 40.22248 51.85511
#
# Poissons Ratio (x) = -0.00543 -0.18127
# Poissons Ratio (y) = -0.00566 0.10848
# Poissons Ratio (z) = -0.14673 0.08414
#
# Static dielectric constant tensor:
#      x y z
#    x 1.828470 0.000000 0.024860 
#    y 0.000000 1.793670 0.000000 
#    z 0.024860 0.000000 1.877900 
# 
# From -- ./inp_files/42625.got.cif
#   From: 2010.05.17/outbox.cif.g08.bks.cpg/sg11_22_cif.got.tgz:42625.got - 2010.06.03 12:22:45.
