data_PCOD9161555
_publ_section_title
;
Structure prediction by ZEFSAII (Michael W. Deem and Ramdas Pophale) SiO2 
 PCOD9161555
Probable space group: P 21/M
;
_chemical_formula_sum "Si O2"
_cell_formula_units_Z 28
_cell_length_a 28.223189
_cell_length_b 9.009553
_cell_length_c 7.497101
_cell_angle_alpha 90.000000
_cell_angle_beta 132.066227
_cell_angle_gamma 90.000000
_cell_volume 1415.218923
_symmetry_space_group_name_H-M "P 21/M"
_symmetry_group_IT_number 11
_symmetry_cell_setting 'monoclinic'
loop_
_space_group_symop_operation_xyz
x,y,z
-x,1/2+y,-z
-x,-y,-z
x,1/2-y,z
loop_
_atom_site_type_symbol
_atom_site_label
_atom_site_fract_x
_atom_site_fract_y
_atom_site_fract_z
Si Si1 0.659360 0.572861 0.238251
Si Si2 0.065362 0.416834 0.127972
Si Si3 0.199715 0.070484 0.426896
Si Si4 0.335743 0.571755 0.359850
Si Si5 0.569536 0.928340 0.685107
Si Si6 0.193260 0.573263 0.019218
Si Si7 0.933998 0.582361 0.299345
O O1 0.657044 0.750000 0.269865
O O2 0.728900 0.543351 0.323531
O O3 0.655578 0.486837 0.415708
O O4 0.604019 0.535521 0.959870
O O5 0.058025 0.250000 0.177915
O O6 0.134845 0.476555 0.364407
O O7 0.071967 0.413043 0.930226
O O8 0.000000 0.500000 0.000000
O O9 0.193907 0.250000 0.385997
O O10 0.199066 0.985874 0.236759
O O11 0.342689 0.750000 0.374140
O O12 0.386166 0.494002 0.358853
O O13 0.262747 0.535798 0.115539
O O14 0.566010 0.750000 0.661060
O O15 0.500000 0.000000 0.500000
O O16 0.185311 0.750000 0.997121
O O17 0.129061 0.497532 0.785620
O O18 0.937007 0.750000 0.373700
O O19 0.000000 0.500000 0.500000
#
# Coordination Sequence:
#
# PCOD9161555 Si02
#       7
#     4   4   4   4   4   4   4
#     4   9  19  38  63  87 113 150 198 244 289 345
#     4   9  18  31  48  71 103 137 174 221 273 329
#     4   8  15  31  53  75 102 137 182 231 275 326
#     4  10  21  38  62  90 120 154 193 240 295 353
#     4  11  24  41  62  89 123 158 195 243 294 351
#     4   9  17  31  53  79 107 140 182 228 278 337
#     4  10  20  34  51  73 104 142 184 231 280 332
#
# _framework density 19.784925999999999
#
# number of rings (size 3 to 8) (size 9 to 14) (size 15 to 20)
#    0.000    2.571    0.000    2.571    0.000    6.286 
#    2.571    0.000    0.000    0.000    0.000    0.000 
#    0.000    0.000    0.000    0.000    0.000    0.000 
#
# Total GULP energy -156097.699370 kJ/mol
# GULP energy per Si atom -5574.917835 kJ/mol
# Density = 1.973989 g / cm^3
# Si number density = 19.784926 Si / 1000 Ang^3
#
#
#
# Elastic Constant Matrix: (Units=GPa)
#
#
# Indices 1 2 3 4 5 6 
#
# 1 128.4167 58.3345 64.5126 0.0000 35.0160 0.0000
# 2 58.3345 77.4575 59.5551 0.0000 28.2017 0.0000
# 3 64.5126 59.5551 133.8824 0.0000 39.8400 0.0000
# 4 0.0000 0.0000 0.0000 28.5494 0.0000 8.8625
# 5 35.0160 28.2017 39.8400 0.0000 47.0445 0.0000
# 6 0.0000 0.0000 0.0000 8.8625 0.0000 24.8377
#
#
#
# Elastic Compliance Matrix: (Units=1/GPa)
#
#
# Indices 1 2 3 4 5 6 
#
# 1 0.012948 -0.006746 -0.002104 0.000000 -0.003812 0.000000
# 2 -0.006746 0.024415 -0.006349 0.000000 -0.004239 0.000000
# 3 -0.002104 -0.006349 0.012980 0.000000 -0.005620 0.000000
# 4 0.000000 0.000000 0.000000 0.039390 0.000000 -0.014055
# 5 -0.003812 -0.004239 -0.005620 0.000000 0.031394 0.000000
# 6 0.000000 0.000000 0.000000 -0.014055 0.000000 0.045276
#
#
# Mechanical properties :
#
#
# Convention : Reuss Voigt Hill
#
# Bulk Modulus (GPa) = 50.13677 78.28455 64.21066
# Shear Modulus (GPa) = 24.57621 30.57661 27.57641
#
# Velocity S-wave (km/s) = 3.52826 3.93549 3.73743
# Velocity P-wave (km/s) = 6.48029 7.76559 7.15187
#
# Compressibility (1/GPa) = 0.01994544
#
# Stress axis : x y z
#
# Youngs Moduli (GPa) = 77.23340 40.95782 77.04353
#
# Poissons Ratio (x) = 0.27628 0.16211
# Poissons Ratio (y) = 0.52098 0.48915
# Poissons Ratio (z) = 0.16251 0.26004
#
# Static dielectric constant tensor:
#      x y z
#    x 1.707520 0.000000 0.011090 
#    y 0.000000 1.672650 0.000000 
#    z 0.011090 0.000000 1.737700 
# 
# From -- ./inp_files/29088.got.cif
#   From: 2010.05.17/outbox.cif.g08.bks.cpg/sg11_15_cif.got.tgz:29088.got - 2010.06.03 12:22:45.
