data_PCOD9161781
_publ_section_title
;
Structure prediction by ZEFSAII (Michael W. Deem and Ramdas Pophale) SiO2 
 PCOD9161781
Probable space group: P 21/M
;
_chemical_formula_sum "Si O2"
_cell_formula_units_Z 32
_cell_length_a 32.123730
_cell_length_b 8.268568
_cell_length_c 11.607002
_cell_angle_alpha 90.000000
_cell_angle_beta 147.319137
_cell_angle_gamma 90.000000
_cell_volume 1664.705031
_symmetry_space_group_name_H-M "P 21/M"
_symmetry_group_IT_number 11
_symmetry_cell_setting 'monoclinic'
loop_
_space_group_symop_operation_xyz
x,y,z
-x,1/2+y,-z
-x,-y,-z
x,1/2-y,z
loop_
_atom_site_type_symbol
_atom_site_label
_atom_site_fract_x
_atom_site_fract_y
_atom_site_fract_z
Si Si1 0.367922 0.945048 0.462267
Si Si2 0.013915 0.054235 0.162804
Si Si3 0.515692 0.556180 0.666153
Si Si4 0.825545 0.945353 0.353568
Si Si5 0.208031 0.443544 0.982769
Si Si6 0.703084 0.447145 0.467375
Si Si7 0.135582 0.554721 0.045988
Si Si8 0.323750 0.556267 0.853981
O O1 0.370580 0.750000 0.470960
O O2 0.446304 0.004436 0.586604
O O3 0.351756 0.001063 0.555409
O O4 0.292962 0.992974 0.213689
O O5 0.014002 0.250000 0.164818
O O6 0.095965 0.996957 0.403093
O O7 0.943244 0.998923 0.078962
O O8 0.000000 0.000000 0.000000
O O9 0.500000 0.500000 0.500000
O O10 0.514765 0.750000 0.665892
O O11 0.598066 0.498269 0.902913
O O12 0.788677 0.750000 0.011380
O O13 0.817558 0.001766 0.202810
O O14 0.750771 0.996560 0.250697
O O15 0.171859 0.250000 0.642544
O O16 0.151307 0.496440 0.953233
O O17 0.701880 0.250000 0.463564
O O18 0.789949 0.495903 0.704976
O O19 0.680231 0.503572 0.287533
O O20 0.135395 0.750000 0.043579
O O21 0.321890 0.750000 0.847795
#
# Coordination Sequence:
#
# PCOD9161781 Si02
#       8
#     4   4   4   4   4   4   4   4
#     4   9  19  37  58  78 105 143 181 218 266 323
#     4  10  21  37  57  81 110 145 183 227 277 325
#     4  11  23  38  57  81 110 144 182 225 273 323
#     4  10  22  38  54  77 112 146 179 225 276 323
#     4  10  20  34  54  80 109 141 178 222 269 318
#     4   8  16  33  55  78 105 137 175 217 261 316
#     4   9  18  35  57  79 108 145 181 220 269 323
#     4  11  22  36  57  82 108 142 183 224 269 323
#
# _framework density 19.222624
#
# number of rings (size 3 to 8) (size 9 to 14) (size 15 to 20)
#    0.000    2.250    0.000    3.375    0.000    7.000 
#    0.000    6.250    0.000    0.000    0.000    0.000 
#    0.000    0.000    0.000    0.000    0.000    0.000 
#
# Total GULP energy -178683.391062 kJ/mol
# GULP energy per Si atom -5583.855971 kJ/mol
# Density = 1.917887 g / cm^3
# Si number density = 19.222624 Si / 1000 Ang^3
#
#
#
# Elastic Constant Matrix: (Units=GPa)
#
#
# Indices 1 2 3 4 5 6 
#
# 1 188.8953 13.9388 137.8816 0.0000 0.3969 0.0000
# 2 13.9388 8.1905 10.7713 0.0000 -0.5345 0.0000
# 3 137.8816 10.7713 166.7177 0.0000 -3.7034 0.0000
# 4 0.0000 0.0000 0.0000 16.5851 0.0000 -6.4284
# 5 0.3969 -0.5345 -3.7034 0.0000 44.4611 0.0000
# 6 0.0000 0.0000 0.0000 -6.4284 0.0000 23.1340
#
#
#
# Elastic Compliance Matrix: (Units=1/GPa)
#
#
# Indices 1 2 3 4 5 6 
#
# 1 0.014048 -0.009475 -0.011032 0.000000 -0.001158 0.000000
# 2 -0.009475 0.139855 -0.001162 0.000000 0.001669 0.000000
# 3 -0.011032 -0.001162 0.015227 0.000000 0.001353 0.000000
# 4 0.000000 0.000000 0.000000 0.067573 0.000000 0.018777
# 5 -0.001158 0.001669 0.001353 0.000000 0.022635 0.000000
# 6 0.000000 0.000000 0.000000 0.018777 0.000000 0.048444
#
#
# Mechanical properties :
#
#
# Convention : Reuss Voigt Hill
#
# Bulk Modulus (GPa) = 7.94965 76.55410 42.25188
# Shear Modulus (GPa) = 12.72098 30.25016 21.48557
#
# Velocity S-wave (km/s) = 2.57528 3.97126 3.34686
# Velocity P-wave (km/s) = 3.60379 7.80637 6.07975
#
# Compressibility (1/GPa) = 0.12579170
#
# Stress axis : x y z
#
# Youngs Moduli (GPa) = 71.18406 7.15025 65.67261
#
# Poissons Ratio (x) = 0.06775 0.72449
# Poissons Ratio (y) = 0.67448 0.07634
# Poissons Ratio (z) = 0.78529 0.00831
#
# Static dielectric constant tensor:
#      x y z
#    x 1.663000 0.000000 0.000290 
#    y 0.000000 1.675310 0.000000 
#    z 0.000290 0.000000 1.634280 
# 
# From -- ./inp_files/45317.got.cif
#   From: 2010.05.17/outbox.cif.g08.bks.cpg/sg11_23_cif.got.tgz:45317.got - 2010.06.03 12:22:45.
