data_PCOD9161442
_publ_section_title
;
Structure prediction by ZEFSAII (Michael W. Deem and Ramdas Pophale) SiO2 
 PCOD9161442
Probable space group: P 21/M
;
_chemical_formula_sum "Si O2"
_cell_formula_units_Z 28
_cell_length_a 21.998043
_cell_length_b 8.347921
_cell_length_c 17.250203
_cell_angle_alpha 90.000000
_cell_angle_beta 154.608846
_cell_angle_gamma 90.000000
_cell_volume 1358.335244
_symmetry_space_group_name_H-M "P 21/M"
_symmetry_group_IT_number 11
_symmetry_cell_setting 'monoclinic'
loop_
_space_group_symop_operation_xyz
x,y,z
-x,1/2+y,-z
-x,-y,-z
x,1/2-y,z
loop_
_atom_site_type_symbol
_atom_site_label
_atom_site_fract_x
_atom_site_fract_y
_atom_site_fract_z
Si Si1 0.587207 0.557149 0.484485
Si Si2 0.414011 0.928337 0.828664
Si Si3 0.958413 0.444279 0.182456
Si Si4 0.715954 0.558374 0.471143
Si Si5 0.096743 0.061113 0.714657
Si Si6 0.192422 0.430305 0.667317
Si Si7 0.708733 0.056612 0.783869
O O1 0.582741 0.750000 0.474495
O O2 0.653219 0.496185 0.480106
O O3 0.426711 0.503289 0.320050
O O4 0.682156 0.509450 0.667540
O O5 0.461779 0.750000 0.867849
O O6 0.391761 0.018638 0.722631
O O7 0.259531 0.938507 0.689679
O O8 0.500000 0.000000 0.000000
O O9 0.958639 0.250000 0.189853
O O10 0.886623 0.515599 0.177120
O O11 0.122444 0.497602 0.360928
O O12 0.857106 0.488790 0.994100
O O13 0.726650 0.750000 0.488858
O O14 0.060222 0.250000 0.666576
O O15 0.217000 0.040555 0.787021
O O16 0.972885 0.944431 0.541968
O O17 0.239802 0.250000 0.700861
O O18 0.704254 0.250000 0.774982
#
# Coordination Sequence:
#
# PCOD9161442 Si02
#       7
#     4   4   4   4   4   4   4
#     4   9  19  37  59  82 112 149 188 231 286 345
#     4  12  25  40  59  83 113 151 195 239 289 346
#     4  10  20  34  55  82 116 152 190 238 290 342
#     4  10  21  38  58  82 114 151 189 236 291 346
#     4  10  20  33  54  82 110 144 187 234 283 337
#     4  10  20  36  55  78 110 146 187 235 284 334
#     4   9  19  36  57  83 112 147 189 233 283 342
#
# _framework density 20.613468000000001
#
# number of rings (size 3 to 8) (size 9 to 14) (size 15 to 20)
#    0.000    2.000    1.429    2.143    0.000    4.571 
#    0.000    1.429    0.000    0.000    0.000    0.000 
#    0.000    0.000    0.000    0.000    0.000    0.000 
#
# Total GULP energy -156049.680696 kJ/mol
# GULP energy per Si atom -5573.202882 kJ/mol
# Density = 2.056655 g / cm^3
# Si number density = 20.613468 Si / 1000 Ang^3
#
#
#
# Elastic Constant Matrix: (Units=GPa)
#
#
# Indices 1 2 3 4 5 6 
#
# 1 113.8771 12.8476 39.2156 0.0000 -36.7229 0.0000
# 2 12.8476 23.8572 5.9944 0.0000 -0.4601 0.0000
# 3 39.2156 5.9944 102.9399 0.0000 -23.6418 0.0000
# 4 0.0000 0.0000 0.0000 26.5793 0.0000 -8.2846
# 5 -36.7229 -0.4601 -23.6418 0.0000 20.1268 0.0000
# 6 0.0000 0.0000 0.0000 -8.2846 0.0000 24.3833
#
#
#
# Elastic Compliance Matrix: (Units=1/GPa)
#
#
# Indices 1 2 3 4 5 6 
#
# 1 0.024860 -0.013031 0.002242 0.000000 0.047695 0.000000
# 2 -0.013031 0.049473 -0.004269 0.000000 -0.027661 0.000000
# 3 0.002242 -0.004269 0.013730 0.000000 0.020121 0.000000
# 4 0.000000 0.000000 0.000000 0.042080 0.000000 0.014297
# 5 0.047695 -0.027661 0.020121 0.000000 0.159712 0.000000
# 6 0.000000 0.000000 0.000000 0.014297 0.000000 0.045869
#
#
# Mechanical properties :
#
#
# Convention : Reuss Voigt Hill
#
# Bulk Modulus (GPa) = 17.25733 39.64324 28.45029
# Shear Modulus (GPa) = 12.98175 26.39231 19.68703
#
# Velocity S-wave (km/s) = 2.51224 3.58207 3.09375
# Velocity P-wave (km/s) = 4.09942 6.03173 5.15689
#
# Compressibility (1/GPa) = 0.05794639
#
# Stress axis : x y z
#
# Youngs Moduli (GPa) = 40.22510 20.21301 72.83308
#
# Poissons Ratio (x) = 0.26340 -0.16330
# Poissons Ratio (y) = 0.52419 0.31095
# Poissons Ratio (z) = -0.09019 0.08630
#
# Static dielectric constant tensor:
#      x y z
#    x 1.831770 0.000000 0.062320 
#    y 0.000000 1.706320 0.000000 
#    z 0.062320 0.000000 1.795770 
# 
# From -- ./inp_files/54446.got.cif
#   From: 2010.05.17/outbox.cif.g08.bks.cpg/sg11_28_cif.got.tgz:54446.got - 2010.06.03 12:22:45.
