data_PCOD9161817
_publ_section_title
;
Structure prediction by ZEFSAII (Michael W. Deem and Ramdas Pophale) SiO2 
 PCOD9161817
Probable space group: P 21/M
;
_chemical_formula_sum "Si O2"
_cell_formula_units_Z 28
_cell_length_a 14.986138
_cell_length_b 7.743596
_cell_length_c 11.625637
_cell_angle_alpha 90.000000
_cell_angle_beta 120.085205
_cell_angle_gamma 90.000000
_cell_volume 1167.363974
_symmetry_space_group_name_H-M "P 21/M"
_symmetry_group_IT_number 11
_symmetry_cell_setting 'monoclinic'
loop_
_space_group_symop_operation_xyz
x,y,z
-x,1/2+y,-z
-x,-y,-z
x,1/2-y,z
loop_
_atom_site_type_symbol
_atom_site_label
_atom_site_fract_x
_atom_site_fract_y
_atom_site_fract_z
Si Si1 0.935284 0.444434 0.630741
Si Si2 0.848386 0.958671 0.344729
Si Si3 0.433400 0.041183 0.572537
Si Si4 0.736927 0.959085 0.058180
Si Si5 0.767787 0.944959 0.677976
Si Si6 0.512475 0.445827 0.872589
Si Si7 0.884080 0.542279 0.960728
O O1 0.946347 0.250000 0.683598
O O2 0.859531 0.450027 0.472385
O O3 0.877992 0.558070 0.686186
O O4 0.045255 0.499944 0.653359
O O5 0.847035 0.750000 0.361874
O O6 0.754154 0.007145 0.202326
O O7 0.435058 0.250000 0.584357
O O8 0.319290 0.979512 0.460561
O O9 0.466661 0.975834 0.722376
O O10 0.500000 0.000000 0.500000
O O11 0.727246 0.750000 0.047637
O O12 0.840633 0.007935 0.056621
O O13 0.635787 0.038749 0.938482
O O14 0.732291 0.750000 0.679529
O O15 0.798512 0.030894 0.817191
O O16 0.474512 0.250000 0.849147
O O17 0.500000 0.500000 0.000000
O O18 0.878525 0.750000 0.952158
O O19 0.000000 0.500000 0.000000
#
# Coordination Sequence:
#
# PCOD9161817 Si02
#       7
#     4   4   4   4   4   4   4
#     4  10  20  34  54  83 113 146 192 239 283 343
#     4   9  19  35  55  79 114 153 187 232 291 350
#     4  10  23  43  66  90 120 160 208 260 316 373
#     4  10  21  39  62  85 117 161 203 247 305 367
#     4  10  21  37  58  83 115 154 193 235 293 359
#     4  11  25  43  64  94 128 165 212 268 325 383
#     4  10  21  37  60  90 124 161 200 245 303 367
#
# _framework density 23.985664
#
# number of rings (size 3 to 8) (size 9 to 14) (size 15 to 20)
#    0.000    2.000    0.000    2.571    2.000    6.286 
#    0.000    0.000    0.000    0.000    0.000    0.000 
#    0.000    0.000    0.000    0.000    0.000    0.000 
#
# Total GULP energy -156139.110906 kJ/mol
# GULP energy per Si atom -5576.396818 kJ/mol
# Density = 2.393107 g / cm^3
# Si number density = 23.985664 Si / 1000 Ang^3
#
#
#
# Elastic Constant Matrix: (Units=GPa)
#
#
# Indices 1 2 3 4 5 6 
#
# 1 78.3146 2.3550 24.0636 0.0000 -9.2496 0.0000
# 2 2.3550 30.5066 10.7204 0.0000 -9.0017 0.0000
# 3 24.0636 10.7204 190.4085 0.0000 -7.3634 0.0000
# 4 0.0000 0.0000 0.0000 17.5674 0.0000 -3.0156
# 5 -9.2496 -9.0017 -7.3634 0.0000 35.2874 0.0000
# 6 0.0000 0.0000 0.0000 -3.0156 0.0000 25.8508
#
#
#
# Elastic Compliance Matrix: (Units=1/GPa)
#
#
# Indices 1 2 3 4 5 6 
#
# 1 0.013651 0.000511 -0.001624 0.000000 0.003370 0.000000
# 2 0.000511 0.035995 -0.001745 0.000000 0.008952 0.000000
# 3 -0.001624 -0.001745 0.005567 0.000000 0.000291 0.000000
# 4 0.000000 0.000000 0.000000 0.058087 0.000000 0.006776
# 5 0.003370 0.008952 0.000291 0.000000 0.031566 0.000000
# 6 0.000000 0.000000 0.000000 0.006776 0.000000 0.039474
#
#
# Mechanical properties :
#
#
# Convention : Reuss Voigt Hill
#
# Bulk Modulus (GPa) = 20.20320 41.50086 30.85203
# Shear Modulus (GPa) = 24.20682 33.21383 28.71032
#
# Velocity S-wave (km/s) = 3.18027 3.72524 3.46349
# Velocity P-wave (km/s) = 4.68261 5.98692 5.37447
#
# Compressibility (1/GPa) = 0.04949711
#
# Stress axis : x y z
#
# Youngs Moduli (GPa) = 73.25738 27.78155 179.64449
#
# Poissons Ratio (x) = -0.01420 0.29167
# Poissons Ratio (y) = -0.03744 0.31348
# Poissons Ratio (z) = 0.11894 0.04848
#
# Static dielectric constant tensor:
#      x y z
#    x 1.915240 0.000000 -0.014760 
#    y 0.000000 1.942830 0.000000 
#    z -0.014760 0.000000 1.979580 
# 
# From -- ./inp_files/38484.got.cif
#   From: 2010.05.17/outbox.cif.g08.bks.cpg/sg11_20_cif.got.tgz:38484.got - 2010.06.03 12:22:45.
