data_PCOD9161520
_publ_section_title
;
Structure prediction by ZEFSAII (Michael W. Deem and Ramdas Pophale) SiO2 
 PCOD9161520
Probable space group: P 21/M
;
_chemical_formula_sum "Si O2"
_cell_formula_units_Z 28
_cell_length_a 7.225646
_cell_length_b 9.028606
_cell_length_c 20.150792
_cell_angle_alpha 90.000000
_cell_angle_beta 72.734128
_cell_angle_gamma 90.000000
_cell_volume 1255.349254
_symmetry_space_group_name_H-M "P 21/M"
_symmetry_group_IT_number 11
_symmetry_cell_setting 'monoclinic'
loop_
_space_group_symop_operation_xyz
x,y,z
-x,1/2+y,-z
-x,-y,-z
x,1/2-y,z
loop_
_atom_site_type_symbol
_atom_site_label
_atom_site_fract_x
_atom_site_fract_y
_atom_site_fract_z
Si Si1 0.347232 0.579414 0.207764
Si Si2 0.180573 0.921145 0.633768
Si Si3 0.879759 0.581661 0.227588
Si Si4 0.714950 0.577394 0.652771
Si Si5 0.993838 0.068535 0.926277
Si Si6 0.214322 0.569975 0.486945
Si Si7 0.600545 0.923791 0.927543
O O1 0.404616 0.750000 0.202057
O O2 0.379386 0.501512 0.274207
O O3 0.450831 0.493927 0.137224
O O4 0.113758 0.576553 0.217696
O O5 0.232182 0.750000 0.633280
O O6 0.274300 0.978667 0.554999
O O7 0.947849 0.930215 0.643310
O O8 0.212440 0.990944 0.702310
O O9 0.817797 0.750000 0.243210
O O10 0.855562 0.547263 0.151466
O O11 0.665848 0.750000 0.653405
O O12 0.673813 0.493944 0.588382
O O13 0.963075 0.250000 0.933366
O O14 0.819575 0.971222 0.916049
O O15 0.000000 0.000000 0.000000
O O16 0.205486 0.750000 0.485733
O O17 0.000000 0.500000 0.500000
O O18 0.568684 0.750000 0.931471
O O19 0.500000 0.000000 0.000000
#
# Coordination Sequence:
#
# PCOD9161520 Si02
#       7
#     4   4   4   4   4   4   4
#     4   9  16  27  41  58  80 108 142 181 222 268
#     4   8  14  21  30  45  67  96 133 171 210 255
#     4   8  15  25  38  55  77 104 138 177 218 264
#     4   9  15  22  32  48  69  98 135 173 213 260
#     4  10  20  34  50  71  95 123 158 196 238 284
#     4   9  15  21  28  42  65  95 131 172 212 255
#     4  11  21  34  51  71  95 124 157 196 237 282
#
# _framework density 22.304549999999999
#
# number of rings (size 3 to 8) (size 9 to 14) (size 15 to 20)
#    0.000    2.857    0.000    4.714    0.000    8.000 
#    0.000    0.000    0.000    0.000    0.000    0.000 
#    0.000    0.000    0.000    1.286    0.000   18.857 
#
# Total GULP energy -156070.254319 kJ/mol
# GULP energy per Si atom -5573.937654 kJ/mol
# Density = 2.225378 g / cm^3
# Si number density = 22.304550 Si / 1000 Ang^3
#
#
#
# Elastic Constant Matrix: (Units=GPa)
#
#
# Indices 1 2 3 4 5 6 
#
# 1 61.0672 13.0511 16.6624 0.0000 21.9532 0.0000
# 2 13.0511 158.1253 132.6984 0.0000 11.8106 0.0000
# 3 16.6624 132.6984 287.7228 0.0000 33.3818 0.0000
# 4 0.0000 0.0000 0.0000 51.6298 0.0000 6.4872
# 5 21.9532 11.8106 33.3818 0.0000 20.0267 0.0000
# 6 0.0000 0.0000 0.0000 6.4872 0.0000 0.7353
#
#
#
# Elastic Compliance Matrix: (Units=1/GPa)
#
#
# Indices 1 2 3 4 5 6 
#
# 1 0.029164 -0.002976 0.003954 0.000000 -0.036804 0.000000
# 2 -0.002976 0.010706 -0.005469 0.000000 0.006065 0.000000
# 3 0.003954 -0.005469 0.007312 0.000000 -0.013296 0.000000
# 4 0.000000 0.000000 0.000000 -0.178364 0.000000 1.573702
# 5 -0.036804 0.006065 -0.013296 0.000000 0.108864 0.000000
# 6 0.000000 0.000000 0.000000 1.573702 0.000000-12.524689
#
#
# Mechanical properties :
#
#
# Convention : Reuss Voigt Hill
#
# Bulk Modulus (GPa) = 26.17893 92.41546 59.29719
# Shear Modulus (GPa) = -0.39919 37.44523 18.52302
#
# Velocity S-wave (km/s) = -0.42351 4.10178 2.88490
# Velocity P-wave (km/s) = 3.39461 7.99726 6.14327
#
# Compressibility (1/GPa) = 0.03819866
#
# Stress axis : x y z
#
# Youngs Moduli (GPa) = 34.28943 93.40205 136.76921
#
# Poissons Ratio (x) = 0.27797 -0.54075
# Poissons Ratio (y) = 0.10205 0.74800
# Poissons Ratio (z) = -0.13557 0.51082
#
# Static dielectric constant tensor:
#      x y z
#    x 1.964040 0.000000 -0.042050 
#    y 0.000000 1.727980 0.000000 
#    z -0.042050 0.000000 1.898840 
# 
# From -- ./inp_files/43647.got.cif
#   From: 2010.05.17/outbox.cif.g08.bks.cpg/sg11_22_cif.got.tgz:43647.got - 2010.06.03 12:22:45.
