data_PCOD9161129
_publ_section_title
;
Structure prediction by ZEFSAII (Michael W. Deem and Ramdas Pophale) SiO2 
 PCOD9161129
Probable space group: P 21/M
;
_chemical_formula_sum "Si O2"
_cell_formula_units_Z 32
_cell_length_a 31.767010
_cell_length_b 8.991993
_cell_length_c 14.233309
_cell_angle_alpha 90.000000
_cell_angle_beta 148.329337
_cell_angle_gamma 90.000000
_cell_volume 2134.652635
_symmetry_space_group_name_H-M "P 21/M"
_symmetry_group_IT_number 11
_symmetry_cell_setting 'monoclinic'
loop_
_space_group_symop_operation_xyz
x,y,z
-x,1/2+y,-z
-x,-y,-z
x,1/2-y,z
loop_
_atom_site_type_symbol
_atom_site_label
_atom_site_fract_x
_atom_site_fract_y
_atom_site_fract_z
Si Si1 0.847793 0.427998 0.362340
Si Si2 0.931472 0.571319 0.934501
Si Si3 0.028218 0.072843 0.772688
Si Si4 0.275541 0.426846 0.733104
Si Si5 0.595473 0.420525 0.276599
Si Si6 0.768577 0.070249 0.550648
Si Si7 0.437999 0.580210 0.012135
Si Si8 0.081006 0.927278 0.694377
O O1 0.836468 0.250000 0.353195
O O2 0.779751 0.516353 0.287419
O O3 0.853528 0.460215 0.261673
O O4 0.935381 0.465776 0.572858
O O5 0.929753 0.750000 0.918946
O O6 0.847267 0.499615 0.745148
O O7 0.951443 0.539389 0.081256
O O8 0.000000 0.500000 0.000000
O O9 0.035080 0.250000 0.770761
O O10 0.086173 0.991690 0.808644
O O11 0.271606 0.250000 0.715010
O O12 0.243577 0.505317 0.577069
O O13 0.367407 0.479667 0.919665
O O14 0.588231 0.250000 0.294701
O O15 0.688087 0.468290 0.456582
O O16 0.576855 0.421333 0.129067
O O17 0.527589 0.519198 0.195926
O O18 0.773437 0.250000 0.554331
O O19 0.429631 0.750000 0.027925
O O20 0.071891 0.750000 0.680428
O O21 0.000000 0.000000 0.500000
#
# Coordination Sequence:
#
# PCOD9161129 Si02
#       8
#     4   4   4   4   4   4   4   4
#     4   9  17  30  45  63  88 115 143 178 221 263
#     4  11  22  34  48  66  89 119 153 188 222 256
#     4   9  19  33  47  63  86 114 145 184 223 257
#     4  11  20  28  42  64  89 118 150 181 216 263
#     4   8  15  27  42  59  80 109 145 181 216 255
#     4  10  20  33  46  61  86 119 152 188 223 255
#     4   9  16  26  41  60  84 113 141 175 218 260
#     4   9  17  29  47  66  84 109 141 178 219 263
#
# _framework density 14.990729999999999
#
# number of rings (size 3 to 8) (size 9 to 14) (size 15 to 20)
#    0.000    2.500    0.000    4.875    0.000    8.000 
#    0.000    0.000    0.000    0.000    0.000    0.000 
#    0.000    1.000    0.000    3.250    0.000    5.000 
#
# Total GULP energy -178305.382303 kJ/mol
# GULP energy per Si atom -5572.043197 kJ/mol
# Density = 1.495661 g / cm^3
# Si number density = 14.990730 Si / 1000 Ang^3
#
#
#
# Elastic Constant Matrix: (Units=GPa)
#
#
# Indices 1 2 3 4 5 6 
#
# 1 110.2150 62.9490 52.1770 0.0000 9.8474 0.0000
# 2 62.9490 75.6934 42.2598 0.0000 9.5896 0.0000
# 3 52.1770 42.2598 81.5045 0.0000 17.9831 0.0000
# 4 0.0000 0.0000 0.0000 21.8505 0.0000 4.0778
# 5 9.8474 9.5896 17.9831 0.0000 18.8145 0.0000
# 6 0.0000 0.0000 0.0000 4.0778 0.0000 26.9583
#
#
#
# Elastic Compliance Matrix: (Units=1/GPa)
#
#
# Indices 1 2 3 4 5 6 
#
# 1 0.019002 -0.012694 -0.006103 0.000000 0.002358 0.000000
# 2 -0.012694 0.027075 -0.005491 0.000000 -0.001908 0.000000
# 3 -0.006103 -0.005491 0.022432 0.000000 -0.015447 0.000000
# 4 0.000000 0.000000 0.000000 0.047095 0.000000 -0.007124
# 5 0.002358 -0.001908 -0.015447 0.000000 0.067653 0.000000
# 6 0.000000 0.000000 0.000000 -0.007124 0.000000 0.038172
#
#
# Mechanical properties :
#
#
# Convention : Reuss Voigt Hill
#
# Bulk Modulus (GPa) = 50.16912 64.68717 57.42815
# Shear Modulus (GPa) = 18.07344 20.85982 19.46663
#
# Velocity S-wave (km/s) = 3.47600 3.73435 3.60749
# Velocity P-wave (km/s) = 7.04624 7.86377 7.46621
#
# Compressibility (1/GPa) = 0.01993258
#
# Stress axis : x y z
#
# Youngs Moduli (GPa) = 52.62658 36.93404 44.57990
#
# Poissons Ratio (x) = 0.46884 0.27207
# Poissons Ratio (y) = 0.66804 0.24480
# Poissons Ratio (z) = 0.32118 0.20281
#
# Static dielectric constant tensor:
#      x y z
#    x 1.504680 0.000000 0.006780 
#    y 0.000000 1.511950 0.000000 
#    z 0.006780 0.000000 1.492610 
# 
# From -- ./inp_files/56475.got.cif
#   From: 2010.05.17/outbox.cif.g08.bks.cpg/sg11_29_cif.got.tgz:56475.got - 2010.06.03 12:22:45.
