data_PCOD9161035
_publ_section_title
;
Structure prediction by ZEFSAII (Michael W. Deem and Ramdas Pophale) SiO2 
 PCOD9161035
Probable space group: P 21/M
;
_chemical_formula_sum "Si O2"
_cell_formula_units_Z 28
_cell_length_a 17.248704
_cell_length_b 7.673325
_cell_length_c 19.708292
_cell_angle_alpha 90.000000
_cell_angle_beta 24.480244
_cell_angle_gamma 90.000000
_cell_volume 1080.904357
_symmetry_space_group_name_H-M "P 21/M"
_symmetry_group_IT_number 11
_symmetry_cell_setting 'monoclinic'
loop_
_space_group_symop_operation_xyz
x,y,z
-x,1/2+y,-z
-x,-y,-z
x,1/2-y,z
loop_
_atom_site_type_symbol
_atom_site_label
_atom_site_fract_x
_atom_site_fract_y
_atom_site_fract_z
Si Si1 0.385758 0.542117 0.804547
Si Si2 0.364617 0.541749 0.969371
Si Si3 0.043575 0.036529 0.860187
Si Si4 0.394049 0.455787 0.653448
Si Si5 0.929535 0.961644 0.311376
Si Si6 0.909317 0.964225 0.474059
Si Si7 0.291921 0.552121 0.225851
O O1 0.384663 0.750000 0.812312
O O2 0.441022 0.475727 0.835225
O O3 0.479685 0.512754 0.656846
O O4 0.170998 0.479232 0.965205
O O5 0.362915 0.750000 0.967859
O O6 0.495649 0.501558 0.928659
O O7 0.149009 0.488546 0.143988
O O8 0.041233 0.250000 0.862843
O O9 0.184535 0.972217 0.805523
O O10 0.121594 0.981247 0.723729
O O11 0.500000 0.500000 0.500000
O O12 0.381351 0.250000 0.668034
O O13 0.918225 0.750000 0.319790
O O14 0.841308 0.016679 0.453286
O O15 0.901459 0.750000 0.484162
O O16 0.124671 0.025916 0.313929
O O17 0.796392 0.033718 0.628016
O O18 0.300549 0.750000 0.196661
#
# Coordination Sequence:
#
# PCOD9161035 Si02
#       7
#     4   4   4   4   4   4   4
#     4   9  18  35  56  75  96 127 168 208 248 298
#     4   9  18  33  54  76  97 126 165 207 251 301
#     4   8  16  32  54  76  97 125 164 208 250 296
#     4  11  22  34  50  76 107 135 165 204 249 295
#     4   8  15  31  54  76  95 122 167 212 246 292
#     4   9  18  33  52  72  97 134 174 207 245 296
#     4  10  20  32  47  72 105 135 166 206 250 298
#
# _framework density 25.904233999999999
#
# number of rings (size 3 to 8) (size 9 to 14) (size 15 to 20)
#    0.000    2.857    0.000    3.000    0.000    2.857 
#    0.000    4.286    0.000    3.429    0.000    0.000 
#    0.000    0.000    0.000    0.000    0.000    0.000 
#
# Total GULP energy -156338.482798 kJ/mol
# GULP energy per Si atom -5583.517243 kJ/mol
# Density = 2.584527 g / cm^3
# Si number density = 25.904234 Si / 1000 Ang^3
#
#
#
# Elastic Constant Matrix: (Units=GPa)
#
#
# Indices 1 2 3 4 5 6 
#
# 1 187.4541 -3.6795 8.5217 0.0000 17.8765 0.0000
# 2 -3.6795 43.4513 -12.2435 0.0000 -4.0626 0.0000
# 3 8.5217 -12.2435 42.8431 0.0000 8.7486 0.0000
# 4 0.0000 0.0000 0.0000 14.3745 0.0000 -3.0463
# 5 17.8765 -4.0626 8.7486 0.0000 49.7548 0.0000
# 6 0.0000 0.0000 0.0000 -3.0463 0.0000 1.0922
#
#
#
# Elastic Compliance Matrix: (Units=1/GPa)
#
#
# Indices 1 2 3 4 5 6 
#
# 1 0.005546 0.000100 -0.000694 0.000000 -0.001862 0.000000
# 2 0.000100 0.025064 0.006983 0.000000 0.000783 0.000000
# 3 -0.000694 0.006983 0.026250 0.000000 -0.003796 0.000000
# 4 0.000000 0.000000 0.000000 0.170130 0.000000 0.474522
# 5 -0.001862 0.000783 -0.003796 0.000000 0.021499 0.000000
# 6 0.000000 0.000000 0.000000 0.474522 0.000000 2.239120
#
#
# Mechanical properties :
#
#
# Convention : Reuss Voigt Hill
#
# Bulk Modulus (GPa) = 14.36039 28.77175 21.56607
# Shear Modulus (GPa) = 2.00157 31.78761 16.89459
#
# Velocity S-wave (km/s) = 0.87998 3.50683 2.55658
# Velocity P-wave (km/s) = 2.56674 5.24673 4.13015
#
# Compressibility (1/GPa) = 0.06963600
#
# Stress axis : x y z
#
# Youngs Moduli (GPa) = 180.31789 39.89860 38.09561
#
# Poissons Ratio (x) = -0.00398 0.02645
# Poissons Ratio (y) = -0.01801 -0.26602
# Poissons Ratio (z) = 0.12519 -0.27861
#
# Static dielectric constant tensor:
#      x y z
#    x 1.979620 0.000000 -0.015390 
#    y 0.000000 1.998870 0.000000 
#    z -0.015390 0.000000 2.171730 
# 
# From -- ./inp_files/65993.got.cif
#   From: 2010.05.17/outbox.cif.g08.bks.cpg/sg11_33_cif.got.tgz:65993.got - 2010.06.03 12:22:45.
