data_PCOD9161979
_publ_section_title
;
Structure prediction by ZEFSAII (Michael W. Deem and Ramdas Pophale) SiO2 
 PCOD9161979
Probable space group: P 21/M
;
_chemical_formula_sum "Si O2"
_cell_formula_units_Z 28
_cell_length_a 12.655660
_cell_length_b 8.696777
_cell_length_c 17.003884
_cell_angle_alpha 90.000000
_cell_angle_beta 60.044277
_cell_angle_gamma 90.000000
_cell_volume 1621.494546
_symmetry_space_group_name_H-M "P 21/M"
_symmetry_group_IT_number 11
_symmetry_cell_setting 'monoclinic'
loop_
_space_group_symop_operation_xyz
x,y,z
-x,1/2+y,-z
-x,-y,-z
x,1/2-y,z
loop_
_atom_site_type_symbol
_atom_site_label
_atom_site_fract_x
_atom_site_fract_y
_atom_site_fract_z
Si Si1 0.811472 0.933498 0.104548
Si Si2 0.048041 0.433708 0.104223
Si Si3 0.028829 0.933161 0.279972
Si Si4 0.885067 0.933336 0.590694
Si Si5 0.392464 0.567035 0.716815
Si Si6 0.738547 0.566101 0.388441
Si Si7 0.654497 0.066366 0.585207
O O1 0.804231 0.750000 0.118607
O O2 0.688318 0.011400 0.179712
O O3 0.850446 0.964622 0.000188
O O4 0.922217 0.997747 0.116581
O O5 0.034979 0.250000 0.117195
O O6 0.072832 0.509305 0.178804
O O7 0.044417 0.750000 0.282014
O O8 0.883375 0.965964 0.338751
O O9 0.095087 0.018253 0.326612
O O10 0.882386 0.750000 0.582971
O O11 0.763282 0.004839 0.599380
O O12 0.000000 0.000000 0.500000
O O13 0.404054 0.750000 0.712045
O O14 0.320003 0.512027 0.665949
O O15 0.524615 0.489861 0.665097
O O16 0.722406 0.750000 0.388948
O O17 0.676279 0.503497 0.490408
O O18 0.658410 0.250000 0.579187
#
# Coordination Sequence:
#
# PCOD9161979 Si02
#       7
#     4   4   4   4   4   4   4
#     4  10  20  35  55  83 117 151 189 234 285 342
#     4  10  20  34  56  85 116 150 189 235 287 339
#     4  11  22  36  59  86 118 153 190 235 286 338
#     4  12  24  40  61  85 114 149 194 239 284 334
#     4  12  24  38  58  84 117 155 194 235 286 344
#     4  11  22  37  57  84 118 154 192 234 283 340
#     4  12  25  41  60  82 114 154 195 237 285 340
#
# _framework density 17.268021000000001
#
# number of rings (size 3 to 8) (size 9 to 14) (size 15 to 20)
#    0.000    0.857    2.857    6.000    0.000    2.857 
#    0.000    0.000    0.000    0.857    0.000    0.000 
#    0.000    0.000    0.000    0.000    0.000    0.000 
#
# Total GULP energy -156621.794636 kJ/mol
# GULP energy per Si atom -5593.635523 kJ/mol
# Density = 1.722872 g / cm^3
# Si number density = 17.268021 Si / 1000 Ang^3
#
#
#
# Elastic Constant Matrix: (Units=GPa)
#
#
# Indices 1 2 3 4 5 6 
#
# 1 52.8756 16.2922 29.2906 0.0000 -11.4899 0.0000
# 2 16.2922 73.0928 26.5108 0.0000 -6.9783 0.0000
# 3 29.2906 26.5108 104.5068 0.0000 -2.9989 0.0000
# 4 0.0000 0.0000 0.0000 31.9780 0.0000 1.6155
# 5 -11.4899 -6.9783 -2.9989 0.0000 18.6444 0.0000
# 6 0.0000 0.0000 0.0000 1.6155 0.0000 29.7873
#
#
#
# Elastic Compliance Matrix: (Units=1/GPa)
#
#
# Indices 1 2 3 4 5 6 
#
# 1 0.026233 -0.002160 -0.006393 0.000000 0.014330 0.000000
# 2 -0.002160 0.015734 -0.003270 0.000000 0.004032 0.000000
# 3 -0.006393 -0.003270 0.012098 0.000000 -0.003218 0.000000
# 4 0.000000 0.000000 0.000000 0.031357 0.000000 -0.001701
# 5 0.014330 0.004032 -0.003218 0.000000 0.063458 0.000000
# 6 0.000000 0.000000 0.000000 -0.001701 0.000000 0.033664
#
#
# Mechanical properties :
#
#
# Convention : Reuss Voigt Hill
#
# Bulk Modulus (GPa) = 32.87586 41.62915 37.25250
# Shear Modulus (GPa) = 23.11277 26.64072 24.87674
#
# Velocity S-wave (km/s) = 3.66248 3.93208 3.79967
# Velocity P-wave (km/s) = 6.07988 6.69141 6.39296
#
# Compressibility (1/GPa) = 0.03041746
#
# Stress axis : x y z
#
# Youngs Moduli (GPa) = 38.11921 63.55774 82.65943
#
# Poissons Ratio (x) = 0.13731 0.52847
# Poissons Ratio (y) = 0.08235 0.27030
# Poissons Ratio (z) = 0.24371 0.20784
#
# Static dielectric constant tensor:
#      x y z
#    x 1.554160 0.000000 -0.002290 
#    y 0.000000 1.573360 0.000000 
#    z -0.002290 0.000000 1.586180 
# 
# From -- ./inp_files/37665.got.cif
#   From: 2010.05.17/outbox.cif.g08.bks.cpg/sg11_19_cif.got.tgz:37665.got - 2010.06.03 12:22:45.
