data_PCOD9161305
_publ_section_title
;
Structure prediction by ZEFSAII (Michael W. Deem and Ramdas Pophale) SiO2 
 PCOD9161305
Probable space group: P 21/M
;
_chemical_formula_sum "Si O2"
_cell_formula_units_Z 28
_cell_length_a 20.965612
_cell_length_b 8.621693
_cell_length_c 14.912557
_cell_angle_alpha 90.000000
_cell_angle_beta 147.920981
_cell_angle_gamma 90.000000
_cell_volume 1431.591070
_symmetry_space_group_name_H-M "P 21/M"
_symmetry_group_IT_number 11
_symmetry_cell_setting 'monoclinic'
loop_
_space_group_symop_operation_xyz
x,y,z
-x,1/2+y,-z
-x,-y,-z
x,1/2-y,z
loop_
_atom_site_type_symbol
_atom_site_label
_atom_site_fract_x
_atom_site_fract_y
_atom_site_fract_z
Si Si1 0.867721 0.933316 0.326935
Si Si2 0.779286 0.436823 0.892180
Si Si3 0.310103 0.564636 0.026309
Si Si4 0.255856 0.938909 0.349499
Si Si5 0.563569 0.437011 0.281003
Si Si6 0.230497 0.563402 0.609858
Si Si7 0.954581 0.063577 0.769268
O O1 0.874547 0.750000 0.324745
O O2 0.804257 0.005220 0.164793
O O3 0.789999 0.979222 0.321348
O O4 0.000000 0.000000 0.500000
O O5 0.773643 0.250000 0.883379
O O6 0.701435 0.490350 0.884374
O O7 0.916747 0.485319 0.072352
O O8 0.738781 0.494486 0.746084
O O9 0.310551 0.750000 0.025577
O O10 0.431117 0.503747 0.125122
O O11 0.257287 0.750000 0.351079
O O12 0.363891 0.988121 0.543277
O O13 0.131509 0.983551 0.250420
O O14 0.557797 0.250000 0.275056
O O15 0.647397 0.480199 0.296611
O O16 0.230753 0.750000 0.623893
O O17 0.120993 0.528160 0.410819
O O18 0.969215 0.250000 0.789792
#
# Coordination Sequence:
#
# PCOD9161305 Si02
#       7
#     4   4   4   4   4   4   4
#     4  12  25  41  62  86 112 144 180 221 274 330
#     4  10  20  33  51  77 111 149 184 224 273 321
#     4  11  24  39  55  80 114 148 185 230 274 322
#     4   8  16  33  55  79 109 144 182 224 272 325
#     4   9  19  38  61  82 108 146 188 228 273 325
#     4   9  19  37  60  84 111 144 183 228 277 328
#     4   9  17  31  54  82 110 141 178 223 274 329
#
# _framework density 19.558655999999999
#
# number of rings (size 3 to 8) (size 9 to 14) (size 15 to 20)
#    0.000    2.286    0.000    4.714    0.000    5.714 
#    0.000    2.857    0.000    0.000    0.000    0.000 
#    0.000    0.000    0.000    0.000    0.000    0.000 
#
# Total GULP energy -156373.529639 kJ/mol
# GULP energy per Si atom -5584.768916 kJ/mol
# Density = 1.951414 g / cm^3
# Si number density = 19.558656 Si / 1000 Ang^3
#
#
#
# Elastic Constant Matrix: (Units=GPa)
#
#
# Indices 1 2 3 4 5 6 
#
# 1 77.9412 17.4107 15.6219 0.0000 -8.2838 0.0000
# 2 17.4107 16.9887 4.2226 0.0000 1.1606 0.0000
# 3 15.6219 4.2226 34.9063 0.0000 15.6503 0.0000
# 4 0.0000 0.0000 0.0000 27.5357 0.0000 6.9634
# 5 -8.2838 1.1606 15.6503 0.0000 28.8691 0.0000
# 6 0.0000 0.0000 0.0000 6.9634 0.0000 21.6027
#
#
#
# Elastic Compliance Matrix: (Units=1/GPa)
#
#
# Indices 1 2 3 4 5 6 
#
# 1 0.021476 -0.019590 -0.013683 0.000000 0.014368 0.000000
# 2 -0.019590 0.078647 0.004216 0.000000 -0.011068 0.000000
# 3 -0.013683 0.004216 0.047689 0.000000 -0.029949 0.000000
# 4 0.000000 0.000000 0.000000 0.039540 0.000000 -0.012745
# 5 0.014368 -0.011068 -0.029949 0.000000 0.055442 0.000000
# 6 0.000000 0.000000 0.000000 -0.012745 0.000000 0.050399
#
#
# Mechanical properties :
#
#
# Convention : Reuss Voigt Hill
#
# Bulk Modulus (GPa) = 11.14855 22.70519 16.92687
# Shear Modulus (GPa) = 13.11622 21.77358 17.44490
#
# Velocity S-wave (km/s) = 2.59242 3.34015 2.98976
# Velocity P-wave (km/s) = 3.83057 5.14873 4.53777
#
# Compressibility (1/GPa) = 0.08969780
#
# Stress axis : x y z
#
# Youngs Moduli (GPa) = 46.56401 12.71501 20.96898
#
# Poissons Ratio (x) = 0.24908 0.28692
# Poissons Ratio (y) = 0.91218 -0.08840
# Poissons Ratio (z) = 0.63715 -0.05360
#
# Static dielectric constant tensor:
#      x y z
#    x 1.697980 0.000000 -0.017390 
#    y 0.000000 1.655240 0.000000 
#    z -0.017390 0.000000 1.658420 
# 
# From -- ./inp_files/48750.got.cif
#   From: 2010.05.17/outbox.cif.g08.bks.cpg/sg11_25_cif.got.tgz:48750.got - 2010.06.03 12:22:45.
