data_PCOD9161949
_publ_section_title
;
Structure prediction by ZEFSAII (Michael W. Deem and Ramdas Pophale) SiO2 
 PCOD9161949
Probable space group: P 21/M
;
_chemical_formula_sum "Si O2"
_cell_formula_units_Z 28
_cell_length_a 16.010150
_cell_length_b 9.251452
_cell_length_c 12.921920
_cell_angle_alpha 90.000000
_cell_angle_beta 52.177209
_cell_angle_gamma 90.000000
_cell_volume 1511.856573
_symmetry_space_group_name_H-M "P 21/M"
_symmetry_group_IT_number 11
_symmetry_cell_setting 'monoclinic'
loop_
_space_group_symop_operation_xyz
x,y,z
-x,1/2+y,-z
-x,-y,-z
x,1/2-y,z
loop_
_atom_site_type_symbol
_atom_site_label
_atom_site_fract_x
_atom_site_fract_y
_atom_site_fract_z
Si Si1 0.889218 0.074939 0.054897
Si Si2 0.403089 0.590530 0.035113
Si Si3 0.685385 0.088465 0.668972
Si Si4 0.198037 0.574096 0.101318
Si Si5 0.335216 0.576438 0.669342
Si Si6 0.446114 0.077866 0.391799
Si Si7 0.108530 0.574843 0.392213
O O1 0.900976 0.250000 0.050886
O O2 0.783307 0.038329 0.202531
O O3 0.859317 0.032508 0.959930
O O4 0.000000 0.000000 0.000000
O O5 0.436406 0.750000 0.973858
O O6 0.338995 0.604558 0.191038
O O7 0.320233 0.524692 0.017269
O O8 0.500000 0.500000 0.000000
O O9 0.682003 0.250000 0.624984
O O10 0.804879 0.031766 0.586249
O O11 0.600608 0.989455 0.677171
O O12 0.204586 0.750000 0.096755
O O13 0.140309 0.530934 0.250943
O O14 0.336592 0.750000 0.650625
O O15 0.429908 0.546401 0.680076
O O16 0.375536 0.493322 0.536850
O O17 0.433669 0.250000 0.402284
O O18 0.102822 0.750000 0.399043
O O19 0.000000 0.500000 0.500000
#
# Coordination Sequence:
#
# PCOD9161949 Si02
#       7
#     4   4   4   4   4   4   4
#     4  10  21  38  58  79 106 144 187 228 274 327
#     4   9  18  32  52  77 105 138 171 207 259 319
#     4   9  19  34  50  75 110 141 168 210 273 327
#     4   8  17  35  55  73 102 141 174 207 258 322
#     4   9  20  37  55  77 108 144 179 225 285 331
#     4  10  20  34  56  83 106 139 185 228 270 327
#     4   9  18  34  54  76 103 139 177 214 262 315
#
# _framework density 18.520277
#
# number of rings (size 3 to 8) (size 9 to 14) (size 15 to 20)
#    0.000    2.857    0.000    2.143    2.000    3.429 
#    0.000    6.429    0.000    0.000    0.000    0.000 
#    0.000    0.000    0.000    0.000    0.000    0.000 
#
# Total GULP energy -155881.578794 kJ/mol
# GULP energy per Si atom -5567.199243 kJ/mol
# Density = 1.847812 g / cm^3
# Si number density = 18.520277 Si / 1000 Ang^3
#
#
#
# Elastic Constant Matrix: (Units=GPa)
#
#
# Indices 1 2 3 4 5 6 
#
# 1 150.7697 41.1219 44.4088 0.0000 -19.6191 0.0000
# 2 41.1219 29.5318 21.4765 0.0000 -12.3534 0.0000
# 3 44.4088 21.4765 69.8580 0.0000 -20.7206 0.0000
# 4 0.0000 0.0000 0.0000 24.0898 0.0000 -4.8639
# 5 -19.6191 -12.3534 -20.7206 0.0000 34.6180 0.0000
# 6 0.0000 0.0000 0.0000 -4.8639 0.0000 34.6208
#
#
#
# Elastic Compliance Matrix: (Units=1/GPa)
#
#
# Indices 1 2 3 4 5 6 
#
# 1 0.011159 -0.013447 -0.003049 0.000000 -0.000299 0.000000
# 2 -0.013447 0.062346 -0.007636 0.000000 0.010057 0.000000
# 3 -0.003049 -0.007636 0.021010 0.000000 0.008123 0.000000
# 4 0.000000 0.000000 0.000000 0.042723 0.000000 0.006002
# 5 -0.000299 0.010057 0.008123 0.000000 0.037168 0.000000
# 6 0.000000 0.000000 0.000000 0.006002 0.000000 0.029728
#
#
# Mechanical properties :
#
#
# Convention : Reuss Voigt Hill
#
# Bulk Modulus (GPa) = 21.62074 51.57487 36.59781
# Shear Modulus (GPa) = 18.66972 28.20920 23.43946
#
# Velocity S-wave (km/s) = 3.17845 3.90699 3.56140
# Velocity P-wave (km/s) = 5.01692 6.94702 6.05931
#
# Compressibility (1/GPa) = 0.04625188
#
# Stress axis : x y z
#
# Youngs Moduli (GPa) = 89.61149 16.03959 47.59732
#
# Poissons Ratio (x) = 0.21568 0.14511
# Poissons Ratio (y) = 1.20499 0.36345
# Poissons Ratio (z) = 0.27320 0.12248
#
# Static dielectric constant tensor:
#      x y z
#    x 1.684620 0.000000 -0.028830 
#    y 0.000000 1.632220 0.000000 
#    z -0.028830 0.000000 1.694360 
# 
# From -- ./inp_files/51577.got.cif
#   From: 2010.05.17/outbox.cif.g08.bks.cpg/sg11_26_cif.got.tgz:51577.got - 2010.06.03 12:22:45.
