data_PCOD9161137
_publ_section_title
;
Structure prediction by ZEFSAII (Michael W. Deem and Ramdas Pophale) SiO2 
 PCOD9161137
Probable space group: P 21/M
;
_chemical_formula_sum "Si O2"
_cell_formula_units_Z 32
_cell_length_a 7.225023
_cell_length_b 9.234167
_cell_length_c 23.655949
_cell_angle_alpha 90.000000
_cell_angle_beta 111.386491
_cell_angle_gamma 90.000000
_cell_volume 1469.579773
_symmetry_space_group_name_H-M "P 21/M"
_symmetry_group_IT_number 11
_symmetry_cell_setting 'monoclinic'
loop_
_space_group_symop_operation_xyz
x,y,z
-x,1/2+y,-z
-x,-y,-z
x,1/2-y,z
loop_
_atom_site_type_symbol
_atom_site_label
_atom_site_fract_x
_atom_site_fract_y
_atom_site_fract_z
Si Si1 0.395199 0.412715 0.937828
Si Si2 0.623773 0.083092 0.435272
Si Si3 0.807330 0.579216 0.823561
Si Si4 0.185976 0.082716 0.446583
Si Si5 0.185361 0.426010 0.807452
Si Si6 0.005813 0.577681 0.326266
Si Si7 0.045114 0.912261 0.060797
Si Si8 0.378113 0.076598 0.308133
O O1 0.476763 0.250000 0.947185
O O2 0.369991 0.463707 0.869600
O O3 0.165618 0.405697 0.931130
O O4 0.500000 0.500000 0.000000
O O5 0.686230 0.250000 0.445774
O O6 0.403598 0.074216 0.439919
O O7 0.575963 0.043088 0.365248
O O8 0.771781 0.986487 0.487849
O O9 0.829692 0.750000 0.836222
O O10 0.628809 0.555010 0.759685
O O11 0.000935 0.517383 0.812283
O O12 0.804294 0.494242 0.881558
O O13 0.132334 0.250000 0.444696
O O14 0.029988 0.000624 0.389156
O O15 0.155141 0.250000 0.810343
O O16 0.171666 0.453729 0.738412
O O17 0.015361 0.750000 0.335538
O O18 0.202847 0.520512 0.315052
O O19 0.109853 0.750000 0.055957
O O20 0.000000 0.000000 0.000000
O O21 0.335481 0.250000 0.312972
#
# Coordination Sequence:
#
# PCOD9161137 Si02
#       8
#     4   4   4   4   4   4   4   4
#     4   9  18  31  46  65  88 111 139 175 213 255
#     4   8  13  20  27  36  53  79 111 146 184 226
#     4   9  15  24  39  57  75  97 126 162 204 245
#     4   9  15  20  25  36  55  78 109 150 190 228
#     4   8  15  26  37  52  74  98 127 164 200 239
#     4   9  14  20  31  43  58  84 116 151 192 231
#     4  10  20  33  47  65  88 113 143 178 213 253
#     4   8  14  22  31  44  62  84 114 152 190 230
#
# _framework density 21.774932
#
# number of rings (size 3 to 8) (size 9 to 14) (size 15 to 20)
#    0.000    3.250    0.000    3.000    0.000    6.500 
#    0.000    0.000    0.000    0.000    0.000    0.000 
#    0.000    0.000    0.000    0.000    0.000    1.250 
#
# Total GULP energy -178295.701698 kJ/mol
# GULP energy per Si atom -5571.740678 kJ/mol
# Density = 2.172537 g / cm^3
# Si number density = 21.774932 Si / 1000 Ang^3
#
#
#
# Elastic Constant Matrix: (Units=GPa)
#
#
# Indices 1 2 3 4 5 6 
#
# 1 68.1378 12.5463 13.0784 0.0000 16.9708 0.0000
# 2 12.5463 109.8877 124.7516 0.0000 12.2647 0.0000
# 3 13.0784 124.7516 288.3445 0.0000 13.1345 0.0000
# 4 0.0000 0.0000 0.0000 44.1465 0.0000 3.1288
# 5 16.9708 12.2647 13.1345 0.0000 13.9367 0.0000
# 6 0.0000 0.0000 0.0000 3.1288 0.0000 -4.1661
#
#
#
# Elastic Compliance Matrix: (Units=1/GPa)
#
#
# Indices 1 2 3 4 5 6 
#
# 1 0.021090 0.000478 0.000027 0.000000 -0.026128 0.000000
# 2 0.000478 0.018998 -0.007787 0.000000 -0.009961 0.000000
# 3 0.000027 -0.007787 0.006818 0.000000 0.000395 0.000000
# 4 0.000000 0.000000 0.000000 0.021507 0.000000 0.016152
# 5 -0.026128 -0.009961 0.000395 0.000000 0.111962 0.000000
# 6 0.000000 0.000000 0.000000 0.016152 0.000000 -0.227902
#
#
# Mechanical properties :
#
#
# Convention : Reuss Voigt Hill
#
# Bulk Modulus (GPa) = 30.92055 85.23583 58.07819
# Shear Modulus (GPa) = -225.44025 31.84968 -96.79528
#
# Velocity S-wave (km/s) = -10.18611 3.82864 -6.67451
# Velocity P-wave (km/s) = 11.14053 7.66640 5.71567
#
# Compressibility (1/GPa) = 0.03234095
#
# Stress axis : x y z
#
# Youngs Moduli (GPa) = 47.41473 52.63617 146.66811
#
# Poissons Ratio (x) = -0.02514 -0.00395
# Poissons Ratio (y) = -0.02264 1.14218
# Poissons Ratio (z) = -0.00128 0.40990
#
# Static dielectric constant tensor:
#      x y z
#    x 0.535510 0.000000 0.187080 
#    y 0.000000 1.740140 0.000000 
#    z 0.187080 0.000000 1.833360 
# 
# From -- ./inp_files/71179.got.cif
#   From: 2010.05.17/outbox.cif.g08.bks.cpg/sg11_36_cif.got.tgz:71179.got - 2010.06.03 12:22:45.
