data_PCOD9161681
_publ_section_title
;
Structure prediction by ZEFSAII (Michael W. Deem and Ramdas Pophale) SiO2 
 PCOD9161681
Probable space group: P 21/M
;
_chemical_formula_sum "Si O2"
_cell_formula_units_Z 32
_cell_length_a 16.213684
_cell_length_b 8.847996
_cell_length_c 26.100151
_cell_angle_alpha 90.000000
_cell_angle_beta 29.732688
_cell_angle_gamma 90.000000
_cell_volume 1856.996879
_symmetry_space_group_name_H-M "P 21/M"
_symmetry_group_IT_number 11
_symmetry_cell_setting 'monoclinic'
loop_
_space_group_symop_operation_xyz
x,y,z
-x,1/2+y,-z
-x,-y,-z
x,1/2-y,z
loop_
_atom_site_type_symbol
_atom_site_label
_atom_site_fract_x
_atom_site_fract_y
_atom_site_fract_z
Si Si1 0.774862 0.431829 0.582345
Si Si2 0.350341 0.569328 0.149094
Si Si3 0.898184 0.430519 0.101817
Si Si4 0.147964 0.430672 0.351472
Si Si5 0.398891 0.069117 0.601110
Si Si6 0.971984 0.932552 0.171108
Si Si7 0.457292 0.067447 0.685799
Si Si8 0.703242 0.068171 0.939552
O O1 0.772964 0.250000 0.589984
O O2 0.769493 0.508069 0.640840
O O3 0.620212 0.473780 0.630011
O O4 0.952475 0.472256 0.461265
O O5 0.350201 0.750000 0.153325
O O6 0.235895 0.499998 0.254701
O O7 0.288746 0.527745 0.124995
O O8 0.538496 0.508071 0.051172
O O9 0.902105 0.250000 0.097895
O O10 0.972946 0.490094 0.115196
O O11 0.708522 0.490095 0.203338
O O12 0.000000 0.500000 0.000000
O O13 0.160375 0.250000 0.343152
O O14 0.407534 0.250000 0.592467
O O15 0.203641 0.026393 0.707666
O O16 0.469721 0.026392 0.618972
O O17 0.500000 0.000000 0.500000
O O18 0.971091 0.750000 0.164562
O O19 0.130457 0.973779 0.119766
O O20 0.435870 0.250000 0.699783
O O21 0.684119 0.250000 0.952932
#
# Coordination Sequence:
#
# PCOD9161681 Si02
#       8
#     4   4   4   4   4   4   4   4
#     4   9  19  36  56  76 101 136 176 216 257 302
#     4  10  20  34  53  78 107 138 172 212 258 307
#     4  11  22  36  55  79 105 135 171 211 258 310
#     4  10  20  34  53  78 107 138 172 212 258 307
#     4   9  18  32  51  75 103 133 165 205 252 302
#     4   9  19  37  56  75 103 137 173 215 259 301
#     4   9  19  37  56  75 103 137 173 215 259 301
#     4   9  19  36  56  76 101 136 176 216 257 302
#
# _framework density 17.232123999999999
#
# number of rings (size 3 to 8) (size 9 to 14) (size 15 to 20)
#    0.000    2.500    0.000    2.625    0.000    6.000 
#    0.000    0.000    0.000    0.000    0.000    0.000 
#    0.000    0.000    0.000    0.000    0.000    0.000 
#
# Total GULP energy -178546.492054 kJ/mol
# GULP energy per Si atom -5579.577877 kJ/mol
# Density = 1.719290 g / cm^3
# Si number density = 17.232124 Si / 1000 Ang^3
#
#
#
# Elastic Constant Matrix: (Units=GPa)
#
#
# Indices 1 2 3 4 5 6 
#
# 1 149.7943 53.4453 110.5950 0.0000 -17.8892 0.0000
# 2 53.4453 40.4551 56.2180 0.0000 1.7818 0.0000
# 3 110.5950 56.2180 152.2674 0.0000 19.4833 0.0000
# 4 0.0000 0.0000 0.0000 32.5588 0.0000 3.6134
# 5 -17.8892 1.7818 19.4833 0.0000 29.6756 0.0000
# 6 0.0000 0.0000 0.0000 3.6134 0.0000 26.9331
#
#
#
# Elastic Compliance Matrix: (Units=1/GPa)
#
#
# Indices 1 2 3 4 5 6 
#
# 1 0.033769 -0.011305 -0.025158 0.000000 0.037553 0.000000
# 2 -0.011305 0.057486 -0.012772 0.000000 -0.001881 0.000000
# 3 -0.025158 -0.012772 0.034278 0.000000 -0.036904 0.000000
# 4 0.000000 0.000000 0.000000 0.031178 0.000000 -0.004183
# 5 0.037553 -0.001881 -0.036904 0.000000 0.080677 0.000000
# 6 0.000000 0.000000 0.000000 -0.004183 0.000000 0.037690
#
#
# Mechanical properties :
#
#
# Convention : Reuss Voigt Hill
#
# Bulk Modulus (GPa) = 36.95309 87.00373 61.97841
# Shear Modulus (GPa) = 13.06958 25.98405 19.52682
#
# Velocity S-wave (km/s) = 2.75697 3.88736 3.36990
# Velocity P-wave (km/s) = 5.62365 8.41116 7.15448
#
# Compressibility (1/GPa) = 0.02706134
#
# Stress axis : x y z
#
# Youngs Moduli (GPa) = 29.61336 17.39569 29.17366
#
# Poissons Ratio (x) = 0.19666 0.73395
# Poissons Ratio (y) = 0.33479 0.37260
# Poissons Ratio (z) = 0.74501 0.22218
#
# Static dielectric constant tensor:
#      x y z
#    x 1.570430 0.000000 -0.008630 
#    y 0.000000 1.575630 0.000000 
#    z -0.008630 0.000000 1.557000 
# 
# From -- ./inp_files/69057.got.cif
#   From: 2010.05.17/outbox.cif.g08.bks.cpg/sg11_35_cif.got.tgz:69057.got - 2010.06.03 12:22:45.
