data_PCOD9161553
_publ_section_title
;
Structure prediction by ZEFSAII (Michael W. Deem and Ramdas Pophale) SiO2 
 PCOD9161553
Probable space group: P 21/M
;
_chemical_formula_sum "Si O2"
_cell_formula_units_Z 32
_cell_length_a 23.856358
_cell_length_b 9.338543
_cell_length_c 9.141652
_cell_angle_alpha 90.000000
_cell_angle_beta 126.281203
_cell_angle_gamma 90.000000
_cell_volume 1641.757363
_symmetry_space_group_name_H-M "P 21/M"
_symmetry_group_IT_number 11
_symmetry_cell_setting 'monoclinic'
loop_
_space_group_symop_operation_xyz
x,y,z
-x,1/2+y,-z
-x,-y,-z
x,1/2-y,z
loop_
_atom_site_type_symbol
_atom_site_label
_atom_site_fract_x
_atom_site_fract_y
_atom_site_fract_z
Si Si1 0.731852 0.425659 0.758861
Si Si2 0.128148 0.922752 0.861455
Si Si3 0.719290 0.423792 0.400933
Si Si4 0.602535 0.091391 0.746305
Si Si5 0.508116 0.096356 0.314499
Si Si6 0.989560 0.923842 0.827774
Si Si7 0.135879 0.576252 0.533197
Si Si8 0.572009 0.414888 0.123661
O O1 0.727910 0.250000 0.751551
O O2 0.725854 0.472165 0.580376
O O3 0.670176 0.474683 0.773564
O O4 0.805277 0.470401 0.941674
O O5 0.131739 0.750000 0.865984
O O6 0.131886 0.966150 0.697715
O O7 0.056318 0.960134 0.829778
O O8 0.713190 0.250000 0.395037
O O9 0.788615 0.456750 0.418063
O O10 0.648690 0.473757 0.210764
O O11 0.621634 0.250000 0.826749
O O12 0.546327 0.099582 0.528508
O O13 0.555429 0.013852 0.794291
O O14 0.474240 0.250000 0.236423
O O15 0.571656 0.086014 0.301483
O O16 0.985174 0.750000 0.834755
O O17 0.922136 0.991538 0.646906
O O18 0.000000 0.000000 0.000000
O O19 0.125439 0.750000 0.505444
O O20 0.563402 0.250000 0.061632
O O21 0.500000 0.500000 0.000000
#
# Coordination Sequence:
#
# PCOD9161553 Si02
#       8
#     4   4   4   4   4   4   4   4
#     4   9  15  28  51  78 105 137 181 230 268 313
#     4   9  19  33  54  86 117 142 177 225 276 325
#     4   9  17  32  55  78 105 143 186 227 274 329
#     4   9  16  27  49  73  93 124 168 214 258 308
#     4   9  17  30  45  67  99 129 161 209 268 317
#     4  11  22  38  60  87 117 150 186 225 268 321
#     4  10  20  36  59  86 114 146 182 225 275 330
#     4  10  20  34  51  73 102 139 179 224 275 327
#
# _framework density 19.491309999999999
#
# number of rings (size 3 to 8) (size 9 to 14) (size 15 to 20)
#    0.000    2.500    1.250    1.500    0.000    3.500 
#    0.000    3.750    0.000    4.500    0.000    0.000 
#    0.000    0.000    0.000    0.000    0.000    0.000 
#
# Total GULP energy -178142.104698 kJ/mol
# GULP energy per Si atom -5566.940772 kJ/mol
# Density = 1.944695 g / cm^3
# Si number density = 19.491310 Si / 1000 Ang^3
#
#
#
# Elastic Constant Matrix: (Units=GPa)
#
#
# Indices 1 2 3 4 5 6 
#
# 1 159.1811 35.6489 66.7919 0.0000 26.5207 0.0000
# 2 35.6489 31.9236 28.7564 0.0000 15.0317 0.0000
# 3 66.7919 28.7564 127.7862 0.0000 22.1721 0.0000
# 4 0.0000 0.0000 0.0000 20.6158 0.0000 1.0674
# 5 26.5207 15.0317 22.1721 0.0000 34.4914 0.0000
# 6 0.0000 0.0000 0.0000 1.0674 0.0000 21.6773
#
#
#
# Elastic Compliance Matrix: (Units=1/GPa)
#
#
# Indices 1 2 3 4 5 6 
#
# 1 0.009449 -0.006704 -0.003012 0.000000 -0.002407 0.000000
# 2 -0.006704 0.049880 -0.005451 0.000000 -0.013079 0.000000
# 3 -0.003012 -0.005451 0.011045 0.000000 -0.002408 0.000000
# 4 0.000000 0.000000 0.000000 0.048630 0.000000 -0.002395
# 5 -0.002407 -0.013079 -0.002408 0.000000 0.038091 0.000000
# 6 0.000000 0.000000 0.000000 -0.002395 0.000000 0.046249
#
#
# Mechanical properties :
#
#
# Convention : Reuss Voigt Hill
#
# Bulk Modulus (GPa) = 24.97644 64.58724 44.78184
# Shear Modulus (GPa) = 20.24078 27.86982 24.05530
#
# Velocity S-wave (km/s) = 3.22600 3.78545 3.51687
# Velocity P-wave (km/s) = 5.16895 7.23288 6.28620
#
# Compressibility (1/GPa) = 0.04003772
#
# Stress axis : x y z
#
# Youngs Moduli (GPa) = 105.83620 20.04796 90.54239
#
# Poissons Ratio (x) = 0.13441 0.27274
# Poissons Ratio (y) = 0.70957 0.49356
# Poissons Ratio (z) = 0.31881 0.10928
#
# Static dielectric constant tensor:
#      x y z
#    x 1.717580 0.000000 -0.044810 
#    y 0.000000 1.727330 0.000000 
#    z -0.044810 0.000000 1.753570 
# 
# From -- ./inp_files/26639.got.cif
#   From: 2010.05.17/outbox.cif.g08.bks.cpg/sg11_14_cif.got.tgz:26639.got - 2010.06.03 12:22:45.
