data_PCOD9161692
_publ_section_title
;
Structure prediction by ZEFSAII (Michael W. Deem and Ramdas Pophale) SiO2 
 PCOD9161692
Probable space group: P 21/M
;
_chemical_formula_sum "Si O2"
_cell_formula_units_Z 24
_cell_length_a 23.649909
_cell_length_b 10.926749
_cell_length_c 9.589172
_cell_angle_alpha 90.000000
_cell_angle_beta 150.364799
_cell_angle_gamma 90.000000
_cell_volume 1225.312147
_symmetry_space_group_name_H-M "P 21/M"
_symmetry_group_IT_number 11
_symmetry_cell_setting 'monoclinic'
loop_
_space_group_symop_operation_xyz
x,y,z
-x,1/2+y,-z
-x,-y,-z
x,1/2-y,z
loop_
_atom_site_type_symbol
_atom_site_label
_atom_site_fract_x
_atom_site_fract_y
_atom_site_fract_z
Si Si1 0.420980 0.118543 0.843906
Si Si2 0.461269 0.389773 0.236868
Si Si3 0.853145 0.113686 0.756207
Si Si4 0.299070 0.001034 0.346334
Si Si5 0.251265 0.396457 0.959763
Si Si6 0.879373 0.607752 0.602777
O O1 0.481492 0.250000 0.955299
O O2 0.329001 0.105625 0.524380
O O3 0.387758 0.115018 0.935164
O O4 0.500000 0.000000 0.000000
O O5 0.489080 0.250000 0.334798
O O6 0.578924 0.454948 0.450517
O O7 0.374892 0.441196 0.166150
O O8 0.837187 0.250000 0.660326
O O9 0.767260 0.096397 0.701528
O O10 0.837807 0.001739 0.615114
O O11 0.982904 0.104677 0.089715
O O12 0.229162 0.044607 0.062171
O O13 0.260089 0.250000 0.996937
O O14 0.162229 0.417254 0.644042
O O15 0.846903 0.750000 0.569609
#
# Coordination Sequence:
#
# PCOD9161692 Si02
#       6
#     4   4   4   4   4   4
#     4   9  18  32  51  75 104 142 187 229 269 318
#     4   9  18  33  50  71 105 147 185 222 267 320
#     4  10  21  38  60  84 110 142 185 234 281 331
#     4  11  20  31  52  81 114 144 179 225 278 333
#     4  10  20  34  53  78 110 147 187 227 270 327
#     4   9  20  40  62  82 107 144 187 231 279 332
#
# _framework density 19.586845
#
# number of rings (size 3 to 8) (size 9 to 14) (size 15 to 20)
#    0.000    2.333    0.000    2.500    0.000    4.000 
#    0.000    1.667    0.000    4.000    0.000    0.000 
#    0.000    0.000    0.000    0.000    0.000    0.000 
#
# Total GULP energy -133643.421322 kJ/mol
# GULP energy per Si atom -5568.475888 kJ/mol
# Density = 1.954226 g / cm^3
# Si number density = 19.586845 Si / 1000 Ang^3
#
#
#
# Elastic Constant Matrix: (Units=GPa)
#
#
# Indices 1 2 3 4 5 6 
#
# 1 62.7020 36.6391 30.3476 0.0000 -21.7208 0.0000
# 2 36.6391 109.3749 47.1857 0.0000 -12.3039 0.0000
# 3 30.3476 47.1857 89.0355 0.0000 -21.6489 0.0000
# 4 0.0000 0.0000 0.0000 17.7306 0.0000 3.1767
# 5 -21.7208 -12.3039 -21.6489 0.0000 34.6911 0.0000
# 6 0.0000 0.0000 0.0000 3.1767 0.0000 25.0899
#
#
#
# Elastic Compliance Matrix: (Units=1/GPa)
#
#
# Indices 1 2 3 4 5 6 
#
# 1 0.024658 -0.005891 -0.002401 0.000000 0.011851 0.000000
# 2 -0.005891 0.013264 -0.005628 0.000000 -0.002497 0.000000
# 3 -0.002401 -0.005628 0.016719 0.000000 0.006934 0.000000
# 4 0.000000 0.000000 0.000000 0.057709 0.000000 -0.007307
# 5 0.011851 -0.002497 0.006934 0.000000 0.039688 0.000000
# 6 0.000000 0.000000 0.000000 -0.007307 0.000000 0.040782
#
#
# Mechanical properties :
#
#
# Convention : Reuss Voigt Hill
#
# Bulk Modulus (GPa) = 37.31400 54.38415 45.84908
# Shear Modulus (GPa) = 21.77764 25.29831 23.53798
#
# Velocity S-wave (km/s) = 3.33806 3.59778 3.47035
# Velocity P-wave (km/s) = 5.82656 6.71451 6.28623
#
# Compressibility (1/GPa) = 0.02679959
#
# Stress axis : x y z
#
# Youngs Moduli (GPa) = 40.55398 75.39423 59.81369
#
# Poissons Ratio (x) = 0.44417 0.14361
# Poissons Ratio (y) = 0.23891 0.33665
# Poissons Ratio (z) = 0.09737 0.42434
#
# Static dielectric constant tensor:
#      x y z
#    x 1.699500 0.000000 0.016090 
#    y 0.000000 1.693040 0.000000 
#    z 0.016090 0.000000 1.731920 
# 
# From -- ./inp_files/27665.got.cif
#   From: 2010.05.17/outbox.cif.g08.bks.cpg/sg11_14_cif.got.tgz:27665.got - 2010.06.03 12:22:45.
