data_PCOD9161928
_publ_section_title
;
Structure prediction by ZEFSAII (Michael W. Deem and Ramdas Pophale) SiO2 
 PCOD9161928
Probable space group: P 21/M
;
_chemical_formula_sum "Si O2"
_cell_formula_units_Z 28
_cell_length_a 15.799190
_cell_length_b 9.099146
_cell_length_c 12.663399
_cell_angle_alpha 90.000000
_cell_angle_beta 128.554439
_cell_angle_gamma 90.000000
_cell_volume 1423.644541
_symmetry_space_group_name_H-M "P 21/M"
_symmetry_group_IT_number 11
_symmetry_cell_setting 'monoclinic'
loop_
_space_group_symop_operation_xyz
x,y,z
-x,1/2+y,-z
-x,-y,-z
x,1/2-y,z
loop_
_atom_site_type_symbol
_atom_site_label
_atom_site_fract_x
_atom_site_fract_y
_atom_site_fract_z
Si Si1 0.997691 0.080626 0.607935
Si Si2 0.439108 0.572077 0.053169
Si Si3 0.870254 0.589247 0.665802
Si Si4 0.346113 0.075146 0.394210
Si Si5 0.927262 0.085608 0.027316
Si Si6 0.211393 0.423789 0.918871
Si Si7 0.506871 0.573793 0.683244
O O1 0.985103 0.250000 0.578098
O O2 0.110596 0.061706 0.759532
O O3 0.000000 0.000000 0.500000
O O4 0.894546 0.025328 0.594148
O O5 0.443619 0.750000 0.052603
O O6 0.488327 0.510825 0.202111
O O7 0.500000 0.500000 0.000000
O O8 0.315474 0.512806 0.960273
O O9 0.839748 0.750000 0.598198
O O10 0.779714 0.548784 0.680726
O O11 0.984994 0.603229 0.811576
O O12 0.368025 0.250000 0.425987
O O13 0.388813 0.040650 0.310343
O O14 0.410760 0.983647 0.532790
O O15 0.894267 0.250000 0.966579
O O16 0.831309 0.991067 0.003680
O O17 0.000000 0.000000 0.000000
O O18 0.236531 0.250000 0.950182
O O19 0.500793 0.750000 0.695381
#
# Coordination Sequence:
#
# PCOD9161928 Si02
#       7
#     4   4   4   4   4   4   4
#     4  10  21  37  59  85 115 153 192 239 293 350
#     4  12  26  44  65  90 119 159 208 257 309 371
#     4   9  19  35  55  81 114 151 191 236 287 346
#     4   9  19  37  60  87 120 159 200 247 303 361
#     4  10  20  34  55  86 119 156 195 237 291 353
#     4  10  22  41  61  85 119 156 196 246 297 353
#     4  10  21  38  61  88 120 158 200 252 307 361
#
# _framework density 19.667832000000001
#
# number of rings (size 3 to 8) (size 9 to 14) (size 15 to 20)
#    0.000    2.000    0.000    3.000    2.000    4.571 
#    0.000    1.429    0.000    0.000    0.000    0.000 
#    0.000    0.000    0.000    0.000    0.000    0.000 
#
# Total GULP energy -156159.117804 kJ/mol
# GULP energy per Si atom -5577.111350 kJ/mol
# Density = 1.962307 g / cm^3
# Si number density = 19.667832 Si / 1000 Ang^3
#
#
#
# Elastic Constant Matrix: (Units=GPa)
#
#
# Indices 1 2 3 4 5 6 
#
# 1 144.6769 76.0611 30.0481 0.0000 -18.2230 0.0000
# 2 76.0611 142.0702 56.5371 0.0000 -24.4241 0.0000
# 3 30.0481 56.5371 48.6078 0.0000 -21.0244 0.0000
# 4 0.0000 0.0000 0.0000 30.2155 0.0000 -3.8612
# 5 -18.2230 -24.4241 -21.0244 0.0000 34.6105 0.0000
# 6 0.0000 0.0000 0.0000 -3.8612 0.0000 34.8496
#
#
#
# Elastic Compliance Matrix: (Units=1/GPa)
#
#
# Indices 1 2 3 4 5 6 
#
# 1 0.009720 -0.005238 0.000947 0.000000 0.001997 0.000000
# 2 -0.005238 0.015926 -0.015759 0.000000 -0.001091 0.000000
# 3 0.000947 -0.015759 0.045741 0.000000 0.017163 0.000000
# 4 0.000000 0.000000 0.000000 0.033571 0.000000 0.003719
# 5 0.001997 -0.001091 0.017163 0.000000 0.039600 0.000000
# 6 0.000000 0.000000 0.000000 0.003719 0.000000 0.029107
#
#
# Mechanical properties :
#
#
# Convention : Reuss Voigt Hill
#
# Bulk Modulus (GPa) = 31.96063 73.40529 52.68296
# Shear Modulus (GPa) = 22.30206 31.44904 26.87555
#
# Velocity S-wave (km/s) = 3.37105 4.00310 3.70059
# Velocity P-wave (km/s) = 5.60691 7.66616 6.71593
#
# Compressibility (1/GPa) = 0.03128850
#
# Stress axis : x y z
#
# Youngs Moduli (GPa) = 102.87669 62.78850 21.86225
#
# Poissons Ratio (x) = 0.32886 -0.02070
# Poissons Ratio (y) = 0.53882 0.34453
# Poissons Ratio (z) = -0.09741 0.98948
#
# Static dielectric constant tensor:
#      x y z
#    x 1.682550 0.000000 0.010090 
#    y 0.000000 1.697120 0.000000 
#    z 0.010090 0.000000 1.704770 
# 
# From -- ./inp_files/38500.got.cif
#   From: 2010.05.17/outbox.cif.g08.bks.cpg/sg11_20_cif.got.tgz:38500.got - 2010.06.03 12:22:45.
