data_PCOD9161625
_publ_section_title
;
Structure prediction by ZEFSAII (Michael W. Deem and Ramdas Pophale) SiO2 
 PCOD9161625
Probable space group: P 21/M
;
_chemical_formula_sum "Si O2"
_cell_formula_units_Z 28
_cell_length_a 12.814858
_cell_length_b 8.732747
_cell_length_c 15.487390
_cell_angle_alpha 90.000000
_cell_angle_beta 105.345272
_cell_angle_gamma 90.000000
_cell_volume 1671.386824
_symmetry_space_group_name_H-M "P 21/M"
_symmetry_group_IT_number 11
_symmetry_cell_setting 'monoclinic'
loop_
_space_group_symop_operation_xyz
x,y,z
-x,1/2+y,-z
-x,-y,-z
x,1/2-y,z
loop_
_atom_site_type_symbol
_atom_site_label
_atom_site_fract_x
_atom_site_fract_y
_atom_site_fract_z
Si Si1 0.304530 0.433209 0.280512
Si Si2 0.517063 0.567790 0.407930
Si Si3 0.150186 0.065402 0.097117
Si Si4 0.859514 0.433779 0.614704
Si Si5 0.891607 0.934581 0.290379
Si Si6 0.747345 0.432644 0.409236
Si Si7 0.079626 0.065311 0.896456
O O1 0.317697 0.250000 0.285260
O O2 0.417488 0.511310 0.327932
O O3 0.252241 0.479969 0.177400
O O4 0.217852 0.482481 0.334297
O O5 0.500000 0.500000 0.500000
O O6 0.516552 0.750000 0.413797
O O7 0.631036 0.509522 0.396567
O O8 0.142919 0.250000 0.098942
O O9 0.148175 0.019272 0.995997
O O10 0.040985 0.998472 0.115151
O O11 0.848470 0.250000 0.625344
O O12 0.819568 0.470254 0.509557
O O13 0.984756 0.473885 0.656731
O O14 0.881310 0.750000 0.293750
O O15 0.876689 0.982177 0.187294
O O16 0.808793 0.010233 0.338001
O O17 0.733829 0.250000 0.404042
O O18 0.072435 0.250000 0.894002
#
# Coordination Sequence:
#
# PCOD9161625 Si02
#       7
#     4   4   4   4   4   4   4
#     4  11  21  33  54  81 111 143 177 222 269 315
#     4  12  24  39  58  79 105 139 181 224 267 316
#     4   9  18  31  50  80 110 139 177 220 269 316
#     4  10  20  34  52  77 109 146 180 215 261 319
#     4  10  20  34  53  78 110 148 183 217 264 318
#     4  11  23  37  54  77 108 145 183 222 266 316
#     4   9  17  31  52  77 109 144 177 218 266 318
#
# _framework density 16.752555000000001
#
# number of rings (size 3 to 8) (size 9 to 14) (size 15 to 20)
#    0.000    1.714    2.857    2.571    0.000    2.286 
#    0.000    0.000    0.000    0.857    0.000    0.000 
#    0.000    0.000    0.000    0.000    0.000    0.000 
#
# Total GULP energy -156332.048290 kJ/mol
# GULP energy per Si atom -5583.287439 kJ/mol
# Density = 1.671443 g / cm^3
# Si number density = 16.752555 Si / 1000 Ang^3
#
#
#
# Elastic Constant Matrix: (Units=GPa)
#
#
# Indices 1 2 3 4 5 6 
#
# 1 113.3468 46.6302 84.0203 0.0000 -4.8132 0.0000
# 2 46.6302 47.4622 55.1172 0.0000 -1.6712 0.0000
# 3 84.0203 55.1172 169.3337 0.0000 3.6821 0.0000
# 4 0.0000 0.0000 0.0000 15.7431 0.0000 -1.1360
# 5 -4.8132 -1.6712 3.6821 0.0000 20.6818 0.0000
# 6 0.0000 0.0000 0.0000 -1.1360 0.0000 30.5375
#
#
#
# Elastic Compliance Matrix: (Units=1/GPa)
#
#
# Indices 1 2 3 4 5 6 
#
# 1 0.017258 -0.010878 -0.005110 0.000000 0.004047 0.000000
# 2 -0.010878 0.041195 -0.008060 0.000000 0.002232 0.000000
# 3 -0.005110 -0.008060 0.011148 0.000000 -0.003825 0.000000
# 4 0.000000 0.000000 0.000000 0.063691 0.000000 0.002369
# 5 0.004047 0.002232 -0.003825 0.000000 0.050155 0.000000
# 6 0.000000 0.000000 0.000000 0.002369 0.000000 0.032835
#
#
# Mechanical properties :
#
#
# Convention : Reuss Voigt Hill
#
# Bulk Modulus (GPa) = 46.50252 77.96423 62.23338
# Shear Modulus (GPa) = 18.41315 23.01748 20.71532
#
# Velocity S-wave (km/s) = 3.31890 3.71073 3.52027
# Velocity P-wave (km/s) = 6.51963 8.06220 7.33160
#
# Compressibility (1/GPa) = 0.02150421
#
# Stress axis : x y z
#
# Youngs Moduli (GPa) = 57.94577 24.27460 89.70546
#
# Poissons Ratio (x) = 0.26407 0.45840
# Poissons Ratio (y) = 0.63035 0.72301
# Poissons Ratio (z) = 0.29610 0.19565
#
# Static dielectric constant tensor:
#      x y z
#    x 1.518830 0.000000 0.009040 
#    y 0.000000 1.562460 0.000000 
#    z 0.009040 0.000000 1.588840 
# 
# From -- ./inp_files/37455.got.cif
#   From: 2010.05.17/outbox.cif.g08.bks.cpg/sg11_19_cif.got.tgz:37455.got - 2010.06.03 12:22:45.
