data_PCOD9161640
_publ_section_title
;
Structure prediction by ZEFSAII (Michael W. Deem and Ramdas Pophale) SiO2 
 PCOD9161640
Probable space group: P 21/M
;
_chemical_formula_sum "Si O2"
_cell_formula_units_Z 28
_cell_length_a 28.381814
_cell_length_b 8.276450
_cell_length_c 10.098725
_cell_angle_alpha 90.000000
_cell_angle_beta 38.411022
_cell_angle_gamma 90.000000
_cell_volume 1473.842637
_symmetry_space_group_name_H-M "P 21/M"
_symmetry_group_IT_number 11
_symmetry_cell_setting 'monoclinic'
loop_
_space_group_symop_operation_xyz
x,y,z
-x,1/2+y,-z
-x,-y,-z
x,1/2-y,z
loop_
_atom_site_type_symbol
_atom_site_label
_atom_site_fract_x
_atom_site_fract_y
_atom_site_fract_z
Si Si1 0.515380 0.944734 0.116201
Si Si2 0.934471 0.444051 0.744425
Si Si3 0.647518 0.057013 0.473959
Si Si4 0.227066 0.442443 0.006362
Si Si5 0.022461 0.444775 0.805554
Si Si6 0.805805 0.947774 0.626525
Si Si7 0.320883 0.054629 0.296747
O O1 0.646035 0.250000 0.482710
O O2 0.439536 0.001325 0.358474
O O3 0.500000 0.000000 0.000000
O O4 0.601770 0.999101 0.949540
O O5 0.930553 0.250000 0.751078
O O6 0.853571 0.511680 0.880008
O O7 0.000000 0.500000 0.500000
O O8 0.962025 0.498944 0.828724
O O9 0.483637 0.250000 0.878796
O O10 0.674098 0.998706 0.561345
O O11 0.705179 0.005477 0.233612
O O12 0.232702 0.250000 0.997585
O O13 0.225842 0.501152 0.161213
O O14 0.023720 0.250000 0.799283
O O15 0.107256 0.500811 0.581757
O O16 0.000000 0.500000 0.000000
O O17 0.806017 0.750000 0.626057
O O18 0.752342 0.001095 0.623497
O O19 0.320109 0.250000 0.299355
#
# Coordination Sequence:
#
# PCOD9161640 Si02
#       7
#     4   4   4   4   4   4   4
#     4   8  15  29  51  77 107 139 174 217 266 317
#     4  11  22  39  60  82 109 142 181 220 264 318
#     4  10  20  34  52  81 114 140 175 225 270 317
#     4  11  22  38  57  78 107 145 185 223 265 316
#     4  10  22  39  56  80 110 140 176 222 265 313
#     4   9  19  37  56  77 107 139 179 225 265 312
#     4   9  17  33  58  82 104 141 183 220 268 322
#
# _framework density 18.997958000000001
#
# number of rings (size 3 to 8) (size 9 to 14) (size 15 to 20)
#    0.000    2.286    1.429    1.286    2.000    1.714 
#    0.000    2.143    0.000    0.000    0.000    0.000 
#    0.000    0.000    0.000    0.000    0.000    0.000 
#
# Total GULP energy -156136.940736 kJ/mol
# GULP energy per Si atom -5576.319312 kJ/mol
# Density = 1.895472 g / cm^3
# Si number density = 18.997958 Si / 1000 Ang^3
#
#
#
# Elastic Constant Matrix: (Units=GPa)
#
#
# Indices 1 2 3 4 5 6 
#
# 1 42.7790 5.6740 7.2664 0.0000 13.0597 0.0000
# 2 5.6740 8.8712 4.6822 0.0000 0.7966 0.0000
# 3 7.2664 4.6822 119.7034 0.0000 8.2946 0.0000
# 4 0.0000 0.0000 0.0000 23.2590 0.0000 1.9854
# 5 13.0597 0.7966 8.2946 0.0000 29.0652 0.0000
# 6 0.0000 0.0000 0.0000 1.9854 0.0000 18.5730
#
#
#
# Elastic Compliance Matrix: (Units=1/GPa)
#
#
# Indices 1 2 3 4 5 6 
#
# 1 0.029664 -0.017708 -0.000223 0.000000 -0.012780 0.000000
# 2 -0.017708 0.125776 -0.004241 0.000000 0.005720 0.000000
# 3 -0.000223 -0.004241 0.008690 0.000000 -0.002264 0.000000
# 4 0.000000 0.000000 0.000000 0.043390 0.000000 -0.004638
# 5 -0.012780 0.005720 -0.002264 0.000000 0.040637 0.000000
# 6 0.000000 0.000000 0.000000 -0.004638 0.000000 0.054337
#
#
# Mechanical properties :
#
#
# Convention : Reuss Voigt Hill
#
# Bulk Modulus (GPa) = 8.34818 22.95543 15.65181
# Shear Modulus (GPa) = 12.92771 24.42818 18.67795
#
# Velocity S-wave (km/s) = 2.61143 3.58974 3.13893
# Velocity P-wave (km/s) = 3.67376 5.41211 4.62534
#
# Compressibility (1/GPa) = 0.11978655
#
# Stress axis : x y z
#
# Youngs Moduli (GPa) = 33.71101 7.95067 115.07158
#
# Poissons Ratio (x) = 0.14079 0.02560
# Poissons Ratio (y) = 0.59695 0.48804
# Poissons Ratio (z) = 0.00750 0.03372
#
# Static dielectric constant tensor:
#      x y z
#    x 1.654140 0.000000 -0.022440 
#    y 0.000000 1.672680 0.000000 
#    z -0.022440 0.000000 1.661550 
# 
# From -- ./inp_files/28296.got.cif
#   From: 2010.05.17/outbox.cif.g08.bks.cpg/sg11_15_cif.got.tgz:28296.got - 2010.06.03 12:22:45.
