data_PCOD9161672
_publ_section_title
;
Structure prediction by ZEFSAII (Michael W. Deem and Ramdas Pophale) SiO2 
 PCOD9161672
Probable space group: P 21/M
;
_chemical_formula_sum "Si O2"
_cell_formula_units_Z 32
_cell_length_a 14.741477
_cell_length_b 8.708454
_cell_length_c 27.047351
_cell_angle_alpha 90.000000
_cell_angle_beta 34.658751
_cell_angle_gamma 90.000000
_cell_volume 1974.606091
_symmetry_space_group_name_H-M "P 21/M"
_symmetry_group_IT_number 11
_symmetry_cell_setting 'monoclinic'
loop_
_space_group_symop_operation_xyz
x,y,z
-x,1/2+y,-z
-x,-y,-z
x,1/2-y,z
loop_
_atom_site_type_symbol
_atom_site_label
_atom_site_fract_x
_atom_site_fract_y
_atom_site_fract_z
Si Si1 0.512443 0.427958 0.153025
Si Si2 0.255492 0.433007 0.400473
Si Si3 0.419774 0.432301 0.770742
Si Si4 0.206606 0.569688 0.241196
Si Si5 0.792494 0.929414 0.969327
Si Si6 0.079742 0.932360 0.914136
Si Si7 0.322306 0.068854 0.087963
Si Si8 0.970843 0.566919 0.590131
O O1 0.462684 0.250000 0.175189
O O2 0.557701 0.482041 0.187156
O O3 0.372664 0.531896 0.194091
O O4 0.665317 0.457348 0.050667
O O5 0.277956 0.250000 0.391783
O O6 0.424490 0.516857 0.329536
O O7 0.171804 0.471867 0.384997
O O8 0.127921 0.486015 0.498365
O O9 0.418765 0.250000 0.778270
O O10 0.248601 0.487766 0.828278
O O11 0.176617 0.750000 0.253673
O O12 0.233614 0.506453 0.174094
O O13 0.076649 0.487383 0.334070
O O14 0.746214 0.750000 0.000157
O O15 0.779591 0.950325 0.916464
O O16 0.959031 0.953864 0.922468
O O17 0.103138 0.750000 0.911018
O O18 0.000000 0.000000 0.000000
O O19 0.341846 0.250000 0.088886
O O20 0.500000 0.000000 0.000000
O O21 0.990741 0.750000 0.579504
#
# Coordination Sequence:
#
# PCOD9161672 Si02
#       8
#     4   4   4   4   4   4   4   4
#     4  12  22  32  51  75 104 141 181 222 263 311
#     4  10  20  34  53  77 107 140 176 216 263 314
#     4  12  23  35  52  76 108 144 181 219 263 316
#     4  12  23  35  52  76 108 144 181 219 263 316
#     4  10  22  38  54  73 104 141 180 224 268 311
#     4  11  22  36  54  77 105 140 181 223 266 314
#     4  11  22  36  54  77 105 140 181 223 266 314
#     4  10  20  34  53  77 107 140 176 216 263 314
#
# _framework density 16.205763000000001
#
# number of rings (size 3 to 8) (size 9 to 14) (size 15 to 20)
#    0.000    1.000    3.750    4.875    0.000    2.000 
#    0.000    0.000    0.000    0.000    0.000    0.875 
#    0.000    0.000    0.000    0.000    0.000    0.000 
#
# Total GULP energy -178768.708002 kJ/mol
# GULP energy per Si atom -5586.522125 kJ/mol
# Density = 1.616888 g / cm^3
# Si number density = 16.205763 Si / 1000 Ang^3
#
#
#
# Elastic Constant Matrix: (Units=GPa)
#
#
# Indices 1 2 3 4 5 6 
#
# 1 68.0381 14.2448 25.7412 0.0000 5.2546 0.0000
# 2 14.2448 45.2923 19.4849 0.0000 3.9249 0.0000
# 3 25.7412 19.4849 92.2279 0.0000 5.1293 0.0000
# 4 0.0000 0.0000 0.0000 30.7566 0.0000 -1.7609
# 5 5.2546 3.9249 5.1293 0.0000 19.4609 0.0000
# 6 0.0000 0.0000 0.0000 -1.7609 0.0000 16.2667
#
#
#
# Elastic Compliance Matrix: (Units=1/GPa)
#
#
# Indices 1 2 3 4 5 6 
#
# 1 0.017116 -0.003461 -0.003885 0.000000 -0.002900 0.000000
# 2 -0.003461 0.025237 -0.004196 0.000000 -0.003049 0.000000
# 3 -0.003885 -0.004196 0.012897 0.000000 -0.001504 0.000000
# 4 0.000000 0.000000 0.000000 0.032716 0.000000 0.003542
# 5 -0.002900 -0.003049 -0.001504 0.000000 0.053179 0.000000
# 6 0.000000 0.000000 0.000000 0.003542 0.000000 0.061859
#
#
# Mechanical properties :
#
#
# Convention : Reuss Voigt Hill
#
# Bulk Modulus (GPa) = 31.08823 36.05555 33.57189
# Shear Modulus (GPa) = 21.11404 23.03600 22.07502
#
# Velocity S-wave (km/s) = 3.61345 3.77433 3.69476
# Velocity P-wave (km/s) = 6.05264 6.42581 6.24201
#
# Compressibility (1/GPa) = 0.03216651
#
# Stress axis : x y z
#
# Youngs Moduli (GPa) = 58.42547 39.62483 77.53649
#
# Poissons Ratio (x) = 0.13712 0.30121
# Poissons Ratio (y) = 0.20218 0.32537
# Poissons Ratio (z) = 0.22697 0.16628
#
# Static dielectric constant tensor:
#      x y z
#    x 1.534210 0.000000 0.003580 
#    y 0.000000 1.544270 0.000000 
#    z 0.003580 0.000000 1.550320 
# 
# From -- ./inp_files/56149.got.cif
#   From: 2010.05.17/outbox.cif.g08.bks.cpg/sg11_29_cif.got.tgz:56149.got - 2010.06.03 12:22:45.
