data_PCOD9161343
_publ_section_title
;
Structure prediction by ZEFSAII (Michael W. Deem and Ramdas Pophale) SiO2 
 PCOD9161343
Probable space group: P 21/M
;
_chemical_formula_sum "Si O2"
_cell_formula_units_Z 32
_cell_length_a 23.438431
_cell_length_b 9.289917
_cell_length_c 15.634250
_cell_angle_alpha 90.000000
_cell_angle_beta 28.597223
_cell_angle_gamma 90.000000
_cell_volume 1629.426794
_symmetry_space_group_name_H-M "P 21/M"
_symmetry_group_IT_number 11
_symmetry_cell_setting 'monoclinic'
loop_
_space_group_symop_operation_xyz
x,y,z
-x,1/2+y,-z
-x,-y,-z
x,1/2-y,z
loop_
_atom_site_type_symbol
_atom_site_label
_atom_site_fract_x
_atom_site_fract_y
_atom_site_fract_z
Si Si1 0.625488 0.083720 0.230926
Si Si2 0.264341 0.085985 0.578217
Si Si3 0.934942 0.924166 0.506020
Si Si4 0.887447 0.075064 0.882869
Si Si5 0.387341 0.914079 0.546565
Si Si6 0.001828 0.581687 0.087677
Si Si7 0.567364 0.580114 0.799283
Si Si8 0.314779 0.578927 0.196544
O O1 0.611012 0.250000 0.223146
O O2 0.629722 0.079396 0.329111
O O3 0.508036 0.996499 0.362666
O O4 0.754399 0.027912 0.031567
O O5 0.277686 0.250000 0.590847
O O6 0.367722 0.053255 0.375133
O O7 0.136791 0.075741 0.701062
O O8 0.277779 0.984291 0.641497
O O9 0.931443 0.750000 0.519812
O O10 0.012881 0.958606 0.318474
O O11 0.803195 0.990428 0.670197
O O12 0.000000 0.000000 0.500000
O O13 0.881850 0.250000 0.896017
O O14 0.922146 0.024101 0.932556
O O15 0.398353 0.750000 0.506764
O O16 0.032846 0.750000 0.032528
O O17 0.000000 0.500000 0.000000
O O18 0.586231 0.750000 0.796473
O O19 0.629662 0.480848 0.788171
O O20 0.425379 0.556943 0.985615
O O21 0.289695 0.750000 0.234197
#
# Coordination Sequence:
#
# PCOD9161343 Si02
#       8
#     4   4   4   4   4   4   4   4
#     4   9  18  35  56  75 100 138 181 219 262 320
#     4  10  20  34  53  77 107 143 180 213 255 320
#     4  11  23  40  60  81 110 148 190 234 278 329
#     4   9  19  37  60  80 104 146 190 222 262 326
#     4  10  20  33  52  78 107 136 171 222 272 312
#     4  10  20  35  56  83 113 145 181 220 266 320
#     4   9  19  36  58  81 106 141 180 219 266 326
#     4  10  20  36  58  83 109 137 176 225 278 329
#
# _framework density 19.638808000000001
#
# number of rings (size 3 to 8) (size 9 to 14) (size 15 to 20)
#    0.000    2.250    0.000    2.625    0.000    6.000 
#    0.000    9.375    0.000    0.000    0.000    0.000 
#    0.000    0.000    0.000    0.000    0.000    0.000 
#
# Total GULP energy -178578.336704 kJ/mol
# GULP energy per Si atom -5580.573022 kJ/mol
# Density = 1.959411 g / cm^3
# Si number density = 19.638808 Si / 1000 Ang^3
#
#
#
# Elastic Constant Matrix: (Units=GPa)
#
#
# Indices 1 2 3 4 5 6 
#
# 1 59.1816 28.0545 24.0957 0.0000 -14.6820 0.0000
# 2 28.0545 54.8080 33.8542 0.0000 -4.7783 0.0000
# 3 24.0957 33.8542 96.2288 0.0000 -12.5687 0.0000
# 4 0.0000 0.0000 0.0000 22.1506 0.0000 -4.4445
# 5 -14.6820 -4.7783 -12.5687 0.0000 28.7836 0.0000
# 6 0.0000 0.0000 0.0000 -4.4445 0.0000 31.2668
#
#
#
# Elastic Compliance Matrix: (Units=1/GPa)
#
#
# Indices 1 2 3 4 5 6 
#
# 1 0.025350 -0.011481 -0.000921 0.000000 0.010622 0.000000
# 2 -0.011481 0.028513 -0.007745 0.000000 -0.004505 0.000000
# 3 -0.000921 -0.007745 0.013911 0.000000 0.004319 0.000000
# 4 0.000000 0.000000 0.000000 0.046471 0.000000 0.006606
# 5 0.010622 -0.004505 0.004319 0.000000 0.041298 0.000000
# 6 0.000000 0.000000 0.000000 0.006606 0.000000 0.032922
#
#
# Mechanical properties :
#
#
# Convention : Reuss Voigt Hill
#
# Bulk Modulus (GPa) = 36.38872 42.46971 39.42921
# Shear Modulus (GPa) = 21.01554 24.72113 22.86834
#
# Velocity S-wave (km/s) = 3.27479 3.55179 3.41610
# Velocity P-wave (km/s) = 5.73308 6.20424 5.97331
#
# Compressibility (1/GPa) = 0.02748105
#
# Stress axis : x y z
#
# Youngs Moduli (GPa) = 39.44822 35.07139 71.88357
#
# Poissons Ratio (x) = 0.40264 0.06622
# Poissons Ratio (y) = 0.45289 0.55673
# Poissons Ratio (z) = 0.03634 0.27162
#
# Static dielectric constant tensor:
#      x y z
#    x 1.671400 0.000000 -0.004490 
#    y 0.000000 1.668840 0.000000 
#    z -0.004490 0.000000 1.725000 
# 
# From -- ./inp_files/55595.got.cif
#   From: 2010.05.17/outbox.cif.g08.bks.cpg/sg11_28_cif.got.tgz:55595.got - 2010.06.03 12:22:45.
