data_PCOD9161864
_publ_section_title
;
Structure prediction by ZEFSAII (Michael W. Deem and Ramdas Pophale) SiO2 
 PCOD9161864
Probable space group: P 21/M
;
_chemical_formula_sum "Si O2"
_cell_formula_units_Z 32
_cell_length_a 21.732101
_cell_length_b 10.736280
_cell_length_c 21.985887
_cell_angle_alpha 90.000000
_cell_angle_beta 160.137836
_cell_angle_gamma 90.000000
_cell_volume 1742.889780
_symmetry_space_group_name_H-M "P 21/M"
_symmetry_group_IT_number 11
_symmetry_cell_setting 'monoclinic'
loop_
_space_group_symop_operation_xyz
x,y,z
-x,1/2+y,-z
-x,-y,-z
x,1/2-y,z
loop_
_atom_site_type_symbol
_atom_site_label
_atom_site_fract_x
_atom_site_fract_y
_atom_site_fract_z
Si Si1 0.524718 0.100597 0.650415
Si Si2 0.907225 0.893397 0.612809
Si Si3 0.882946 0.899944 0.724288
Si Si4 0.577516 0.609984 0.933331
Si Si5 0.900175 0.099012 0.950373
Si Si6 0.530862 0.106479 0.796955
Si Si7 0.901283 0.545594 0.315180
Si Si8 0.753908 0.111026 0.288564
O O1 0.515641 0.250000 0.635926
O O2 0.320789 0.052242 0.450999
O O3 0.575376 0.078535 0.768038
O O4 0.688269 0.062858 0.758895
O O5 0.965446 0.750000 0.665290
O O6 0.946547 0.946509 0.717086
O O7 0.688739 0.896603 0.403568
O O8 0.998573 0.960596 0.641493
O O9 0.867071 0.750000 0.701330
O O10 0.013007 0.918530 0.901917
O O11 0.538301 0.750000 0.872320
O O12 0.603078 0.501267 0.907754
O O13 0.408451 0.570035 0.818525
O O14 0.753252 0.617902 0.138926
O O15 0.917058 0.250000 0.951657
O O16 0.000000 0.000000 0.000000
O O17 0.587774 0.250000 0.863684
O O18 0.791754 0.472061 0.265341
O O19 0.062206 0.612627 0.500930
O O20 0.708454 0.250000 0.225679
#
# Coordination Sequence:
#
# PCOD9161864 Si02
#       8
#     4   4   4   4   4   4   4   4
#     4   8  16  32  54  79 109 140 178 221 268 311
#     4   9  17  32  56  85 110 133 183 239 279 317
#     4   8  16  31  52  79 108 139 174 223 271 315
#     4  11  23  38  54  79 113 150 182 220 280 342
#     4  10  20  34  55  81 111 146 177 217 264 315
#     4   9  18  35  58  85 110 139 181 233 274 323
#     4  11  21  35  57  79 102 145 190 228 273 331
#     4  10  22  39  53  73 110 147 184 229 279 332
#
# _framework density 18.360312
#
# number of rings (size 3 to 8) (size 9 to 14) (size 15 to 20)
#    0.000    2.500    1.250    2.625    1.750    1.500 
#    0.000    1.250    0.000    3.000    0.000    0.000 
#    0.000    0.000    0.000    0.000    0.000    0.000 
#
# Total GULP energy -178253.238619 kJ/mol
# GULP energy per Si atom -5570.413707 kJ/mol
# Density = 1.831852 g / cm^3
# Si number density = 18.360312 Si / 1000 Ang^3
#
#
#
# Elastic Constant Matrix: (Units=GPa)
#
#
# Indices 1 2 3 4 5 6 
#
# 1 39.6154 26.6917 -0.0254 0.0000 15.0412 0.0000
# 2 26.6917 46.0840 4.1699 0.0000 1.9122 0.0000
# 3 -0.0254 4.1699 42.0523 0.0000 2.2922 0.0000
# 4 0.0000 0.0000 0.0000 10.8482 0.0000 12.3674
# 5 15.0412 1.9122 2.2922 0.0000 28.4750 0.0000
# 6 0.0000 0.0000 0.0000 12.3674 0.0000 42.1512
#
#
#
# Elastic Compliance Matrix: (Units=1/GPa)
#
#
# Indices 1 2 3 4 5 6 
#
# 1 0.058731 -0.033251 0.004924 0.000000 -0.029187 0.000000
# 2 -0.033251 0.040770 -0.004892 0.000000 0.015220 0.000000
# 3 0.004924 -0.004892 0.024499 0.000000 -0.004244 0.000000
# 4 0.000000 0.000000 0.000000 0.138512 0.000000 -0.040640
# 5 -0.029187 0.015220 -0.004244 0.000000 0.049855 0.000000
# 6 0.000000 0.000000 0.000000 -0.040640 0.000000 0.035648
#
#
# Mechanical properties :
#
#
# Convention : Reuss Voigt Hill
#
# Bulk Modulus (GPa) = 17.37322 21.04714 19.21018
# Shear Modulus (GPa) = 11.53021 22.75592 17.14307
#
# Velocity S-wave (km/s) = 2.50870 3.52434 3.05897
# Velocity P-wave (km/s) = 4.22781 5.29619 4.79187
#
# Compressibility (1/GPa) = 0.05755986
#
# Stress axis : x y z
#
# Youngs Moduli (GPa) = 17.02670 24.52799 40.81738
#
# Poissons Ratio (x) = 0.81559 -0.20097
# Poissons Ratio (y) = 0.56616 0.19970
# Poissons Ratio (z) = -0.08383 0.12000
#
# Static dielectric constant tensor:
#      x y z
#    x 1.635400 0.000000 0.014030 
#    y 0.000000 1.622890 0.000000 
#    z 0.014030 0.000000 1.673550 
# 
# From -- ./inp_files/66531.got.cif
#   From: 2010.05.17/outbox.cif.g08.bks.cpg/sg11_34_cif.got.tgz:66531.got - 2010.06.03 12:22:45.
