data_PCOD9161865
_publ_section_title
;
Structure prediction by ZEFSAII (Michael W. Deem and Ramdas Pophale) SiO2 
 PCOD9161865
Probable space group: P 21/M
;
_chemical_formula_sum "Si O2"
_cell_formula_units_Z 32
_cell_length_a 11.244978
_cell_length_b 8.983033
_cell_length_c 30.131493
_cell_angle_alpha 90.000000
_cell_angle_beta 30.699203
_cell_angle_gamma 90.000000
_cell_volume 1553.904549
_symmetry_space_group_name_H-M "P 21/M"
_symmetry_group_IT_number 11
_symmetry_cell_setting 'monoclinic'
loop_
_space_group_symop_operation_xyz
x,y,z
-x,1/2+y,-z
-x,-y,-z
x,1/2-y,z
loop_
_atom_site_type_symbol
_atom_site_label
_atom_site_fract_x
_atom_site_fract_y
_atom_site_fract_z
Si Si1 0.904753 0.076495 0.758798
Si Si2 0.836571 0.080349 0.998937
Si Si3 0.635878 0.929218 0.626977
Si Si4 0.752502 0.071897 0.416282
Si Si5 0.463314 0.077656 0.834709
Si Si6 0.906572 0.071262 0.463764
Si Si7 0.393836 0.417732 0.075941
Si Si8 0.276236 0.926994 0.813641
O O1 0.958865 0.250000 0.747035
O O2 0.690836 0.063872 0.792234
O O3 0.813091 0.005654 0.833710
O O4 0.114325 0.988846 0.669221
O O5 0.886139 0.250000 0.997791
O O6 0.606431 0.088462 0.042435
O O7 0.044812 0.013843 0.902651
O O8 0.756082 0.974113 0.064913
O O9 0.638983 0.750000 0.621727
O O10 0.396188 0.970365 0.728628
O O11 0.850704 0.972911 0.590720
O O12 0.699031 0.001863 0.559805
O O13 0.738343 0.250000 0.419281
O O14 0.886568 0.028247 0.418781
O O15 0.500000 0.000000 0.500000
O O16 0.442132 0.250000 0.828077
O O17 0.459555 0.970651 0.793553
O O18 0.890909 0.250000 0.471271
O O19 0.320758 0.250000 0.088091
O O20 0.500000 0.500000 0.000000
O O21 0.235294 0.750000 0.826961
#
# Coordination Sequence:
#
# PCOD9161865 Si02
#       8
#     4   4   4   4   4   4   4   4
#     4  10  21  38  61  88 114 146 192 239 286 345
#     4  10  21  36  53  77 110 146 184 228 278 332
#     4   9  19  35  56  82 110 145 187 230 281 340
#     4  11  23  40  61  87 119 155 194 243 298 349
#     4  10  20  34  55  81 111 147 185 229 278 333
#     4   9  19  37  59  81 109 145 186 234 285 339
#     4  10  21  39  62  85 111 149 192 238 287 340
#     4  11  21  33  51  79 114 149 184 226 276 334
#
# _framework density 20.593285999999999
#
# number of rings (size 3 to 8) (size 9 to 14) (size 15 to 20)
#    0.000    2.000    0.000    3.375    0.000    6.000 
#    2.250    2.500    0.000    0.000    0.000    0.000 
#    0.000    0.000    0.000    0.000    0.000    0.000 
#
# Total GULP energy -178780.535747 kJ/mol
# GULP energy per Si atom -5586.891742 kJ/mol
# Density = 2.054641 g / cm^3
# Si number density = 20.593286 Si / 1000 Ang^3
#
#
#
# Elastic Constant Matrix: (Units=GPa)
#
#
# Indices 1 2 3 4 5 6 
#
# 1 14.3822 13.1753 8.6924 0.0000 12.5124 0.0000
# 2 13.1753 85.9276 50.9740 0.0000 8.8092 0.0000
# 3 8.6924 50.9740 155.9097 0.0000 24.2859 0.0000
# 4 0.0000 0.0000 0.0000 37.1015 0.0000 3.9396
# 5 12.5124 8.8092 24.2859 0.0000 32.1879 0.0000
# 6 0.0000 0.0000 0.0000 3.9396 0.0000 26.3597
#
#
#
# Elastic Compliance Matrix: (Units=1/GPa)
#
#
# Indices 1 2 3 4 5 6 
#
# 1 0.123883 -0.017879 0.006434 0.000000 -0.048118 0.000000
# 2 -0.017879 0.017024 -0.005582 0.000000 0.006503 0.000000
# 3 0.006434 -0.005582 0.009102 0.000000 -0.007841 0.000000
# 4 0.000000 0.000000 0.000000 0.027388 0.000000 -0.004093
# 5 -0.048118 0.006503 -0.007841 0.000000 0.053909 0.000000
# 6 0.000000 0.000000 0.000000 -0.004093 0.000000 0.038548
#
#
# Mechanical properties :
#
#
# Convention : Reuss Voigt Hill
#
# Bulk Modulus (GPa) = 8.62408 44.65591 26.64000
# Shear Modulus (GPa) = 14.59607 31.35501 22.97554
#
# Velocity S-wave (km/s) = 2.66518 3.90626 3.34380
# Velocity P-wave (km/s) = 3.69700 6.48668 5.27943
#
# Compressibility (1/GPa) = 0.11595438
#
# Stress axis : x y z
#
# Youngs Moduli (GPa) = 8.07216 58.74140 109.87111
#
# Poissons Ratio (x) = 1.05022 -0.70690
# Poissons Ratio (y) = 0.14432 0.61330
# Poissons Ratio (z) = -0.05194 0.32789
#
# Static dielectric constant tensor:
#      x y z
#    x 1.773510 0.000000 -0.008060 
#    y 0.000000 1.692220 0.000000 
#    z -0.008060 0.000000 1.717160 
# 
# From -- ./inp_files/73047.got.cif
#   From: 2010.05.17/outbox.cif.g08.bks.cpg/sg11_37_cif.got.tgz:73047.got - 2010.06.03 12:22:45.
