data_PCOD9161258
_publ_section_title
;
Structure prediction by ZEFSAII (Michael W. Deem and Ramdas Pophale) SiO2 
 PCOD9161258
Probable space group: P 21/M
;
_chemical_formula_sum "Si O2"
_cell_formula_units_Z 24
_cell_length_a 7.081040
_cell_length_b 7.626573
_cell_length_c 23.923063
_cell_angle_alpha 90.000000
_cell_angle_beta 50.369577
_cell_angle_gamma 90.000000
_cell_volume 995.021573
_symmetry_space_group_name_H-M "P 21/M"
_symmetry_group_IT_number 11
_symmetry_cell_setting 'monoclinic'
loop_
_space_group_symop_operation_xyz
x,y,z
-x,1/2+y,-z
-x,-y,-z
x,1/2-y,z
loop_
_atom_site_type_symbol
_atom_site_label
_atom_site_fract_x
_atom_site_fract_y
_atom_site_fract_z
Si Si1 0.533360 0.540011 0.634366
Si Si2 0.753888 0.955865 0.484585
Si Si3 0.730626 0.465252 0.209271
Si Si4 0.770786 0.964619 0.824614
Si Si5 0.749700 0.459869 0.078376
Si Si6 0.007074 0.955833 0.670634
O O1 0.574550 0.750000 0.632045
O O2 0.726555 0.465563 0.552334
O O3 0.477461 0.473943 0.707413
O O4 0.270806 0.517434 0.651628
O O5 0.755239 0.750000 0.492045
O O6 0.500000 0.000000 0.500000
O O7 0.963362 0.994916 0.399725
O O8 0.716482 0.250000 0.211867
O O9 0.736130 0.524329 0.144663
O O10 0.992551 0.517447 0.185481
O O11 0.776065 0.750000 0.822777
O O12 0.509554 0.020614 0.898239
O O13 0.814078 0.026115 0.752289
O O14 0.739710 0.250000 0.082721
O O15 0.000000 0.500000 0.000000
O O16 0.962156 0.750000 0.676928
#
# Coordination Sequence:
#
# PCOD9161258 Si02
#       6
#     4   4   4   4   4   4
#     4   7  11  20  36  58  82 111 147 180 208 247
#     4   9  14  20  34  59  89 118 150 186 220 256
#     4   8  14  27  47  68  90 119 154 187 220 265
#     4   8  15  29  48  69  92 119 154 190 221 266
#     4  10  20  33  51  72  91 116 149 186 232 280
#     4   8  13  23  39  58  83 115 149 185 220 255
#
# _framework density 24.120080000000002
#
# number of rings (size 3 to 8) (size 9 to 14) (size 15 to 20)
#    0.000    3.667    0.000    3.500    0.000    0.667 
#    0.000    0.833    0.000   11.000    0.000    0.000 
#    0.000    0.000    0.000    0.000    0.000    1.500 
#
# Total GULP energy -133815.072217 kJ/mol
# GULP energy per Si atom -5575.628009 kJ/mol
# Density = 2.406518 g / cm^3
# Si number density = 24.120080 Si / 1000 Ang^3
#
#
#
# Elastic Constant Matrix: (Units=GPa)
#
#
# Indices 1 2 3 4 5 6 
#
# 1 68.8880 -2.8540 47.3409 0.0000 -11.4624 0.0000
# 2 -2.8540 38.1795 9.6785 0.0000 -2.6559 0.0000
# 3 47.3409 9.6785 141.8041 0.0000 -26.2019 0.0000
# 4 0.0000 0.0000 0.0000 21.6752 0.0000 0.5984
# 5 -11.4624 -2.6559 -26.2019 0.0000 43.8086 0.0000
# 6 0.0000 0.0000 0.0000 0.5984 0.0000 2.0552
#
#
#
# Elastic Compliance Matrix: (Units=1/GPa)
#
#
# Indices 1 2 3 4 5 6 
#
# 1 0.019273 0.003159 -0.006389 0.000000 0.001413 0.000000
# 2 0.003159 0.027185 -0.002757 0.000000 0.000825 0.000000
# 3 -0.006389 -0.002757 0.010156 0.000000 0.004235 0.000000
# 4 0.000000 0.000000 0.000000 0.046510 0.000000 -0.013542
# 5 0.001413 0.000825 0.004235 0.000000 0.025780 0.000000
# 6 0.000000 0.000000 0.000000 -0.013542 0.000000 0.490506
#
#
# Mechanical properties :
#
#
# Convention : Reuss Voigt Hill
#
# Bulk Modulus (GPa) = 22.40248 39.68914 31.04581
# Shear Modulus (GPa) = 7.73680 26.48821 17.11250
#
# Velocity S-wave (km/s) = 1.79293 3.31748 2.66648
# Velocity P-wave (km/s) = 3.68703 5.58254 4.73069
#
# Compressibility (1/GPa) = 0.04463791
#
# Stress axis : x y z
#
# Youngs Moduli (GPa) = 51.88700 36.78550 98.46798
#
# Poissons Ratio (x) = -0.11619 0.62907
# Poissons Ratio (y) = -0.16389 0.27152
# Poissons Ratio (z) = 0.33148 0.10143
#
# Static dielectric constant tensor:
#      x y z
#    x 1.988180 0.000000 -0.010170 
#    y 0.000000 2.294700 0.000000 
#    z -0.010170 0.000000 1.973880 
# 
# From -- ./inp_files/67914.got.cif
#   From: 2010.05.17/outbox.cif.g08.bks.cpg/sg11_34_cif.got.tgz:67914.got - 2010.06.03 12:22:45.
