data_PCOD9161883
_publ_section_title
;
Structure prediction by ZEFSAII (Michael W. Deem and Ramdas Pophale) SiO2 
 PCOD9161883
Probable space group: P 21/M
;
_chemical_formula_sum "Si O2"
_cell_formula_units_Z 32
_cell_length_a 14.992076
_cell_length_b 7.588454
_cell_length_c 22.495368
_cell_angle_alpha 90.000000
_cell_angle_beta 146.295450
_cell_angle_gamma 90.000000
_cell_volume 1420.139871
_symmetry_space_group_name_H-M "P 21/M"
_symmetry_group_IT_number 11
_symmetry_cell_setting 'monoclinic'
loop_
_space_group_symop_operation_xyz
x,y,z
-x,1/2+y,-z
-x,-y,-z
x,1/2-y,z
loop_
_atom_site_type_symbol
_atom_site_label
_atom_site_fract_x
_atom_site_fract_y
_atom_site_fract_z
Si Si1 0.906042 0.959226 0.804196
Si Si2 0.969236 0.451068 0.376595
Si Si3 0.615970 0.961175 0.008526
Si Si4 0.859551 0.460557 0.969529
Si Si5 0.372317 0.537009 0.256701
Si Si6 0.377830 0.963681 0.777295
Si Si7 0.962301 0.954756 0.241700
Si Si8 0.698826 0.957835 0.399643
O O1 0.922530 0.750000 0.809604
O O2 0.749189 0.994375 0.757281
O O3 0.909198 0.030880 0.739682
O O4 0.064046 0.031186 0.927258
O O5 0.955382 0.250000 0.390893
O O6 0.790853 0.525635 0.286946
O O7 0.006011 0.452947 0.327086
O O8 0.123028 0.535451 0.494068
O O9 0.629157 0.750000 0.009976
O O10 0.528278 0.028003 0.900117
O O11 0.793448 0.028551 0.122484
O O12 0.500000 0.000000 0.000000
O O13 0.841199 0.250000 0.965942
O O14 0.705123 0.529657 0.848710
O O15 0.000000 0.500000 0.000000
O O16 0.375557 0.750000 0.254877
O O17 0.555111 0.472396 0.361539
O O18 0.384900 0.750000 0.782689
O O19 0.364496 0.022946 0.702286
O O20 0.938862 0.750000 0.243687
O O21 0.715540 0.750000 0.422376
#
# Coordination Sequence:
#
# PCOD9161883 Si02
#       8
#     4   4   4   4   4   4   4   4
#     4  10  20  34  55  82 111 148 189 229 280 341
#     4  10  21  40  60  81 113 151 192 237 282 332
#     4  10  21  37  57  85 117 150 187 231 283 337
#     4   8  15  28  47  71 101 137 172 212 265 321
#     4   9  18  35  54  78 113 146 184 234 280 329
#     4  10  21  37  58  84 117 151 184 230 285 338
#     4  11  23  37  57  85 115 151 192 233 282 338
#     4  10  22  37  59  87 113 148 192 236 282 334
#
# _framework density 22.532990999999999
#
# number of rings (size 3 to 8) (size 9 to 14) (size 15 to 20)
#    0.000    2.250    1.250    1.125    1.750    3.000 
#    0.000    0.625    0.000    0.000    0.000    0.000 
#    0.000    0.000    0.000    0.000    0.000    0.000 
#
# Total GULP energy -178607.916864 kJ/mol
# GULP energy per Si atom -5581.497402 kJ/mol
# Density = 2.248170 g / cm^3
# Si number density = 22.532991 Si / 1000 Ang^3
#
#
#
# Elastic Constant Matrix: (Units=GPa)
#
#
# Indices 1 2 3 4 5 6 
#
# 1 73.1644 -14.9360 5.7307 0.0000 -6.0994 0.0000
# 2 -14.9360 59.8770 4.4228 0.0000 9.0690 0.0000
# 3 5.7307 4.4228 86.2020 0.0000 -4.6943 0.0000
# 4 0.0000 0.0000 0.0000 6.2808 0.0000 -6.9382
# 5 -6.0994 9.0690 -4.6943 0.0000 17.4442 0.0000
# 6 0.0000 0.0000 0.0000 -6.9382 0.0000 19.1057
#
#
#
# Elastic Compliance Matrix: (Units=1/GPa)
#
#
# Indices 1 2 3 4 5 6 
#
# 1 0.014672 0.003250 -0.000969 0.000000 0.003180 0.000000
# 2 0.003250 0.019032 -0.001694 0.000000 -0.009214 0.000000
# 3 -0.000969 -0.001694 0.011957 0.000000 0.003760 0.000000
# 4 0.000000 0.000000 0.000000 0.265871 0.000000 0.096550
# 5 0.003180 -0.009214 0.003760 0.000000 0.064240 0.000000
# 6 0.000000 0.000000 0.000000 0.096550 0.000000 0.087402
#
#
# Mechanical properties :
#
#
# Convention : Reuss Voigt Hill
#
# Bulk Modulus (GPa) = 21.35180 23.29760 22.32470
# Shear Modulus (GPa) = 10.46874 23.50120 16.98497
#
# Velocity S-wave (km/s) = 2.15779 3.23301 2.74849
# Velocity P-wave (km/s) = 3.96288 4.92932 4.47228
#
# Compressibility (1/GPa) = 0.04683445
#
# Stress axis : x y z
#
# Youngs Moduli (GPa) = 68.15577 52.54221 83.63481
#
# Poissons Ratio (x) = -0.17076 0.08104
# Poissons Ratio (y) = -0.22150 0.14170
# Poissons Ratio (z) = 0.06604 0.08902
#
# Static dielectric constant tensor:
#      x y z
#    x 1.815370 0.000000 0.019440 
#    y 0.000000 1.835420 0.000000 
#    z 0.019440 0.000000 1.887860 
# 
# From -- ./inp_files/69099.got.cif
#   From: 2010.05.17/outbox.cif.g08.bks.cpg/sg11_35_cif.got.tgz:69099.got - 2010.06.03 12:22:45.
