data_PCOD9161596
_publ_section_title
;
Structure prediction by ZEFSAII (Michael W. Deem and Ramdas Pophale) SiO2 
 PCOD9161596
Probable space group: P 21/M
;
_chemical_formula_sum "Si O2"
_cell_formula_units_Z 28
_cell_length_a 22.045020
_cell_length_b 7.329861
_cell_length_c 19.725259
_cell_angle_alpha 90.000000
_cell_angle_beta 19.515155
_cell_angle_gamma 90.000000
_cell_volume 1064.751993
_symmetry_space_group_name_H-M "P 21/M"
_symmetry_group_IT_number 11
_symmetry_cell_setting 'monoclinic'
loop_
_space_group_symop_operation_xyz
x,y,z
-x,1/2+y,-z
-x,-y,-z
x,1/2-y,z
loop_
_atom_site_type_symbol
_atom_site_label
_atom_site_fract_x
_atom_site_fract_y
_atom_site_fract_z
Si Si1 0.619009 0.467490 0.971733
Si Si2 0.075820 0.526997 0.085072
Si Si3 0.460553 0.972238 0.652358
Si Si4 0.924728 0.530637 0.379753
Si Si5 0.831765 0.533129 0.225892
Si Si6 0.478520 0.469504 0.256619
Si Si7 0.229113 0.468129 0.324240
O O1 0.604619 0.250000 0.991820
O O2 0.774956 0.497089 0.751656
O O3 0.616410 0.533637 0.052069
O O4 0.428318 0.535508 0.139881
O O5 0.075741 0.750000 0.086263
O O6 0.255590 0.466818 0.856090
O O7 0.902257 0.469849 0.225046
O O8 0.061744 0.465434 0.177504
O O9 0.456326 0.750000 0.654279
O O10 0.495941 0.029716 0.693354
O O11 0.628272 0.038267 0.430155
O O12 0.952440 0.750000 0.354298
O O13 0.723953 0.497930 0.559219
O O14 0.912706 0.463671 0.469797
O O15 0.814437 0.750000 0.247352
O O16 0.000000 0.500000 0.000000
O O17 0.497605 0.250000 0.241074
O O18 0.229871 0.250000 0.329852
#
# Coordination Sequence:
#
# PCOD9161596 Si02
#       7
#     4   4   4   4   4   4   4
#     4   8  13  20  33  55  82 111 144 182 223 264
#     4   9  16  27  46  71  95 120 153 191 228 265
#     4   9  16  27  46  71  95 120 153 191 228 265
#     4   8  12  21  38  59  83 113 150 191 227 259
#     4  10  20  34  52  74  99 122 148 184 225 272
#     4   8  12  21  38  59  83 113 150 191 227 259
#     4   8  13  20  33  55  82 111 144 182 223 264
#
# _framework density 26.297204000000001
#
# number of rings (size 3 to 8) (size 9 to 14) (size 15 to 20)
#    0.000    3.429    1.429    1.714    0.000    0.571 
#    0.000    0.000    0.000    2.571    0.000    0.000 
#    0.000    0.000    0.000    0.000    0.000    0.000 
#
# Total GULP energy -156255.617939 kJ/mol
# GULP energy per Si atom -5580.557784 kJ/mol
# Density = 2.623735 g / cm^3
# Si number density = 26.297204 Si / 1000 Ang^3
#
#
#
# Elastic Constant Matrix: (Units=GPa)
#
#
# Indices 1 2 3 4 5 6 
#
# 1 67.5583 -6.0205 30.0056 0.0000 2.9604 0.0000
# 2 -6.0205 99.3368 0.3186 0.0000 -3.7766 0.0000
# 3 30.0056 0.3186 179.8205 0.0000 29.2886 0.0000
# 4 0.0000 0.0000 0.0000 7.4663 0.0000 9.2213
# 5 2.9604 -3.7766 29.2886 0.0000 38.1282 0.0000
# 6 0.0000 0.0000 0.0000 9.2213 0.0000 -2.9205
#
#
#
# Elastic Compliance Matrix: (Units=1/GPa)
#
#
# Indices 1 2 3 4 5 6 
#
# 1 0.016119 0.001026 -0.002862 0.000000 0.001049 0.000000
# 2 0.001026 0.010177 -0.000389 0.000000 0.001227 0.000000
# 3 -0.002862 -0.000389 0.006869 0.000000 -0.005093 0.000000
# 4 0.000000 0.000000 0.000000 0.027336 0.000000 0.086312
# 5 0.001049 0.001227 -0.005093 0.000000 0.030179 0.000000
# 6 0.000000 0.000000 0.000000 0.086312 0.000000 -0.069885
#
#
# Mechanical properties :
#
#
# Convention : Reuss Voigt Hill
#
# Bulk Modulus (GPa) = 34.82669 43.92478 39.37574
# Shear Modulus (GPa) = 143.60958 30.02894 86.81926
#
# Velocity S-wave (km/s) = 7.39789 3.38288 5.75207
# Velocity P-wave (km/s) = 9.28676 5.65667 7.68901
#
# Compressibility (1/GPa) = 0.02871361
#
# Stress axis : x y z
#
# Youngs Moduli (GPa) = 62.03946 98.26228 145.58388
#
# Poissons Ratio (x) = -0.10081 0.41670
# Poissons Ratio (y) = -0.06365 0.05665
# Poissons Ratio (z) = 0.17758 0.03824
#
# Static dielectric constant tensor:
#      x y z
#    x 2.062180 0.000000 0.040670 
#    y 0.000000 2.044530 0.000000 
#    z 0.040670 0.000000 2.157790 
# 
# From -- ./inp_files/61457.got.cif
#   From: 2010.05.17/outbox.cif.g08.bks.cpg/sg11_31_cif.got.tgz:61457.got - 2010.06.03 12:22:45.
