data_PCOD9161822
_publ_section_title
;
Structure prediction by ZEFSAII (Michael W. Deem and Ramdas Pophale) SiO2 
 PCOD9161822
Probable space group: P 21/M
;
_chemical_formula_sum "Si O2"
_cell_formula_units_Z 28
_cell_length_a 16.152386
_cell_length_b 8.283395
_cell_length_c 11.395158
_cell_angle_alpha 90.000000
_cell_angle_beta 60.356700
_cell_angle_gamma 90.000000
_cell_volume 1325.091441
_symmetry_space_group_name_H-M "P 21/M"
_symmetry_group_IT_number 11
_symmetry_cell_setting 'monoclinic'
loop_
_space_group_symop_operation_xyz
x,y,z
-x,1/2+y,-z
-x,-y,-z
x,1/2-y,z
loop_
_atom_site_type_symbol
_atom_site_label
_atom_site_fract_x
_atom_site_fract_y
_atom_site_fract_z
Si Si1 0.923189 0.935801 0.433424
Si Si2 0.108892 0.445821 0.944657
Si Si3 0.556883 0.946478 0.577138
Si Si4 0.529007 0.439316 0.111288
Si Si5 0.260023 0.064036 0.031328
Si Si6 0.872110 0.065815 0.712935
Si Si7 0.761611 0.936553 0.354526
O O1 0.935380 0.750000 0.467064
O O2 0.839793 0.935344 0.400116
O O3 0.024715 0.983207 0.307011
O O4 0.894743 0.047850 0.560186
O O5 0.105359 0.250000 0.941995
O O6 0.181733 0.509888 0.794123
O O7 0.168722 0.491470 0.018862
O O8 0.000000 0.500000 0.000000
O O9 0.553982 0.750000 0.583775
O O10 0.520422 0.003131 0.732309
O O11 0.664112 0.004489 0.473764
O O12 0.500000 0.000000 0.500000
O O13 0.508642 0.250000 0.122567
O O14 0.500000 0.500000 0.000000
O O15 0.641822 0.470327 0.049508
O O16 0.279638 0.250000 0.989068
O O17 0.216591 0.043903 0.191152
O O18 0.849738 0.250000 0.759994
O O19 0.739399 0.750000 0.336217
#
# Coordination Sequence:
#
# PCOD9161822 Si02
#       7
#     4   4   4   4   4   4   4
#     4   9  18  33  55  81 113 153 192 235 294 361
#     4  10  21  37  60  90 124 162 203 249 306 370
#     4  10  22  41  65  91 122 162 210 261 318 379
#     4  11  25  43  65  96 130 168 217 274 332 389
#     4  11  23  39  61  86 119 164 208 252 312 379
#     4  10  20  34  54  83 117 151 193 244 296 357
#     4   9  18  35  59  83 111 151 195 237 292 360
#
# _framework density 21.130614999999999
#
# number of rings (size 3 to 8) (size 9 to 14) (size 15 to 20)
#    0.000    2.000    0.000    3.000    2.000    5.143 
#    0.000    2.143    0.000    0.000    0.000    0.000 
#    0.000    0.000    0.000    0.000    0.000    0.000 
#
# Total GULP energy -155993.456153 kJ/mol
# GULP energy per Si atom -5571.194863 kJ/mol
# Density = 2.108252 g / cm^3
# Si number density = 21.130615 Si / 1000 Ang^3
#
#
#
# Elastic Constant Matrix: (Units=GPa)
#
#
# Indices 1 2 3 4 5 6 
#
# 1 35.4047 8.6012 66.9928 0.0000 7.2785 0.0000
# 2 8.6012 21.3216 17.5866 0.0000 6.2987 0.0000
# 3 66.9928 17.5866 160.7265 0.0000 -19.5024 0.0000
# 4 0.0000 0.0000 0.0000 17.5127 0.0000 -2.5008
# 5 7.2785 6.2987 -19.5024 0.0000 29.4549 0.0000
# 6 0.0000 0.0000 0.0000 -2.5008 0.0000 28.8876
#
#
#
# Elastic Compliance Matrix: (Units=1/GPa)
#
#
# Indices 1 2 3 4 5 6 
#
# 1 -0.494287 -0.103895 0.255431 0.000000 0.313482 0.000000
# 2 -0.103895 0.037785 0.044914 0.000000 0.047331 0.000000
# 3 0.255431 0.044914 -0.123941 0.000000 -0.154786 0.000000
# 4 0.000000 0.000000 0.000000 0.057816 0.000000 0.005005
# 5 0.313482 0.047331 -0.154786 0.000000 -0.156120 0.000000
# 6 0.000000 0.000000 0.000000 0.005005 0.000000 0.035050
#
#
# Mechanical properties :
#
#
# Convention : Reuss Voigt Hill
#
# Bulk Modulus (GPa) = -5.33204 44.86823 19.76809
# Shear Modulus (GPa) = -4.54914 23.45585 9.45336
#
# Velocity S-wave (km/s) = -1.46886 3.33534 2.11742
# Velocity P-wave (km/s) = 2.32499 6.00937 3.91835
#
# Compressibility (1/GPa) = -0.18754548
#
# Stress axis : x y z
#
# Youngs Moduli (GPa) = -2.02312 26.46581 -8.06837
#
# Poissons Ratio (x) = 2.74968 2.06091
# Poissons Ratio (y) = -0.21019 0.36238
# Poissons Ratio (z) = 0.51677 -1.18867
#
# Static dielectric constant tensor:
#      x y z
#    x 1.791990 0.000000 0.030940 
#    y 0.000000 1.788640 0.000000 
#    z 0.030940 0.000000 1.844320 
# 
# From -- ./inp_files/37911.got.cif
#   From: 2010.05.17/outbox.cif.g08.bks.cpg/sg11_19_cif.got.tgz:37911.got - 2010.06.03 12:22:45.
