data_PCOD9161678
_publ_section_title
;
Structure prediction by ZEFSAII (Michael W. Deem and Ramdas Pophale) SiO2 
 PCOD9161678
Probable space group: P 21/M
;
_chemical_formula_sum "Si O2"
_cell_formula_units_Z 32
_cell_length_a 16.393986
_cell_length_b 8.904063
_cell_length_c 26.492438
_cell_angle_alpha 90.000000
_cell_angle_beta 151.272927
_cell_angle_gamma 90.000000
_cell_volume 1858.714685
_symmetry_space_group_name_H-M "P 21/M"
_symmetry_group_IT_number 11
_symmetry_cell_setting 'monoclinic'
loop_
_space_group_symop_operation_xyz
x,y,z
-x,1/2+y,-z
-x,-y,-z
x,1/2-y,z
loop_
_atom_site_type_symbol
_atom_site_label
_atom_site_fract_x
_atom_site_fract_y
_atom_site_fract_z
Si Si1 0.411761 0.430281 0.304064
Si Si2 0.642224 0.570585 0.041593
Si Si3 0.463843 0.568642 0.225358
Si Si4 0.774041 0.930398 0.523491
Si Si5 0.283153 0.569710 0.023526
Si Si6 0.896530 0.929992 0.789490
Si Si7 0.032057 0.929327 0.277295
Si Si8 0.147765 0.429671 0.547256
O O1 0.426693 0.250000 0.310717
O O2 0.390898 0.493244 0.236159
O O3 0.585282 0.500921 0.419640
O O4 0.253372 0.470460 0.253644
O O5 0.625798 0.750000 0.032003
O O6 0.634036 0.507271 0.980302
O O7 0.500000 0.500000 0.000000
O O8 0.831655 0.532992 0.164485
O O9 0.453444 0.750000 0.225322
O O10 0.367993 0.524848 0.122283
O O11 0.663441 0.528303 0.331404
O O12 0.762470 0.750000 0.519587
O O13 0.857853 0.971582 0.514979
O O14 0.880658 0.993614 0.627697
O O15 0.301464 0.750000 0.028379
O O16 0.082408 0.534605 0.912998
O O17 0.890187 0.750000 0.777673
O O18 0.885167 0.012156 0.729713
O O19 0.048544 0.750000 0.289765
O O20 0.134905 0.250000 0.543395
O O21 0.000000 0.500000 0.500000
#
# Coordination Sequence:
#
# PCOD9161678 Si02
#       8
#     4   4   4   4   4   4   4   4
#     4  10  20  34  53  78 106 136 173 214 255 306
#     4  10  21  36  54  78 107 138 174 215 259 308
#     4   9  19  35  53  75 104 137 172 211 258 309
#     4  10  21  37  55  76 104 138 173 211 260 312
#     4   9  18  35  56  76 103 138 174 215 261 308
#     4   9  19  35  54  77 105 137 172 212 260 309
#     4  10  21  36  55  79 104 134 174 217 259 305
#     4   9  19  34  51  73 100 131 167 206 251 301
#
# _framework density 17.216197999999999
#
# number of rings (size 3 to 8) (size 9 to 14) (size 15 to 20)
#    0.000    2.500    0.000    2.250    0.000    7.500 
#    0.000    3.750    0.000    0.000    0.000    0.000 
#    0.000    0.000    0.000    0.000    0.000    0.000 
#
# Total GULP energy -178552.631909 kJ/mol
# GULP energy per Si atom -5579.769747 kJ/mol
# Density = 1.717701 g / cm^3
# Si number density = 17.216198 Si / 1000 Ang^3
#
#
#
# Elastic Constant Matrix: (Units=GPa)
#
#
# Indices 1 2 3 4 5 6 
#
# 1 189.4039 67.8943 111.8421 0.0000 4.1800 0.0000
# 2 67.8943 43.1417 53.1724 0.0000 -4.1531 0.0000
# 3 111.8421 53.1724 123.1203 0.0000 -29.3003 0.0000
# 4 0.0000 0.0000 0.0000 25.5949 0.0000 -1.9271
# 5 4.1800 -4.1531 -29.3003 0.0000 30.4190 0.0000
# 6 0.0000 0.0000 0.0000 -1.9271 0.0000 35.6278
#
#
#
# Elastic Compliance Matrix: (Units=1/GPa)
#
#
# Indices 1 2 3 4 5 6 
#
# 1 0.023147 -0.011409 -0.022350 0.000000 -0.026267 0.000000
# 2 -0.011409 0.064118 -0.019293 0.000000 -0.008262 0.000000
# 3 -0.022350 -0.019293 0.047824 0.000000 0.046502 0.000000
# 4 0.000000 0.000000 0.000000 0.039230 0.000000 0.002122
# 5 -0.026267 -0.008262 0.046502 0.000000 0.080148 0.000000
# 6 0.000000 0.000000 0.000000 0.002122 0.000000 0.028183
#
#
# Mechanical properties :
#
#
# Convention : Reuss Voigt Hill
#
# Bulk Modulus (GPa) = 34.50168 91.27595 62.88882
# Shear Modulus (GPa) = 12.54971 26.51214 19.53092
#
# Velocity S-wave (km/s) = 2.70283 3.92848 3.37181
# Velocity P-wave (km/s) = 5.46115 8.58544 7.19493
#
# Compressibility (1/GPa) = 0.02898409
#
# Stress axis : x y z
#
# Youngs Moduli (GPa) = 43.20232 15.59619 20.91014
#
# Poissons Ratio (x) = 0.17794 0.46734
# Poissons Ratio (y) = 0.49291 0.40342
# Poissons Ratio (z) = 0.96558 0.30089
#
# Static dielectric constant tensor:
#      x y z
#    x 1.554110 0.000000 0.001640 
#    y 0.000000 1.577590 0.000000 
#    z 0.001640 0.000000 1.570050 
# 
# From -- ./inp_files/51637.got.cif
#   From: 2010.05.17/outbox.cif.g08.bks.cpg/sg11_26_cif.got.tgz:51637.got - 2010.06.03 12:22:45.
