data_PCOD9161050
_publ_section_title
;
Structure prediction by ZEFSAII (Michael W. Deem and Ramdas Pophale) SiO2 
 PCOD9161050
Probable space group: P 21/M
;
_chemical_formula_sum "Si O2"
_cell_formula_units_Z 32
_cell_length_a 21.547363
_cell_length_b 9.372444
_cell_length_c 25.064598
_cell_angle_alpha 90.000000
_cell_angle_beta 163.899155
_cell_angle_gamma 90.000000
_cell_volume 1403.791906
_symmetry_space_group_name_H-M "P 21/M"
_symmetry_group_IT_number 11
_symmetry_cell_setting 'monoclinic'
loop_
_space_group_symop_operation_xyz
x,y,z
-x,1/2+y,-z
-x,-y,-z
x,1/2-y,z
loop_
_atom_site_type_symbol
_atom_site_label
_atom_site_fract_x
_atom_site_fract_y
_atom_site_fract_z
Si Si1 0.835608 0.587909 0.801819
Si Si2 0.941661 0.091199 0.269953
Si Si3 0.890691 0.090686 0.682674
Si Si4 0.308186 0.582927 0.710921
Si Si5 0.805462 0.911385 0.960314
Si Si6 0.468150 0.411691 0.556891
Si Si7 0.855613 0.417559 0.313545
Si Si8 0.544993 0.587951 0.264664
O O1 0.880907 0.750000 0.856058
O O2 0.681461 0.502814 0.715712
O O3 0.686975 0.594752 0.624549
O O4 0.056684 0.501589 0.968824
O O5 0.894857 0.250000 0.209994
O O6 0.196624 0.091795 0.503479
O O7 0.794608 0.065115 0.201225
O O8 0.952622 0.974564 0.233395
O O9 0.817803 0.250000 0.608088
O O10 0.029913 0.097458 0.852369
O O11 0.681173 0.989231 0.522145
O O12 0.336629 0.750000 0.721075
O O13 0.324181 0.565228 0.787946
O O14 0.456103 0.485598 0.794441
O O15 0.054704 0.529234 0.489439
O O16 0.756848 0.750000 0.902539
O O17 0.594025 0.994654 0.808686
O O18 0.523883 0.250000 0.618389
O O19 0.934375 0.250000 0.383657
O O20 0.460050 0.750000 0.192862
#
# Coordination Sequence:
#
# PCOD9161050 Si02
#       8
#     4   4   4   4   4   4   4   4
#     4   9  16  27  45  69  95 122 155 196 237 276
#     4   9  18  32  49  70  97 127 158 193 235 284
#     4  10  20  32  48  72  99 126 159 198 237 280
#     4   9  15  25  44  68  93 121 154 195 239 279
#     4  10  20  33  49  71  98 127 160 197 237 282
#     4   9  16  27  45  68  94 124 157 194 235 277
#     4   8  15  27  43  66  94 122 155 195 236 279
#     4  10  20  33  49  71  98 127 160 197 238 285
#
# _framework density 22.795400999999998
#
# number of rings (size 3 to 8) (size 9 to 14) (size 15 to 20)
#    0.000    2.750    0.000    3.000    0.000    7.500 
#    0.000    0.000    0.000    1.500    0.000    0.000 
#    0.000    0.000    0.000    0.000    0.000    0.000 
#
# Total GULP energy -178823.186523 kJ/mol
# GULP energy per Si atom -5588.224579 kJ/mol
# Density = 2.274352 g / cm^3
# Si number density = 22.795401 Si / 1000 Ang^3
#
#
#
# Elastic Constant Matrix: (Units=GPa)
#
#
# Indices 1 2 3 4 5 6 
#
# 1 18.4870 20.5822 39.8233 0.0000 -54.0908 0.0000
# 2 20.5822 167.2474 49.6195 0.0000 -16.3559 0.0000
# 3 39.8233 49.6195 52.2238 0.0000 23.4746 0.0000
# 4 0.0000 0.0000 0.0000 18.4895 0.0000 11.1821
# 5 -54.0908 -16.3559 23.4746 0.0000 -30.7033 0.0000
# 6 0.0000 0.0000 0.0000 11.1821 0.0000 27.3467
#
#
#
# Elastic Compliance Matrix: (Units=1/GPa)
#
#
# Indices 1 2 3 4 5 6 
#
# 1 0.010244 -0.003290 0.001964 0.000000 -0.014792 0.000000
# 2 -0.003290 0.007453 -0.004014 0.000000 -0.001244 0.000000
# 3 0.001964 -0.004014 0.016417 0.000000 0.011230 0.000000
# 4 0.000000 0.000000 0.000000 0.071854 0.000000 -0.029381
# 5 -0.014792 -0.001244 0.011230 0.000000 0.002739 0.000000
# 6 0.000000 0.000000 0.000000 -0.029381 0.000000 0.048581
#
#
# Mechanical properties :
#
#
# Convention : Reuss Voigt Hill
#
# Bulk Modulus (GPa) = 42.67408 50.88980 46.78194
# Shear Modulus (GPa) = 28.44471 11.55545 20.00008
#
# Velocity S-wave (km/s) = 3.53629 2.25393 2.96526
# Velocity P-wave (km/s) = 5.95272 5.39876 5.68250
#
# Compressibility (1/GPa) = 0.02343343
#
# Stress axis : x y z
#
# Youngs Moduli (GPa) = 97.62199 134.16880 60.91353
#
# Poissons Ratio (x) = 0.44140 -0.11962
# Poissons Ratio (y) = 0.32116 0.24450
# Poissons Ratio (z) = -0.19170 0.53855
#
# Static dielectric constant tensor:
#      x y z
#    x 1.863710 0.000000 -0.043130 
#    y 0.000000 1.801280 0.000000 
#    z -0.043130 0.000000 1.879170 
# 
# From -- ./inp_files/72132.got.cif
#   From: 2010.05.17/outbox.cif.g08.bks.cpg/sg11_37_cif.got.tgz:72132.got - 2010.06.03 12:22:45.
