data_PCOD9161015
_publ_section_title
;
Structure prediction by ZEFSAII (Michael W. Deem and Ramdas Pophale) SiO2 
 PCOD9161015
Probable space group: P 21/M
;
_chemical_formula_sum "Si O2"
_cell_formula_units_Z 32
_cell_length_a 20.033593
_cell_length_b 7.369904
_cell_length_c 11.872425
_cell_angle_alpha 90.000000
_cell_angle_beta 56.554918
_cell_angle_gamma 90.000000
_cell_volume 1462.655131
_symmetry_space_group_name_H-M "P 21/M"
_symmetry_group_IT_number 11
_symmetry_cell_setting 'monoclinic'
loop_
_space_group_symop_operation_xyz
x,y,z
-x,1/2+y,-z
-x,-y,-z
x,1/2-y,z
loop_
_atom_site_type_symbol
_atom_site_label
_atom_site_fract_x
_atom_site_fract_y
_atom_site_fract_z
Si Si1 0.124968 0.041924 0.826809
Si Si2 0.668974 0.528716 0.114255
Si Si3 0.413308 0.465638 0.031666
Si Si4 0.035739 0.470191 0.132964
Si Si5 0.171335 0.470621 0.166089
Si Si6 0.742896 0.971427 0.692056
Si Si7 0.405599 0.033560 0.583054
Si Si8 0.271808 0.027615 0.548028
O O1 0.144427 0.250000 0.837904
O O2 0.204763 0.964727 0.698884
O O3 0.085860 0.965139 0.976537
O O4 0.054218 0.036698 0.800301
O O5 0.670465 0.750000 0.117286
O O6 0.605890 0.470014 0.076659
O O7 0.640128 0.464901 0.262767
O O8 0.756176 0.474747 0.985622
O O9 0.403416 0.250000 0.035499
O O10 0.500000 0.500000 0.000000
O O11 0.342995 0.530504 0.179015
O O12 0.031936 0.250000 0.133365
O O13 0.086565 0.526830 0.193905
O O14 0.172115 0.250000 0.165131
O O15 0.193468 0.528623 0.271942
O O16 0.744713 0.750000 0.688753
O O17 0.749502 0.032902 0.557786
O O18 0.396620 0.250000 0.592911
O O19 0.358214 0.971438 0.515720
O O20 0.500000 0.000000 0.500000
O O21 0.269405 0.250000 0.547517
#
# Coordination Sequence:
#
# PCOD9161015 Si02
#       8
#     4   4   4   4   4   4   4   4
#     4   9  17  29  46  69  93 120 148 180 224 269
#     4   8  15  28  44  64  88 115 149 184 220 265
#     4   9  17  28  45  65  86 113 147 188 228 263
#     4   9  16  27  47  72  93 113 147 189 224 262
#     4   8  13  25  46  67  87 115 152 189 220 258
#     4   8  15  27  44  67  88 113 152 192 223 257
#     4  10  20  32  47  67  91 119 152 189 227 270
#     4   9  17  30  47  65  90 122 154 185 221 270
#
# _framework density 21.878019999999999
#
# number of rings (size 3 to 8) (size 9 to 14) (size 15 to 20)
#    0.000    3.250    0.000    2.250    1.750    3.000 
#    0.000    1.250    0.000    6.000    0.000    0.000 
#    0.000    0.000    0.000    0.000    0.000    0.000 
#
# Total GULP energy -178510.748970 kJ/mol
# GULP energy per Si atom -5578.460905 kJ/mol
# Density = 2.182822 g / cm^3
# Si number density = 21.878020 Si / 1000 Ang^3
#
#
#
# Elastic Constant Matrix: (Units=GPa)
#
#
# Indices 1 2 3 4 5 6 
#
# 1 133.4379 -9.3336 27.0266 0.0000 -0.6242 0.0000
# 2 -9.3336 76.1594 0.6692 0.0000 3.3494 0.0000
# 3 27.0266 0.6692 57.8457 0.0000 10.0162 0.0000
# 4 0.0000 0.0000 0.0000 -7.0746 0.0000 -4.2646
# 5 -0.6242 3.3494 10.0162 0.0000 22.5066 0.0000
# 6 0.0000 0.0000 0.0000 -4.2646 0.0000 15.8111
#
#
#
# Elastic Compliance Matrix: (Units=1/GPa)
#
#
# Indices 1 2 3 4 5 6 
#
# 1 0.008444 0.000985 -0.004303 0.000000 0.002003 0.000000
# 2 0.000985 0.013334 -0.000298 0.000000 -0.001824 0.000000
# 3 -0.004303 -0.000298 0.020927 0.000000 -0.009388 0.000000
# 4 0.000000 0.000000 0.000000 -0.121582 0.000000 -0.032793
# 5 0.002003 -0.001824 -0.009388 0.000000 0.048936 0.000000
# 6 0.000000 0.000000 0.000000 -0.032793 0.000000 0.054402
#
#
# Mechanical properties :
#
#
# Convention : Reuss Voigt Hill
#
# Bulk Modulus (GPa) = 28.19244 33.79636 30.99440
# Shear Modulus (GPa) = 114.89364 22.85400 68.87382
#
# Velocity S-wave (km/s) = 7.25462 3.23555 5.61686
# Velocity P-wave (km/s) = 9.11520 5.42582 7.50088
#
# Compressibility (1/GPa) = 0.03547050
#
# Stress axis : x y z
#
# Youngs Moduli (GPa) = 118.42774 74.99700 47.78506
#
# Poissons Ratio (x) = -0.07384 0.20564
# Poissons Ratio (y) = -0.11660 0.01426
# Poissons Ratio (z) = 0.50964 0.02238
#
# Static dielectric constant tensor:
#      x y z
#    x 1.814040 0.000000 0.019050 
#    y 0.000000 1.850950 0.000000 
#    z 0.019050 0.000000 1.763910 
# 
# From -- ./inp_files/42754.got.cif
#   From: 2010.05.17/outbox.cif.g08.bks.cpg/sg11_22_cif.got.tgz:42754.got - 2010.06.03 12:22:45.
