data_PCOD9161891
_publ_section_title
;
Structure prediction by ZEFSAII (Michael W. Deem and Ramdas Pophale) SiO2 
 PCOD9161891
Probable space group: P 21/M
;
_chemical_formula_sum "Si O2"
_cell_formula_units_Z 32
_cell_length_a 21.525314
_cell_length_b 8.765168
_cell_length_c 27.009524
_cell_angle_alpha 90.000000
_cell_angle_beta 21.046806
_cell_angle_gamma 90.000000
_cell_volume 1830.117390
_symmetry_space_group_name_H-M "P 21/M"
_symmetry_group_IT_number 11
_symmetry_cell_setting 'monoclinic'
loop_
_space_group_symop_operation_xyz
x,y,z
-x,1/2+y,-z
-x,-y,-z
x,1/2-y,z
loop_
_atom_site_type_symbol
_atom_site_label
_atom_site_fract_x
_atom_site_fract_y
_atom_site_fract_z
Si Si1 0.447140 0.566070 0.592535
Si Si2 0.342841 0.067384 0.976029
Si Si3 0.072683 0.433563 0.895304
Si Si4 0.792895 0.567853 0.388140
Si Si5 0.015726 0.065773 0.410551
Si Si6 0.053184 0.066395 0.269822
Si Si7 0.912682 0.067499 0.910982
Si Si8 0.725234 0.567358 0.694310
O O1 0.500000 0.500000 0.500000
O O2 0.440903 0.750000 0.594577
O O3 0.263148 0.499200 0.744306
O O4 0.598783 0.522957 0.518378
O O5 0.353400 0.250000 0.969472
O O6 0.532879 0.997978 0.837842
O O7 0.217964 0.015382 0.114319
O O8 0.244799 0.014890 0.999144
O O9 0.079758 0.250000 0.891605
O O10 0.953303 0.476605 0.936985
O O11 0.000000 0.500000 0.000000
O O12 0.796945 0.750000 0.392620
O O13 0.882541 0.488961 0.368035
O O14 0.916340 0.534260 0.249113
O O15 0.001142 0.250000 0.421750
O O16 0.053354 0.015044 0.326566
O O17 0.169760 0.023922 0.333850
O O18 0.840620 0.996725 0.563445
O O19 0.055501 0.250000 0.267906
O O20 0.884341 0.250000 0.930042
O O21 0.719476 0.750000 0.695723
#
# Coordination Sequence:
#
# PCOD9161891 Si02
#       8
#     4   4   4   4   4   4   4   4
#     4  11  21  36  59  85 111 146 188 232 278 331
#     4  10  20  34  55  83 110 139 179 222 267 323
#     4  11  23  40  58  82 113 147 186 233 283 334
#     4   9  18  34  55  81 110 141 178 221 270 324
#     4   9  19  37  57  78 109 143 179 224 269 315
#     4   9  19  35  55  81 110 140 176 224 272 314
#     4   9  18  36  57  77 108 145 180 222 271 324
#     4  10  20  35  56  80 107 145 184 218 265 323
#
# _framework density 17.485216999999999
#
# number of rings (size 3 to 8) (size 9 to 14) (size 15 to 20)
#    0.000    2.250    1.250    1.500    0.000    4.000 
#    2.250    0.000    0.000    0.000    0.000    0.000 
#    0.000    0.000    0.000    0.000    0.000    0.000 
#
# Total GULP energy -178565.478002 kJ/mol
# GULP energy per Si atom -5580.171188 kJ/mol
# Density = 1.744542 g / cm^3
# Si number density = 17.485217 Si / 1000 Ang^3
#
#
#
# Elastic Constant Matrix: (Units=GPa)
#
#
# Indices 1 2 3 4 5 6 
#
# 1 146.8614 42.9345 97.5161 0.0000 3.9652 0.0000
# 2 42.9345 34.6595 43.3396 0.0000 -2.3801 0.0000
# 3 97.5161 43.3396 146.1546 0.0000 -10.9240 0.0000
# 4 0.0000 0.0000 0.0000 29.8394 0.0000 -2.3467
# 5 3.9652 -2.3801 -10.9240 0.0000 25.5619 0.0000
# 6 0.0000 0.0000 0.0000 -2.3467 0.0000 29.0753
#
#
#
# Elastic Compliance Matrix: (Units=1/GPa)
#
#
# Indices 1 2 3 4 5 6 
#
# 1 0.014673 -0.009181 -0.007542 0.000000 -0.006354 0.000000
# 2 -0.009181 0.051663 -0.009016 0.000000 0.002382 0.000000
# 3 -0.007542 -0.009016 0.015053 0.000000 0.006764 0.000000
# 4 0.000000 0.000000 0.000000 0.033727 0.000000 0.002722
# 5 -0.006354 0.002382 0.006764 0.000000 0.043219 0.000000
# 6 0.000000 0.000000 0.000000 0.002722 0.000000 0.034613
#
#
# Mechanical properties :
#
#
# Convention : Reuss Voigt Hill
#
# Bulk Modulus (GPa) = 33.43343 77.25066 55.34204
# Shear Modulus (GPa) = 19.65436 26.48767 23.07102
#
# Velocity S-wave (km/s) = 3.35633 3.89634 3.63638
# Velocity P-wave (km/s) = 5.84657 8.03234 7.02499
#
# Compressibility (1/GPa) = 0.02991019
#
# Stress axis : x y z
#
# Youngs Moduli (GPa) = 68.15263 19.35637 66.42992
#
# Poissons Ratio (x) = 0.17771 0.50104
# Poissons Ratio (y) = 0.62572 0.59892
# Poissons Ratio (z) = 0.51403 0.17451
#
# Static dielectric constant tensor:
#      x y z
#    x 1.584590 0.000000 -0.008820 
#    y 0.000000 1.587570 0.000000 
#    z -0.008820 0.000000 1.541000 
# 
# From -- ./inp_files/71980.got.cif
#   From: 2010.05.17/outbox.cif.g08.bks.cpg/sg11_36_cif.got.tgz:71980.got - 2010.06.03 12:22:45.
