data_PCOD9161994
_publ_section_title
;
Structure prediction by ZEFSAII (Michael W. Deem and Ramdas Pophale) SiO2 
 PCOD9161994
Probable space group: P 21/M
;
_chemical_formula_sum "Si O2"
_cell_formula_units_Z 28
_cell_length_a 16.113920
_cell_length_b 8.697631
_cell_length_c 20.503161
_cell_angle_alpha 90.000000
_cell_angle_beta 149.522092
_cell_angle_gamma 90.000000
_cell_volume 1457.496336
_symmetry_space_group_name_H-M "P 21/M"
_symmetry_group_IT_number 11
_symmetry_cell_setting 'monoclinic'
loop_
_space_group_symop_operation_xyz
x,y,z
-x,1/2+y,-z
-x,-y,-z
x,1/2-y,z
loop_
_atom_site_type_symbol
_atom_site_label
_atom_site_fract_x
_atom_site_fract_y
_atom_site_fract_z
Si Si1 0.205612 0.562450 0.945618
Si Si2 0.096424 0.064875 0.627409
Si Si3 0.056315 0.435040 0.343154
Si Si4 0.294616 0.922118 0.307648
Si Si5 0.394764 0.575094 0.527164
Si Si6 0.531611 0.564292 0.093703
Si Si7 0.975819 0.071760 0.054085
O O1 0.204280 0.750000 0.946386
O O2 0.156806 0.506598 0.984692
O O3 0.065617 0.517652 0.798514
O O4 0.382200 0.513584 0.038775
O O5 0.086968 0.250000 0.621130
O O6 0.288761 0.020339 0.758986
O O7 0.000000 0.000000 0.500000
O O8 0.017103 0.999042 0.639610
O O9 0.061507 0.250000 0.348248
O O10 0.237254 0.500807 0.453958
O O11 0.236994 0.750000 0.251643
O O12 0.354988 0.917487 0.422924
O O13 0.441197 0.974045 0.359614
O O14 0.149778 0.043936 0.206372
O O15 0.421968 0.750000 0.568341
O O16 0.526735 0.750000 0.086681
O O17 0.500000 0.500000 0.000000
O O18 0.941068 0.250000 0.022124
O O19 0.000000 0.000000 0.000000
#
# Coordination Sequence:
#
# PCOD9161994 Si02
#       7
#     4   4   4   4   4   4   4
#     4   9  19  36  61  88 116 152 200 250 305 370
#     4  11  24  41  62  89 126 165 204 254 312 373
#     4  11  20  36  63  89 117 156 198 246 307 371
#     4  10  20  35  56  82 113 151 193 239 296 356
#     4  10  20  34  56  86 117 146 190 245 292 348
#     4  10  20  38  64  94 121 156 204 255 309 371
#     4  11  22  39  59  82 117 159 203 255 310 368
#
# _framework density 19.211027000000001
#
# number of rings (size 3 to 8) (size 9 to 14) (size 15 to 20)
#    0.000    1.714    2.857    2.143    0.000    1.714 
#    2.571    1.429    0.000    0.000    0.000    0.000 
#    0.000    0.000    0.000    0.000    0.000    0.000 
#
# Total GULP energy -156274.650266 kJ/mol
# GULP energy per Si atom -5581.237509 kJ/mol
# Density = 1.916730 g / cm^3
# Si number density = 19.211027 Si / 1000 Ang^3
#
#
#
# Elastic Constant Matrix: (Units=GPa)
#
#
# Indices 1 2 3 4 5 6 
#
# 1 175.4856 34.3941 58.2476 0.0000 24.4262 0.0000
# 2 34.3941 37.9171 7.0962 0.0000 -2.2837 0.0000
# 3 58.2476 7.0962 66.0707 0.0000 14.7162 0.0000
# 4 0.0000 0.0000 0.0000 25.8815 0.0000 -1.0223
# 5 24.4262 -2.2837 14.7162 0.0000 39.9585 0.0000
# 6 0.0000 0.0000 0.0000 -1.0223 0.0000 30.7730
#
#
#
# Elastic Compliance Matrix: (Units=1/GPa)
#
#
# Indices 1 2 3 4 5 6 
#
# 1 0.010296 -0.008222 -0.007285 0.000000 -0.004081 0.000000
# 2 -0.008222 0.033778 0.002256 0.000000 0.006125 0.000000
# 3 -0.007285 0.002256 0.022108 0.000000 -0.003560 0.000000
# 4 0.000000 0.000000 0.000000 0.038688 0.000000 0.001285
# 5 -0.004081 0.006125 -0.003560 0.000000 0.029182 0.000000
# 6 0.000000 0.000000 0.000000 0.001285 0.000000 0.032539
#
#
# Mechanical properties :
#
#
# Convention : Reuss Voigt Hill
#
# Bulk Modulus (GPa) = 25.20100 53.21657 39.20878
# Shear Modulus (GPa) = 24.23435 31.30497 27.76966
#
# Velocity S-wave (km/s) = 3.55559 4.04112 3.80611
# Velocity P-wave (km/s) = 5.47747 7.03814 6.30627
#
# Compressibility (1/GPa) = 0.03968097
#
# Stress axis : x y z
#
# Youngs Moduli (GPa) = 97.12620 29.60519 45.23203
#
# Poissons Ratio (x) = 0.24340 0.32951
# Poissons Ratio (y) = 0.79854 -0.10205
# Poissons Ratio (z) = 0.70755 -0.06679
#
# Static dielectric constant tensor:
#      x y z
#    x 1.665450 0.000000 -0.000850 
#    y 0.000000 1.673410 0.000000 
#    z -0.000850 0.000000 1.682450 
# 
# From -- ./inp_files/65450.got.cif
#   From: 2010.05.17/outbox.cif.g08.bks.cpg/sg11_33_cif.got.tgz:65450.got - 2010.06.03 12:22:45.
