data_PCOD9161420
_publ_section_title
;
Structure prediction by ZEFSAII (Michael W. Deem and Ramdas Pophale) SiO2 
 PCOD9161420
Probable space group: P 21/M
;
_chemical_formula_sum "Si O2"
_cell_formula_units_Z 32
_cell_length_a 9.290820
_cell_length_b 13.514534
_cell_length_c 20.417872
_cell_angle_alpha 90.000000
_cell_angle_beta 45.762526
_cell_angle_gamma 90.000000
_cell_volume 1836.767555
_symmetry_space_group_name_H-M "P 21/M"
_symmetry_group_IT_number 11
_symmetry_cell_setting 'monoclinic'
loop_
_space_group_symop_operation_xyz
x,y,z
-x,1/2+y,-z
-x,-y,-z
x,1/2-y,z
loop_
_atom_site_type_symbol
_atom_site_label
_atom_site_fract_x
_atom_site_fract_y
_atom_site_fract_z
Si Si1 0.302675 0.013514 0.350319
Si Si2 0.022579 0.366105 0.927290
Si Si3 0.256622 0.030631 0.737344
Si Si4 0.891925 0.867716 0.338696
Si Si5 0.064534 0.134346 0.526862
Si Si6 0.280336 0.499246 0.204596
Si Si7 0.076504 0.366883 0.162202
Si Si8 0.731453 0.548160 0.029438
O O1 0.213743 0.101474 0.422363
O O2 0.303739 0.033557 0.272509
O O3 0.523216 0.985312 0.304295
O O4 0.143838 0.924925 0.412452
O O5 0.975575 0.250000 0.943805
O O6 0.132336 0.397165 0.825216
O O7 0.171992 0.395756 0.939079
O O8 0.831289 0.438576 0.995501
O O9 0.252886 0.078678 0.666702
O O10 0.131988 0.928049 0.775434
O O11 0.891926 0.750000 0.329049
O O12 0.846184 0.889122 0.429421
O O13 0.112354 0.914394 0.255817
O O14 0.024132 0.250000 0.537493
O O15 0.197476 0.412015 0.185123
O O16 0.493793 0.538191 0.111728
O O17 0.047416 0.250000 0.176054
O O18 0.199177 0.395519 0.057842
#
# Coordination Sequence:
#
# PCOD9161420 Si02
#       8
#     4   4   4   4   4   4   4   4
#     4  10  20  37  59  81 110 140 177 228 276 320
#     4  10  20  33  53  81 113 144 181 227 276 323
#     4  10  20  36  57  82 112 143 183 226 272 325
#     4   9  19  35  55  81 111 141 180 226 273 327
#     4   9  20  37  56  81 110 141 177 221 276 333
#     4  10  20  37  56  79 108 146 186 228 271 324
#     4  10  22  37  53  77 112 151 187 227 272 325
#     4  10  20  36  52  78 113 146 185 232 275 317
#
# _framework density 17.421911000000001
#
# number of rings (size 3 to 8) (size 9 to 14) (size 15 to 20)
#    0.000    2.250    1.250    1.125    0.000    4.000 
#    0.000    0.000    0.000    0.000    0.000    0.000 
#    0.000    0.000    0.000    0.000    0.000    0.000 
#
# Total GULP energy -178554.398243 kJ/mol
# GULP energy per Si atom -5579.824945 kJ/mol
# Density = 1.738226 g / cm^3
# Si number density = 17.421911 Si / 1000 Ang^3
#
#
#
# Elastic Constant Matrix: (Units=GPa)
#
#
# Indices 1 2 3 4 5 6 
#
# 1 101.8268 22.6322 26.3224 0.0000 19.6997 0.0000
# 2 22.6322 90.6581 13.6885 0.0000 18.8207 0.0000
# 3 26.3224 13.6885 43.3514 0.0000 15.8622 0.0000
# 4 0.0000 0.0000 0.0000 13.0634 0.0000 8.4378
# 5 19.6997 18.8207 15.8622 0.0000 15.7854 0.0000
# 6 0.0000 0.0000 0.0000 8.4378 0.0000 13.3364
#
#
#
# Elastic Compliance Matrix: (Units=1/GPa)
#
#
# Indices 1 2 3 4 5 6 
#
# 1 0.013213 -0.000076 -0.003160 0.000000 -0.013222 0.000000
# 2 -0.000076 0.014876 0.002853 0.000000 -0.020508 0.000000
# 3 -0.003160 0.002853 0.037776 0.000000 -0.037418 0.000000
# 4 0.000000 0.000000 0.000000 0.129452 0.000000 -0.081903
# 5 -0.013222 -0.020508 -0.037418 0.000000 0.141902 0.000000
# 6 0.000000 0.000000 0.000000 -0.081903 0.000000 0.126802
#
#
# Mechanical properties :
#
#
# Convention : Reuss Voigt Hill
#
# Bulk Modulus (GPa) = 15.36152 40.12472 27.74312
# Shear Modulus (GPa) = 10.27777 19.98326 15.13051
#
# Velocity S-wave (km/s) = 2.43149 3.39044 2.95019
# Velocity P-wave (km/s) = 4.08893 6.19742 5.25011
#
# Compressibility (1/GPa) = 0.06509774
#
# Stress axis : x y z
#
# Youngs Moduli (GPa) = 75.68582 67.22102 26.47156
#
# Poissons Ratio (x) = 0.00513 0.08366
# Poissons Ratio (y) = 0.00578 -0.07552
# Poissons Ratio (z) = 0.23920 -0.19178
#
# Static dielectric constant tensor:
#      x y z
#    x 1.585510 0.000000 0.024530 
#    y 0.000000 1.562150 0.000000 
#    z 0.024530 0.000000 1.581680 
# 
# From -- ./inp_files/26566.got.cif
#   From: 2010.05.17/outbox.cif.g08.bks.cpg/sg11_14_cif.got.tgz:26566.got - 2010.06.03 12:22:45.
