data_PCOD9161261
_publ_section_title
;
Structure prediction by ZEFSAII (Michael W. Deem and Ramdas Pophale) SiO2 
 PCOD9161261
Probable space group: P 21/M
;
_chemical_formula_sum "Si O2"
_cell_formula_units_Z 28
_cell_length_a 14.883122
_cell_length_b 7.830831
_cell_length_c 20.078925
_cell_angle_alpha 90.000000
_cell_angle_beta 138.938118
_cell_angle_gamma 90.000000
_cell_volume 1537.178383
_symmetry_space_group_name_H-M "P 21/M"
_symmetry_group_IT_number 11
_symmetry_cell_setting 'monoclinic'
loop_
_space_group_symop_operation_xyz
x,y,z
-x,1/2+y,-z
-x,-y,-z
x,1/2-y,z
loop_
_atom_site_type_symbol
_atom_site_label
_atom_site_fract_x
_atom_site_fract_y
_atom_site_fract_z
Si Si1 0.494079 0.448910 0.607814
Si Si2 0.104091 0.545713 0.999252
Si Si3 0.991408 0.549337 0.201163
Si Si4 0.300013 0.050174 0.384855
Si Si5 0.525009 0.545100 0.120820
Si Si6 0.583487 0.040054 0.800308
Si Si7 0.718658 0.543372 0.115568
O O1 0.460479 0.250000 0.599348
O O2 0.632348 0.462423 0.641513
O O3 0.375675 0.519826 0.493278
O O4 0.521502 0.522488 0.695998
O O5 0.107262 0.750000 0.994062
O O6 0.053975 0.473223 0.900808
O O7 0.258225 0.487606 0.102422
O O8 0.000000 0.500000 0.000000
O O9 0.006905 0.750000 0.223111
O O10 0.138227 0.467583 0.295463
O O11 0.868007 0.480725 0.178037
O O12 0.336294 0.250000 0.399536
O O13 0.537265 0.750000 0.131012
O O14 0.501415 0.483062 0.182449
O O15 0.652534 0.481219 0.147964
O O16 0.389426 0.504991 0.002231
O O17 0.584178 0.250000 0.799707
O O18 0.723832 0.750000 0.120414
#
# Coordination Sequence:
#
# PCOD9161261 Si02
#       7
#     4   4   4   4   4   4   4
#     4   9  18  34  53  73  97 125 162 206 249 294
#     4  11  21  32  47  72 102 132 161 194 243 299
#     4  11  21  33  48  69 100 134 165 201 242 288
#     4  10  20  33  51  73  95 127 169 207 244 290
#     4   9  16  30  50  71  95 124 159 199 243 296
#     4   9  17  30  50  72  95 124 156 195 245 296
#     4   9  18  30  47  71  97 126 161 199 242 287
#
# _framework density 18.215192999999999
#
# number of rings (size 3 to 8) (size 9 to 14) (size 15 to 20)
#    0.000    2.286    1.429    2.143    0.000    2.286 
#    0.000    1.429    0.000    0.857    0.000    0.000 
#    0.000    0.000    0.000    0.000    0.000    0.571 
#
# Total GULP energy -156194.909033 kJ/mol
# GULP energy per Si atom -5578.389608 kJ/mol
# Density = 1.817373 g / cm^3
# Si number density = 18.215193 Si / 1000 Ang^3
#
#
#
# Elastic Constant Matrix: (Units=GPa)
#
#
# Indices 1 2 3 4 5 6 
#
# 1 146.8075 -9.6617 79.0187 0.0000 -18.8701 0.0000
# 2 -9.6617 22.7220 -3.4809 0.0000 -2.9970 0.0000
# 3 79.0187 -3.4809 104.1645 0.0000 -17.0803 0.0000
# 4 0.0000 0.0000 0.0000 3.6215 0.0000 -5.6844
# 5 -18.8701 -2.9970 -17.0803 0.0000 26.0491 0.0000
# 6 0.0000 0.0000 0.0000 -5.6844 0.0000 10.7839
#
#
#
# Elastic Compliance Matrix: (Units=1/GPa)
#
#
# Indices 1 2 3 4 5 6 
#
# 1 0.012120 0.004356 -0.008433 0.000000 0.003751 0.000000
# 2 0.004356 0.046900 -0.000375 0.000000 0.008306 0.000000
# 3 -0.008433 -0.000375 0.016780 0.000000 0.004851 0.000000
# 4 0.000000 0.000000 0.000000 1.599543 0.000000 0.843149
# 5 0.003751 0.008306 0.004851 0.000000 0.045242 0.000000
# 6 0.000000 0.000000 0.000000 0.843149 0.000000 0.537171
#
#
# Mechanical properties :
#
#
# Convention : Reuss Voigt Hill
#
# Bulk Modulus (GPa) = 14.94866 45.04957 29.99912
# Shear Modulus (GPa) = 2.18440 21.94544 12.06492
#
# Velocity S-wave (km/s) = 1.09628 3.47477 2.57642
# Velocity P-wave (km/s) = 3.13480 6.39408 5.03543
#
# Compressibility (1/GPa) = 0.06689561
#
# Stress axis : x y z
#
# Youngs Moduli (GPa) = 82.51051 21.32177 59.59317
#
# Poissons Ratio (x) = -0.09288 0.50256
# Poissons Ratio (y) = -0.35944 0.02237
# Poissons Ratio (z) = 0.69583 0.00801
#
# Static dielectric constant tensor:
#      x y z
#    x 1.637420 0.000000 -0.007010 
#    y 0.000000 1.672450 0.000000 
#    z -0.007010 0.000000 1.620800 
# 
# From -- ./inp_files/37143.got.cif
#   From: 2010.05.17/outbox.cif.g08.bks.cpg/sg11_19_cif.got.tgz:37143.got - 2010.06.03 12:22:45.
