data_PCOD9161720
_publ_section_title
;
Structure prediction by ZEFSAII (Michael W. Deem and Ramdas Pophale) SiO2 
 PCOD9161720
Probable space group: P 21/M
;
_chemical_formula_sum "Si O2"
_cell_formula_units_Z 32
_cell_length_a 29.025872
_cell_length_b 8.632592
_cell_length_c 23.632912
_cell_angle_alpha 90.000000
_cell_angle_beta 17.739973
_cell_angle_gamma 90.000000
_cell_volume 1804.316799
_symmetry_space_group_name_H-M "P 21/M"
_symmetry_group_IT_number 11
_symmetry_cell_setting 'monoclinic'
loop_
_space_group_symop_operation_xyz
x,y,z
-x,1/2+y,-z
-x,-y,-z
x,1/2-y,z
loop_
_atom_site_type_symbol
_atom_site_label
_atom_site_fract_x
_atom_site_fract_y
_atom_site_fract_z
Si Si1 0.842324 0.435806 0.791898
Si Si2 0.482693 0.564855 0.777386
Si Si3 0.546440 0.064194 0.580667
Si Si4 0.584210 0.935196 0.780773
Si Si5 0.646614 0.563620 0.295228
Si Si6 0.726587 0.934752 0.810406
Si Si7 0.161272 0.566235 0.440306
Si Si8 0.840458 0.436322 0.164088
O O1 0.858666 0.250000 0.770923
O O2 0.819147 0.497814 0.755282
O O3 0.988425 0.514401 0.647081
O O4 0.690442 0.474412 0.004125
O O5 0.491908 0.750000 0.761226
O O6 0.534790 0.492512 0.658028
O O7 0.576019 0.519688 0.724334
O O8 0.550180 0.250000 0.575665
O O9 0.398876 0.018379 0.715772
O O10 0.701423 0.012845 0.367994
O O11 0.440997 0.250000 0.186184
O O12 0.737685 0.983214 0.630907
O O13 0.446444 0.018505 0.974290
O O14 0.500000 0.500000 0.500000
O O15 0.652493 0.750000 0.291949
O O16 0.790387 0.495168 0.160183
O O17 0.742830 0.750000 0.788668
O O18 0.780523 0.009336 0.689006
O O19 0.177201 0.750000 0.425855
O O20 0.845059 0.250000 0.158090
O O21 0.000000 0.500000 0.000000
#
# Coordination Sequence:
#
# PCOD9161720 Si02
#       8
#     4   4   4   4   4   4   4   4
#     4  10  21  38  55  76 105 136 172 220 265 310
#     4   9  20  37  58  78 100 135 179 217 258 310
#     4   9  19  34  55  80 107 137 175 216 258 306
#     4  10  21  38  55  76 106 139 175 220 264 312
#     4   9  17  31  51  78 108 140 174 213 253 298
#     4  11  21  35  55  79 105 137 173 214 264 322
#     4  12  23  35  53  79 105 135 173 217 270 323
#     4  10  20  34  53  82 114 145 175 215 263 307
#
# _framework density 17.735244000000002
#
# number of rings (size 3 to 8) (size 9 to 14) (size 15 to 20)
#    0.000    2.000    0.000    6.000    0.000    6.000 
#    0.000    1.250    0.000    0.000    0.000    0.000 
#    0.000    0.000    0.000    0.000    0.000    0.000 
#
# Total GULP energy -178584.651808 kJ/mol
# GULP energy per Si atom -5580.770369 kJ/mol
# Density = 1.769488 g / cm^3
# Si number density = 17.735244 Si / 1000 Ang^3
#
#
#
# Elastic Constant Matrix: (Units=GPa)
#
#
# Indices 1 2 3 4 5 6 
#
# 1 819.1385 235.8395 141.6847 0.0000 -81.5284 0.0000
# 2 235.8395 116.2311 34.9647 0.0000 -19.2830 0.0000
# 3 141.6847 34.9647 62.6998 0.0000 -12.9458 0.0000
# 4 0.0000 0.0000 0.0000 29.5046 0.0000 -2.3860
# 5 -81.5284 -19.2830 -12.9458 0.0000 39.9709 0.0000
# 6 0.0000 0.0000 0.0000 -2.3860 0.0000 26.6779
#
#
#
# Elastic Compliance Matrix: (Units=1/GPa)
#
#
# Indices 1 2 3 4 5 6 
#
# 1 0.004655 -0.007017 -0.005728 0.000000 0.004255 0.000000
# 2 -0.007017 0.021348 0.003346 0.000000 -0.002929 0.000000
# 3 -0.005728 0.003346 0.026736 0.000000 -0.001410 0.000000
# 4 0.000000 0.000000 0.000000 0.034140 0.000000 0.003053
# 5 0.004255 -0.002929 -0.001410 0.000000 0.031827 0.000000
# 6 0.000000 0.000000 0.000000 0.003053 0.000000 0.037757
#
#
# Mechanical properties :
#
#
# Convention : Reuss Voigt Hill
#
# Bulk Modulus (GPa) = 29.46178 202.56081 116.01129
# Shear Modulus (GPa) = 26.79868 58.26939 42.53403
#
# Velocity S-wave (km/s) = 3.89143 5.73816 4.90253
# Velocity P-wave (km/s) = 6.06951 12.58426 9.87934
#
# Compressibility (1/GPa) = 0.03394228
#
# Stress axis : x y z
#
# Youngs Moduli (GPa) = 214.80691 46.84170 37.40252
#
# Poissons Ratio (x) = 0.32868 0.21425
# Poissons Ratio (y) = 1.50727 -0.12516
# Poissons Ratio (z) = 1.23048 -0.15675
#
# Static dielectric constant tensor:
#      x y z
#    x 1.619720 0.000000 -0.013530 
#    y 0.000000 1.593600 0.000000 
#    z -0.013530 0.000000 1.595970 
# 
# From -- ./inp_files/67102.got.cif
#   From: 2010.05.17/outbox.cif.g08.bks.cpg/sg11_34_cif.got.tgz:67102.got - 2010.06.03 12:22:45.
