data_PCOD9161815
_publ_section_title
;
Structure prediction by ZEFSAII (Michael W. Deem and Ramdas Pophale) SiO2 
 PCOD9161815
Probable space group: P 21/M
;
_chemical_formula_sum "Si O2"
_cell_formula_units_Z 28
_cell_length_a 19.452363
_cell_length_b 9.183071
_cell_length_c 14.837183
_cell_angle_alpha 90.000000
_cell_angle_beta 148.208096
_cell_angle_gamma 90.000000
_cell_volume 1396.326422
_symmetry_space_group_name_H-M "P 21/M"
_symmetry_group_IT_number 11
_symmetry_cell_setting 'monoclinic'
loop_
_space_group_symop_operation_xyz
x,y,z
-x,1/2+y,-z
-x,-y,-z
x,1/2-y,z
loop_
_atom_site_type_symbol
_atom_site_label
_atom_site_fract_x
_atom_site_fract_y
_atom_site_fract_z
Si Si1 0.082630 0.925259 0.512609
Si Si2 0.914411 0.907977 0.839574
Si Si3 0.465987 0.921485 0.701260
Si Si4 0.290665 0.424104 0.134713
Si Si5 0.378275 0.412613 0.425304
Si Si6 0.386456 0.926334 0.814050
Si Si7 0.024751 0.923917 0.783868
O O1 0.073744 0.750000 0.508766
O O2 0.238296 0.962821 0.680524
O O3 0.000000 0.000000 0.500000
O O4 0.014521 0.985193 0.346745
O O5 0.978463 0.750000 0.905908
O O6 0.776007 0.897327 0.730321
O O7 0.915426 0.957568 0.737844
O O8 0.000000 0.000000 0.000000
O O9 0.437250 0.750000 0.661130
O O10 0.621255 0.939763 0.856977
O O11 0.413033 0.970347 0.739088
O O12 0.411315 0.000932 0.552641
O O13 0.264096 0.250000 0.116618
O O14 0.376182 0.470272 0.319143
O O15 0.160611 0.517198 0.976954
O O16 0.438498 0.250000 0.492361
O O17 0.399289 0.750000 0.833028
O O18 0.500000 0.000000 0.000000
O O19 0.030040 0.750000 0.770410
#
# Coordination Sequence:
#
# PCOD9161815 Si02
#       7
#     4   4   4   4   4   4   4
#     4  11  25  45  69  97 129 165 209 265 324 382
#     4  10  20  34  54  82 118 158 202 250 299 361
#     4  10  22  39  60  87 120 160 206 252 310 375
#     4  10  21  37  58  87 125 167 207 253 308 370
#     4  10  20  35  56  85 121 161 205 250 304 360
#     4  10  24  45  68  96 127 163 209 261 320 383
#     4  11  23  38  60  92 126 164 213 260 315 376
#
# _framework density 20.052616
#
# number of rings (size 3 to 8) (size 9 to 14) (size 15 to 20)
#    0.000    1.714    1.429    2.143    2.000    4.000 
#    0.000    0.000    0.000    0.000    0.000    0.000 
#    0.000    0.000    0.000    0.000    0.000    0.000 
#
# Total GULP energy -156039.834551 kJ/mol
# GULP energy per Si atom -5572.851234 kJ/mol
# Density = 2.000698 g / cm^3
# Si number density = 20.052616 Si / 1000 Ang^3
#
#
#
# Elastic Constant Matrix: (Units=GPa)
#
#
# Indices 1 2 3 4 5 6 
#
# 1 169.1141 39.5213 41.0811 0.0000 -22.1067 0.0000
# 2 39.5213 41.5051 27.4938 0.0000 -9.6448 0.0000
# 3 41.0811 27.4938 84.9674 0.0000 -19.5782 0.0000
# 4 0.0000 0.0000 0.0000 35.5608 0.0000 -6.0330
# 5 -22.1067 -9.6448 -19.5782 0.0000 27.7651 0.0000
# 6 0.0000 0.0000 0.0000 -6.0330 0.0000 29.4505
#
#
#
# Elastic Compliance Matrix: (Units=1/GPa)
#
#
# Indices 1 2 3 4 5 6 
#
# 1 0.008077 -0.006140 -0.001108 0.000000 0.003517 0.000000
# 2 -0.006140 0.035783 -0.008206 0.000000 0.001756 0.000000
# 3 -0.001108 -0.008206 0.016836 0.000000 0.008139 0.000000
# 4 0.000000 0.000000 0.000000 0.029133 0.000000 0.005968
# 5 0.003517 0.001756 0.008139 0.000000 0.045165 0.000000
# 6 0.000000 0.000000 0.000000 0.005968 0.000000 0.035178
#
#
# Mechanical properties :
#
#
# Convention : Reuss Voigt Hill
#
# Bulk Modulus (GPa) = 33.56987 56.86430 45.21709
# Shear Modulus (GPa) = 23.69574 31.05463 27.37519
#
# Velocity S-wave (km/s) = 3.44128 3.93957 3.69883
# Velocity P-wave (km/s) = 5.70676 7.00805 6.39061
#
# Compressibility (1/GPa) = 0.02978862
#
# Stress axis : x y z
#
# Youngs Moduli (GPa) = 123.81063 27.94608 59.39825
#
# Poissons Ratio (x) = 0.17158 0.06582
# Poissons Ratio (y) = 0.76014 0.48741
# Poissons Ratio (z) = 0.13720 0.22932
#
# Static dielectric constant tensor:
#      x y z
#    x 2.300920 0.000000 -0.234220 
#    y 0.000000 1.928920 0.000000 
#    z -0.234220 0.000000 1.835820 
# 
# From -- ./inp_files/54622.got.cif
#   From: 2010.05.17/outbox.cif.g08.bks.cpg/sg11_28_cif.got.tgz:54622.got - 2010.06.03 12:22:45.
