data_PCOD9161650
_publ_section_title
;
Structure prediction by ZEFSAII (Michael W. Deem and Ramdas Pophale) SiO2 
 PCOD9161650
Probable space group: P 21/M
;
_chemical_formula_sum "Si O2"
_cell_formula_units_Z 28
_cell_length_a 5.634976
_cell_length_b 9.700009
_cell_length_c 23.557761
_cell_angle_alpha 90.000000
_cell_angle_beta 106.180714
_cell_angle_gamma 90.000000
_cell_volume 1236.644119
_symmetry_space_group_name_H-M "P 21/M"
_symmetry_group_IT_number 11
_symmetry_cell_setting 'monoclinic'
loop_
_space_group_symop_operation_xyz
x,y,z
-x,1/2+y,-z
-x,-y,-z
x,1/2-y,z
loop_
_atom_site_type_symbol
_atom_site_label
_atom_site_fract_x
_atom_site_fract_y
_atom_site_fract_z
Si Si1 0.657660 0.398222 0.630154
Si Si2 0.509526 0.902374 0.254602
Si Si3 0.618044 0.094864 0.093534
Si Si4 0.964526 0.403340 0.311118
Si Si5 0.265314 0.082918 0.515776
Si Si6 0.771546 0.402662 0.973279
Si Si7 0.881759 0.595456 0.810227
O O1 0.754595 0.250000 0.614137
O O2 0.639825 0.387058 0.696587
O O3 0.385467 0.415962 0.586761
O O4 0.836955 0.527609 0.633416
O O5 0.576935 0.750000 0.238474
O O6 0.741060 0.992861 0.288112
O O7 0.341967 0.989792 0.200976
O O8 0.559761 0.250000 0.110519
O O9 0.870067 0.050729 0.141152
O O10 0.408559 0.980354 0.081660
O O11 0.656454 0.109773 0.028449
O O12 0.890715 0.250000 0.325005
O O13 0.067016 0.391261 0.253724
O O14 0.242258 0.250000 0.498381
O O15 0.500000 0.000000 0.500000
O O16 0.000000 0.000000 0.500000
O O17 0.841212 0.250000 0.958264
O O18 0.000000 0.500000 0.000000
O O19 0.824173 0.750000 0.826863
#
# Coordination Sequence:
#
# PCOD9161650 Si02
#       7
#     4   4   4   4   4   4   4
#     4   9  21  40  60  81 114 157 196 238 294 356
#     4  10  20  35  56  81 111 148 186 227 281 346
#     4   9  19  36  55  73 101 139 177 221 271 328
#     4  10  20  34  56  84 111 142 185 236 284 337
#     4  11  25  45  68  98 134 174 221 273 329 390
#     4  10  20  34  53  76 101 134 176 220 270 328
#     4   9  19  36  54  76 106 140 180 225 275 330
#
# _framework density 22.641923999999999
#
# number of rings (size 3 to 8) (size 9 to 14) (size 15 to 20)
#    0.000    2.286    0.000    1.714    2.000    4.571 
#    0.000    5.714    0.000    0.000    0.000    0.000 
#    0.000    0.000    0.000    0.000    0.000    0.000 
#
# Total GULP energy -156065.638890 kJ/mol
# GULP energy per Si atom -5573.772817 kJ/mol
# Density = 2.259039 g / cm^3
# Si number density = 22.641924 Si / 1000 Ang^3
#
#
#
# Elastic Constant Matrix: (Units=GPa)
#
#
# Indices 1 2 3 4 5 6 
#
# 1 71.4605 73.9540 23.8910 0.0000 25.4931 0.0000
# 2 73.9540 203.9434 53.1676 0.0000 68.3736 0.0000
# 3 23.8910 53.1676 104.5917 0.0000 44.4637 0.0000
# 4 0.0000 0.0000 0.0000 26.3560 0.0000 11.9886
# 5 25.4931 68.3736 44.4637 0.0000 52.6806 0.0000
# 6 0.0000 0.0000 0.0000 11.9886 0.0000 19.8652
#
#
#
# Elastic Compliance Matrix: (Units=1/GPa)
#
#
# Indices 1 2 3 4 5 6 
#
# 1 0.022528 -0.008044 -0.001342 0.000000 0.000672 0.000000
# 2 -0.008044 0.011576 0.001069 0.000000 -0.012034 0.000000
# 3 -0.001342 0.001069 0.015031 0.000000 -0.013424 0.000000
# 4 0.000000 0.000000 0.000000 0.052299 0.000000 -0.031562
# 5 0.000672 -0.012034 -0.013424 0.000000 0.045606 0.000000
# 6 0.000000 0.000000 0.000000 -0.031562 0.000000 0.069387
#
#
# Mechanical properties :
#
#
# Convention : Reuss Voigt Hill
#
# Bulk Modulus (GPa) = 30.76997 75.78008 53.27503
# Shear Modulus (GPa) = 20.50053 35.04588 27.77320
#
# Velocity S-wave (km/s) = 3.01229 3.93852 3.50612
# Velocity P-wave (km/s) = 5.07128 7.36370 6.32226
#
# Compressibility (1/GPa) = 0.03249922
#
# Stress axis : x y z
#
# Youngs Moduli (GPa) = 44.38942 86.38406 66.52839
#
# Poissons Ratio (x) = 0.69491 0.08930
# Poissons Ratio (y) = 0.35709 -0.07110
# Poissons Ratio (z) = 0.05958 -0.09232
#
# Static dielectric constant tensor:
#      x y z
#    x 1.925990 0.000000 -0.051700 
#    y 0.000000 1.926620 0.000000 
#    z -0.051700 0.000000 1.828750 
# 
# From -- ./inp_files/9626.got.cif
#   From: 2010.05.17/outbox.cif.g08.bks.cpg/sg11_5_cif.got.tgz:9626.got - 2010.06.03 12:22:45.
