data_PCOD9161125
_publ_section_title
;
Structure prediction by ZEFSAII (Michael W. Deem and Ramdas Pophale) SiO2 
 PCOD9161125
Probable space group: P 21/M
;
_chemical_formula_sum "Si O2"
_cell_formula_units_Z 30
_cell_length_a 15.855375
_cell_length_b 19.059431
_cell_length_c 15.689456
_cell_angle_alpha 90.000000
_cell_angle_beta 161.620703
_cell_angle_gamma 90.000000
_cell_volume 1494.950393
_symmetry_space_group_name_H-M "P 21/M"
_symmetry_group_IT_number 11
_symmetry_cell_setting 'monoclinic'
loop_
_space_group_symop_operation_xyz
x,y,z
-x,1/2+y,-z
-x,-y,-z
x,1/2-y,z
loop_
_atom_site_type_symbol
_atom_site_label
_atom_site_fract_x
_atom_site_fract_y
_atom_site_fract_z
Si Si1 0.620670 0.557103 0.294576
Si Si2 0.916033 0.436794 0.130785
Si Si3 0.442983 0.602977 0.830396
Si Si4 0.981939 0.589481 0.120711
Si Si5 0.922121 0.917737 0.418111
Si Si6 0.934549 0.356022 0.973277
Si Si7 0.441552 0.250000 0.464533
Si Si8 0.460718 0.830559 0.668755
O O1 0.615034 0.474147 0.265472
O O2 0.759823 0.596539 0.348916
O O3 0.802003 0.569025 0.551065
O O4 0.318875 0.577935 0.026780
O O5 0.890565 0.516860 0.074469
O O6 0.895401 0.387833 0.029274
O O7 0.450857 0.657407 0.760755
O O8 0.201883 0.619013 0.664579
O O9 0.720223 0.595681 0.146592
O O10 0.032037 0.585740 0.068361
O O11 0.245445 0.618532 0.419642
O O12 0.752167 0.646542 0.917706
O O13 0.000000 0.000000 0.500000
O O14 0.677495 0.310415 0.700894
O O15 0.204338 0.310382 0.232636
O O16 0.409820 0.750000 0.594861
#
# Coordination Sequence:
#
# PCOD9161125 Si02
#       8
#     4   4   4   4   4   4   2   4
#     4  11  20  35  59  92 128 151 203 254 313 362
#     4  12  22  40  61  96 129 159 201 266 321 363
#     4  11  19  38  55  87 130 160 194 249 308 362
#     4  12  24  41  61  89 133 161 212 256 309 375
#     4  10  20  32  60  88 119 155 190 242 304 370
#     4  11  25  41  67  88 123 168 208 256 320 366
#     4  10  24  44  62  90 112 158 218 266 288 378
#     4  12  26  39  61  92 126 172 210 250 304 381
#
# _framework density 20.067556
#
# number of rings (size 3 to 8) (size 9 to 14) (size 15 to 20)
#    0.000    0.800    2.667    7.200    5.600    0.000 
#    0.000    4.000    0.000    0.000   34.667    0.000 
#    0.000    0.000    0.000    0.000    0.000    0.000 
#
# Total GULP energy -167186.808316 kJ/mol
# GULP energy per Si atom -5572.893611 kJ/mol
# Density = 2.002188 g / cm^3
# Si number density = 20.067556 Si / 1000 Ang^3
#
#
#
# Elastic Constant Matrix: (Units=GPa)
#
#
# Indices 1 2 3 4 5 6 
#
# 1 87.5119 31.9007 2.0643 0.0000 38.6781 0.0000
# 2 31.9007 44.2325 7.8627 0.0000 27.8956 0.0000
# 3 2.0643 7.8627 116.4381 0.0000 16.1786 0.0000
# 4 0.0000 0.0000 0.0000 -30.0344 0.0000 69.1868
# 5 38.6781 27.8956 16.1786 0.0000 70.9230 0.0000
# 6 0.0000 0.0000 0.0000 69.1868 0.0000 -131.0853
#
#
#
# Elastic Compliance Matrix: (Units=1/GPa)
#
#
# Indices 1 2 3 4 5 6 
#
# 1 0.017378 -0.008771 0.001158 0.000000 -0.006291 0.000000
# 2 -0.008771 0.034511 -0.000985 0.000000 -0.008566 0.000000
# 3 0.001158 -0.000985 0.008952 0.000000 -0.002286 0.000000
# 4 0.000000 0.000000 0.000000 0.154264 0.000000 0.081421
# 5 -0.006291 -0.008566 -0.002286 0.000000 0.021422 0.000000
# 6 0.000000 0.000000 0.000000 0.081421 0.000000 0.035345
#
#
# Mechanical properties :
#
#
# Convention : Reuss Voigt Hill
#
# Bulk Modulus (GPa) = 22.91187 36.87088 29.89138
# Shear Modulus (GPa) = 16.46827 -4.28237 6.09295
#
# Velocity S-wave (km/s) = 2.86779 -1.46240 1.74437
# Velocity P-wave (km/s) = 4.73369 3.94484 4.35715
#
# Compressibility (1/GPa) = 0.04364549
#
# Stress axis : x y z
#
# Youngs Moduli (GPa) = 57.54523 28.97644 111.70799
#
# Poissons Ratio (x) = 0.25415 -0.12940
# Poissons Ratio (y) = 0.50473 0.11000
# Poissons Ratio (z) = -0.06666 0.02853
#
# Static dielectric constant tensor:
#      x y z
#    x 1.757880 0.000000 0.001870 
#    y 0.000000 1.672370 0.000000 
#    z 0.001870 0.000000 1.678120 
# 
# From -- ./inp_files/52675.got.cif
#   From: 2010.05.17/outbox.cif.g08.bks.cpg/sg11_27_cif.got.tgz:52675.got - 2010.06.03 12:22:45.
