data_PCOD9161848
_publ_section_title
;
Structure prediction by ZEFSAII (Michael W. Deem and Ramdas Pophale) SiO2 
 PCOD9161848
Probable space group: P 21/M
;
_chemical_formula_sum "Si O2"
_cell_formula_units_Z 28
_cell_length_a 14.517246
_cell_length_b 8.824197
_cell_length_c 19.523133
_cell_angle_alpha 90.000000
_cell_angle_beta 42.053445
_cell_angle_gamma 90.000000
_cell_volume 1675.210296
_symmetry_space_group_name_H-M "P 21/M"
_symmetry_group_IT_number 11
_symmetry_cell_setting 'monoclinic'
loop_
_space_group_symop_operation_xyz
x,y,z
-x,1/2+y,-z
-x,-y,-z
x,1/2-y,z
loop_
_atom_site_type_symbol
_atom_site_label
_atom_site_fract_x
_atom_site_fract_y
_atom_site_fract_z
Si Si1 0.517404 0.068847 0.699534
Si Si2 0.911460 0.569313 0.302022
Si Si3 0.009200 0.430372 0.384529
Si Si4 0.784124 0.930671 0.610829
Si Si5 0.000886 0.430840 0.109449
Si Si6 0.608981 0.068272 0.493045
Si Si7 0.218567 0.569119 0.888342
O O1 0.516169 0.250000 0.707664
O O2 0.560914 0.033749 0.597053
O O3 0.633122 0.996637 0.684169
O O4 0.368218 0.001634 0.797116
O O5 0.903338 0.750000 0.305617
O O6 0.001538 0.512607 0.316373
O O7 0.972081 0.507545 0.197722
O O8 0.758939 0.500979 0.396846
O O9 0.993986 0.250000 0.383571
O O10 0.882604 0.490691 0.500378
O O11 0.145053 0.459649 0.354807
O O12 0.784916 0.750000 0.598830
O O13 0.013068 0.250000 0.110310
O O14 0.872603 0.461994 0.129255
O O15 0.134111 0.497050 0.997684
O O16 0.615468 0.250000 0.481779
O O17 0.500000 0.000000 0.500000
O O18 0.227097 0.750000 0.891936
#
# Coordination Sequence:
#
# PCOD9161848 Si02
#       7
#     4   4   4   4   4   4   4
#     4  11  22  35  54  79 111 147 183 224 273 327
#     4  12  23  35  55  81 111 146 184 225 273 328
#     4  10  20  35  54  79 110 143 182 226 273 328
#     4  10  20  34  55  80 108 143 183 226 273 327
#     4  10  21  38  59  81 109 144 185 231 275 321
#     4  11  23  36  51  76 111 148 183 222 271 327
#     4  10  21  37  58  82 109 143 187 230 271 323
#
# _framework density 16.714319
#
# number of rings (size 3 to 8) (size 9 to 14) (size 15 to 20)
#    0.000    1.429    1.429    4.714    0.000    7.429 
#    0.000    0.000    0.000    0.857    0.000    0.000 
#    0.000    0.000    0.000    0.000    0.000    0.000 
#
# Total GULP energy -156490.796413 kJ/mol
# GULP energy per Si atom -5588.957015 kJ/mol
# Density = 1.667628 g / cm^3
# Si number density = 16.714319 Si / 1000 Ang^3
#
#
#
# Elastic Constant Matrix: (Units=GPa)
#
#
# Indices 1 2 3 4 5 6 
#
# 1 120.0048 73.2404 83.8454 0.0000 4.0155 0.0000
# 2 73.2404 96.3207 74.6913 0.0000 4.5093 0.0000
# 3 83.8454 74.6913 132.2926 0.0000 7.2789 0.0000
# 4 0.0000 0.0000 0.0000 31.9863 0.0000 -0.9383
# 5 4.0155 4.5093 7.2789 0.0000 18.3312 0.0000
# 6 0.0000 0.0000 0.0000 -0.9383 0.0000 30.5092
#
#
#
# Elastic Compliance Matrix: (Units=1/GPa)
#
#
# Indices 1 2 3 4 5 6 
#
# 1 0.018369 -0.008792 -0.006722 0.000000 0.000808 0.000000
# 2 -0.008792 0.022679 -0.007188 0.000000 -0.000799 0.000000
# 3 -0.006722 -0.007188 0.016050 0.000000 -0.003132 0.000000
# 4 0.000000 0.000000 0.000000 0.031292 0.000000 0.000962
# 5 0.000808 -0.000799 -0.003132 0.000000 0.055815 0.000000
# 6 0.000000 0.000000 0.000000 0.000962 0.000000 0.032807
#
#
# Mechanical properties :
#
#
# Convention : Reuss Voigt Hill
#
# Bulk Modulus (GPa) = 85.52397 90.24135 87.88266
# Shear Modulus (GPa) = 22.09331 23.95474 23.02403
#
# Velocity S-wave (km/s) = 3.63963 3.78985 3.71550
# Velocity P-wave (km/s) = 8.30311 8.55911 8.43208
#
# Compressibility (1/GPa) = 0.01169263
#
# Stress axis : x y z
#
# Youngs Moduli (GPa) = 54.44022 44.09449 62.30542
#
# Poissons Ratio (x) = 0.38769 0.41883
# Poissons Ratio (y) = 0.47866 0.44783
# Poissons Ratio (z) = 0.36596 0.31694
#
# Static dielectric constant tensor:
#      x y z
#    x 1.560460 0.000000 0.005360 
#    y 0.000000 1.552470 0.000000 
#    z 0.005360 0.000000 1.526640 
# 
# From -- ./inp_files/53301.got.cif
#   From: 2010.05.17/outbox.cif.g08.bks.cpg/sg11_27_cif.got.tgz:53301.got - 2010.06.03 12:22:45.
