data_PCOD9161037
_publ_section_title
;
Structure prediction by ZEFSAII (Michael W. Deem and Ramdas Pophale) SiO2 
 PCOD9161037
Probable space group: P 21/M
;
_chemical_formula_sum "Si O2"
_cell_formula_units_Z 32
_cell_length_a 8.270150
_cell_length_b 15.670165
_cell_length_c 11.722314
_cell_angle_alpha 90.000000
_cell_angle_beta 124.645795
_cell_angle_gamma 90.000000
_cell_volume 1249.776718
_symmetry_space_group_name_H-M "P 21/M"
_symmetry_group_IT_number 11
_symmetry_cell_setting 'monoclinic'
loop_
_space_group_symop_operation_xyz
x,y,z
-x,1/2+y,-z
-x,-y,-z
x,1/2-y,z
loop_
_atom_site_type_symbol
_atom_site_label
_atom_site_fract_x
_atom_site_fract_y
_atom_site_fract_z
Si Si1 0.994345 0.846284 0.213005
Si Si2 0.084758 0.525358 0.916421
Si Si3 0.549984 0.385530 0.129901
Si Si4 0.526556 0.350007 0.624763
Si Si5 0.516971 0.147317 0.366911
Si Si6 0.482211 0.084160 0.862088
Si Si7 0.959262 0.149209 0.512969
Si Si8 0.005656 0.345963 0.296468
O O1 0.947191 0.750000 0.153090
O O2 0.233168 0.854269 0.290685
O O3 0.940487 0.852706 0.325475
O O4 0.902734 0.932558 0.132003
O O5 0.955918 0.588854 0.788982
O O6 0.283915 0.573049 0.025987
O O7 0.000000 0.500000 0.000000
O O8 0.438390 0.368012 0.205632
O O9 0.593552 0.487350 0.152022
O O10 0.766323 0.343470 0.214877
O O11 0.447147 0.363202 0.967102
O O12 0.473485 0.250000 0.611308
O O13 0.452141 0.382001 0.468761
O O14 0.462808 0.387975 0.722194
O O15 0.526224 0.250000 0.381913
O O16 0.741149 0.112908 0.443193
O O17 0.937891 0.250000 0.478650
O O18 0.066525 0.116351 0.443826
O O19 0.076366 0.250000 0.300819
#
# Coordination Sequence:
#
# PCOD9161037 Si02
#       8
#     4   4   4   4   4   4   4   4
#     4   9  17  31  49  70 102 136 167 209 255 299
#     4  11  21  32  47  74 108 138 172 209 243 305
#     4   9  18  32  49  71 100 128 160 211 252 298
#     4   9  17  30  51  75  97 128 168 209 256 305
#     4   8  14  27  48  73  96 121 163 210 252 301
#     4  10  20  32  47  72 107 133 167 210 254 302
#     4   7  12  26  48  73  95 120 164 214 253 298
#     4   9  18  33  55  77  97 127 169 215 259 302
#
# _framework density 25.604572999999998
#
# number of rings (size 3 to 8) (size 9 to 14) (size 15 to 20)
#    0.000    3.000    1.250    2.625    0.000    4.000 
#    0.000    1.250    0.000    4.500    0.000    0.000 
#    0.000    0.000    0.000    0.000    0.000    0.000 
#
# Total GULP energy -178377.888372 kJ/mol
# GULP energy per Si atom -5574.309012 kJ/mol
# Density = 2.554630 g / cm^3
# Si number density = 25.604573 Si / 1000 Ang^3
#
#
#
# Elastic Constant Matrix: (Units=GPa)
#
#
# Indices 1 2 3 4 5 6 
#
# 1 75.3976 18.1681 56.8742 0.0000 -28.9895 0.0000
# 2 18.1681 67.0013 64.2676 0.0000 -24.9062 0.0000
# 3 56.8742 64.2676 226.1468 0.0000 -54.1706 0.0000
# 4 0.0000 0.0000 0.0000 42.9954 0.0000 -16.7488
# 5 -28.9895 -24.9062 -54.1706 0.0000 53.9177 0.0000
# 6 0.0000 0.0000 0.0000 -16.7488 0.0000 41.9724
#
#
#
# Elastic Compliance Matrix: (Units=1/GPa)
#
#
# Indices 1 2 3 4 5 6 
#
# 1 0.018092 0.000608 -0.003062 0.000000 0.006931 0.000000
# 2 0.000608 0.021513 -0.005015 0.000000 0.005226 0.000000
# 3 -0.003062 -0.005015 0.007464 0.000000 0.003536 0.000000
# 4 0.000000 0.000000 0.000000 0.027539 0.000000 0.010989
# 5 0.006931 0.005226 0.003536 0.000000 0.028241 0.000000
# 6 0.000000 0.000000 0.000000 0.010989 0.000000 0.028210
#
#
# Mechanical properties :
#
#
# Convention : Reuss Voigt Hill
#
# Bulk Modulus (GPa) = 31.12246 71.90727 51.51486
# Shear Modulus (GPa) = 31.90665 43.05949 37.48307
#
# Velocity S-wave (km/s) = 3.53389 4.10532 3.83027
# Velocity P-wave (km/s) = 5.36960 7.11451 6.30273
#
# Compressibility (1/GPa) = 0.03213114
#
# Stress axis : x y z
#
# Youngs Moduli (GPa) = 55.27443 46.48339 133.97138
#
# Poissons Ratio (x) = -0.02828 0.41028
# Poissons Ratio (y) = -0.03363 0.67184
# Poissons Ratio (z) = 0.16928 0.23310
#
# Static dielectric constant tensor:
#      x y z
#    x 2.063190 0.000000 0.154430 
#    y 0.000000 1.936890 0.000000 
#    z 0.154430 0.000000 1.906480 
# 
# From -- ./inp_files/35519.got.cif
#   From: 2010.05.17/outbox.cif.g08.bks.cpg/sg11_18_cif.got.tgz:35519.got - 2010.06.03 12:22:45.
