data_PCOD9161856
_publ_section_title
;
Structure prediction by ZEFSAII (Michael W. Deem and Ramdas Pophale) SiO2 
 PCOD9161856
Probable space group: P 21/M
;
_chemical_formula_sum "Si O2"
_cell_formula_units_Z 28
_cell_length_a 17.677693
_cell_length_b 16.175819
_cell_length_c 6.386823
_cell_angle_alpha 90.000000
_cell_angle_beta 138.394648
_cell_angle_gamma 90.000000
_cell_volume 1212.668929
_symmetry_space_group_name_H-M "P 21/M"
_symmetry_group_IT_number 11
_symmetry_cell_setting 'monoclinic'
loop_
_space_group_symop_operation_xyz
x,y,z
-x,1/2+y,-z
-x,-y,-z
x,1/2-y,z
loop_
_atom_site_type_symbol
_atom_site_label
_atom_site_fract_x
_atom_site_fract_y
_atom_site_fract_z
Si Si1 0.367879 0.517492 0.121572
Si Si2 0.386695 0.159566 0.043879
Si Si3 0.939927 0.158708 0.462622
Si Si4 0.887141 0.659593 0.546694
Si Si5 0.440056 0.658661 0.964113
Si Si6 0.868373 0.017698 0.621775
Si Si7 0.250174 0.602804 0.250799
O O1 0.332004 0.548107 0.275011
O O2 0.418406 0.425260 0.226047
O O3 0.431147 0.585577 0.111751
O O4 0.249615 0.508832 0.750049
O O5 0.424298 0.250000 0.206736
O O6 0.249783 0.162968 0.748298
O O7 0.446218 0.152119 0.940375
O O8 0.934327 0.250000 0.548106
O O9 0.931685 0.085651 0.611771
O O10 0.053491 0.152373 0.557320
O O11 0.832893 0.151110 0.079853
O O12 0.924782 0.750000 0.709861
O O13 0.918960 0.574519 0.727881
O O14 0.434599 0.750000 0.049741
O O15 0.333302 0.651194 0.581254
O O16 0.831836 0.048461 0.773346
#
# Coordination Sequence:
#
# PCOD9161856 Si02
#       7
#     4   4   4   4   4   4   4
#     4   9  19  35  55  79 107 139 174 216 264 311
#     4   9  18  35  57  78 104 140 179 217 259 309
#     4  10  20  34  55  81 108 139 173 214 264 314
#     4   9  18  35  57  78 104 140 179 217 259 309
#     4  10  20  34  55  81 108 139 173 214 264 314
#     4   9  19  35  55  79 107 139 174 216 264 311
#     4  10  21  34  53  80 110 138 173 216 263 314
#
# _framework density 23.089566999999999
#
# number of rings (size 3 to 8) (size 9 to 14) (size 15 to 20)
#    0.000    2.571    0.000    1.286    0.000    7.429 
#    0.000    0.714    0.000   15.429    0.000    0.000 
#    0.000    0.000    0.000    0.000    0.000    0.000 
#
# Total GULP energy -156368.984449 kJ/mol
# GULP energy per Si atom -5584.606587 kJ/mol
# Density = 2.303701 g / cm^3
# Si number density = 23.089567 Si / 1000 Ang^3
#
#
#
# Elastic Constant Matrix: (Units=GPa)
#
#
# Indices 1 2 3 4 5 6 
#
# 1 150.3797 97.3707 40.3592 0.0000 9.4612 0.0000
# 2 97.3707 252.8070 30.5922 0.0000 -24.3693 0.0000
# 3 40.3592 30.5922 102.2241 0.0000 -0.5666 0.0000
# 4 0.0000 0.0000 0.0000 -32.6117 0.0000 8.4598
# 5 9.4612 -24.3693 -0.5666 0.0000 30.1059 0.0000
# 6 0.0000 0.0000 0.0000 8.4598 0.0000 32.6494
#
#
#
# Elastic Compliance Matrix: (Units=1/GPa)
#
#
# Indices 1 2 3 4 5 6 
#
# 1 0.010789 -0.004479 -0.002958 0.000000 -0.007072 0.000000
# 2 -0.004479 0.006320 -0.000087 0.000000 0.006522 0.000000
# 3 -0.002958 -0.000087 0.010982 0.000000 0.001066 0.000000
# 4 0.000000 0.000000 0.000000 -0.028733 0.000000 0.007445
# 5 -0.007072 0.006522 0.001066 0.000000 0.040738 0.000000
# 6 0.000000 0.000000 0.000000 0.007445 0.000000 0.028699
#
#
# Mechanical properties :
#
#
# Convention : Reuss Voigt Hill
#
# Bulk Modulus (GPa) = 76.67159 93.56167 85.11663
# Shear Modulus (GPa) = 56.69461 28.50131 42.59796
#
# Velocity S-wave (km/s) = 4.96060 3.51719 4.29989
# Velocity P-wave (km/s) = 8.12947 7.55667 7.84830
#
# Compressibility (1/GPa) = 0.01304264
#
# Stress axis : x y z
#
# Youngs Moduli (GPa) = 92.68704 158.22940 91.05571
#
# Poissons Ratio (x) = 0.70874 0.26937
# Poissons Ratio (y) = 0.41516 0.00790
# Poissons Ratio (z) = 0.27420 0.01373
#
# Static dielectric constant tensor:
#      x y z
#    x 1.815410 0.000000 0.060470 
#    y 0.000000 1.896530 0.000000 
#    z 0.060470 0.000000 1.853470 
# 
# From -- ./inp_files/6893.got.cif
#   From: 2010.05.17/outbox.cif.g08.bks.cpg/sg11_4_cif.got.tgz:6893.got - 2010.06.03 12:22:45.
