data_PCOD9161613
_publ_section_title
;
Structure prediction by ZEFSAII (Michael W. Deem and Ramdas Pophale) SiO2 
 PCOD9161613
Probable space group: P 21/M
;
_chemical_formula_sum "Si O2"
_cell_formula_units_Z 32
_cell_length_a 17.502575
_cell_length_b 8.934635
_cell_length_c 11.849419
_cell_angle_alpha 90.000000
_cell_angle_beta 90.000000
_cell_angle_gamma 90.000000
_cell_volume 1853.001706
_symmetry_space_group_name_H-M "P 21/M"
_symmetry_group_IT_number 11
_symmetry_cell_setting 'monoclinic'
loop_
_space_group_symop_operation_xyz
x,y,z
-x,1/2+y,-z
-x,-y,-z
x,1/2-y,z
loop_
_atom_site_type_symbol
_atom_site_label
_atom_site_fract_x
_atom_site_fract_y
_atom_site_fract_z
Si Si1 0.386014 0.080446 0.053853
Si Si2 0.058690 0.420796 0.844456
Si Si3 0.329473 0.572296 0.269980
Si Si4 0.829473 0.927704 0.730020
Si Si5 0.558690 0.420796 0.155544
Si Si6 0.520080 0.569184 0.620146
Si Si7 0.113986 0.580446 0.053853
Si Si8 0.020080 0.569184 0.379854
O O1 0.356656 0.250000 0.062709
O O2 0.473392 0.081946 0.100742
O O3 0.341972 0.971844 0.138626
O O4 0.391041 0.023309 0.925904
O O5 0.087137 0.250000 0.846138
O O6 0.973392 0.418054 0.899258
O O7 0.043134 0.469559 0.716132
O O8 0.108959 0.523309 0.925904
O O9 0.329790 0.750000 0.283690
O O10 0.250000 0.500000 0.307607
O O11 0.399995 0.498065 0.336304
O O12 0.829790 0.750000 0.716310
O O13 0.841972 0.971844 0.861374
O O14 0.899995 0.001935 0.663696
O O15 0.587137 0.250000 0.153861
O O16 0.543134 0.469559 0.283868
O O17 0.500000 0.500000 0.500000
O O18 0.524738 0.750000 0.616527
O O19 0.143344 0.750000 0.062709
O O20 0.024738 0.750000 0.383473
O O21 0.000000 0.500000 0.500000
#
# Coordination Sequence:
#
# PCOD9161613 Si02
#       8
#     4   4   4   4   4   4   4   4
#     4   9  16  27  45  70  97 124 157 196 242 295
#     4   8  15  27  44  68  97 126 157 196 240 288
#     4  11  21  34  52  74 102 134 169 212 262 313
#     4  11  21  34  52  74 102 134 169 212 262 313
#     4   8  15  27  44  68  97 126 157 196 240 288
#     4  10  20  34  52  76 104 136 177 218 257 304
#     4   9  16  27  45  70  97 124 157 196 242 295
#     4  10  20  34  52  76 104 136 177 218 257 304
#
# _framework density 17.269276000000001
#
# number of rings (size 3 to 8) (size 9 to 14) (size 15 to 20)
#    0.000    2.500    0.000    5.250    0.000    7.000 
#    0.000    0.000    0.000    1.500    0.000    0.000 
#    0.000    0.000    0.000    0.000    0.000    0.000 
#
# Total GULP energy -178371.396724 kJ/mol
# GULP energy per Si atom -5574.106148 kJ/mol
# Density = 1.722997 g / cm^3
# Si number density = 17.269276 Si / 1000 Ang^3
#
#
#
# Elastic Constant Matrix: (Units=GPa)
#
#
# Indices 1 2 3 4 5 6 
#
# 1 44.1135 29.0821 27.8380 0.0000 0.0000 0.0000
# 2 29.0821 102.7907 52.9724 0.0000 0.0000 0.0000
# 3 27.8380 52.9724 143.8364 0.0000 0.0000 0.0000
# 4 0.0000 0.0000 0.0000 30.8637 0.0000 0.0000
# 5 0.0000 0.0000 0.0000 0.0000 9.8892 0.0000
# 6 0.0000 0.0000 0.0000 0.0000 0.0000 20.3005
#
#
#
# Elastic Compliance Matrix: (Units=1/GPa)
#
#
# Indices 1 2 3 4 5 6 
#
# 1 0.029012 -0.006560 -0.003199 0.000000 0.000000 0.000000
# 2 -0.006560 0.013491 -0.003699 0.000000 0.000000 0.000000
# 3 -0.003199 -0.003699 0.008934 0.000000 0.000000 0.000000
# 4 0.000000 0.000000 0.000000 0.032401 0.000000 0.000000
# 5 0.000000 0.000000 0.000000 0.000000 0.101120 0.000000
# 6 0.000000 0.000000 0.000000 0.000000 0.000000 0.049260
#
#
# Mechanical properties :
#
#
# Convention : Reuss Voigt Hill
#
# Bulk Modulus (GPa) = 40.78102 56.72504 48.75303
# Shear Modulus (GPa) = 18.56628 24.26724 21.41676
#
# Velocity S-wave (km/s) = 3.28244 3.75270 3.52542
# Velocity P-wave (km/s) = 6.16700 7.18997 6.69804
#
# Compressibility (1/GPa) = 0.02452121
#
# Stress axis : x y z
#
# Youngs Moduli (GPa) = 34.46838 74.12611 111.93555
#
# Poissons Ratio (x) = 0.48624 0.35810
# Poissons Ratio (y) = 0.22610 0.41403
# Poissons Ratio (z) = 0.11027 0.27418
#
# Static dielectric constant tensor:
#      x y z
#    x 1.588520 0.000000 0.000000 
#    y 0.000000 1.581530 0.000000 
#    z 0.000000 0.000000 1.599270 
# 
# From -- ./inp_files/40688.got.cif
#   From: 2010.05.17/outbox.cif.g08.bks.cpg/sg11_21_cif.got.tgz:40688.got - 2010.06.03 12:22:45.
