data_PCOD9161790
_publ_section_title
;
Structure prediction by ZEFSAII (Michael W. Deem and Ramdas Pophale) SiO2 
 PCOD9161790
Probable space group: P 21/M
;
_chemical_formula_sum "Si O2"
_cell_formula_units_Z 24
_cell_length_a 7.175643
_cell_length_b 23.223926
_cell_length_c 11.593345
_cell_angle_alpha 90.000000
_cell_angle_beta 29.483913
_cell_angle_gamma 90.000000
_cell_volume 950.885998
_symmetry_space_group_name_H-M "P 21/M"
_symmetry_group_IT_number 11
_symmetry_cell_setting 'monoclinic'
loop_
_space_group_symop_operation_xyz
x,y,z
-x,1/2+y,-z
-x,-y,-z
x,1/2-y,z
loop_
_atom_site_type_symbol
_atom_site_label
_atom_site_fract_x
_atom_site_fract_y
_atom_site_fract_z
Si Si1 0.285714 0.579433 0.279982
Si Si2 0.316500 0.816637 0.410078
Si Si3 0.271138 0.905669 0.041981
Si Si4 0.472620 0.980372 0.713778
Si Si5 0.232758 0.685456 0.892272
Si Si6 0.605863 0.107838 0.416473
O O1 0.202922 0.644877 0.360941
O O2 0.473049 0.578474 0.052930
O O3 0.510004 0.547545 0.262729
O O4 0.901320 0.543172 0.476557
O O5 0.190463 0.750000 0.484333
O O6 0.214211 0.856728 0.574917
O O7 0.776845 0.814241 0.152342
O O8 0.833963 0.897660 0.311842
O O9 0.315081 0.951263 0.915529
O O10 0.396806 0.845939 0.916373
O O11 0.289458 0.954950 0.695324
O O12 0.367660 0.750000 0.806282
O O13 0.334468 0.648291 0.726400
#
# Coordination Sequence:
#
# PCOD9161790 Si02
#       6
#     4   4   4   4   4   4
#     4  10  20  34  54  80 111 140 174 224 273 318
#     4  10  21  35  52  77 107 138 173 219 272 318
#     4   9  18  34  54  76 102 136 177 218 262 314
#     4   9  19  36  56  78 105 143 182 217 265 319
#     4   9  18  34  54  73  99 139 181 218 262 320
#     4   9  18  35  55  76 104 138 178 218 259 314
#
# _framework density 25.239619999999999
#
# number of rings (size 3 to 8) (size 9 to 14) (size 15 to 20)
#    0.000    2.667    0.000    1.000    0.000    3.333 
#    0.000   16.667    0.000    0.000    0.000    0.000 
#    0.000    0.000    0.000    0.000    0.000    0.000 
#
# Total GULP energy -134125.193820 kJ/mol
# GULP energy per Si atom -5588.549743 kJ/mol
# Density = 2.518217 g / cm^3
# Si number density = 25.239620 Si / 1000 Ang^3
#
#
#
# Elastic Constant Matrix: (Units=GPa)
#
#
# Indices 1 2 3 4 5 6 
#
# 1 80.0190 10.9893 18.6289 0.0000 13.2242 0.0000
# 2 10.9893 137.0596 28.3998 0.0000 24.5088 0.0000
# 3 18.6289 28.3998 100.8489 0.0000 34.0191 0.0000
# 4 0.0000 0.0000 0.0000 34.7413 0.0000 4.2816
# 5 13.2242 24.5088 34.0191 0.0000 37.2858 0.0000
# 6 0.0000 0.0000 0.0000 4.2816 0.0000 23.3326
#
#
#
# Elastic Compliance Matrix: (Units=1/GPa)
#
#
# Indices 1 2 3 4 5 6 
#
# 1 0.013389 -0.000192 -0.001242 0.000000 -0.003489 0.000000
# 2 -0.000192 0.008307 -0.000700 0.000000 -0.004753 0.000000
# 3 -0.001242 -0.000700 0.014502 0.000000 -0.012330 0.000000
# 4 0.000000 0.000000 0.000000 0.029450 0.000000 -0.005404
# 5 -0.003489 -0.004753 -0.012330 0.000000 0.042432 0.000000
# 6 0.000000 0.000000 0.000000 -0.005404 0.000000 0.043850
#
#
# Mechanical properties :
#
#
# Convention : Reuss Voigt Hill
#
# Bulk Modulus (GPa) = 31.32046 48.21818 39.76932
# Shear Modulus (GPa) = 29.96848 36.39923 33.18386
#
# Velocity S-wave (km/s) = 3.44955 3.80168 3.62989
# Velocity P-wave (km/s) = 5.31996 6.19806 5.77572
#
# Compressibility (1/GPa) = 0.03192801
#
# Stress axis : x y z
#
# Youngs Moduli (GPa) = 74.68683 120.38712 68.95656
#
# Poissons Ratio (x) = 0.02314 0.08566
# Poissons Ratio (y) = 0.01436 0.04830
# Poissons Ratio (z) = 0.09278 0.08432
#
# Static dielectric constant tensor:
#      x y z
#    x 2.053100 0.000000 -0.036070 
#    y 0.000000 1.974220 0.000000 
#    z -0.036070 0.000000 1.981940 
# 
# From -- ./inp_files/2717.got.cif
#   From: 2010.05.17/outbox.cif.g08.bks.cpg/sg11_2_cif.got.tgz:2717.got - 2010.06.03 12:22:45.
