data_PCOD9161202
_publ_section_title
;
Structure prediction by ZEFSAII (Michael W. Deem and Ramdas Pophale) SiO2 
 PCOD9161202
Probable space group: P 21/M
;
_chemical_formula_sum "Si O2"
_cell_formula_units_Z 32
_cell_length_a 10.624759
_cell_length_b 14.023752
_cell_length_c 8.639455
_cell_angle_alpha 90.000000
_cell_angle_beta 104.171377
_cell_angle_gamma 90.000000
_cell_volume 1248.095539
_symmetry_space_group_name_H-M "P 21/M"
_symmetry_group_IT_number 11
_symmetry_cell_setting 'monoclinic'
loop_
_space_group_symop_operation_xyz
x,y,z
-x,1/2+y,-z
-x,-y,-z
x,1/2-y,z
loop_
_atom_site_type_symbol
_atom_site_label
_atom_site_fract_x
_atom_site_fract_y
_atom_site_fract_z
Si Si1 0.537168 0.856357 0.781685
Si Si2 0.128386 0.142166 0.758364
Si Si3 0.810887 0.642567 0.735649
Si Si4 0.316349 0.505179 0.740205
Si Si5 0.758428 0.064078 0.731449
Si Si6 0.111344 0.642051 0.515515
Si Si7 0.481417 0.361711 0.597613
Si Si8 0.059906 0.853733 0.002306
O O1 0.499140 0.750000 0.819763
O O2 0.694320 0.860146 0.829528
O O3 0.440813 0.932678 0.828383
O O4 0.511179 0.865964 0.587338
O O5 0.174951 0.250000 0.744108
O O6 0.241004 0.068075 0.824959
O O7 0.037220 0.144994 0.880623
O O8 0.035132 0.114417 0.583207
O O9 0.793050 0.750000 0.659615
O O10 0.789271 0.537300 0.663828
O O11 0.960501 0.636746 0.832570
O O12 0.203208 0.577328 0.649054
O O13 0.370059 0.429445 0.629647
O O14 0.813376 0.140538 0.626521
O O15 0.610080 0.089730 0.703182
O O16 0.832971 0.070935 0.916663
O O17 0.105863 0.750000 0.573367
O O18 0.470521 0.250000 0.635880
O O19 0.123820 0.750000 0.010513
#
# Coordination Sequence:
#
# PCOD9161202 Si02
#       8
#     4   4   4   4   4   4   4   4
#     4  10  20  33  49  74 108 140 171 206 257 324
#     4   9  20  36  52  74 101 137 181 220 255 296
#     4  10  20  34  52  79 107 137 176 217 259 304
#     4  12  19  31  51  78 105 137 169 215 261 305
#     4  11  18  33  55  80 104 136 174 214 257 312
#     4  10  20  34  54  77 105 140 177 211 252 314
#     4  11  21  32  50  80 113 139 166 208 263 320
#     4   9  19  36  57  76 101 138 182 221 252 300
#
# _framework density 25.639064000000001
#
# number of rings (size 3 to 8) (size 9 to 14) (size 15 to 20)
#    0.000    1.750    2.500    4.500    0.000    0.000 
#    0.000    1.250    0.000    6.000    0.000    0.000 
#    0.000    0.000    0.000    0.000    0.000    0.000 
#
# Total GULP energy -178695.688563 kJ/mol
# GULP energy per Si atom -5584.240268 kJ/mol
# Density = 2.558071 g / cm^3
# Si number density = 25.639064 Si / 1000 Ang^3
#
#
#
# Elastic Constant Matrix: (Units=GPa)
#
#
# Indices 1 2 3 4 5 6 
#
# 1 80.4046 47.4142 23.3062 0.0000 19.2144 0.0000
# 2 47.4142 151.0178 34.9287 0.0000 14.3818 0.0000
# 3 23.3062 34.9287 38.5946 0.0000 18.1478 0.0000
# 4 0.0000 0.0000 0.0000 13.7372 0.0000 -0.1136
# 5 19.2144 14.3818 18.1478 0.0000 20.0138 0.0000
# 6 0.0000 0.0000 0.0000 -0.1136 0.0000 41.4298
#
#
#
# Elastic Compliance Matrix: (Units=1/GPa)
#
#
# Indices 1 2 3 4 5 6 
#
# 1 0.018551 -0.004331 -0.000648 0.000000 -0.014110 0.000000
# 2 -0.004331 0.009411 -0.008154 0.000000 0.004788 0.000000
# 3 -0.000648 -0.008154 0.053403 0.000000 -0.041943 0.000000
# 4 0.000000 0.000000 0.000000 0.072796 0.000000 0.000200
# 5 -0.014110 0.004788 -0.041943 0.000000 0.098104 0.000000
# 6 0.000000 0.000000 0.000000 0.000200 0.000000 0.024138
#
#
# Mechanical properties :
#
#
# Convention : Reuss Voigt Hill
#
# Bulk Modulus (GPa) = 18.14878 53.47946 35.81412
# Shear Modulus (GPa) = 15.57465 25.99403 20.78434
#
# Velocity S-wave (km/s) = 2.46734 3.18755 2.85028
# Velocity P-wave (km/s) = 3.90012 5.86951 4.98308
#
# Compressibility (1/GPa) = 0.05510013
#
# Stress axis : x y z
#
# Youngs Moduli (GPa) = 53.90666 106.25585 18.72545
#
# Poissons Ratio (x) = 0.46015 0.01214
# Poissons Ratio (y) = 0.23345 0.15268
# Poissons Ratio (z) = 0.03494 0.86638
#
# Static dielectric constant tensor:
#      x y z
#    x 2.006270 0.000000 0.041640 
#    y 0.000000 2.051070 0.000000 
#    z 0.041640 0.000000 2.126380 
# 
# From -- ./inp_files/49869.got.cif
#   From: 2010.05.17/outbox.cif.g08.bks.cpg/sg11_25_cif.got.tgz:49869.got - 2010.06.03 12:22:45.
