data_PCOD9161186
_publ_section_title
;
Structure prediction by ZEFSAII (Michael W. Deem and Ramdas Pophale) SiO2 
 PCOD9161186
Probable space group: P 21/M
;
_chemical_formula_sum "Si O2"
_cell_formula_units_Z 32
_cell_length_a 13.424800
_cell_length_b 9.366524
_cell_length_c 23.757849
_cell_angle_alpha 90.000000
_cell_angle_beta 38.674694
_cell_angle_gamma 90.000000
_cell_volume 1866.820055
_symmetry_space_group_name_H-M "P 21/M"
_symmetry_group_IT_number 11
_symmetry_cell_setting 'monoclinic'
loop_
_space_group_symop_operation_xyz
x,y,z
-x,1/2+y,-z
-x,-y,-z
x,1/2-y,z
loop_
_atom_site_type_symbol
_atom_site_label
_atom_site_fract_x
_atom_site_fract_y
_atom_site_fract_z
Si Si1 0.478572 0.078218 0.226380
Si Si2 0.664204 0.414090 0.423592
Si Si3 0.462119 0.079048 0.103617
Si Si4 0.253646 0.579866 0.108544
Si Si5 0.836229 0.917441 0.568021
Si Si6 0.341660 0.416179 0.755269
Si Si7 0.890498 0.577790 0.237727
Si Si8 0.325103 0.591702 0.451238
O O1 0.496880 0.250000 0.222353
O O2 0.490385 0.036004 0.155861
O O3 0.300339 0.041641 0.326709
O O4 0.601406 0.005323 0.215748
O O5 0.500000 0.500000 0.500000
O O6 0.639659 0.250000 0.415540
O O7 0.786729 0.495317 0.329696
O O8 0.717912 0.409602 0.464730
O O9 0.435388 0.250000 0.114817
O O10 0.316040 0.002155 0.136289
O O11 0.618811 0.048386 0.997060
O O12 0.258787 0.750000 0.116955
O O13 0.075816 0.544122 0.166367
O O14 0.862699 0.750000 0.560571
O O15 0.760127 0.964290 0.542722
O O16 0.000000 0.000000 0.500000
O O17 0.326614 0.250000 0.778194
O O18 0.183411 0.460087 0.790925
O O19 0.486714 0.423924 0.645576
O O20 0.869525 0.750000 0.252817
O O21 0.280731 0.750000 0.447772
#
# Coordination Sequence:
#
# PCOD9161186 Si02
#       8
#     4   4   4   4   4   4   4   4
#     4   9  19  34  53  75  99 132 174 214 257 311
#     4  11  21  33  51  75 104 139 177 214 256 304
#     4   9  18  36  58  78 104 135 172 218 269 318
#     4   9  19  35  57  80 104 137 171 214 267 321
#     4  10  20  33  49  71  99 133 169 212 257 303
#     4   9  17  32  51  71 101 137 170 208 252 305
#     4  10  20  35  52  77 110 139 176 217 264 318
#     4   9  18  33  49  67  95 134 173 207 246 297
#
# _framework density 17.141448
#
# number of rings (size 3 to 8) (size 9 to 14) (size 15 to 20)
#    0.000    2.500    1.250    0.750    0.000    4.000 
#    0.000    4.375    0.000    0.000    0.000    0.000 
#    0.000    0.000    0.000    0.000    0.000    0.000 
#
# Total GULP energy -178288.018523 kJ/mol
# GULP energy per Si atom -5571.500579 kJ/mol
# Density = 1.710243 g / cm^3
# Si number density = 17.141448 Si / 1000 Ang^3
#
#
#
# Elastic Constant Matrix: (Units=GPa)
#
#
# Indices 1 2 3 4 5 6 
#
# 1 137.1766 48.8626 72.7525 0.0000 0.0038 0.0000
# 2 48.8626 41.4033 43.2574 0.0000 -2.8420 0.0000
# 3 72.7525 43.2574 69.0955 0.0000 -1.5349 0.0000
# 4 0.0000 0.0000 0.0000 20.6772 0.0000 1.5409
# 5 0.0038 -2.8420 -1.5349 0.0000 34.3926 0.0000
# 6 0.0000 0.0000 0.0000 1.5409 0.0000 32.8943
#
#
#
# Elastic Compliance Matrix: (Units=1/GPa)
#
#
# Indices 1 2 3 4 5 6 
#
# 1 0.016755 -0.004012 -0.015153 0.000000 -0.001010 0.000000
# 2 -0.004012 0.071289 -0.040316 0.000000 0.004092 0.000000
# 3 -0.015153 -0.040316 0.055649 0.000000 -0.000846 0.000000
# 4 0.000000 0.000000 0.000000 0.048532 0.000000 -0.002273
# 5 -0.001010 0.004092 -0.000846 0.000000 0.029377 0.000000
# 6 0.000000 0.000000 0.000000 -0.002273 0.000000 0.030507
#
#
# Mechanical properties :
#
#
# Convention : Reuss Voigt Hill
#
# Bulk Modulus (GPa) = 40.43314 64.15782 52.29548
# Shear Modulus (GPa) = 13.18170 23.11301 18.14735
#
# Velocity S-wave (km/s) = 2.77609 3.67600 3.25727
# Velocity P-wave (km/s) = 5.82363 7.45165 6.68736
#
# Compressibility (1/GPa) = 0.02473219
#
# Stress axis : x y z
#
# Youngs Moduli (GPa) = 59.68198 14.02740 17.96985
#
# Poissons Ratio (x) = 0.05627 0.27230
# Poissons Ratio (y) = 0.23943 0.72447
# Poissons Ratio (z) = 0.90437 0.56552
#
# Static dielectric constant tensor:
#      x y z
#    x 1.605840 0.000000 -0.008690 
#    y 0.000000 1.582940 0.000000 
#    z -0.008690 0.000000 1.572180 
# 
# From -- ./inp_files/68967.got.cif
#   From: 2010.05.17/outbox.cif.g08.bks.cpg/sg11_35_cif.got.tgz:68967.got - 2010.06.03 12:22:45.
