data_PCOD9161988
_publ_section_title
;
Structure prediction by ZEFSAII (Michael W. Deem and Ramdas Pophale) SiO2 
 PCOD9161988
Probable space group: P 21/M
;
_chemical_formula_sum "Si O2"
_cell_formula_units_Z 32
_cell_length_a 20.603029
_cell_length_b 10.891974
_cell_length_c 20.563512
_cell_angle_alpha 90.000000
_cell_angle_beta 158.187351
_cell_angle_gamma 90.000000
_cell_volume 1714.663409
_symmetry_space_group_name_H-M "P 21/M"
_symmetry_group_IT_number 11
_symmetry_cell_setting 'monoclinic'
loop_
_space_group_symop_operation_xyz
x,y,z
-x,1/2+y,-z
-x,-y,-z
x,1/2-y,z
loop_
_atom_site_type_symbol
_atom_site_label
_atom_site_fract_x
_atom_site_fract_y
_atom_site_fract_z
Si Si1 0.390183 0.886138 0.370997
Si Si2 0.198662 0.392895 0.003789
Si Si3 0.837286 0.393990 0.726424
Si Si4 0.750455 0.883699 0.456843
Si Si5 0.522504 0.535965 0.360505
Si Si6 0.300310 0.110654 0.865233
Si Si7 0.990509 0.889281 0.306066
Si Si8 0.450632 0.388099 0.866101
O O1 0.454799 0.750000 0.451652
O O2 0.205480 0.900586 0.236293
O O3 0.414914 0.894813 0.317007
O O4 0.500000 0.000000 0.500000
O O5 0.213310 0.250000 0.034667
O O6 0.151695 0.401640 0.883950
O O7 0.026703 0.442679 0.881663
O O8 0.378222 0.454461 0.190462
O O9 0.833398 0.250000 0.704234
O O10 0.679019 0.460583 0.541554
O O11 0.841940 0.750000 0.541778
O O12 0.618502 0.886696 0.394653
O O13 0.646061 0.895123 0.292331
O O14 0.873760 0.001766 0.576753
O O15 0.361509 0.250000 0.939979
O O16 0.108994 0.099550 0.718047
O O17 0.317874 0.101935 0.803739
O O18 0.416146 0.000347 0.001518
O O19 0.063961 0.750000 0.368750
O O20 0.530649 0.250000 0.945332
#
# Coordination Sequence:
#
# PCOD9161988 Si02
#       8
#     4   4   4   4   4   4   4   4
#     4   9  19  35  57  82 112 147 187 234 282 333
#     4  10  20  34  56  86 114 145 188 235 286 339
#     4   9  18  35  56  82 114 143 183 235 282 334
#     4  11  23  37  54  79 115 151 186 228 283 343
#     4  11  20  34  58  80 113 150 190 228 285 334
#     4   9  18  35  57  81 109 141 186 238 280 327
#     4  10  21  37  56  81 112 145 191 243 280 326
#     4   9  19  35  55  80 111 147 184 228 282 341
#
# _framework density 18.662555000000001
#
# number of rings (size 3 to 8) (size 9 to 14) (size 15 to 20)
#    0.000    2.250    1.250    1.500    0.000    3.000 
#    0.000    1.250    0.000    0.000    0.000    0.000 
#    0.000    0.000    0.000    0.000    0.000    0.000 
#
# Total GULP energy -178181.734197 kJ/mol
# GULP energy per Si atom -5568.179194 kJ/mol
# Density = 1.862008 g / cm^3
# Si number density = 18.662555 Si / 1000 Ang^3
#
#
#
# Elastic Constant Matrix: (Units=GPa)
#
#
# Indices 1 2 3 4 5 6 
#
# 1 105.5027 43.9424 18.4196 0.0000 5.4989 0.0000
# 2 43.9424 108.8393 39.2877 0.0000 -4.2182 0.0000
# 3 18.4196 39.2877 48.9902 0.0000 1.9139 0.0000
# 4 0.0000 0.0000 0.0000 19.5510 0.0000 3.3507
# 5 5.4989 -4.2182 1.9139 0.0000 19.7734 0.0000
# 6 0.0000 0.0000 0.0000 3.3507 0.0000 24.6416
#
#
#
# Elastic Compliance Matrix: (Units=1/GPa)
#
#
# Indices 1 2 3 4 5 6 
#
# 1 0.011755 -0.004750 -0.000445 0.000000 -0.004239 0.000000
# 2 -0.004750 0.015137 -0.010571 0.000000 0.005573 0.000000
# 3 -0.000445 -0.010571 0.029251 0.000000 -0.004963 0.000000
# 4 0.000000 0.000000 0.000000 0.052369 0.000000 -0.007121
# 5 -0.004239 0.005573 -0.004963 0.000000 0.053421 0.000000
# 6 0.000000 0.000000 0.000000 -0.007121 0.000000 0.041550
#
#
# Mechanical properties :
#
#
# Convention : Reuss Voigt Hill
#
# Bulk Modulus (GPa) = 40.63146 51.84796 46.23971
# Shear Modulus (GPa) = 20.55751 23.57205 22.06478
#
# Velocity S-wave (km/s) = 3.32254 3.55782 3.44219
# Velocity P-wave (km/s) = 6.04466 6.68727 6.37407
#
# Compressibility (1/GPa) = 0.02461147
#
# Stress axis : x y z
#
# Youngs Moduli (GPa) = 85.06750 66.06147 34.18655
#
# Poissons Ratio (x) = 0.31377 0.01522
# Poissons Ratio (y) = 0.40404 0.36140
# Poissons Ratio (z) = 0.03788 0.69836
#
# Static dielectric constant tensor:
#      x y z
#    x 1.693630 0.000000 0.010120 
#    y 0.000000 1.655720 0.000000 
#    z 0.010120 0.000000 1.601370 
# 
# From -- ./inp_files/66565.got.cif
#   From: 2010.05.17/outbox.cif.g08.bks.cpg/sg11_34_cif.got.tgz:66565.got - 2010.06.03 12:22:45.
