data_PCOD9161770
_publ_section_title
;
Structure prediction by ZEFSAII (Michael W. Deem and Ramdas Pophale) SiO2 
 PCOD9161770
Probable space group: P 21/M
;
_chemical_formula_sum "Si O2"
_cell_formula_units_Z 28
_cell_length_a 7.628699
_cell_length_b 9.317241
_cell_length_c 26.724998
_cell_angle_alpha 90.000000
_cell_angle_beta 44.136293
_cell_angle_gamma 90.000000
_cell_volume 1322.799463
_symmetry_space_group_name_H-M "P 21/M"
_symmetry_group_IT_number 11
_symmetry_cell_setting 'monoclinic'
loop_
_space_group_symop_operation_xyz
x,y,z
-x,1/2+y,-z
-x,-y,-z
x,1/2-y,z
loop_
_atom_site_type_symbol
_atom_site_label
_atom_site_fract_x
_atom_site_fract_y
_atom_site_fract_z
Si Si1 0.278129 0.086260 0.072558
Si Si2 0.920335 0.913184 0.211171
Si Si3 0.365662 0.914615 0.644053
Si Si4 0.859629 0.088478 0.071321
Si Si5 0.488096 0.089536 0.793104
Si Si6 0.082374 0.089173 0.345957
Si Si7 0.322183 0.922365 0.495372
O O1 0.350893 0.250000 0.070218
O O2 0.052819 0.095173 0.078248
O O3 0.165885 0.999356 0.142571
O O4 0.500000 0.000000 0.000000
O O5 0.974964 0.750000 0.216588
O O6 0.739313 0.902797 0.200038
O O7 0.763787 0.001950 0.284011
O O8 0.433516 0.750000 0.642618
O O9 0.149505 0.908168 0.645593
O O10 0.597191 0.002901 0.572699
O O11 0.806812 0.250000 0.065346
O O12 0.610423 0.009912 0.142061
O O13 0.000000 0.000000 0.000000
O O14 0.544651 0.250000 0.799051
O O15 0.719191 0.021712 0.715905
O O16 0.192970 0.250000 0.324679
O O17 0.957799 0.055916 0.425225
O O18 0.367374 0.750000 0.485012
O O19 0.500000 0.000000 0.500000
#
# Coordination Sequence:
#
# PCOD9161770 Si02
#       7
#     4   4   4   4   4   4   4
#     4  10  21  37  57  80 105 137 174 213 259 310
#     4  10  21  37  55  77 106 139 174 215 261 310
#     4  10  20  34  54  80 106 137 177 218 261 310
#     4  10  21  37  57  79 105 137 173 212 258 308
#     4  10  21  36  55  78 105 138 175 213 259 310
#     4   9  19  34  53  78 106 136 173 215 259 307
#     4   9  17  31  51  76 106 138 173 216 263 309
#
# _framework density 21.167228999999999
#
# number of rings (size 3 to 8) (size 9 to 14) (size 15 to 20)
#    0.000    2.286    0.000    3.429    0.000    8.000 
#    0.000    0.714    0.000    0.000    0.000    0.000 
#    0.000    0.000    0.000    0.000    0.000    0.000 
#
# Total GULP energy -156360.327585 kJ/mol
# GULP energy per Si atom -5584.297414 kJ/mol
# Density = 2.111905 g / cm^3
# Si number density = 21.167229 Si / 1000 Ang^3
#
#
#
# Elastic Constant Matrix: (Units=GPa)
#
#
# Indices 1 2 3 4 5 6 
#
# 1 35.7479 7.1728 -8.5224 0.0000 1.6260 0.0000
# 2 7.1728 230.3923 135.5990 0.0000 -5.4909 0.0000
# 3 -8.5224 135.5990 186.9882 0.0000 6.9525 0.0000
# 4 0.0000 0.0000 0.0000 46.2535 0.0000 -0.8173
# 5 1.6260 -5.4909 6.9525 0.0000 24.5696 0.0000
# 6 0.0000 0.0000 0.0000 -0.8173 0.0000 19.1531
#
#
#
# Elastic Compliance Matrix: (Units=1/GPa)
#
#
# Indices 1 2 3 4 5 6 
#
# 1 0.029741 -0.003311 0.003898 0.000000 -0.003811 0.000000
# 2 -0.003311 0.008212 -0.006248 0.000000 0.003822 0.000000
# 3 0.003898 -0.006248 0.010226 0.000000 -0.004548 0.000000
# 4 0.000000 0.000000 0.000000 0.021636 0.000000 0.000923
# 5 -0.003811 0.003822 -0.004548 0.000000 0.043094 0.000000
# 6 0.000000 0.000000 0.000000 0.000923 0.000000 0.052250
#
#
# Mechanical properties :
#
#
# Convention : Reuss Voigt Hill
#
# Bulk Modulus (GPa) = 27.13214 80.18077 53.65646
# Shear Modulus (GPa) = 26.48774 39.25385 32.87079
#
# Velocity S-wave (km/s) = 3.54129 4.31102 3.94497
# Velocity P-wave (km/s) = 5.43754 7.92097 6.79369
#
# Compressibility (1/GPa) = 0.03685665
#
# Stress axis : x y z
#
# Youngs Moduli (GPa) = 33.62381 121.77273 97.79257
#
# Poissons Ratio (x) = 0.40321 -0.38124
# Poissons Ratio (y) = 0.11133 0.61103
# Poissons Ratio (z) = -0.13108 0.76086
#
# Static dielectric constant tensor:
#      x y z
#    x 1.816810 0.000000 0.016810 
#    y 0.000000 1.750820 0.000000 
#    z 0.016810 0.000000 1.738280 
# 
# From -- ./inp_files/28228.got.cif
#   From: 2010.05.17/outbox.cif.g08.bks.cpg/sg11_15_cif.got.tgz:28228.got - 2010.06.03 12:22:45.
