data_PCOD9161349
_publ_section_title
;
Structure prediction by ZEFSAII (Michael W. Deem and Ramdas Pophale) SiO2 
 PCOD9161349
Probable space group: P 21/M
;
_chemical_formula_sum "Si O2"
_cell_formula_units_Z 32
_cell_length_a 14.228455
_cell_length_b 11.344822
_cell_length_c 15.418547
_cell_angle_alpha 90.000000
_cell_angle_beta 138.169312
_cell_angle_gamma 90.000000
_cell_volume 1659.893453
_symmetry_space_group_name_H-M "P 21/M"
_symmetry_group_IT_number 11
_symmetry_cell_setting 'monoclinic'
loop_
_space_group_symop_operation_xyz
x,y,z
-x,1/2+y,-z
-x,-y,-z
x,1/2-y,z
loop_
_atom_site_type_symbol
_atom_site_label
_atom_site_fract_x
_atom_site_fract_y
_atom_site_fract_z
Si Si1 0.398548 0.609766 0.036964
Si Si2 0.754627 0.118922 0.421038
Si Si3 0.697311 0.994284 0.207923
Si Si4 0.022778 0.384835 0.231835
Si Si5 0.335432 0.044121 0.487003
Si Si6 0.056605 0.380016 0.716732
Si Si7 0.802475 0.390832 0.945273
Si Si8 0.352350 0.884527 0.328936
O O1 0.396761 0.750000 0.037526
O O2 0.557251 0.563994 0.150216
O O3 0.302157 0.565954 0.050286
O O4 0.341725 0.565499 0.905575
O O5 0.691864 0.250000 0.386434
O O6 0.914421 0.123612 0.563753
O O7 0.754464 0.077903 0.322172
O O8 0.680625 0.026119 0.434122
O O9 0.810970 0.899459 0.254745
O O10 0.973169 0.250000 0.221851
O O11 0.189934 0.387436 0.365812
O O12 0.961930 0.499792 0.240108
O O13 0.960603 0.404474 0.091748
O O14 0.484602 0.110758 0.589987
O O15 0.343053 0.953322 0.412216
O O16 0.068883 0.250000 0.769605
O O17 0.780024 0.250000 0.922903
O O18 0.749363 0.436838 0.816006
O O19 0.311345 0.750000 0.317617
#
# Coordination Sequence:
#
# PCOD9161349 Si02
#       8
#     4   4   4   4   4   4   4   4
#     4  10  20  33  52  78 109 145 188 236 281 331
#     4  10  21  36  54  79 113 151 192 238 289 342
#     4  11  20  33  54  78 110 151 192 232 280 341
#     4  10  20  37  61  86 115 152 194 238 286 345
#     4  10  21  36  57  84 113 146 191 239 286 345
#     4  10  21  37  56  83 119 152 191 240 288 341
#     4   9  18  34  56  81 109 145 189 235 283 340
#     4  10  20  36  59  83 113 149 185 234 295 349
#
# _framework density 19.278345000000002
#
# number of rings (size 3 to 8) (size 9 to 14) (size 15 to 20)
#    0.000    2.000    1.250    2.625    0.000    1.500 
#    0.000    6.875    0.000    3.750    0.000    0.000 
#    0.000    0.000    0.000    0.000    0.000    0.000 
#
# Total GULP energy -178244.204735 kJ/mol
# GULP energy per Si atom -5570.131398 kJ/mol
# Density = 1.923447 g / cm^3
# Si number density = 19.278345 Si / 1000 Ang^3
#
#
#
# Elastic Constant Matrix: (Units=GPa)
#
#
# Indices 1 2 3 4 5 6 
#
# 1 45.2831 13.7702 -6.0633 0.0000 4.6763 0.0000
# 2 13.7702 87.6575 19.1253 0.0000 -4.1447 0.0000
# 3 -6.0633 19.1253 72.0607 0.0000 -18.6049 0.0000
# 4 0.0000 0.0000 0.0000 -75.9223 0.0000 -37.8711
# 5 4.6763 -4.1447 -18.6049 0.0000 29.3523 0.0000
# 6 0.0000 0.0000 0.0000 -37.8711 0.0000 -3.7242
#
#
#
# Elastic Compliance Matrix: (Units=1/GPa)
#
#
# Indices 1 2 3 4 5 6 
#
# 1 0.024067 -0.004454 0.002457 0.000000 -0.002906 0.000000
# 2 -0.004454 0.012937 -0.003771 0.000000 0.000146 0.000000
# 3 0.002457 -0.003771 0.017751 0.000000 0.010328 0.000000
# 4 0.000000 0.000000 0.000000 0.003234 0.000000 -0.032889
# 5 -0.002906 0.000146 0.010328 0.000000 0.041099 0.000000
# 6 0.000000 0.000000 0.000000 -0.032889 0.000000 0.065935
#
#
# Mechanical properties :
#
#
# Convention : Reuss Voigt Hill
#
# Bulk Modulus (GPa) = 23.13767 28.74063 25.93915
# Shear Modulus (GPa) = 26.18273 1.81910 14.00091
#
# Velocity S-wave (km/s) = 3.68930 0.97244 2.69783
# Velocity P-wave (km/s) = 5.49325 4.02510 4.81546
#
# Compressibility (1/GPa) = 0.04321957
#
# Stress axis : x y z
#
# Youngs Moduli (GPa) = 41.55101 77.29569 56.33463
#
# Poissons Ratio (x) = 0.34428 -0.13841
# Poissons Ratio (y) = 0.18507 0.21242
# Poissons Ratio (z) = -0.10209 0.29145
#
# Static dielectric constant tensor:
#      x y z
#    x 1.672110 0.000000 0.022980 
#    y 0.000000 1.685760 0.000000 
#    z 0.022980 0.000000 1.678740 
# 
# From -- ./inp_files/52334.got.cif
#   From: 2010.05.17/outbox.cif.g08.bks.cpg/sg11_27_cif.got.tgz:52334.got - 2010.06.03 12:22:45.
