data_PCOD9161823
_publ_section_title
;
Structure prediction by ZEFSAII (Michael W. Deem and Ramdas Pophale) SiO2 
 PCOD9161823
Probable space group: P 21/M
;
_chemical_formula_sum "Si O2"
_cell_formula_units_Z 32
_cell_length_a 14.350063
_cell_length_b 7.680905
_cell_length_c 22.987031
_cell_angle_alpha 90.000000
_cell_angle_beta 147.266026
_cell_angle_gamma 90.000000
_cell_volume 1370.051656
_symmetry_space_group_name_H-M "P 21/M"
_symmetry_group_IT_number 11
_symmetry_cell_setting 'monoclinic'
loop_
_space_group_symop_operation_xyz
x,y,z
-x,1/2+y,-z
-x,-y,-z
x,1/2-y,z
loop_
_atom_site_type_symbol
_atom_site_label
_atom_site_fract_x
_atom_site_fract_y
_atom_site_fract_z
Si Si1 0.702107 0.541419 0.107710
Si Si2 0.217091 0.035552 0.721612
Si Si3 0.187040 0.557045 0.077268
Si Si4 0.453626 0.453175 0.747881
Si Si5 0.280035 0.539682 0.331052
Si Si6 0.098776 0.462249 0.903503
Si Si7 0.342267 0.045691 0.496917
Si Si8 0.149208 0.552177 0.506126
O O1 0.721870 0.750000 0.118435
O O2 0.776206 0.477054 0.208220
O O3 0.802011 0.480637 0.102741
O O4 0.500000 0.500000 0.000000
O O5 0.214695 0.250000 0.720028
O O6 0.382253 0.975362 0.771457
O O7 0.042912 0.977844 0.597850
O O8 0.200103 0.750000 0.109441
O O9 0.177096 0.545491 0.002159
O O10 0.371217 0.467136 0.186274
O O11 0.000000 0.500000 0.000000
O O12 0.492466 0.250000 0.779043
O O13 0.293880 0.460948 0.620249
O O14 0.284922 0.750000 0.335299
O O15 0.459350 0.482123 0.396227
O O16 0.283724 0.477468 0.399671
O O17 0.102581 0.488791 0.207612
O O18 0.109457 0.250000 0.914077
O O19 0.338989 0.250000 0.510013
O O20 0.218914 0.950566 0.476780
O O21 0.139004 0.750000 0.521742
#
# Coordination Sequence:
#
# PCOD9161823 Si02
#       8
#     4   4   4   4   4   4   4   4
#     4  10  20  36  60  88 120 157 197 242 297 356
#     4   9  19  38  62  87 119 159 198 239 295 354
#     4  11  25  43  64  88 118 156 201 252 302 359
#     4  10  22  41  62  84 116 157 201 250 300 353
#     4   9  19  36  57  80 111 151 193 239 290 344
#     4  10  21  38  61  87 117 154 197 243 294 354
#     4  10  20  34  54  83 117 152 193 238 289 350
#     4  11  22  36  59  87 118 155 198 245 296 356
#
# _framework density 23.356783
#
# number of rings (size 3 to 8) (size 9 to 14) (size 15 to 20)
#    0.000    2.000    0.000    3.000    1.750    5.500 
#    0.000    3.750    0.000    0.000    0.000    0.000 
#    0.000    0.000    0.000    0.000    0.000    0.000 
#
# Total GULP energy -178841.097800 kJ/mol
# GULP energy per Si atom -5588.784306 kJ/mol
# Density = 2.330362 g / cm^3
# Si number density = 23.356783 Si / 1000 Ang^3
#
#
#
# Elastic Constant Matrix: (Units=GPa)
#
#
# Indices 1 2 3 4 5 6 
#
# 1 94.7557 4.8109 25.1956 0.0000 24.7155 0.0000
# 2 4.8109 40.6681 -1.8432 0.0000 4.5695 0.0000
# 3 25.1956 -1.8432 113.8866 0.0000 19.9536 0.0000
# 4 0.0000 0.0000 0.0000 21.6609 0.0000 -4.2699
# 5 24.7155 4.5695 19.9536 0.0000 35.2639 0.0000
# 6 0.0000 0.0000 0.0000 -4.2699 0.0000 20.0765
#
#
#
# Elastic Compliance Matrix: (Units=1/GPa)
#
#
# Indices 1 2 3 4 5 6 
#
# 1 0.013141 -0.000689 -0.001466 0.000000 -0.008291 0.000000
# 2 -0.000689 0.025108 0.001159 0.000000 -0.003426 0.000000
# 3 -0.001466 0.001159 0.009957 0.000000 -0.004757 0.000000
# 4 0.000000 0.000000 0.000000 0.048186 0.000000 0.010248
# 5 -0.008291 -0.003426 -0.004757 0.000000 0.037305 0.000000
# 6 0.000000 0.000000 0.000000 0.010248 0.000000 0.051989
#
#
# Mechanical properties :
#
#
# Convention : Reuss Voigt Hill
#
# Bulk Modulus (GPa) = 21.63812 33.95968 27.79890
# Shear Modulus (GPa) = 24.62052 30.14342 27.38197
#
# Velocity S-wave (km/s) = 3.25022 3.59634 3.42765
# Velocity P-wave (km/s) = 4.83420 5.64057 5.25288
#
# Compressibility (1/GPa) = 0.04621473
#
# Stress axis : x y z
#
# Youngs Moduli (GPa) = 76.09858 39.82739 100.43039
#
# Poissons Ratio (x) = 0.02745 0.14720
# Poissons Ratio (y) = 0.05246 -0.11642
# Poissons Ratio (z) = 0.11153 -0.04617
#
# Static dielectric constant tensor:
#      x y z
#    x 1.884490 0.000000 0.031040 
#    y 0.000000 1.876370 0.000000 
#    z 0.031040 0.000000 1.878670 
# 
# From -- ./inp_files/69165.got.cif
#   From: 2010.05.17/outbox.cif.g08.bks.cpg/sg11_35_cif.got.tgz:69165.got - 2010.06.03 12:22:45.
