data_PCOD9161591
_publ_section_title
;
Structure prediction by ZEFSAII (Michael W. Deem and Ramdas Pophale) SiO2 
 PCOD9161591
Probable space group: P 21/M
;
_chemical_formula_sum "Si O2"
_cell_formula_units_Z 28
_cell_length_a 23.657150
_cell_length_b 7.465862
_cell_length_c 22.166452
_cell_angle_alpha 90.000000
_cell_angle_beta 17.929785
_cell_angle_gamma 90.000000
_cell_volume 1205.256551
_symmetry_space_group_name_H-M "P 21/M"
_symmetry_group_IT_number 11
_symmetry_cell_setting 'monoclinic'
loop_
_space_group_symop_operation_xyz
x,y,z
-x,1/2+y,-z
-x,-y,-z
x,1/2-y,z
loop_
_atom_site_type_symbol
_atom_site_label
_atom_site_fract_x
_atom_site_fract_y
_atom_site_fract_z
Si Si1 0.328232 0.459583 0.058930
Si Si2 0.145172 0.043250 0.939619
Si Si3 0.088014 0.463205 0.552342
Si Si4 0.531492 0.969752 0.315167
Si Si5 0.246991 0.967522 0.706291
Si Si6 0.787298 0.536226 0.698537
Si Si7 0.401305 0.963675 0.317263
O O1 0.372354 0.250000 0.020368
O O2 0.327477 0.536883 0.128003
O O3 0.118997 0.469439 0.246354
O O4 0.465086 0.538586 0.870599
O O5 0.108597 0.250000 0.991811
O O6 0.265612 0.968354 0.871689
O O7 0.263561 0.035547 0.757669
O O8 0.949277 0.965969 0.120069
O O9 0.076279 0.250000 0.558190
O O10 0.216185 0.532382 0.366483
O O11 0.193353 0.505750 0.506802
O O12 0.533166 0.750000 0.313187
O O13 0.397700 0.023171 0.505222
O O14 0.457339 0.031343 0.326091
O O15 0.245123 0.750000 0.711881
O O16 0.758588 0.750000 0.726342
O O17 0.000000 0.500000 0.500000
O O18 0.429336 0.750000 0.290970
#
# Coordination Sequence:
#
# PCOD9161591 Si02
#       7
#     4   4   4   4   4   4   4
#     4   9  18  34  55  76  99 130 171 215 253 296
#     4   9  17  30  49  72  96 122 155 194 236 282
#     4  10  20  34  52  74 103 135 166 208 261 309
#     4   9  18  32  49  70  96 127 162 197 235 283
#     4   9  17  30  50  74  97 121 152 193 240 286
#     4   8  15  29  49  73  98 126 163 207 256 303
#     4  10  21  35  52  75 101 134 176 212 245 294
#
# _framework density 23.231570000000001
#
# number of rings (size 3 to 8) (size 9 to 14) (size 15 to 20)
#    0.000    2.857    0.000    0.857    0.000    2.857 
#    0.000    5.714    0.000    3.429    0.000    0.000 
#    0.000    0.000    0.000    0.000    0.000    0.000 
#
# Total GULP energy -156299.937022 kJ/mol
# GULP energy per Si atom -5582.140608 kJ/mol
# Density = 2.317869 g / cm^3
# Si number density = 23.231570 Si / 1000 Ang^3
#
#
#
# Elastic Constant Matrix: (Units=GPa)
#
#
# Indices 1 2 3 4 5 6 
#
# 1 143.4325 -10.7272 12.5726 0.0000 -30.4284 0.0000
# 2 -10.7272 76.7002 -5.9712 0.0000 0.0773 0.0000
# 3 12.5726 -5.9712 48.3364 0.0000 -9.5602 0.0000
# 4 0.0000 0.0000 0.0000 9.0912 0.0000 0.7230
# 5 -30.4284 0.0773 -9.5602 0.0000 12.8749 0.0000
# 6 0.0000 0.0000 0.0000 0.7230 0.0000 -1.2607
#
#
#
# Elastic Compliance Matrix: (Units=1/GPa)
#
#
# Indices 1 2 3 4 5 6 
#
# 1 0.014883 0.002351 0.003954 0.000000 0.038097 0.000000
# 2 0.002351 0.013555 0.002515 0.000000 0.007343 0.000000
# 3 0.003954 0.002515 0.025571 0.000000 0.028318 0.000000
# 4 0.000000 0.000000 0.000000 0.105198 0.000000 0.060329
# 5 0.038097 0.007343 0.028318 0.000000 0.188692 0.000000
# 6 0.000000 0.000000 0.000000 0.060329 0.000000 -0.758608
#
#
# Mechanical properties :
#
#
# Convention : Reuss Voigt Hill
#
# Bulk Modulus (GPa) = 13.95666 28.91305 21.43485
# Shear Modulus (GPa) = -12.36198 22.31408 4.97605
#
# Velocity S-wave (km/s) = -2.30928 3.10257 1.46512
# Velocity P-wave (km/s) = 1.04387 5.03062 3.47976
#
# Compressibility (1/GPa) = 0.07165040
#
# Stress axis : x y z
#
# Youngs Moduli (GPa) = 67.19009 73.77356 39.10613
#
# Poissons Ratio (x) = -0.17344 -0.15463
# Poissons Ratio (y) = -0.15796 -0.09836
# Poissons Ratio (z) = -0.26568 -0.18556
#
# Static dielectric constant tensor:
#      x y z
#    x 1.877640 0.000000 -0.000820 
#    y 0.000000 1.889990 0.000000 
#    z -0.000820 0.000000 1.861540 
# 
# From -- ./inp_files/66679.got.cif
#   From: 2010.05.17/outbox.cif.g08.bks.cpg/sg11_34_cif.got.tgz:66679.got - 2010.06.03 12:22:45.
