data_PCOD9161017
_publ_section_title
;
Structure prediction by ZEFSAII (Michael W. Deem and Ramdas Pophale) SiO2 
 PCOD9161017
Probable space group: P 21/M
;
_chemical_formula_sum "Si O2"
_cell_formula_units_Z 28
_cell_length_a 15.402842
_cell_length_b 8.970323
_cell_length_c 20.145660
_cell_angle_alpha 90.000000
_cell_angle_beta 139.953532
_cell_angle_gamma 90.000000
_cell_volume 1790.924815
_symmetry_space_group_name_H-M "P 21/M"
_symmetry_group_IT_number 11
_symmetry_cell_setting 'monoclinic'
loop_
_space_group_symop_operation_xyz
x,y,z
-x,1/2+y,-z
-x,-y,-z
x,1/2-y,z
loop_
_atom_site_type_symbol
_atom_site_label
_atom_site_fract_x
_atom_site_fract_y
_atom_site_fract_z
Si Si1 0.045871 0.920702 0.628498
Si Si2 0.384230 0.572298 0.613932
Si Si3 0.677122 0.428222 0.785204
Si Si4 0.786880 0.919820 0.377809
Si Si5 0.872379 0.072975 0.773600
Si Si6 0.100105 0.071446 0.004381
Si Si7 0.836654 0.928920 0.611775
O O1 0.092408 0.750000 0.662148
O O2 0.918874 0.919900 0.503010
O O3 0.976499 0.971608 0.656198
O O4 0.160510 0.019335 0.661607
O O5 0.388581 0.750000 0.611604
O O6 0.531430 0.501373 0.692935
O O7 0.320238 0.521960 0.646894
O O8 0.284828 0.505688 0.499578
O O9 0.667757 0.250000 0.786903
O O10 0.766915 0.458276 0.771645
O O11 0.757272 0.498278 0.894616
O O12 0.738294 0.750000 0.345214
O O13 0.863698 0.250000 0.754388
O O14 0.839963 0.980810 0.689264
O O15 0.022553 0.041591 0.890085
O O16 0.106179 0.250000 0.016538
O O17 0.000000 0.000000 0.000000
O O18 0.823273 0.750000 0.597949
#
# Coordination Sequence:
#
# PCOD9161017 Si02
#       7
#     4   4   4   4   4   4   4
#     4   8  15  27  42  63  89 118 152 189 228 268
#     4  11  21  32  47  67  95 128 158 191 233 281
#     4  10  20  34  50  69  94 123 158 198 235 275
#     4   9  16  27  44  65  89 118 152 190 229 271
#     4   9  19  33  49  69  94 123 155 193 233 274
#     4   9  17  31  50  71  92 117 154 197 237 274
#     4  10  20  32  47  68  96 127 159 193 228 275
#
# _framework density 15.634378999999999
#
# number of rings (size 3 to 8) (size 9 to 14) (size 15 to 20)
#    0.000    2.571    0.000    4.714    0.000    8.000 
#    0.000    0.000    0.000    0.000    0.000    1.000 
#    0.000    0.000    0.000    0.000    0.000    0.000 
#
# Total GULP energy -155971.880566 kJ/mol
# GULP energy per Si atom -5570.424306 kJ/mol
# Density = 1.559879 g / cm^3
# Si number density = 15.634379 Si / 1000 Ang^3
#
#
#
# Elastic Constant Matrix: (Units=GPa)
#
#
# Indices 1 2 3 4 5 6 
#
# 1 78.8753 55.7073 51.5443 0.0000 0.9586 0.0000
# 2 55.7073 95.5862 55.7028 0.0000 2.5820 0.0000
# 3 51.5443 55.7028 81.4046 0.0000 5.2903 0.0000
# 4 0.0000 0.0000 0.0000 24.0203 0.0000 2.5124
# 5 0.9586 2.5820 5.2903 0.0000 -1.8844 0.0000
# 6 0.0000 0.0000 0.0000 2.5124 0.0000 24.9382
#
#
#
# Elastic Compliance Matrix: (Units=1/GPa)
#
#
# Indices 1 2 3 4 5 6 
#
# 1 0.024516 -0.009117 -0.007851 0.000000 -0.022061 0.000000
# 2 -0.009117 0.020645 -0.008365 0.000000 0.000166 0.000000
# 3 -0.007851 -0.008365 0.020283 0.000000 0.041487 0.000000
# 4 0.000000 0.000000 0.000000 0.042075 0.000000 -0.004239
# 5 -0.022061 0.000166 0.041487 0.000000 -0.425186 0.000000
# 6 0.000000 0.000000 0.000000 -0.004239 0.000000 0.040526
#
#
# Mechanical properties :
#
#
# Convention : Reuss Voigt Hill
#
# Bulk Modulus (GPa) = 67.66528 64.64165 66.15347
# Shear Modulus (GPa) = -22.56844 15.60894 -3.47975
#
# Velocity S-wave (km/s) = -3.80348 3.16313 -1.49350
# Velocity P-wave (km/s) = 4.90766 7.40109 6.27938
#
# Compressibility (1/GPa) = 0.01477863
#
# Stress axis : x y z
#
# Youngs Moduli (GPa) = 40.79009 48.43755 49.30123
#
# Poissons Ratio (x) = 0.44158 0.38707
# Poissons Ratio (y) = 0.37186 0.41241
# Poissons Ratio (z) = 0.32025 0.40519
#
# Static dielectric constant tensor:
#      x y z
#    x 1.531760 0.000000 0.007350 
#    y 0.000000 1.521710 0.000000 
#    z 0.007350 0.000000 1.521910 
# 
# From -- ./inp_files/53188.got.cif
#   From: 2010.05.17/outbox.cif.g08.bks.cpg/sg11_27_cif.got.tgz:53188.got - 2010.06.03 12:22:45.
