data_PCOD9161825
_publ_section_title
;
Structure prediction by ZEFSAII (Michael W. Deem and Ramdas Pophale) SiO2 
 PCOD9161825
Probable space group: P 21/M
;
_chemical_formula_sum "Si O2"
_cell_formula_units_Z 28
_cell_length_a 12.713215
_cell_length_b 8.785830
_cell_length_c 15.127805
_cell_angle_alpha 90.000000
_cell_angle_beta 121.537507
_cell_angle_gamma 90.000000
_cell_volume 1440.142760
_symmetry_space_group_name_H-M "P 21/M"
_symmetry_group_IT_number 11
_symmetry_cell_setting 'monoclinic'
loop_
_space_group_symop_operation_xyz
x,y,z
-x,1/2+y,-z
-x,-y,-z
x,1/2-y,z
loop_
_atom_site_type_symbol
_atom_site_label
_atom_site_fract_x
_atom_site_fract_y
_atom_site_fract_z
Si Si1 0.755052 0.078282 0.066447
Si Si2 0.974564 0.920070 0.896550
Si Si3 0.610887 0.066667 0.489698
Si Si4 0.878604 0.433034 0.680620
Si Si5 0.861796 0.566623 0.286382
Si Si6 0.474327 0.069052 0.086421
Si Si7 0.648790 0.567140 0.314145
O O1 0.705154 0.250000 0.053515
O O2 0.890210 0.089298 0.086335
O O3 0.777341 0.001156 0.170995
O O4 0.668242 0.978719 0.965922
O O5 0.924490 0.750000 0.887271
O O6 0.896772 0.008712 0.788515
O O7 0.000000 0.000000 0.000000
O O8 0.603812 0.250000 0.488045
O O9 0.745631 0.018957 0.586095
O O10 0.500000 0.000000 0.500000
O O11 0.609288 0.007305 0.388635
O O12 0.881940 0.250000 0.682695
O O13 0.997235 0.483416 0.672717
O O14 0.859778 0.750000 0.279123
O O15 0.789092 0.525419 0.344307
O O16 0.489184 0.250000 0.094748
O O17 0.557771 0.991208 0.197255
O O18 0.500000 0.000000 0.000000
O O19 0.641896 0.750000 0.317336
#
# Coordination Sequence:
#
# PCOD9161825 Si02
#       7
#     4   4   4   4   4   4   4
#     4  10  20  34  54  83 120 158 197 243 297 357
#     4  10  21  36  58  88 119 155 199 247 298 358
#     4  11  25  45  66  88 120 162 209 260 308 360
#     4   9  20  40  64  88 118 157 198 249 308 362
#     4   9  18  35  60  89 120 153 193 241 302 367
#     4  12  23  36  57  87 124 163 201 244 299 360
#     4  11  23  39  62  92 124 161 206 253 305 370
#
# _framework density 19.442516999999999
#
# number of rings (size 3 to 8) (size 9 to 14) (size 15 to 20)
#    0.000    1.714    1.429    3.000    0.000    5.143 
#    0.000    1.429    0.000    0.000    0.000    0.000 
#    0.000    0.000    0.000    0.000    0.000    0.000 
#
# Total GULP energy -156209.949223 kJ/mol
# GULP energy per Si atom -5578.926758 kJ/mol
# Density = 1.939826 g / cm^3
# Si number density = 19.442517 Si / 1000 Ang^3
#
#
#
# Elastic Constant Matrix: (Units=GPa)
#
#
# Indices 1 2 3 4 5 6 
#
# 1 111.9090 42.4695 77.9386 0.0000 -7.8259 0.0000
# 2 42.4695 55.2279 31.7725 0.0000 -0.5289 0.0000
# 3 77.9386 31.7725 131.0035 0.0000 -3.1544 0.0000
# 4 0.0000 0.0000 0.0000 31.3750 0.0000 -1.4096
# 5 -7.8259 -0.5289 -3.1544 0.0000 32.9703 0.0000
# 6 0.0000 0.0000 0.0000 -1.4096 0.0000 26.6788
#
#
#
# Elastic Compliance Matrix: (Units=1/GPa)
#
#
# Indices 1 2 3 4 5 6 
#
# 1 0.018963 -0.009421 -0.008913 0.000000 0.003497 0.000000
# 2 -0.009421 0.025724 -0.000679 0.000000 -0.001889 0.000000
# 3 -0.008913 -0.000679 0.013079 0.000000 -0.000875 0.000000
# 4 0.000000 0.000000 0.000000 0.031948 0.000000 0.001688
# 5 0.003497 -0.001889 -0.000875 0.000000 0.031046 0.000000
# 6 0.000000 0.000000 0.000000 0.001688 0.000000 0.037572
#
#
# Mechanical properties :
#
#
# Convention : Reuss Voigt Hill
#
# Bulk Modulus (GPa) = 50.65776 66.94462 58.80119
# Shear Modulus (GPa) = 24.63778 27.93546 26.28662
#
# Velocity S-wave (km/s) = 3.56365 3.79466 3.68097
# Velocity P-wave (km/s) = 6.56083 7.32844 6.95524
#
# Compressibility (1/GPa) = 0.01974031
#
# Stress axis : x y z
#
# Youngs Moduli (GPa) = 52.73460 38.87353 76.45581
#
# Poissons Ratio (x) = 0.36624 0.68141
# Poissons Ratio (y) = 0.49683 0.05194
# Poissons Ratio (z) = 0.47000 0.02641
#
# Static dielectric constant tensor:
#      x y z
#    x 1.758920 0.000000 0.016640 
#    y 0.000000 1.686900 0.000000 
#    z 0.016640 0.000000 1.653460 
# 
# From -- ./inp_files/49474.got.cif
#   From: 2010.05.17/outbox.cif.g08.bks.cpg/sg11_25_cif.got.tgz:49474.got - 2010.06.03 12:22:45.
