data_PCOD9161682
_publ_section_title
;
Structure prediction by ZEFSAII (Michael W. Deem and Ramdas Pophale) SiO2 
 PCOD9161682
Probable space group: P 21/M
;
_chemical_formula_sum "Si O2"
_cell_formula_units_Z 32
_cell_length_a 19.370828
_cell_length_b 14.280839
_cell_length_c 14.850441
_cell_angle_alpha 90.000000
_cell_angle_beta 158.086921
_cell_angle_gamma 90.000000
_cell_volume 1533.142049
_symmetry_space_group_name_H-M "P 21/M"
_symmetry_group_IT_number 11
_symmetry_cell_setting 'monoclinic'
loop_
_space_group_symop_operation_xyz
x,y,z
-x,1/2+y,-z
-x,-y,-z
x,1/2-y,z
loop_
_atom_site_type_symbol
_atom_site_label
_atom_site_fract_x
_atom_site_fract_y
_atom_site_fract_z
Si Si1 0.623837 0.856565 0.031968
Si Si2 0.173700 0.979824 0.644611
Si Si3 0.902588 0.535885 0.038567
Si Si4 0.272541 0.646190 0.083845
Si Si5 0.575944 0.141035 0.927960
Si Si6 0.337756 0.975560 0.578112
Si Si7 0.604676 0.545401 0.543003
Si Si8 0.923260 0.643853 0.231650
O O1 0.599933 0.750000 0.032846
O O2 0.441817 0.900424 0.766242
O O3 0.773546 0.858668 0.131073
O O4 0.706527 0.925020 0.208808
O O5 0.079171 0.933375 0.444082
O O6 0.307920 0.902169 0.850058
O O7 0.000000 0.000000 0.500000
O O8 0.122299 0.539004 0.304085
O O9 0.837891 0.612501 0.033714
O O10 0.838666 0.435199 0.000701
O O11 0.810284 0.556099 0.830254
O O12 0.200382 0.750000 0.013910
O O13 0.289153 0.630468 0.996545
O O14 0.486050 0.636662 0.374670
O O15 0.533152 0.250000 0.886599
O O16 0.399672 0.075621 0.694882
O O17 0.411772 0.980917 0.565011
O O18 0.500000 0.500000 0.500000
O O19 0.995986 0.750000 0.315586
#
# Coordination Sequence:
#
# PCOD9161682 Si02
#       8
#     4   4   4   4   4   4   4   4
#     4   9  18  34  55  79 108 141 180 224 269 317
#     4   9  16  30  53  80 105 132 178 228 269 308
#     4  11  21  34  52  76 110 141 173 216 264 319
#     4   9  18  33  54  78 103 134 173 216 262 312
#     4   9  17  32  54  76 101 135 174 216 261 311
#     4  10  20  34  53  78 107 139 171 213 266 319
#     4   9  18  35  56  76 100 134 175 217 260 310
#     4  10  20  34  54  79 107 142 183 226 268 314
#
# _framework density 20.872169
#
# number of rings (size 3 to 8) (size 9 to 14) (size 15 to 20)
#    0.000    2.500    0.000    4.500    0.000    2.000 
#    0.000    6.875    0.000    6.000    0.000    0.000 
#    0.000    0.000    0.000    0.000    0.000    0.000 
#
# Total GULP energy -178519.664368 kJ/mol
# GULP energy per Si atom -5578.739511 kJ/mol
# Density = 2.082466 g / cm^3
# Si number density = 20.872169 Si / 1000 Ang^3
#
#
#
# Elastic Constant Matrix: (Units=GPa)
#
#
# Indices 1 2 3 4 5 6 
#
# 1 38.0624 6.2510 2.3397 0.0000 -2.8280 0.0000
# 2 6.2510 123.3519 32.0150 0.0000 -1.3486 0.0000
# 3 2.3397 32.0150 109.3165 0.0000 1.3641 0.0000
# 4 0.0000 0.0000 0.0000 11.2545 0.0000 -2.8187
# 5 -2.8280 -1.3486 1.3641 0.0000 27.4209 0.0000
# 6 0.0000 0.0000 0.0000 -2.8187 0.0000 10.4198
#
#
#
# Elastic Compliance Matrix: (Units=1/GPa)
#
#
# Indices 1 2 3 4 5 6 
#
# 1 0.026695 -0.001262 -0.000235 0.000000 0.002703 0.000000
# 2 -0.001262 0.008842 -0.002568 0.000000 0.000432 0.000000
# 3 -0.000235 -0.002568 0.009913 0.000000 -0.000644 0.000000
# 4 0.000000 0.000000 0.000000 0.095310 0.000000 0.025782
# 5 0.002703 0.000432 -0.000644 0.000000 0.036801 0.000000
# 6 0.000000 0.000000 0.000000 0.025782 0.000000 0.102946
#
#
# Mechanical properties :
#
#
# Convention : Reuss Voigt Hill
#
# Bulk Modulus (GPa) = 26.79590 39.10470 32.95030
# Shear Modulus (GPa) = 16.60702 25.16072 20.88387
#
# Velocity S-wave (km/s) = 2.82379 3.47575 3.16660
# Velocity P-wave (km/s) = 4.84744 5.90625 5.40285
#
# Compressibility (1/GPa) = 0.03731914
#
# Stress axis : x y z
#
# Youngs Moduli (GPa) = 37.45988 113.09581 100.87893
#
# Poissons Ratio (x) = 0.14275 0.02375
# Poissons Ratio (y) = 0.04728 0.25905
# Poissons Ratio (z) = 0.00882 0.29042
#
# Static dielectric constant tensor:
#      x y z
#    x 1.783050 0.000000 0.011410 
#    y 0.000000 1.721800 0.000000 
#    z 0.011410 0.000000 1.789360 
# 
# From -- ./inp_files/47617.got.cif
#   From: 2010.05.17/outbox.cif.g08.bks.cpg/sg11_24_cif.got.tgz:47617.got - 2010.06.03 12:22:45.
