data_PCOD9161217
_publ_section_title
;
Structure prediction by ZEFSAII (Michael W. Deem and Ramdas Pophale) SiO2 
 PCOD9161217
Probable space group: P 21/M
;
_chemical_formula_sum "Si O2"
_cell_formula_units_Z 32
_cell_length_a 11.863935
_cell_length_b 9.078301
_cell_length_c 17.522881
_cell_angle_alpha 90.000000
_cell_angle_beta 92.444725
_cell_angle_gamma 90.000000
_cell_volume 1885.573170
_symmetry_space_group_name_H-M "P 21/M"
_symmetry_group_IT_number 11
_symmetry_cell_setting 'monoclinic'
loop_
_space_group_symop_operation_xyz
x,y,z
-x,1/2+y,-z
-x,-y,-z
x,1/2-y,z
loop_
_atom_site_type_symbol
_atom_site_label
_atom_site_fract_x
_atom_site_fract_y
_atom_site_fract_z
Si Si1 0.120168 0.075614 0.511795
Si Si2 0.348029 0.417220 0.058602
Si Si3 0.228996 0.422350 0.681584
Si Si4 0.445165 0.075354 0.600730
Si Si5 0.223021 0.575995 0.833396
Si Si6 0.116888 0.427750 0.978388
Si Si7 0.557152 0.583390 0.112548
Si Si8 0.672205 0.423588 0.545951
O O1 0.111372 0.250000 0.501536
O O2 0.168597 0.049153 0.598779
O O3 0.211355 0.010951 0.454931
O O4 0.000000 0.000000 0.500000
O O5 0.350319 0.250000 0.088672
O O6 0.430228 0.522305 0.108372
O O7 0.219144 0.464298 0.040197
O O8 0.401506 0.411548 0.974715
O O9 0.212833 0.250000 0.700308
O O10 0.362708 0.446354 0.669536
O O11 0.186717 0.522936 0.748685
O O12 0.432549 0.250000 0.578708
O O13 0.578791 0.046528 0.608819
O O14 0.393740 0.974166 0.532583
O O15 0.212857 0.750000 0.843090
O O16 0.155087 0.491865 0.897780
O O17 0.352933 0.523901 0.846090
O O18 0.110039 0.250000 0.974508
O O19 0.000000 0.500000 0.000000
O O20 0.565122 0.750000 0.142995
O O21 0.695280 0.250000 0.544824
#
# Coordination Sequence:
#
# PCOD9161217 Si02
#       8
#     4   4   4   4   4   4   4   4
#     4  10  20  33  50  72  99 132 170 211 252 298
#     4   8  15  27  44  68  95 121 151 190 234 280
#     4   9  18  33  50  70  98 129 162 204 253 303
#     4   8  15  27  44  67  94 123 152 187 235 287
#     4  11  21  32  49  73 100 130 165 207 254 302
#     4  10  20  34  52  74 101 133 170 211 251 296
#     4   9  16  27  45  68  94 123 153 189 236 287
#     4   9  15  25  44  69  95 121 152 192 236 283
#
# _framework density 16.970966000000001
#
# number of rings (size 3 to 8) (size 9 to 14) (size 15 to 20)
#    0.000    2.750    0.000    4.125    0.000    6.500 
#    0.000    0.000    0.000    1.500    0.000    5.250 
#    0.000    0.000    0.000    0.000    0.000    0.000 
#
# Total GULP energy -178186.187159 kJ/mol
# GULP energy per Si atom -5568.318349 kJ/mol
# Density = 1.693234 g / cm^3
# Si number density = 16.970966 Si / 1000 Ang^3
#
#
#
# Elastic Constant Matrix: (Units=GPa)
#
#
# Indices 1 2 3 4 5 6 
#
# 1 145.0634 59.0069 26.5105 0.0000 -9.5812 0.0000
# 2 59.0069 80.3739 30.5736 0.0000 -3.6886 0.0000
# 3 26.5105 30.5736 35.9022 0.0000 -7.4949 0.0000
# 4 0.0000 0.0000 0.0000 19.3104 0.0000 -0.6590
# 5 -9.5812 -3.6886 -7.4949 0.0000 11.1004 0.0000
# 6 0.0000 0.0000 0.0000 -0.6590 0.0000 31.3179
#
#
#
# Elastic Compliance Matrix: (Units=1/GPa)
#
#
# Indices 1 2 3 4 5 6 
#
# 1 0.010265 -0.007199 -0.000115 0.000000 0.006390 0.000000
# 2 -0.007199 0.023713 -0.016914 0.000000 -0.009754 0.000000
# 3 -0.000115 -0.016914 0.047900 0.000000 0.026621 0.000000
# 4 0.000000 0.000000 0.000000 0.051823 0.000000 0.001090
# 5 0.006390 -0.009754 0.026621 0.000000 0.110336 0.000000
# 6 0.000000 0.000000 0.000000 0.001090 0.000000 0.031954
#
#
# Mechanical properties :
#
#
# Convention : Reuss Voigt Hill
#
# Bulk Modulus (GPa) = 29.92117 54.83573 42.37845
# Shear Modulus (GPa) = 14.89922 22.02897 18.46410
#
# Velocity S-wave (km/s) = 2.96619 3.60674 3.30203
# Velocity P-wave (km/s) = 5.42219 7.05169 6.28993
#
# Compressibility (1/GPa) = 0.03342116
#
# Stress axis : x y z
#
# Youngs Moduli (GPa) = 97.41889 42.17018 20.87683
#
# Poissons Ratio (x) = 0.30358 0.00241
# Poissons Ratio (y) = 0.70131 0.35312
# Poissons Ratio (z) = 0.01123 0.71328
#
# Static dielectric constant tensor:
#      x y z
#    x 1.597650 0.000000 -0.005500 
#    y 0.000000 1.571360 0.000000 
#    z -0.005500 0.000000 1.584920 
# 
# From -- ./inp_files/58712.got.cif
#   From: 2010.05.17/outbox.cif.g08.bks.cpg/sg11_30_cif.got.tgz:58712.got - 2010.06.03 12:22:45.
