data_PCOD9161477
_publ_section_title
;
Structure prediction by ZEFSAII (Michael W. Deem and Ramdas Pophale) SiO2 
 PCOD9161477
Probable space group: P 21/M
;
_chemical_formula_sum "Si O2"
_cell_formula_units_Z 32
_cell_length_a 12.771287
_cell_length_b 15.345507
_cell_length_c 12.771837
_cell_angle_alpha 90.000000
_cell_angle_beta 142.970544
_cell_angle_gamma 90.000000
_cell_volume 1507.399729
_symmetry_space_group_name_H-M "P 21/M"
_symmetry_group_IT_number 11
_symmetry_cell_setting 'monoclinic'
loop_
_space_group_symop_operation_xyz
x,y,z
-x,1/2+y,-z
-x,-y,-z
x,1/2-y,z
loop_
_atom_site_type_symbol
_atom_site_label
_atom_site_fract_x
_atom_site_fract_y
_atom_site_fract_z
Si Si1 0.742618 0.613995 0.133062
Si Si2 0.758857 0.095048 0.120583
Si Si3 0.857320 0.645880 0.642628
Si Si4 0.005891 0.351154 0.845686
Si Si5 0.633202 0.386039 0.242703
Si Si6 0.379400 0.404918 0.741179
Si Si7 0.270334 0.357123 0.229819
Si Si8 0.345523 0.648832 0.505817
O O1 0.748862 0.509254 0.126835
O O2 0.903151 0.647719 0.195026
O O3 0.722858 0.634158 0.239883
O O4 0.564042 0.644272 0.935817
O O5 0.739991 0.134119 0.222901
O O6 0.945233 0.116244 0.221543
O O7 0.583480 0.120967 0.916535
O O8 0.858275 0.750000 0.641786
O O9 0.721567 0.616290 0.445187
O O10 0.793469 0.618382 0.706297
O O11 0.982693 0.250000 0.857031
O O12 0.816139 0.392671 0.683955
O O13 0.138174 0.389921 0.035359
O O14 0.626911 0.490780 0.248878
O O15 0.695253 0.352337 0.403289
O O16 0.274028 0.250000 0.226124
O O17 0.464781 0.389919 0.361893
O O18 0.356853 0.750000 0.482668
#
# Coordination Sequence:
#
# PCOD9161477 Si02
#       8
#     4   4   4   4   4   4   4   4
#     4   9  18  36  60  83 116 150 179 223 281 335
#     4   9  21  38  57  84 114 150 184 221 278 338
#     4  11  24  39  59  81 109 152 193 227 273 335
#     4  10  20  33  56  85 109 142 185 231 278 325
#     4   9  18  36  60  83 116 150 179 223 281 335
#     4   9  21  38  57  84 114 150 184 221 278 338
#     4   9  20  40  55  74 112 151 187 226 276 332
#     4  10  20  33  56  85 109 142 185 231 278 325
#
# _framework density 21.228608999999999
#
# number of rings (size 3 to 8) (size 9 to 14) (size 15 to 20)
#    0.000    2.500    1.250    1.500    3.500    3.500 
#    0.000    6.250    0.000    0.000    0.000    0.000 
#    0.000    0.000    0.000    0.000    0.000    0.000 
#
# Total GULP energy -178579.363928 kJ/mol
# GULP energy per Si atom -5580.605123 kJ/mol
# Density = 2.118029 g / cm^3
# Si number density = 21.228609 Si / 1000 Ang^3
#
#
#
# Elastic Constant Matrix: (Units=GPa)
#
#
# Indices 1 2 3 4 5 6 
#
# 1 131.3116 -0.0996 99.3824 0.0000 19.0676 0.0000
# 2 -0.0996 32.3775 6.9277 0.0000 2.8852 0.0000
# 3 99.3824 6.9277 193.4279 0.0000 7.0889 0.0000
# 4 0.0000 0.0000 0.0000 11.8606 0.0000 -5.8452
# 5 19.0676 2.8852 7.0889 0.0000 33.6992 0.0000
# 6 0.0000 0.0000 0.0000 -5.8452 0.0000 25.7846
#
#
#
# Elastic Compliance Matrix: (Units=1/GPa)
#
#
# Indices 1 2 3 4 5 6 
#
# 1 0.013814 0.002109 -0.006934 0.000000 -0.006538 0.000000
# 2 0.002109 0.031648 -0.002090 0.000000 -0.003463 0.000000
# 3 -0.006934 -0.002090 0.008724 0.000000 0.002267 0.000000
# 4 0.000000 0.000000 0.000000 0.094917 0.000000 0.021517
# 5 -0.006538 -0.003463 0.002267 0.000000 0.033193 0.000000
# 6 0.000000 0.000000 0.000000 0.021517 0.000000 0.043661
#
#
# Mechanical properties :
#
#
# Convention : Reuss Voigt Hill
#
# Bulk Modulus (GPa) = 24.77924 63.28200 44.03062
# Shear Modulus (GPa) = 19.74416 30.99596 25.37006
#
# Velocity S-wave (km/s) = 3.05302 3.82527 3.46076
# Velocity P-wave (km/s) = 4.91180 7.02743 6.06261
#
# Compressibility (1/GPa) = 0.04035637
#
# Stress axis : x y z
#
# Youngs Moduli (GPa) = 72.38996 31.59767 114.62536
#
# Poissons Ratio (x) = -0.06663 0.79476
# Poissons Ratio (y) = -0.15265 0.23957
# Poissons Ratio (z) = 0.50192 0.06604
#
# Static dielectric constant tensor:
#      x y z
#    x 1.749260 0.000000 0.012780 
#    y 0.000000 1.788270 0.000000 
#    z 0.012780 0.000000 1.779710 
# 
# From -- ./inp_files/36371.got.cif
#   From: 2010.05.17/outbox.cif.g08.bks.cpg/sg11_19_cif.got.tgz:36371.got - 2010.06.03 12:22:45.
