data_PCOD9161558
_publ_section_title
;
Structure prediction by ZEFSAII (Michael W. Deem and Ramdas Pophale) SiO2 
 PCOD9161558
Probable space group: P 21/M
;
_chemical_formula_sum "Si O2"
_cell_formula_units_Z 32
_cell_length_a 18.731243
_cell_length_b 11.341474
_cell_length_c 8.709223
_cell_angle_alpha 90.000000
_cell_angle_beta 135.509071
_cell_angle_gamma 90.000000
_cell_volume 1296.603925
_symmetry_space_group_name_H-M "P 21/M"
_symmetry_group_IT_number 11
_symmetry_cell_setting 'monoclinic'
loop_
_space_group_symop_operation_xyz
x,y,z
-x,1/2+y,-z
-x,-y,-z
x,1/2-y,z
loop_
_atom_site_type_symbol
_atom_site_label
_atom_site_fract_x
_atom_site_fract_y
_atom_site_fract_z
Si Si1 0.602955 0.617053 0.232641
Si Si2 0.371902 0.624166 0.570096
Si Si3 0.923876 0.937266 0.263692
Si Si4 0.563120 0.382225 0.798278
Si Si5 0.415919 0.120796 0.283753
Si Si6 0.117495 0.619724 0.384974
Si Si7 0.787815 0.879282 0.326613
Si Si8 0.163776 0.623156 0.099688
O O1 0.625110 0.750000 0.328361
O O2 0.645635 0.498013 0.371777
O O3 0.483543 0.604698 0.099640
O O4 0.665126 0.619690 0.167524
O O5 0.362984 0.750000 0.642121
O O6 0.482882 0.625778 0.666837
O O7 0.284577 0.626478 0.309102
O O8 0.837185 0.878352 0.234162
O O9 0.003585 0.873085 0.275534
O O10 0.000000 0.000000 0.500000
O O11 0.869044 0.027342 0.068664
O O12 0.607224 0.250000 0.852813
O O13 0.627634 0.493531 0.835816
O O14 0.464317 0.385707 0.530571
O O15 0.364490 0.250000 0.194735
O O16 0.164271 0.750000 0.493428
O O17 0.169169 0.500970 0.533088
O O18 0.120895 0.606516 0.206252
O O19 0.820046 0.750000 0.444868
O O20 0.127245 0.750000 0.986603
#
# Coordination Sequence:
#
# PCOD9161558 Si02
#       8
#     4   4   4   4   4   4   4   4
#     4   9  16  27  44  67  98 132 162 194 233 279
#     4   9  16  28  47  71  97 124 157 198 240 284
#     4  10  22  36  50  69  94 126 160 198 242 293
#     4   8  13  21  35  59  92 128 159 186 225 275
#     4   8  13  21  36  61  93 124 154 190 230 273
#     4  10  20  36  57  78  97 123 159 201 249 299
#     4  10  20  34  51  74 102 132 164 201 242 288
#     4  10  20  35  55  77  99 125 160 202 250 298
#
# _framework density 24.679859
#
# number of rings (size 3 to 8) (size 9 to 14) (size 15 to 20)
#    0.000    2.750    1.250    0.750    0.000    4.000 
#    0.000    2.500    0.000    0.000    0.000    0.875 
#    0.000    0.000    0.000    0.000    0.000    0.000 
#
# Total GULP energy -178213.189627 kJ/mol
# GULP energy per Si atom -5569.162176 kJ/mol
# Density = 2.462369 g / cm^3
# Si number density = 24.679859 Si / 1000 Ang^3
#
#
#
# Elastic Constant Matrix: (Units=GPa)
#
#
# Indices 1 2 3 4 5 6 
#
# 1 155.2345 39.3083 17.1262 0.0000 -12.0517 0.0000
# 2 39.3083 248.8615 64.2058 0.0000 -12.5826 0.0000
# 3 17.1262 64.2058 61.6829 0.0000 4.8092 0.0000
# 4 0.0000 0.0000 0.0000 32.3064 0.0000 -7.4152
# 5 -12.0517 -12.5826 4.8092 0.0000 20.0632 0.0000
# 6 0.0000 0.0000 0.0000 -7.4152 0.0000 12.3254
#
#
#
# Elastic Compliance Matrix: (Units=1/GPa)
#
#
# Indices 1 2 3 4 5 6 
#
# 1 0.007101 -0.000407 -0.001896 0.000000 0.004465 0.000000
# 2 -0.000407 0.006036 -0.006569 0.000000 0.005116 0.000000
# 3 -0.001896 -0.006569 0.024443 0.000000 -0.011118 0.000000
# 4 0.000000 0.000000 0.000000 0.035913 0.000000 0.021606
# 5 0.004465 0.005116 -0.011118 0.000000 0.058398 0.000000
# 6 0.000000 0.000000 0.000000 0.021606 0.000000 0.094132
#
#
# Mechanical properties :
#
#
# Convention : Reuss Voigt Hill
#
# Bulk Modulus (GPa) = 50.41387 78.56217 64.48802
# Shear Modulus (GPa) = 19.96990 35.94825 27.95907
#
# Velocity S-wave (km/s) = 2.84766 3.82066 3.36946
# Velocity P-wave (km/s) = 5.59318 7.16693 6.42840
#
# Compressibility (1/GPa) = 0.01983581
#
# Stress axis : x y z
#
# Youngs Moduli (GPa) = 140.83177 165.67562 40.91199
#
# Poissons Ratio (x) = 0.06735 0.07759
# Poissons Ratio (y) = 0.05725 0.26874
# Poissons Ratio (z) = 0.26708 1.08828
#
# Static dielectric constant tensor:
#      x y z
#    x 1.958260 0.000000 -0.034980 
#    y 0.000000 2.313720 0.000000 
#    z -0.034980 0.000000 1.960910 
# 
# From -- ./inp_files/26402.got.cif
#   From: 2010.05.17/outbox.cif.g08.bks.cpg/sg11_14_cif.got.tgz:26402.got - 2010.06.03 12:22:45.
