data_PCOD9161950
_publ_section_title
;
Structure prediction by ZEFSAII (Michael W. Deem and Ramdas Pophale) SiO2 
 PCOD9161950
Probable space group: P 21/M
;
_chemical_formula_sum "Si O2"
_cell_formula_units_Z 20
_cell_length_a 10.506436
_cell_length_b 11.462897
_cell_length_c 6.964110
_cell_angle_alpha 90.000000
_cell_angle_beta 100.005432
_cell_angle_gamma 90.000000
_cell_volume 825.961166
_symmetry_space_group_name_H-M "P 21/M"
_symmetry_group_IT_number 11
_symmetry_cell_setting 'monoclinic'
loop_
_space_group_symop_operation_xyz
x,y,z
-x,1/2+y,-z
-x,-y,-z
x,1/2-y,z
loop_
_atom_site_type_symbol
_atom_site_label
_atom_site_fract_x
_atom_site_fract_y
_atom_site_fract_z
Si Si1 0.308813 0.376501 0.619330
Si Si2 0.585797 0.382512 0.307665
Si Si3 0.881283 0.505981 0.681392
Si Si4 0.867332 0.377133 0.298939
Si Si5 0.702835 0.618410 0.927641
O O1 0.365314 0.250000 0.586830
O O2 0.388023 0.492532 0.581464
O O3 0.173933 0.393179 0.475779
O O4 0.289958 0.380640 0.841565
O O5 0.590442 0.250000 0.395515
O O6 0.715493 0.381970 0.208953
O O7 0.448294 0.393571 0.168026
O O8 0.868352 0.396759 0.532757
O O9 0.789880 0.523397 0.840357
O O10 0.030692 0.531696 0.758420
O O11 0.914680 0.250000 0.257907
O O12 0.743388 0.750000 0.876416
#
# Coordination Sequence:
#
# PCOD9161950 Si02
#       5
#     4   4   4   4   4
#     4  10  20  34  56  83 107 138 182 223 261 314
#     4   9  19  36  55  78 111 144 174 218 272 317
#     4  10  20  36  57  78 106 143 179 219 266 316
#     4   9  18  34  55  78 107 142 177 218 269 318
#     4  10  20  35  56  80 106 139 180 220 261 316
#
# _framework density 24.214216
#
# number of rings (size 3 to 8) (size 9 to 14) (size 15 to 20)
#    0.000    2.400    0.000    2.400    0.000    3.200 
#    0.000   13.000    0.000    4.800    0.000    0.000 
#    0.000    0.000    0.000    0.000    0.000    0.000 
#
# Total GULP energy -111363.863539 kJ/mol
# GULP energy per Si atom -5568.193177 kJ/mol
# Density = 2.415910 g / cm^3
# Si number density = 24.214216 Si / 1000 Ang^3
#
#
#
# Elastic Constant Matrix: (Units=GPa)
#
#
# Indices 1 2 3 4 5 6 
#
# 1 150.8518 7.3981 41.4385 0.0000 -14.7186 0.0000
# 2 7.3981 147.1647 -6.7575 0.0000 0.9138 0.0000
# 3 41.4385 -6.7575 85.4490 0.0000 -4.3114 0.0000
# 4 0.0000 0.0000 0.0000 4.5550 0.0000 16.1927
# 5 -14.7186 0.9138 -4.3114 0.0000 30.2763 0.0000
# 6 0.0000 0.0000 0.0000 16.1927 0.0000 6.5446
#
#
#
# Elastic Compliance Matrix: (Units=1/GPa)
#
#
# Indices 1 2 3 4 5 6 
#
# 1 0.008023 -0.000597 -0.003767 0.000000 0.003382 0.000000
# 2 -0.000597 0.006865 0.000813 0.000000 -0.000382 0.000000
# 3 -0.003767 0.000813 0.013598 0.000000 0.000080 0.000000
# 4 0.000000 0.000000 0.000000 -0.028162 0.000000 0.069678
# 5 0.003382 -0.000382 0.000080 0.000000 0.034696 0.000000
# 6 0.000000 0.000000 0.000000 0.069678 0.000000 -0.019600
#
#
# Mechanical properties :
#
#
# Convention : Reuss Voigt Hill
#
# Bulk Modulus (GPa) = 46.76526 51.95817 49.36172
# Shear Modulus (GPa) = 168.62663 31.03427 99.83045
#
# Velocity S-wave (km/s) = 8.35408 3.58390 6.42787
# Velocity P-wave (km/s) = 10.60233 6.21531 8.69021
#
# Compressibility (1/GPa) = 0.02138339
#
# Stress axis : x y z
#
# Youngs Moduli (GPa) = 124.63848 145.66960 73.53864
#
# Poissons Ratio (x) = 0.08701 0.27705
# Poissons Ratio (y) = 0.07445 -0.05981
# Poissons Ratio (z) = 0.46957 -0.11847
#
# Static dielectric constant tensor:
#      x y z
#    x 1.966150 0.000000 -0.022250 
#    y 0.000000 2.025010 0.000000 
#    z -0.022250 0.000000 1.922850 
# 
# From -- ./inp_files/11731.got.cif
#   From: 2010.05.17/outbox.cif.g08.bks.cpg/sg11_6_cif.got.tgz:11731.got - 2010.06.03 12:22:45.
