data_PCOD9161048
_publ_section_title
;
Structure prediction by ZEFSAII (Michael W. Deem and Ramdas Pophale) SiO2 
 PCOD9161048
Probable space group: P 21/M
;
_chemical_formula_sum "Si O2"
_cell_formula_units_Z 28
_cell_length_a 20.546626
_cell_length_b 9.302338
_cell_length_c 19.110185
_cell_angle_alpha 90.000000
_cell_angle_beta 158.475703
_cell_angle_gamma 90.000000
_cell_volume 1340.109243
_symmetry_space_group_name_H-M "P 21/M"
_symmetry_group_IT_number 11
_symmetry_cell_setting 'monoclinic'
loop_
_space_group_symop_operation_xyz
x,y,z
-x,1/2+y,-z
-x,-y,-z
x,1/2-y,z
loop_
_atom_site_type_symbol
_atom_site_label
_atom_site_fract_x
_atom_site_fract_y
_atom_site_fract_z
Si Si1 0.305192 0.079562 0.224167
Si Si2 0.191718 0.422871 0.685822
Si Si3 0.784854 0.911148 0.138525
Si Si4 0.285069 0.089193 0.506892
Si Si5 0.788688 0.412117 0.429536
Si Si6 0.684041 0.577577 0.612560
Si Si7 0.289079 0.911319 0.073191
O O1 0.306423 0.250000 0.213380
O O2 0.225902 0.050636 0.222221
O O3 0.506958 0.019527 0.432723
O O4 0.226399 0.000717 0.077845
O O5 0.172240 0.250000 0.660574
O O6 0.283961 0.452714 0.852973
O O7 0.273627 0.489342 0.697449
O O8 0.000000 0.500000 0.500000
O O9 0.721569 0.750000 0.058037
O O10 0.997561 0.905132 0.359332
O O11 0.748779 0.015840 0.038726
O O12 0.223485 0.250000 0.464716
O O13 0.214708 0.050382 0.359063
O O14 0.497280 0.095174 0.709186
O O15 0.251660 0.980359 0.535848
O O16 0.719859 0.250000 0.353862
O O17 0.638268 0.750000 0.566146
O O18 0.218276 0.750000 0.005005
#
# Coordination Sequence:
#
# PCOD9161048 Si02
#       7
#     4   4   4   4   4   4   4
#     4   9  15  25  44  67  93 125 158 196 239 279
#     4   9  17  31  51  73  96 123 158 199 238 280
#     4   9  19  34  51  72  96 122 157 198 237 281
#     4   9  18  32  48  70 100 128 157 196 239 283
#     4  10  20  33  51  75  98 124 161 199 237 285
#     4   8  15  27  43  66  94 124 160 198 235 279
#     4  10  20  32  48  72 100 128 160 197 239 287
#
# _framework density 20.893819000000001
#
# number of rings (size 3 to 8) (size 9 to 14) (size 15 to 20)
#    0.000    2.857    0.000    3.429    0.000    6.857 
#    0.000    0.714    0.000    0.857    0.000    0.000 
#    0.000    0.000    0.000    0.000    0.000    0.000 
#
# Total GULP energy -156032.750201 kJ/mol
# GULP energy per Si atom -5572.598221 kJ/mol
# Density = 2.084626 g / cm^3
# Si number density = 20.893819 Si / 1000 Ang^3
#
#
#
# Elastic Constant Matrix: (Units=GPa)
#
#
# Indices 1 2 3 4 5 6 
#
# 1 142.1513 89.4646 41.2484 0.0000 -63.5824 0.0000
# 2 89.4646 134.5401 45.0747 0.0000 -56.2255 0.0000
# 3 41.2484 45.0747 54.9460 0.0000 -26.5182 0.0000
# 4 0.0000 0.0000 0.0000 21.2701 0.0000 -12.1371
# 5 -63.5824 -56.2255 -26.5182 0.0000 58.0623 0.0000
# 6 0.0000 0.0000 0.0000 -12.1371 0.0000 31.4889
#
#
#
# Elastic Compliance Matrix: (Units=1/GPa)
#
#
# Indices 1 2 3 4 5 6 
#
# 1 0.016121 -0.005056 -0.002306 0.000000 0.011705 0.000000
# 2 -0.005056 0.015609 -0.005626 0.000000 0.007008 0.000000
# 3 -0.002306 -0.005626 0.026550 0.000000 0.004153 0.000000
# 4 0.000000 0.000000 0.000000 0.060270 0.000000 0.023231
# 5 0.011705 0.007008 0.004153 0.000000 0.038724 0.000000
# 6 0.000000 0.000000 0.000000 0.023231 0.000000 0.040711
#
#
# Mechanical properties :
#
#
# Convention : Reuss Voigt Hill
#
# Bulk Modulus (GPa) = 30.95581 75.91253 53.43417
# Shear Modulus (GPa) = 21.30102 32.55423 26.92763
#
# Velocity S-wave (km/s) = 3.19641 3.95153 3.59386
# Velocity P-wave (km/s) = 5.33579 7.56511 6.54605
#
# Compressibility (1/GPa) = 0.03230411
#
# Stress axis : x y z
#
# Youngs Moduli (GPa) = 62.02961 64.06627 37.66420
#
# Poissons Ratio (x) = 0.32393 0.08684
# Poissons Ratio (y) = 0.31363 0.21192
# Poissons Ratio (z) = 0.14302 0.36047
#
# Static dielectric constant tensor:
#      x y z
#    x 1.817920 0.000000 -0.005630 
#    y 0.000000 1.724420 0.000000 
#    z -0.005630 0.000000 1.794790 
# 
# From -- ./inp_files/42581.got.cif
#   From: 2010.05.17/outbox.cif.g08.bks.cpg/sg11_22_cif.got.tgz:42581.got - 2010.06.03 12:22:45.
