data_PCOD9161109
_publ_section_title
;
Structure prediction by ZEFSAII (Michael W. Deem and Ramdas Pophale) SiO2 
 PCOD9161109
Probable space group: P 21/M
;
_chemical_formula_sum "Si O2"
_cell_formula_units_Z 32
_cell_length_a 13.959640
_cell_length_b 7.421009
_cell_length_c 22.809489
_cell_angle_alpha 90.000000
_cell_angle_beta 146.738197
_cell_angle_gamma 90.000000
_cell_volume 1295.991169
_symmetry_space_group_name_H-M "P 21/M"
_symmetry_group_IT_number 11
_symmetry_cell_setting 'monoclinic'
loop_
_space_group_symop_operation_xyz
x,y,z
-x,1/2+y,-z
-x,-y,-z
x,1/2-y,z
loop_
_atom_site_type_symbol
_atom_site_label
_atom_site_fract_x
_atom_site_fract_y
_atom_site_fract_z
Si Si1 0.298503 0.465069 0.381561
Si Si2 0.875151 0.031623 0.017249
Si Si3 0.289340 0.453710 0.819720
Si Si4 0.542037 0.455900 0.779107
Si Si5 0.895911 0.542120 0.603987
Si Si6 0.743642 0.530784 0.773015
Si Si7 0.816495 0.966524 0.436488
Si Si8 0.329496 0.531867 0.975551
O O1 0.500000 0.500000 0.500000
O O2 0.267629 0.250000 0.362340
O O3 0.177695 0.536255 0.372808
O O4 0.264453 0.531044 0.298309
O O5 0.879607 0.250000 0.014016
O O6 0.712297 0.961101 0.896540
O O7 0.823471 0.990203 0.057801
O O8 0.070457 0.969589 0.104934
O O9 0.280638 0.250000 0.792843
O O10 0.297847 0.455908 0.895090
O O11 0.106369 0.540253 0.709347
O O12 0.481481 0.528003 0.902472
O O13 0.534356 0.250000 0.797351
O O14 0.589513 0.458704 0.734553
O O15 0.349562 0.536268 0.684941
O O16 0.839135 0.750000 0.575346
O O17 0.824429 0.461596 0.507010
O O18 0.735290 0.750000 0.769961
O O19 0.794331 0.750000 0.428144
O O20 0.000000 0.000000 0.500000
O O21 0.339028 0.750000 0.974397
#
# Coordination Sequence:
#
# PCOD9161109 Si02
#       8
#     4   4   4   4   4   4   4   4
#     4  10  21  37  59  84 112 149 189 231 283 340
#     4   9  18  34  58  82 108 149 193 228 276 339
#     4  10  20  32  53  83 110 142 186 235 279 326
#     4  10  21  38  60  83 111 149 193 235 278 336
#     4  10  21  38  57  79 111 150 186 223 282 346
#     4  10  20  35  57  86 117 148 185 230 284 337
#     4  10  23  40  60  84 112 149 191 236 286 337
#     4   9  18  34  54  77 110 149 185 227 281 337
#
# _framework density 24.691526
#
# number of rings (size 3 to 8) (size 9 to 14) (size 15 to 20)
#    0.000    2.250    0.000    2.250    1.750    5.500 
#    0.000    2.500    0.000    0.000    0.000    0.000 
#    0.000    0.000    0.000    0.000    0.000    0.000 
#
# Total GULP energy -178894.825904 kJ/mol
# GULP energy per Si atom -5590.463309 kJ/mol
# Density = 2.463533 g / cm^3
# Si number density = 24.691526 Si / 1000 Ang^3
#
#
#
# Elastic Constant Matrix: (Units=GPa)
#
#
# Indices 1 2 3 4 5 6 
#
# 1 73.4897 -4.8853 11.8670 0.0000 15.1032 0.0000
# 2 -4.8853 82.3111 -7.6720 0.0000 -2.6972 0.0000
# 3 11.8670 -7.6720 134.2996 0.0000 16.8271 0.0000
# 4 0.0000 0.0000 0.0000 13.2514 0.0000 4.3679
# 5 15.1032 -2.6972 16.8271 0.0000 43.3109 0.0000
# 6 0.0000 0.0000 0.0000 4.3679 0.0000 15.0205
#
#
#
# Elastic Compliance Matrix: (Units=1/GPa)
#
#
# Indices 1 2 3 4 5 6 
#
# 1 0.014754 0.000655 -0.000659 0.000000 -0.004848 0.000000
# 2 0.000655 0.012254 0.000605 0.000000 0.000300 0.000000
# 3 -0.000659 0.000605 0.007889 0.000000 -0.002798 0.000000
# 4 0.000000 0.000000 0.000000 0.083464 0.000000 -0.024271
# 5 -0.004848 0.000300 -0.002798 0.000000 0.025885 0.000000
# 6 0.000000 0.000000 0.000000 -0.024271 0.000000 0.073634
#
#
# Mechanical properties :
#
#
# Convention : Reuss Voigt Hill
#
# Bulk Modulus (GPa) = 27.70126 32.07997 29.89061
# Shear Modulus (GPa) = 21.86167 33.70260 27.78214
#
# Velocity S-wave (km/s) = 2.97878 3.69853 3.35799
# Velocity P-wave (km/s) = 4.80355 5.59100 5.21217
#
# Compressibility (1/GPa) = 0.03609944
#
# Stress axis : x y z
#
# Youngs Moduli (GPa) = 67.77982 81.60534 126.75337
#
# Poissons Ratio (x) = -0.05348 0.08350
# Poissons Ratio (y) = -0.04442 -0.07663
# Poissons Ratio (z) = 0.04465 -0.04934
#
# Static dielectric constant tensor:
#      x y z
#    x 1.937400 0.000000 -0.024400 
#    y 0.000000 1.935870 0.000000 
#    z -0.024400 0.000000 1.947610 
# 
# From -- ./inp_files/69081.got.cif
#   From: 2010.05.17/outbox.cif.g08.bks.cpg/sg11_35_cif.got.tgz:69081.got - 2010.06.03 12:22:45.
