data_PCOD9161966
_publ_section_title
;
Structure prediction by ZEFSAII (Michael W. Deem and Ramdas Pophale) SiO2 
 PCOD9161966
Probable space group: P 21/M
;
_chemical_formula_sum "Si O2"
_cell_formula_units_Z 32
_cell_length_a 20.647930
_cell_length_b 8.456776
_cell_length_c 25.886951
_cell_angle_alpha 90.000000
_cell_angle_beta 20.338850
_cell_angle_gamma 90.000000
_cell_volume 1571.109403
_symmetry_space_group_name_H-M "P 21/M"
_symmetry_group_IT_number 11
_symmetry_cell_setting 'monoclinic'
loop_
_space_group_symop_operation_xyz
x,y,z
-x,1/2+y,-z
-x,-y,-z
x,1/2-y,z
loop_
_atom_site_type_symbol
_atom_site_label
_atom_site_fract_x
_atom_site_fract_y
_atom_site_fract_z
Si Si1 0.631292 0.931611 0.650389
Si Si2 0.211425 0.562658 0.989135
Si Si3 0.410488 0.563596 0.133651
Si Si4 0.024922 0.059880 0.736186
Si Si5 0.174548 0.438893 0.901510
Si Si6 0.585148 0.066708 0.575330
Si Si7 0.797265 0.435342 0.809614
Si Si8 0.840658 0.067170 0.582972
O O1 0.640079 0.750000 0.625317
O O2 0.434563 0.954505 0.826676
O O3 0.627093 0.045973 0.604865
O O4 0.798955 0.967835 0.563318
O O5 0.173289 0.750000 0.013632
O O6 0.160314 0.488201 0.972141
O O7 0.099960 0.501313 0.122328
O O8 0.448488 0.750000 0.093114
O O9 0.250613 0.506105 0.212604
O O10 0.337606 0.556826 0.245950
O O11 0.595820 0.463164 0.986948
O O12 0.005754 0.250000 0.748966
O O13 0.945487 0.998626 0.740193
O O14 0.241260 0.017866 0.581419
O O15 0.181279 0.250000 0.894147
O O16 0.373723 0.497998 0.729497
O O17 0.000000 0.500000 0.000000
O O18 0.586244 0.250000 0.559713
O O19 0.840334 0.250000 0.771742
O O20 0.873187 0.250000 0.545650
O O21 0.000000 0.000000 0.500000
#
# Coordination Sequence:
#
# PCOD9161966 Si02
#       8
#     4   4   4   4   4   4   4   4
#     4  10  20  37  59  79 106 147 191 238 288 339
#     4   9  19  36  59  88 116 148 191 231 275 332
#     4   9  19  34  49  70 100 135 180 231 283 335
#     4  10  20  34  56  84 115 150 188 232 279 332
#     4  10  21  39  64  90 118 151 187 228 273 329
#     4  10  22  38  57  87 120 149 186 231 279 335
#     4   9  18  33  53  74 100 137 181 227 275 331
#     4  11  23  35  49  73 104 140 186 237 288 339
#
# _framework density 20.367775000000002
#
# number of rings (size 3 to 8) (size 9 to 14) (size 15 to 20)
#    0.000    2.250    0.000    2.250    1.750    5.000 
#    0.000    0.625    0.000    0.000    0.000    0.000 
#    0.000    0.000    0.000    0.000    0.000    0.000 
#
# Total GULP energy -178545.536136 kJ/mol
# GULP energy per Si atom -5579.548004 kJ/mol
# Density = 2.032142 g / cm^3
# Si number density = 20.367775 Si / 1000 Ang^3
#
#
#
# Elastic Constant Matrix: (Units=GPa)
#
#
# Indices 1 2 3 4 5 6 
#
# 1 65.9557 11.8799 20.4545 0.0000 -27.2107 0.0000
# 2 11.8799 13.3272 4.7032 0.0000 1.1555 0.0000
# 3 20.4545 4.7032 79.4614 0.0000 -12.2076 0.0000
# 4 0.0000 0.0000 0.0000 28.1359 0.0000 -0.8212
# 5 -27.2107 1.1555 -12.2076 0.0000 34.4939 0.0000
# 6 0.0000 0.0000 0.0000 -0.8212 0.0000 24.7156
#
#
#
# Elastic Compliance Matrix: (Units=1/GPa)
#
#
# Indices 1 2 3 4 5 6 
#
# 1 0.031545 -0.029386 -0.002545 0.000000 0.024968 0.000000
# 2 -0.029386 0.104650 -0.002887 0.000000 -0.027708 0.000000
# 3 -0.002545 -0.002887 0.013871 0.000000 0.002998 0.000000
# 4 0.000000 0.000000 0.000000 0.035576 0.000000 0.001182
# 5 0.024968 -0.027708 0.002998 0.000000 0.050676 0.000000
# 6 0.000000 0.000000 0.000000 0.001182 0.000000 0.040500
#
#
# Mechanical properties :
#
#
# Convention : Reuss Voigt Hill
#
# Bulk Modulus (GPa) = 12.43292 25.86884 19.15088
# Shear Modulus (GPa) = 13.39539 25.58286 19.48912
#
# Velocity S-wave (km/s) = 2.56730 3.54792 3.09667
# Velocity P-wave (km/s) = 3.86077 5.43250 4.71262
#
# Compressibility (1/GPa) = 0.08043166
#
# Stress axis : x y z
#
# Youngs Moduli (GPa) = 31.70118 9.55564 72.09128
#
# Poissons Ratio (x) = 0.28080 0.18347
# Poissons Ratio (y) = 0.93156 0.20810
# Poissons Ratio (z) = 0.08068 0.02758
#
# Static dielectric constant tensor:
#      x y z
#    x 1.717250 0.000000 0.003940 
#    y 0.000000 1.715310 0.000000 
#    z 0.003940 0.000000 1.772570 
# 
# From -- ./inp_files/72016.got.cif
#   From: 2010.05.17/outbox.cif.g08.bks.cpg/sg11_37_cif.got.tgz:72016.got - 2010.06.03 12:22:45.
