data_PCOD9161877
_publ_section_title
;
Structure prediction by ZEFSAII (Michael W. Deem and Ramdas Pophale) SiO2 
 PCOD9161877
Probable space group: P 21/M
;
_chemical_formula_sum "Si O2"
_cell_formula_units_Z 24
_cell_length_a 10.503397
_cell_length_b 8.708626
_cell_length_c 14.536361
_cell_angle_alpha 90.000000
_cell_angle_beta 90.000046
_cell_angle_gamma 90.000000
_cell_volume 1329.643211
_symmetry_space_group_name_H-M "P 21/M"
_symmetry_group_IT_number 11
_symmetry_cell_setting 'monoclinic'
loop_
_space_group_symop_operation_xyz
x,y,z
-x,1/2+y,-z
-x,-y,-z
x,1/2-y,z
loop_
_atom_site_type_symbol
_atom_site_label
_atom_site_fract_x
_atom_site_fract_y
_atom_site_fract_z
Si Si1 0.756645 0.936052 0.291121
Si Si2 0.756645 0.436052 0.708879
Si Si3 0.648236 0.934958 0.098716
Si Si4 1.000000 0.933046 0.603333
Si Si5 0.648236 0.434958 0.901285
Si Si6 0.500000 0.065359 0.601843
O O1 0.768360 0.750000 0.294348
O O2 0.734671 0.982031 0.184907
O O3 0.627424 0.980217 0.344378
O O4 0.876473 0.009075 0.341410
O O5 0.768360 0.250000 0.705652
O O6 0.734671 0.482031 0.815093
O O7 0.627424 0.480217 0.655622
O O8 0.876472 0.509075 0.658590
O O9 0.649582 0.750000 0.095104
O O10 0.500000 0.980999 0.114988
O O11 0.687492 1.000000 0.000000
O O12 1.000000 0.750000 0.597571
O O13 0.000000 0.000000 0.500000
O O14 0.649582 0.250000 0.904896
O O15 0.500000 0.250000 0.598073
O O16 0.500000 0.000000 0.500000
#
# Coordination Sequence:
#
# PCOD9161877 Si02
#       6
#     4   4   4   4   4   4
#     4  10  20  38  60  83 114 151 189 233 285 338
#     4  10  20  38  60  83 114 151 189 233 285 338
#     4   9  17  32  56  86 118 150 184 228 283 338
#     4  12  26  42  59  82 113 152 195 236 284 342
#     4   9  17  32  56  86 118 150 184 228 283 338
#     4  10  20  34  55  82 110 140 183 234 283 336
#
# _framework density 18.049956999999999
#
# number of rings (size 3 to 8) (size 9 to 14) (size 15 to 20)
#    0.000    2.000    1.667    2.500    0.000    5.333 
#    0.000    0.833    0.000    0.000    0.000    0.000 
#    0.000    0.000    0.000    0.000    0.000    0.000 
#
# Total GULP energy -133990.666132 kJ/mol
# GULP energy per Si atom -5582.944422 kJ/mol
# Density = 1.800887 g / cm^3
# Si number density = 18.049957 Si / 1000 Ang^3
#
#
#
# Elastic Constant Matrix: (Units=GPa)
#
#
# Indices 1 2 3 4 5 6 
#
# 1 153.2005 50.1015 107.1726 0.0000 -0.0004 0.0000
# 2 50.1015 40.2779 56.1792 0.0000 -0.0001 0.0000
# 3 107.1726 56.1792 214.4515 0.0000 -0.0003 0.0000
# 4 0.0000 0.0000 0.0000 35.1679 0.0000 -0.0001
# 5 -0.0004 -0.0001 -0.0003 0.0000 30.4757 0.0000
# 6 0.0000 0.0000 0.0000 -0.0001 0.0000 16.6886
#
#
#
# Elastic Compliance Matrix: (Units=1/GPa)
#
#
# Indices 1 2 3 4 5 6 
#
# 1 0.012398 -0.010683 -0.003397 0.000000 0.000000 0.000000
# 2 -0.010683 0.048328 -0.007321 0.000000 0.000000 0.000000
# 3 -0.003397 -0.007321 0.008279 0.000000 0.000000 0.000000
# 4 0.000000 0.000000 0.000000 0.028435 0.000000 0.000000
# 5 0.000000 0.000000 0.000000 0.000000 0.032813 0.000000
# 6 0.000000 0.000000 0.000000 0.000000 0.000000 0.059921
#
#
# Mechanical properties :
#
#
# Convention : Reuss Voigt Hill
#
# Bulk Modulus (GPa) = 38.16636 92.75961 65.46298
# Shear Modulus (GPa) = 20.68593 29.43156 25.05875
#
# Velocity S-wave (km/s) = 3.38899 4.04240 3.73003
# Velocity P-wave (km/s) = 6.04189 8.56096 7.40927
#
# Compressibility (1/GPa) = 0.02620108
#
# Stress axis : x y z
#
# Youngs Moduli (GPa) = 80.66107 20.69198 120.79103
#
# Poissons Ratio (x) = 0.22105 0.41034
# Poissons Ratio (y) = 0.86170 0.88437
# Poissons Ratio (z) = 0.27402 0.15150
#
# Static dielectric constant tensor:
#      x y z
#    x 1.598020 0.000000 0.000000 
#    y 0.000000 1.610670 0.000000 
#    z 0.000000 0.000000 1.609510 
# 
# From -- ./inp_files/46549.got.cif
#   From: 2010.05.17/outbox.cif.g08.bks.cpg/sg11_24_cif.got.tgz:46549.got - 2010.06.03 12:22:45.
