data_PCOD9161742
_publ_section_title
;
Structure prediction by ZEFSAII (Michael W. Deem and Ramdas Pophale) SiO2 
 PCOD9161742
Probable space group: P 21/M
;
_chemical_formula_sum "Si O2"
_cell_formula_units_Z 12
_cell_length_a 14.348730
_cell_length_b 5.502297
_cell_length_c 7.965961
_cell_angle_alpha 90.000000
_cell_angle_beta 131.337538
_cell_angle_gamma 90.000000
_cell_volume 472.213273
_symmetry_space_group_name_H-M "P 21/M"
_symmetry_group_IT_number 11
_symmetry_cell_setting 'monoclinic'
loop_
_space_group_symop_operation_xyz
x,y,z
-x,1/2+y,-z
-x,-y,-z
x,1/2-y,z
loop_
_atom_site_type_symbol
_atom_site_label
_atom_site_fract_x
_atom_site_fract_y
_atom_site_fract_z
Si Si1 0.568729 0.750000 0.885220
Si Si2 0.109631 0.750000 0.975871
Si Si3 0.440921 0.250000 0.716889
Si Si4 0.114043 0.750000 0.582585
Si Si5 0.828761 0.750000 0.769093
Si Si6 0.170978 0.250000 0.697288
O O1 0.509559 0.500768 0.749324
O O2 0.557831 0.750000 0.077016
O O3 0.716504 0.750000 0.040991
O O4 0.162004 0.504883 0.119441
O O5 0.132992 0.750000 0.805211
O O6 0.961002 0.750000 0.827392
O O7 0.303768 0.250000 0.479295
O O8 0.174203 0.500763 0.597356
O O9 0.966003 0.750000 0.379812
#
# Coordination Sequence:
#
# PCOD9161742 Si02
#       6
#     2   2   2   2   2   2
#     4  10  20  34  54  78 104 134 168 210 256 302
#     4  10  20  34  54  78 104 134 168 210 256 302
#     4  10  20  34  54  78 104 134 168 210 256 302
#     4  10  20  34  54  78 104 134 168 210 256 302
#     4  10  20  34  54  78 104 134 168 210 256 302
#     4  10  20  34  54  78 104 134 168 210 256 302
#
# _framework density 25.412248999999999
#
# number of rings (size 3 to 8) (size 9 to 14) (size 15 to 20)
#    0.000    2.000    0.000    4.000    0.000    0.000 
#    0.000   10.000    0.000   20.000    0.000    0.000 
#    0.000    0.000    0.000    0.000    0.000    0.000 
#
# Total GULP energy -67217.979800 kJ/mol
# GULP energy per Si atom -5601.498317 kJ/mol
# Density = 2.535441 g / cm^3
# Si number density = 25.412249 Si / 1000 Ang^3
#
#
#
# Elastic Constant Matrix: (Units=GPa)
#
#
# Indices 1 2 3 4 5 6 
#
# 1 42.5622 55.4778 39.7721 0.0000 15.0571 0.0000
# 2 55.4778 323.1882 131.8342 0.0000 31.8323 0.0000
# 3 39.7721 131.8342 194.7004 0.0000 47.5968 0.0000
# 4 0.0000 0.0000 0.0000 44.8828 0.0000 4.5245
# 5 15.0571 31.8323 47.5968 0.0000 41.3309 0.0000
# 6 0.0000 0.0000 0.0000 4.5245 0.0000 28.7021
#
#
#
# Elastic Compliance Matrix: (Units=1/GPa)
#
#
# Indices 1 2 3 4 5 6 
#
# 1 0.033358 -0.004081 -0.002572 0.000000 -0.006047 0.000000
# 2 -0.004081 0.004774 -0.002594 0.000000 0.000797 0.000000
# 3 -0.002572 -0.002594 0.009326 0.000000 -0.007805 0.000000
# 4 0.000000 0.000000 0.000000 0.022640 0.000000 -0.003569
# 5 -0.006047 0.000797 -0.007805 0.000000 0.034772 0.000000
# 6 0.000000 0.000000 0.000000 -0.003569 0.000000 0.035403
#
#
# Mechanical properties :
#
#
# Convention : Reuss Voigt Hill
#
# Bulk Modulus (GPa) = 34.52699 112.73541 73.63120
# Shear Modulus (GPa) = 29.68720 45.20759 37.44739
#
# Velocity S-wave (km/s) = 3.42164 4.22236 3.84291
# Velocity P-wave (km/s) = 5.40614 8.26015 6.98056
#
# Compressibility (1/GPa) = 0.02896285
#
# Stress axis : x y z
#
# Youngs Moduli (GPa) = 29.97816 209.45253 107.22793
#
# Poissons Ratio (x) = 0.85481 0.27584
# Poissons Ratio (y) = 0.12235 0.27814
# Poissons Ratio (z) = 0.07712 0.54330
#
# Static dielectric constant tensor:
#      x y z
#    x 2.038630 0.000000 -0.036810 
#    y 0.000000 2.071210 0.000000 
#    z -0.036810 0.000000 1.955670 
# 
# From -- ./inp_files/7655.got.cif
#   From: 2010.05.17/outbox.cif.g08.bks.cpg/sg11_4_cif.got.tgz:7655.got - 2010.06.03 12:22:45.
