data_PCOD9161783
_publ_section_title
;
Structure prediction by ZEFSAII (Michael W. Deem and Ramdas Pophale) SiO2 
 PCOD9161783
Probable space group: P 21/M
;
_chemical_formula_sum "Si O2"
_cell_formula_units_Z 32
_cell_length_a 26.927131
_cell_length_b 9.089472
_cell_length_c 21.319368
_cell_angle_alpha 90.000000
_cell_angle_beta 19.613700
_cell_angle_gamma 90.000000
_cell_volume 1751.557553
_symmetry_space_group_name_H-M "P 21/M"
_symmetry_group_IT_number 11
_symmetry_cell_setting 'monoclinic'
loop_
_space_group_symop_operation_xyz
x,y,z
-x,1/2+y,-z
-x,-y,-z
x,1/2-y,z
loop_
_atom_site_type_symbol
_atom_site_label
_atom_site_fract_x
_atom_site_fract_y
_atom_site_fract_z
Si Si1 0.902949 0.926597 0.910982
Si Si2 0.038846 0.073284 0.519936
Si Si3 0.151727 0.918993 0.895497
Si Si4 0.630541 0.926360 0.882792
Si Si5 0.207818 0.573514 0.083472
Si Si6 0.240330 0.925404 0.537907
Si Si7 0.202111 0.418445 0.711591
Si Si8 0.445913 0.073867 0.884787
O O1 0.891032 0.750000 0.923041
O O2 0.078752 0.966719 0.703669
O O3 0.827603 0.000046 0.940762
O O4 0.835458 0.988899 0.055967
O O5 0.033746 0.250000 0.518192
O O6 0.207593 0.031716 0.334774
O O7 0.923726 0.033407 0.711156
O O8 0.000000 0.000000 0.500000
O O9 0.198006 0.750000 0.848880
O O10 0.228704 0.993980 0.744163
O O11 0.975873 0.917821 0.088295
O O12 0.615946 0.750000 0.896481
O O13 0.616575 0.967371 0.972707
O O14 0.500000 0.000000 0.000000
O O15 0.213233 0.750000 0.071361
O O16 0.356282 0.511017 0.938123
O O17 0.235784 0.750000 0.554182
O O18 0.379277 0.957904 0.328243
O O19 0.265210 0.003897 0.574876
O O20 0.251020 0.250000 0.658601
O O21 0.425856 0.250000 0.900536
#
# Coordination Sequence:
#
# PCOD9161783 Si02
#       8
#     4   4   4   4   4   4   4   4
#     4  10  20  34  54  80 109 143 181 223 269 319
#     4  10  21  38  58  80 106 139 181 225 268 320
#     4   9  16  28  48  75 109 142 177 223 266 311
#     4  10  22  38  57  82 110 140 177 223 273 323
#     4  11  23  37  55  80 108 142 182 224 271 323
#     4   9  19  34  53  79 108 141 182 224 268 319
#     4   9  16  27  47  76 108 143 178 217 267 319
#     4  10  21  39  58  77 107 145 183 222 268 324
#
# _framework density 18.269452999999999
#
# number of rings (size 3 to 8) (size 9 to 14) (size 15 to 20)
#    0.000    2.250    1.250    1.500    1.750    5.500 
#    0.000    0.000    0.000    0.750    0.000    0.000 
#    0.000    0.000    0.000    0.000    0.000    0.000 
#
# Total GULP energy -178564.416164 kJ/mol
# GULP energy per Si atom -5580.138005 kJ/mol
# Density = 1.822787 g / cm^3
# Si number density = 18.269453 Si / 1000 Ang^3
#
#
#
# Elastic Constant Matrix: (Units=GPa)
#
#
# Indices 1 2 3 4 5 6 
#
# 1 101.5422 31.9844 -3.4858 0.0000 -6.3127 0.0000
# 2 31.9844 38.2609 0.7263 0.0000 -3.1757 0.0000
# 3 -3.4858 0.7263 13.0008 0.0000 -8.1032 0.0000
# 4 0.0000 0.0000 0.0000 20.9214 0.0000 1.0607
# 5 -6.3127 -3.1757 -8.1032 0.0000 22.5747 0.0000
# 6 0.0000 0.0000 0.0000 1.0607 0.0000 34.9188
#
#
#
# Elastic Compliance Matrix: (Units=1/GPa)
#
#
# Indices 1 2 3 4 5 6 
#
# 1 0.014025 -0.011451 0.007524 0.000000 0.005012 0.000000
# 2 -0.011451 0.035807 -0.005059 0.000000 0.000019 0.000000
# 3 0.007524 -0.005059 0.103168 0.000000 0.038425 0.000000
# 4 0.000000 0.000000 0.000000 0.047872 0.000000 -0.001454
# 5 0.005012 0.000019 0.038425 0.000000 0.059494 0.000000
# 6 0.000000 0.000000 0.000000 -0.001454 0.000000 0.028682
#
#
# Mechanical properties :
#
#
# Convention : Reuss Voigt Hill
#
# Bulk Modulus (GPa) = 7.40591 23.47263 15.43927
# Shear Modulus (GPa) = 14.20340 23.92157 19.06248
#
# Velocity S-wave (km/s) = 2.79129 3.62245 3.23369
# Velocity P-wave (km/s) = 3.80143 5.51109 4.73408
#
# Compressibility (1/GPa) = 0.13502734
#
# Stress axis : x y z
#
# Youngs Moduli (GPa) = 71.30174 27.92786 9.69294
#
# Poissons Ratio (x) = 0.31980 -0.07293
# Poissons Ratio (y) = 0.81648 0.04904
# Poissons Ratio (z) = -0.53647 0.14128
#
# Static dielectric constant tensor:
#      x y z
#    x 1.593610 0.000000 -0.000610 
#    y 0.000000 1.611930 0.000000 
#    z -0.000610 0.000000 1.629100 
# 
# From -- ./inp_files/67040.got.cif
#   From: 2010.05.17/outbox.cif.g08.bks.cpg/sg11_34_cif.got.tgz:67040.got - 2010.06.03 12:22:45.
