data_PCOD9161384
_publ_section_title
;
Structure prediction by ZEFSAII (Michael W. Deem and Ramdas Pophale) SiO2 
 PCOD9161384
Probable space group: P 21/M
;
_chemical_formula_sum "Si O2"
_cell_formula_units_Z 24
_cell_length_a 14.695443
_cell_length_b 11.011719
_cell_length_c 14.978291
_cell_angle_alpha 90.000000
_cell_angle_beta 148.220247
_cell_angle_gamma 90.000000
_cell_volume 1276.517089
_symmetry_space_group_name_H-M "P 21/M"
_symmetry_group_IT_number 11
_symmetry_cell_setting 'monoclinic'
loop_
_space_group_symop_operation_xyz
x,y,z
-x,1/2+y,-z
-x,-y,-z
x,1/2-y,z
loop_
_atom_site_type_symbol
_atom_site_label
_atom_site_fract_x
_atom_site_fract_y
_atom_site_fract_z
Si Si1 0.096717 0.109058 0.940179
Si Si2 0.472933 0.384566 0.805295
Si Si3 0.873641 0.613918 0.397087
Si Si4 0.597695 0.040254 0.719058
Si Si5 0.708097 0.112688 0.619252
Si Si6 0.324447 0.114413 0.955466
O O1 0.089622 0.250000 0.963428
O O2 0.175008 0.106009 0.905863
O O3 0.901854 0.059684 0.778611
O O4 0.233501 0.038232 0.114803
O O5 0.516724 0.250000 0.879347
O O6 0.266147 0.395974 0.640051
O O7 0.543505 0.390542 0.763472
O O8 0.553377 0.499686 0.923885
O O9 0.953980 0.750000 0.468103
O O10 0.760104 0.609211 0.212046
O O11 0.000000 0.500000 0.500000
O O12 0.644557 0.112234 0.668756
O O13 0.433498 0.958225 0.555668
O O14 0.719036 0.250000 0.594211
O O15 0.405144 0.250000 0.033877
#
# Coordination Sequence:
#
# PCOD9161384 Si02
#       6
#     4   4   4   4   4   4
#     4   9  18  33  53  78 107 137 183 234 273 328
#     4  10  21  37  57  80 112 145 181 229 282 333
#     4  10  22  37  55  82 113 145 182 228 275 332
#     4  10  20  34  53  77 109 144 184 225 282 330
#     4  10  20  33  53  77 106 145 186 231 278 326
#     4   9  19  36  57  81 108 141 186 229 273 329
#
# _framework density 18.801158000000001
#
# number of rings (size 3 to 8) (size 9 to 14) (size 15 to 20)
#    0.000    2.333    0.000    2.000    2.333    2.000 
#    0.000    0.000    0.000    5.000    0.000    0.000 
#    0.000    0.000    0.000    0.000    0.000    0.000 
#
# Total GULP energy -133766.654833 kJ/mol
# GULP energy per Si atom -5573.610618 kJ/mol
# Density = 1.875837 g / cm^3
# Si number density = 18.801158 Si / 1000 Ang^3
#
#
#
# Elastic Constant Matrix: (Units=GPa)
#
#
# Indices 1 2 3 4 5 6 
#
# 1 34.6161 28.7747 16.3549 0.0000 8.9123 0.0000
# 2 28.7747 135.7407 55.2317 0.0000 23.8852 0.0000
# 3 16.3549 55.2317 90.4793 0.0000 23.1088 0.0000
# 4 0.0000 0.0000 0.0000 17.3844 0.0000 10.2012
# 5 8.9123 23.8852 23.1088 0.0000 28.9818 0.0000
# 6 0.0000 0.0000 0.0000 10.2012 0.0000 41.7330
#
#
#
# Elastic Compliance Matrix: (Units=1/GPa)
#
#
# Indices 1 2 3 4 5 6 
#
# 1 0.035958 -0.006166 -0.001519 0.000000 -0.004765 0.000000
# 2 -0.006166 0.011274 -0.004870 0.000000 -0.003512 0.000000
# 3 -0.001519 -0.004870 0.016520 0.000000 -0.008691 0.000000
# 4 0.000000 0.000000 0.000000 0.067155 0.000000 -0.016415
# 5 -0.004765 -0.003512 -0.008691 0.000000 0.045794 0.000000
# 6 0.000000 0.000000 0.000000 -0.016415 0.000000 0.027974
#
#
# Mechanical properties :
#
#
# Convention : Reuss Voigt Hill
#
# Bulk Modulus (GPa) = 25.87930 51.28430 38.58180
# Shear Modulus (GPa) = 20.60448 28.31816 24.46132
#
# Velocity S-wave (km/s) = 3.31405 3.88518 3.61093
# Velocity P-wave (km/s) = 5.33278 6.88931 6.16040
#
# Compressibility (1/GPa) = 0.03864091
#
# Stress axis : x y z
#
# Youngs Moduli (GPa) = 27.81006 88.70181 60.53427
#
# Poissons Ratio (x) = 0.54694 0.09194
# Poissons Ratio (y) = 0.17148 0.29483
# Poissons Ratio (z) = 0.04224 0.43202
#
# Static dielectric constant tensor:
#      x y z
#    x 1.673770 0.000000 0.004950 
#    y 0.000000 1.630160 0.000000 
#    z 0.004950 0.000000 1.619590 
# 
# From -- ./inp_files/52069.got.cif
#   From: 2010.05.17/outbox.cif.g08.bks.cpg/sg11_27_cif.got.tgz:52069.got - 2010.06.03 12:22:45.
