data_PCOD9161953
_publ_section_title
;
Structure prediction by ZEFSAII (Michael W. Deem and Ramdas Pophale) SiO2 
 PCOD9161953
Probable space group: P 21/M
;
_chemical_formula_sum "Si O2"
_cell_formula_units_Z 32
_cell_length_a 13.383456
_cell_length_b 7.691441
_cell_length_c 33.154371
_cell_angle_alpha 90.000000
_cell_angle_beta 154.132323
_cell_angle_gamma 90.000000
_cell_volume 1489.005359
_symmetry_space_group_name_H-M "P 21/M"
_symmetry_group_IT_number 11
_symmetry_cell_setting 'monoclinic'
loop_
_space_group_symop_operation_xyz
x,y,z
-x,1/2+y,-z
-x,-y,-z
x,1/2-y,z
loop_
_atom_site_type_symbol
_atom_site_label
_atom_site_fract_x
_atom_site_fract_y
_atom_site_fract_z
Si Si1 0.140921 0.450548 0.871289
Si Si2 0.941940 0.959713 0.073061
Si Si3 0.333414 0.043932 0.402898
Si Si4 0.559079 0.458689 0.871552
Si Si5 0.741311 0.456497 0.395530
Si Si6 0.586456 0.454969 0.790851
Si Si7 0.189815 0.455735 0.800561
Si Si8 0.617563 0.961418 0.668382
O O1 0.219480 0.250000 0.900574
O O2 0.176342 0.529100 0.928713
O O3 0.221202 0.529409 0.857605
O O4 0.864409 0.458154 0.767419
O O5 0.949281 0.750000 0.080525
O O6 0.199517 0.025382 0.157711
O O7 0.792162 0.004432 0.979920
O O8 0.306753 0.250000 0.392503
O O9 0.440030 0.990995 0.398556
O O10 0.500000 0.000000 0.500000
O O11 0.074401 0.972920 0.309068
O O12 0.527078 0.250000 0.857030
O O13 0.567629 0.528192 0.829106
O O14 0.357850 0.528313 0.827509
O O15 0.719187 0.250000 0.386206
O O16 0.645343 0.524693 0.318435
O O17 0.571760 0.521781 0.368971
O O18 0.000000 0.500000 0.500000
O O19 0.634458 0.250000 0.812578
O O20 0.235655 0.250000 0.820688
O O21 0.638992 0.750000 0.678539
#
# Coordination Sequence:
#
# PCOD9161953 Si02
#       8
#     4   4   4   4   4   4   4   4
#     4   9  17  32  56  80 105 139 178 224 272 317
#     4  10  20  34  56  83 109 143 188 234 278 324
#     4  10  20  35  56  81 107 140 181 223 271 327
#     4  10  22  37  55  80 114 153 186 224 275 332
#     4  11  23  38  58  84 111 143 182 227 279 331
#     4  10  21  39  58  79 111 148 187 231 277 324
#     4   9  19  36  54  77 110 145 182 224 274 326
#     4   9  19  35  54  77 105 137 176 222 269 320
#
# _framework density 21.490857999999999
#
# number of rings (size 3 to 8) (size 9 to 14) (size 15 to 20)
#    0.000    2.250    1.250    1.125    0.000    4.500 
#    0.000    5.000    0.000    0.000    0.000    0.000 
#    0.000    0.000    0.000    0.000    0.000    0.000 
#
# Total GULP energy -178609.655236 kJ/mol
# GULP energy per Si atom -5581.551726 kJ/mol
# Density = 2.144194 g / cm^3
# Si number density = 21.490858 Si / 1000 Ang^3
#
#
#
# Elastic Constant Matrix: (Units=GPa)
#
#
# Indices 1 2 3 4 5 6 
#
# 1 122.9314 11.5905 54.8906 0.0000 -21.3551 0.0000
# 2 11.5905 36.3028 -16.8703 0.0000 0.6477 0.0000
# 3 54.8906 -16.8703 88.6096 0.0000 -19.0914 0.0000
# 4 0.0000 0.0000 0.0000 22.5475 0.0000 -0.3836
# 5 -21.3551 0.6477 -19.0914 0.0000 39.4083 0.0000
# 6 0.0000 0.0000 0.0000 -0.3836 0.0000 5.6684
#
#
#
# Elastic Compliance Matrix: (Units=1/GPa)
#
#
# Indices 1 2 3 4 5 6 
#
# 1 0.013769 -0.008904 -0.009586 0.000000 0.002964 0.000000
# 2 -0.008904 0.036210 0.012552 0.000000 0.000661 0.000000
# 3 -0.009586 0.012552 0.020600 0.000000 0.004579 0.000000
# 4 0.000000 0.000000 0.000000 0.044402 0.000000 0.003005
# 5 0.002964 0.000661 0.004579 0.000000 0.029189 0.000000
# 6 0.000000 0.000000 0.000000 0.003005 0.000000 0.176621
#
#
# Mechanical properties :
#
#
# Convention : Reuss Voigt Hill
#
# Bulk Modulus (GPa) = 17.03480 38.56282 27.79881
# Shear Modulus (GPa) = 14.19506 26.74037 20.46771
#
# Velocity S-wave (km/s) = 2.57284 3.53124 3.08943
# Velocity P-wave (km/s) = 4.09509 5.88294 5.06847
#
# Compressibility (1/GPa) = 0.05870335
#
# Stress axis : x y z
#
# Youngs Moduli (GPa) = 72.62475 27.61652 48.54340
#
# Poissons Ratio (x) = 0.24590 0.46535
# Poissons Ratio (y) = 0.64665 -0.60932
# Poissons Ratio (z) = 0.69620 -0.34664
#
# Static dielectric constant tensor:
#      x y z
#    x 1.836510 0.000000 0.011610 
#    y 0.000000 1.799500 0.000000 
#    z 0.011610 0.000000 1.979880 
# 
# From -- ./inp_files/38112.got.cif
#   From: 2010.05.17/outbox.cif.g08.bks.cpg/sg11_20_cif.got.tgz:38112.got - 2010.06.03 12:22:45.
