data_PCOD9161647
_publ_section_title
;
Structure prediction by ZEFSAII (Michael W. Deem and Ramdas Pophale) SiO2 
 PCOD9161647
Probable space group: P 21/M
;
_chemical_formula_sum "Si O2"
_cell_formula_units_Z 32
_cell_length_a 21.795194
_cell_length_b 10.670136
_cell_length_c 21.187222
_cell_angle_alpha 90.000000
_cell_angle_beta 20.090821
_cell_angle_gamma 90.000000
_cell_volume 1692.556361
_symmetry_space_group_name_H-M "P 21/M"
_symmetry_group_IT_number 11
_symmetry_cell_setting 'monoclinic'
loop_
_space_group_symop_operation_xyz
x,y,z
-x,1/2+y,-z
-x,-y,-z
x,1/2-y,z
loop_
_atom_site_type_symbol
_atom_site_label
_atom_site_fract_x
_atom_site_fract_y
_atom_site_fract_z
Si Si1 0.848663 0.400366 0.804173
Si Si2 0.989946 0.392983 0.796671
Si Si3 0.896257 0.452214 0.196043
Si Si4 0.470369 0.100121 0.141849
Si Si5 0.596914 0.607419 0.645229
Si Si6 0.894819 0.598512 0.558262
Si Si7 0.527293 0.393143 0.614855
Si Si8 0.760380 0.611592 0.211123
O O1 0.827328 0.250000 0.832571
O O2 0.876036 0.448992 0.848765
O O3 0.016878 0.415261 0.596392
O O4 0.671227 0.449553 0.941152
O O5 0.933873 0.250000 0.862770
O O6 0.999934 0.465943 0.852069
O O7 0.192928 0.390089 0.574357
O O8 0.731854 0.389658 0.392025
O O9 0.798718 0.530055 0.235255
O O10 0.054684 0.382137 0.006785
O O11 0.473290 0.250000 0.129303
O O12 0.425949 0.080890 0.258667
O O13 0.311123 0.057285 0.250747
O O14 0.528335 0.750000 0.699339
O O15 0.515448 0.498115 0.680621
O O16 0.908475 0.750000 0.561176
O O17 0.000000 0.500000 0.500000
O O18 0.478538 0.250000 0.681068
O O19 0.395379 0.431907 0.685418
O O20 0.708238 0.750000 0.283131
#
# Coordination Sequence:
#
# PCOD9161647 Si02
#       8
#     4   4   4   4   4   4   4   4
#     4   9  17  30  52  80 106 137 173 217 264 305
#     4   9  16  29  51  78 104 129 173 227 267 301
#     4  10  20  34  53  74  98 138 180 221 262 318
#     4   9  17  31  53  79 108 138 174 217 260 302
#     4   9  17  32  54  80 105 132 175 224 260 307
#     4  10  20  36  57  81 111 144 174 212 257 308
#     4  10  21  36  53  74 106 143 173 212 273 328
#     4  10  21  36  51  72 104 139 178 220 269 322
#
# _framework density 18.906313000000001
#
# number of rings (size 3 to 8) (size 9 to 14) (size 15 to 20)
#    0.000    2.500    1.250    1.125    1.750    1.000 
#    0.000    3.750    0.000    0.750    0.000    0.000 
#    0.000    0.000    0.000    0.000    0.000    0.000 
#
# Total GULP energy -178183.637705 kJ/mol
# GULP energy per Si atom -5568.238678 kJ/mol
# Density = 1.886328 g / cm^3
# Si number density = 18.906313 Si / 1000 Ang^3
#
#
#
# Elastic Constant Matrix: (Units=GPa)
#
#
# Indices 1 2 3 4 5 6 
#
# 1 96.9294 47.1191 9.0925 0.0000 -36.4464 0.0000
# 2 47.1191 51.9872 -0.6533 0.0000 -12.1360 0.0000
# 3 9.0925 -0.6533 42.0890 0.0000 -19.3305 0.0000
# 4 0.0000 0.0000 0.0000 9.0296 0.0000 0.6327
# 5 -36.4464 -12.1360 -19.3305 0.0000 33.1571 0.0000
# 6 0.0000 0.0000 0.0000 0.6327 0.0000 39.5759
#
#
#
# Elastic Compliance Matrix: (Units=1/GPa)
#
#
# Indices 1 2 3 4 5 6 
#
# 1 0.031882 -0.021483 0.007187 0.000000 0.031372 0.000000
# 2 -0.021483 0.036402 0.000655 0.000000 -0.009908 0.000000
# 3 0.007187 0.000655 0.035446 0.000000 0.028805 0.000000
# 4 0.000000 0.000000 0.000000 0.110872 0.000000 -0.001773
# 5 0.031372 -0.009908 0.028805 0.000000 0.077811 0.000000
# 6 0.000000 0.000000 0.000000 -0.001773 0.000000 0.025296
#
#
# Mechanical properties :
#
#
# Convention : Reuss Voigt Hill
#
# Bulk Modulus (GPa) = 13.08034 33.56911 23.32472
# Shear Modulus (GPa) = 13.49633 25.38232 19.43933
#
# Velocity S-wave (km/s) = 2.67470 3.66803 3.21002
# Velocity P-wave (km/s) = 4.05860 5.97774 5.10909
#
# Compressibility (1/GPa) = 0.07645063
#
# Stress axis : x y z
#
# Youngs Moduli (GPa) = 31.36593 27.47123 28.21164
#
# Poissons Ratio (x) = 0.59015 -0.20277
# Poissons Ratio (y) = 0.67382 -0.01849
# Poissons Ratio (z) = -0.22544 -0.01801
#
# Static dielectric constant tensor:
#      x y z
#    x 1.655080 0.000000 -0.027040 
#    y 0.000000 1.629720 0.000000 
#    z -0.027040 0.000000 1.700000 
# 
# From -- ./inp_files/66549.got.cif
#   From: 2010.05.17/outbox.cif.g08.bks.cpg/sg11_34_cif.got.tgz:66549.got - 2010.06.03 12:22:45.
