data_PCOD9161485
_publ_section_title
;
Structure prediction by ZEFSAII (Michael W. Deem and Ramdas Pophale) SiO2 
 PCOD9161485
Probable space group: P 21/M
;
_chemical_formula_sum "Si O2"
_cell_formula_units_Z 32
_cell_length_a 24.847363
_cell_length_b 16.461056
_cell_length_c 12.141220
_cell_angle_alpha 90.000000
_cell_angle_beta 20.785660
_cell_angle_gamma 90.000000
_cell_volume 1762.273306
_symmetry_space_group_name_H-M "P 21/M"
_symmetry_group_IT_number 11
_symmetry_cell_setting 'monoclinic'
loop_
_space_group_symop_operation_xyz
x,y,z
-x,1/2+y,-z
-x,-y,-z
x,1/2-y,z
loop_
_atom_site_type_symbol
_atom_site_label
_atom_site_fract_x
_atom_site_fract_y
_atom_site_fract_z
Si Si1 0.841987 0.993860 0.239961
Si Si2 0.347852 0.843755 0.440617
Si Si3 0.382726 0.062442 0.169453
Si Si4 0.735567 0.486973 0.826722
Si Si5 0.918174 0.508917 0.843661
Si Si6 0.406171 0.840500 0.780980
Si Si7 0.793094 0.159335 0.057058
Si Si8 0.641501 0.936225 0.219974
O O1 0.761134 0.083408 0.394596
O O2 0.739924 0.927933 0.499517
O O3 0.868751 0.970851 0.062200
O O4 0.000000 0.000000 0.000000
O O5 0.307958 0.750000 0.488819
O O6 0.329016 0.850734 0.609823
O O7 0.514703 0.865514 0.075940
O O8 0.298454 0.018514 0.229506
O O9 0.500000 0.000000 0.000000
O O10 0.911397 0.463408 0.505236
O O11 0.633681 0.409263 0.054168
O O12 0.691131 0.557224 0.998848
O O13 0.914627 0.410962 0.840368
O O14 0.787560 0.538494 0.011282
O O15 0.396467 0.750000 0.844833
O O16 0.287442 0.848616 0.906734
O O17 0.567864 0.856835 0.413878
O O18 0.856146 0.250000 0.946296
O O19 0.500000 0.000000 0.500000
#
# Coordination Sequence:
#
# PCOD9161485 Si02
#       8
#     4   4   4   4   4   4   4   4
#     4  10  20  37  58  81 112 153 192 228 285 342
#     4   9  19  35  59  85 112 144 191 245 289 327
#     4  10  21  35  59  83 109 146 194 233 275 334
#     4  11  21  35  59  87 110 147 192 229 282 341
#     4  11  20  35  58  83 114 148 189 231 276 345
#     4  10  21  36  55  80 115 151 188 231 284 338
#     4   9  17  32  54  82 113 147 178 229 291 336
#     4  10  20  33  57  82 108 143 190 228 275 333
#
# _framework density 18.158365
#
# number of rings (size 3 to 8) (size 9 to 14) (size 15 to 20)
#    0.000    2.000    3.750    1.125    8.750    0.000 
#    0.000    5.000    0.000    1.500    0.000    0.000 
#    0.000    0.000    0.000    0.000    0.000    0.000 
#
# Total GULP energy -178240.561796 kJ/mol
# GULP energy per Si atom -5570.017556 kJ/mol
# Density = 1.811704 g / cm^3
# Si number density = 18.158365 Si / 1000 Ang^3
#
#
#
# Elastic Constant Matrix: (Units=GPa)
#
#
# Indices 1 2 3 4 5 6 
#
# 1 61.4679 -5.1970 3.2424 0.0000 -3.0582 0.0000
# 2 -5.1970 50.9430 1.0868 0.0000 7.6084 0.0000
# 3 3.2424 1.0868 69.7188 0.0000 0.1646 0.0000
# 4 0.0000 0.0000 0.0000 16.9729 0.0000 2.5385
# 5 -3.0582 7.6084 0.1646 0.0000 28.2216 0.0000
# 6 0.0000 0.0000 0.0000 2.5385 0.0000 13.0340
#
#
#
# Elastic Compliance Matrix: (Units=1/GPa)
#
#
# Indices 1 2 3 4 5 6 
#
# 1 0.016506 0.001493 -0.000794 0.000000 0.001391 0.000000
# 2 0.001493 0.020595 -0.000378 0.000000 -0.005388 0.000000
# 3 -0.000794 -0.000378 0.014386 0.000000 -0.000068 0.000000
# 4 0.000000 0.000000 0.000000 0.060685 0.000000 -0.011819
# 5 0.001391 -0.005388 -0.000068 0.000000 0.037038 0.000000
# 6 0.000000 0.000000 0.000000 -0.011819 0.000000 0.079024
#
#
# Mechanical properties :
#
#
# Convention : Reuss Voigt Hill
#
# Bulk Modulus (GPa) = 19.18299 20.04378 19.61339
# Shear Modulus (GPa) = 20.41081 23.84554 22.12817
#
# Velocity S-wave (km/s) = 3.35631 3.62774 3.49466
# Velocity P-wave (km/s) = 5.06034 5.34879 5.20656
#
# Compressibility (1/GPa) = 0.05212952
#
# Stress axis : x y z
#
# Youngs Moduli (GPa) = 60.58411 48.55565 69.51045
#
# Poissons Ratio (x) = -0.07250 0.05520
# Poissons Ratio (y) = -0.09046 0.02626
# Poissons Ratio (z) = 0.04812 0.01834
#
# Static dielectric constant tensor:
#      x y z
#    x 1.626480 0.000000 0.039060 
#    y 0.000000 1.644230 0.000000 
#    z 0.039060 0.000000 1.870620 
# 
# From -- ./inp_files/44346.got.cif
#   From: 2010.05.17/outbox.cif.g08.bks.cpg/sg11_23_cif.got.tgz:44346.got - 2010.06.03 12:22:45.
