data_PCOD9161251
_publ_section_title
;
Structure prediction by ZEFSAII (Michael W. Deem and Ramdas Pophale) SiO2 
 PCOD9161251
Probable space group: P 21/M
;
_chemical_formula_sum "Si O2"
_cell_formula_units_Z 28
_cell_length_a 21.535814
_cell_length_b 7.483412
_cell_length_c 15.841497
_cell_angle_alpha 90.000000
_cell_angle_beta 29.102531
_cell_angle_gamma 90.000000
_cell_volume 1241.730929
_symmetry_space_group_name_H-M "P 21/M"
_symmetry_group_IT_number 11
_symmetry_cell_setting 'monoclinic'
loop_
_space_group_symop_operation_xyz
x,y,z
-x,1/2+y,-z
-x,-y,-z
x,1/2-y,z
loop_
_atom_site_type_symbol
_atom_site_label
_atom_site_fract_x
_atom_site_fract_y
_atom_site_fract_z
Si Si1 0.315027 0.547239 0.872283
Si Si2 0.858911 0.966579 0.572668
Si Si3 0.852512 0.957977 0.774234
Si Si4 0.162123 0.466969 0.733391
Si Si5 0.890915 0.459005 0.009260
Si Si6 0.563441 0.969160 0.661254
Si Si7 0.595060 0.963624 0.810353
O O1 0.339948 0.750000 0.812637
O O2 0.218067 0.460856 0.920782
O O3 0.451910 0.466050 0.731936
O O4 0.238271 0.551951 0.051528
O O5 0.860459 0.750000 0.570899
O O6 0.842760 0.025433 0.689538
O O7 0.737486 0.028888 0.663587
O O8 0.998785 0.024914 0.377087
O O9 0.817096 0.750000 0.816214
O O10 0.158482 0.250000 0.737730
O O11 0.149857 0.526560 0.844817
O O12 0.295706 0.522264 0.535201
O O13 0.035381 0.531255 0.834979
O O14 0.900860 0.250000 0.973262
O O15 0.557850 0.750000 0.666703
O O16 0.544538 0.028820 0.780283
O O17 0.605882 0.750000 0.790169
O O18 0.500000 0.000000 0.000000
#
# Coordination Sequence:
#
# PCOD9161251 Si02
#       7
#     4   4   4   4   4   4   4
#     4  10  20  34  53  77 105 140 175 212 259 317
#     4   9  19  34  52  73 100 141 181 218 264 315
#     4  10  20  33  50  76 106 134 174 223 267 309
#     4   9  18  35  56  77 103 135 174 217 260 311
#     4   9  19  34  55  79 104 136 172 214 264 315
#     4   9  19  34  54  79 105 139 180 216 255 313
#     4  10  20  34  54  76 105 142 181 219 261 309
#
# _framework density 22.549168000000002
#
# number of rings (size 3 to 8) (size 9 to 14) (size 15 to 20)
#    0.000    2.571    0.000    1.286    2.000    2.286 
#    0.000    1.429    0.000    0.000    0.000    0.000 
#    0.000    0.000    0.000    0.000    0.000    0.000 
#
# Total GULP energy -156398.178447 kJ/mol
# GULP energy per Si atom -5585.649230 kJ/mol
# Density = 2.249784 g / cm^3
# Si number density = 22.549168 Si / 1000 Ang^3
#
#
#
# Elastic Constant Matrix: (Units=GPa)
#
#
# Indices 1 2 3 4 5 6 
#
# 1 164.2772 4.5820 66.1989 0.0000 -49.9514 0.0000
# 2 4.5820 66.8473 -7.7664 0.0000 -6.0894 0.0000
# 3 66.1989 -7.7664 105.7240 0.0000 -27.3396 0.0000
# 4 0.0000 0.0000 0.0000 9.6589 0.0000 13.9811
# 5 -49.9514 -6.0894 -27.3396 0.0000 28.3872 0.0000
# 6 0.0000 0.0000 0.0000 13.9811 0.0000 0.1761
#
#
#
# Elastic Compliance Matrix: (Units=1/GPa)
#
#
# Indices 1 2 3 4 5 6 
#
# 1 0.013867 0.000664 -0.003046 0.000000 0.021610 0.000000
# 2 0.000664 0.015854 0.002571 0.000000 0.007046 0.000000
# 3 -0.003046 0.002571 0.013731 0.000000 0.008416 0.000000
# 4 0.000000 0.000000 0.000000 -0.000909 0.000000 0.072153
# 5 0.021610 0.007046 0.008416 0.000000 0.082870 0.000000
# 6 0.000000 0.000000 0.000000 0.072153 0.000000 -0.049847
#
#
# Mechanical properties :
#
#
# Convention : Reuss Voigt Hill
#
# Bulk Modulus (GPa) = 22.81507 51.43083 37.12295
# Shear Modulus (GPa) = 55.67989 25.90004 40.78997
#
# Velocity S-wave (km/s) = 4.97456 3.39278 4.25777
# Velocity P-wave (km/s) = 6.56772 6.18108 6.37733
#
# Compressibility (1/GPa) = 0.04383068
#
# Stress axis : x y z
#
# Youngs Moduli (GPa) = 72.11338 63.07393 72.82837
#
# Poissons Ratio (x) = -0.04189 0.22182
# Poissons Ratio (y) = -0.04790 -0.18722
# Poissons Ratio (z) = 0.21964 -0.16214
#
# Static dielectric constant tensor:
#      x y z
#    x 1.845300 0.000000 -0.028200 
#    y 0.000000 1.861000 0.000000 
#    z -0.028200 0.000000 1.785440 
# 
# From -- ./inp_files/48932.got.cif
#   From: 2010.05.17/outbox.cif.g08.bks.cpg/sg11_25_cif.got.tgz:48932.got - 2010.06.03 12:22:45.
