data_PCOD9161800
_publ_section_title
;
Structure prediction by ZEFSAII (Michael W. Deem and Ramdas Pophale) SiO2 
 PCOD9161800
Probable space group: P 21/M
;
_chemical_formula_sum "Si O2"
_cell_formula_units_Z 32
_cell_length_a 20.374042
_cell_length_b 13.734344
_cell_length_c 15.771287
_cell_angle_alpha 90.000000
_cell_angle_beta 161.441758
_cell_angle_gamma 90.000000
_cell_volume 1404.578056
_symmetry_space_group_name_H-M "P 21/M"
_symmetry_group_IT_number 11
_symmetry_cell_setting 'monoclinic'
loop_
_space_group_symop_operation_xyz
x,y,z
-x,1/2+y,-z
-x,-y,-z
x,1/2-y,z
loop_
_atom_site_type_symbol
_atom_site_label
_atom_site_fract_x
_atom_site_fract_y
_atom_site_fract_z
Si Si1 0.662378 0.861708 0.972012
Si Si2 0.242531 0.982617 0.783542
Si Si3 0.995629 0.566567 0.159924
Si Si4 0.188062 0.642893 0.034332
Si Si5 0.554085 0.141477 0.826925
Si Si6 0.337546 0.983343 0.474429
Si Si7 0.620153 0.641472 0.616993
Si Si8 0.148927 0.638651 0.516746
O O1 0.602918 0.750000 0.909579
O O2 0.524234 0.912929 0.730302
O O3 0.904103 0.866076 0.241878
O O4 0.648343 0.922200 0.043064
O O5 0.264423 0.941365 0.715644
O O6 0.313180 0.896984 0.932894
O O7 0.000000 0.000000 0.500000
O O8 0.121872 0.568305 0.226785
O O9 0.144056 0.611281 0.412430
O O10 0.936425 0.455856 0.109608
O O11 0.785512 0.627161 0.892894
O O12 0.087426 0.750000 0.916763
O O13 0.305053 0.638544 0.086063
O O14 0.375033 0.640951 0.332257
O O15 0.483701 0.250000 0.754849
O O16 0.367355 0.068834 0.581130
O O17 0.347969 0.046503 0.402480
O O18 0.657934 0.750000 0.624733
O O19 0.217628 0.750000 0.615525
#
# Coordination Sequence:
#
# PCOD9161800 Si02
#       8
#     4   4   4   4   4   4   4   4
#     4   9  19  36  57  81 111 145 181 217 261 316
#     4   9  16  30  54  82 107 137 180 225 261 310
#     4  12  22  35  54  81 113 141 175 224 274 319
#     4   9  19  34  55  80 106 136 176 225 271 314
#     4   9  17  34  57  78 104 142 181 219 264 317
#     4  10  21  36  55  77 104 141 178 219 266 321
#     4  10  21  39  58  76 102 142 184 221 266 322
#     4  10  20  34  54  81 110 142 180 226 271 313
#
# _framework density 22.782643
#
# number of rings (size 3 to 8) (size 9 to 14) (size 15 to 20)
#    0.000    2.250    0.000    5.625    0.000    2.500 
#    0.000    5.000    0.000    1.500    0.000    0.000 
#    0.000    0.000    0.000    0.000    0.000    0.000 
#
# Total GULP energy -178579.885372 kJ/mol
# GULP energy per Si atom -5580.621418 kJ/mol
# Density = 2.273079 g / cm^3
# Si number density = 22.782643 Si / 1000 Ang^3
#
#
#
# Elastic Constant Matrix: (Units=GPa)
#
#
# Indices 1 2 3 4 5 6 
#
# 1 38.8213 23.0615 7.4900 0.0000 -3.9285 0.0000
# 2 23.0615 154.7419 26.1384 0.0000 -8.3669 0.0000
# 3 7.4900 26.1384 70.2393 0.0000 -16.7600 0.0000
# 4 0.0000 0.0000 0.0000 13.5547 0.0000 -6.0261
# 5 -3.9285 -8.3669 -16.7600 0.0000 26.9952 0.0000
# 6 0.0000 0.0000 0.0000 -6.0261 0.0000 14.6024
#
#
#
# Elastic Compliance Matrix: (Units=1/GPa)
#
#
# Indices 1 2 3 4 5 6 
#
# 1 0.028539 -0.003956 -0.001024 0.000000 0.002291 0.000000
# 2 -0.003956 0.007454 -0.002275 0.000000 0.000322 0.000000
# 3 -0.001024 -0.002275 0.017596 0.000000 0.010070 0.000000
# 4 0.000000 0.000000 0.000000 0.090352 0.000000 0.037286
# 5 0.002291 0.000322 0.010070 0.000000 0.043729 0.000000
# 6 0.000000 0.000000 0.000000 0.037286 0.000000 0.083869
#
#
# Mechanical properties :
#
#
# Convention : Reuss Voigt Hill
#
# Bulk Modulus (GPa) = 25.59057 41.90914 33.74986
# Shear Modulus (GPa) = 16.71823 24.83798 20.77811
#
# Velocity S-wave (km/s) = 2.71184 3.30542 3.02323
# Velocity P-wave (km/s) = 4.58937 5.74481 5.19929
#
# Compressibility (1/GPa) = 0.03907689
#
# Stress axis : x y z
#
# Youngs Moduli (GPa) = 35.04007 134.16162 56.83184
#
# Poissons Ratio (x) = 0.53078 0.05821
# Poissons Ratio (y) = 0.13863 0.12930
# Poissons Ratio (z) = 0.03589 0.30523
#
# Static dielectric constant tensor:
#      x y z
#    x 2.112130 0.000000 0.113280 
#    y 0.000000 1.833860 0.000000 
#    z 0.113280 0.000000 1.918150 
# 
# From -- ./inp_files/55026.got.cif
#   From: 2010.05.17/outbox.cif.g08.bks.cpg/sg11_28_cif.got.tgz:55026.got - 2010.06.03 12:22:45.
