data_PCOD9161163
_publ_section_title
;
Structure prediction by ZEFSAII (Michael W. Deem and Ramdas Pophale) SiO2 
 PCOD9161163
Probable space group: P 21/M
;
_chemical_formula_sum "Si O2"
_cell_formula_units_Z 32
_cell_length_a 28.210217
_cell_length_b 7.602046
_cell_length_c 14.535089
_cell_angle_alpha 90.000000
_cell_angle_beta 29.688632
_cell_angle_gamma 90.000000
_cell_volume 1543.870764
_symmetry_space_group_name_H-M "P 21/M"
_symmetry_group_IT_number 11
_symmetry_cell_setting 'monoclinic'
loop_
_space_group_symop_operation_xyz
x,y,z
-x,1/2+y,-z
-x,-y,-z
x,1/2-y,z
loop_
_atom_site_type_symbol
_atom_site_label
_atom_site_fract_x
_atom_site_fract_y
_atom_site_fract_z
Si Si1 0.738802 0.047206 0.632036
Si Si2 0.241793 0.453993 0.087211
Si Si3 0.879335 0.546222 0.543687
Si Si4 0.611550 0.960250 0.304665
Si Si5 0.539968 0.541264 0.034558
Si Si6 0.340550 0.533516 0.430895
Si Si7 0.095822 0.965607 0.171483
Si Si8 0.244612 0.954908 0.776293
O O1 0.763538 0.250000 0.577137
O O2 0.705572 0.976495 0.588538
O O3 0.827448 0.959824 0.533149
O O4 0.645797 0.035598 0.855305
O O5 0.265026 0.250000 0.069827
O O6 0.193605 0.535069 0.258928
O O7 0.158803 0.466182 0.150068
O O8 0.335666 0.527430 0.877307
O O9 0.891265 0.750000 0.551124
O O10 0.986490 0.473550 0.361438
O O11 0.624462 0.750000 0.284416
O O12 0.500000 0.000000 0.500000
O O13 0.670151 0.032761 0.292816
O O14 0.550758 0.750000 0.027846
O O15 0.452574 0.479763 0.245938
O O16 0.500000 0.500000 0.000000
O O17 0.342289 0.750000 0.426455
O O18 0.281172 0.469965 0.618426
O O19 0.099282 0.750000 0.167876
O O20 0.151113 0.025469 0.986021
O O21 0.225211 0.750000 0.790742
#
# Coordination Sequence:
#
# PCOD9161163 Si02
#       8
#     4   4   4   4   4   4   4   4
#     4  10  20  33  48  71  99 130 166 204 241 283
#     4   9  19  34  52  71  97 130 161 192 240 299
#     4  10  20  34  50  72  99 128 159 199 248 293
#     4  10  20  34  50  73 102 131 160 195 236 283
#     4   9  16  29  48  69  94 126 159 195 235 281
#     4   8  16  31  51  71  95 129 165 193 234 291
#     4   9  18  32  53  76  96 120 159 204 244 285
#     4   9  17  33  54  73  95 128 163 198 238 287
#
# _framework density 20.727122000000001
#
# number of rings (size 3 to 8) (size 9 to 14) (size 15 to 20)
#    0.000    2.750    0.000    2.250    0.000    2.500 
#    0.000    9.375    0.000    0.000    0.000    0.000 
#    0.000    0.000    0.000    0.000    0.000    0.000 
#
# Total GULP energy -178385.935555 kJ/mol
# GULP energy per Si atom -5574.560486 kJ/mol
# Density = 2.067995 g / cm^3
# Si number density = 20.727122 Si / 1000 Ang^3
#
#
#
# Elastic Constant Matrix: (Units=GPa)
#
#
# Indices 1 2 3 4 5 6 
#
# 1 48.4498 -10.4568 60.9448 0.0000 11.1820 0.0000
# 2 -10.4568 44.5501 -3.5548 0.0000 6.4850 0.0000
# 3 60.9448 -3.5548 151.5812 0.0000 8.1242 0.0000
# 4 0.0000 0.0000 0.0000 8.9206 0.0000 -6.2349
# 5 11.1820 6.4850 8.1242 0.0000 36.4685 0.0000
# 6 0.0000 0.0000 0.0000 -6.2349 0.0000 18.3653
#
#
#
# Elastic Compliance Matrix: (Units=1/GPa)
#
#
# Indices 1 2 3 4 5 6 
#
# 1 0.050865 0.012347 -0.019440 0.000000 -0.013461 0.000000
# 2 0.012347 0.026129 -0.003947 0.000000 -0.007553 0.000000
# 3 -0.019440 -0.003947 0.014132 0.000000 0.003514 0.000000
# 4 0.000000 0.000000 0.000000 0.146974 0.000000 0.049897
# 5 -0.013461 -0.007553 0.003514 0.000000 0.032109 0.000000
# 6 0.000000 0.000000 0.000000 0.049897 0.000000 0.071390
#
#
# Mechanical properties :
#
#
# Convention : Reuss Voigt Hill
#
# Bulk Modulus (GPa) = 14.48271 37.60529 26.04400
# Shear Modulus (GPa) = 12.93015 25.92741 19.42878
#
# Velocity S-wave (km/s) = 2.50036 3.54063 3.06496
# Velocity P-wave (km/s) = 3.91641 5.90739 5.01176
#
# Compressibility (1/GPa) = 0.06904787
#
# Stress axis : x y z
#
# Youngs Moduli (GPa) = 19.66008 38.27112 70.76090
#
# Poissons Ratio (x) = -0.47254 1.37556
# Poissons Ratio (y) = -0.24275 0.27928
# Poissons Ratio (z) = 0.38218 0.15105
#
# Static dielectric constant tensor:
#      x y z
#    x 1.710830 0.000000 0.033570 
#    y 0.000000 1.783890 0.000000 
#    z 0.033570 0.000000 1.776930 
# 
# From -- ./inp_files/56146.got.cif
#   From: 2010.05.17/outbox.cif.g08.bks.cpg/sg11_29_cif.got.tgz:56146.got - 2010.06.03 12:22:45.
