data_PCOD9161907
_publ_section_title
;
Structure prediction by ZEFSAII (Michael W. Deem and Ramdas Pophale) SiO2 
 PCOD9161907
Probable space group: P 21/M
;
_chemical_formula_sum "Si O2"
_cell_formula_units_Z 32
_cell_length_a 9.792444
_cell_length_b 11.672816
_cell_length_c 28.664398
_cell_angle_alpha 90.000000
_cell_angle_beta 149.776758
_cell_angle_gamma 90.000000
_cell_volume 1649.291117
_symmetry_space_group_name_H-M "P 21/M"
_symmetry_group_IT_number 11
_symmetry_cell_setting 'monoclinic'
loop_
_space_group_symop_operation_xyz
x,y,z
-x,1/2+y,-z
-x,-y,-z
x,1/2-y,z
loop_
_atom_site_type_symbol
_atom_site_label
_atom_site_fract_x
_atom_site_fract_y
_atom_site_fract_z
Si Si1 0.801629 0.958880 0.233661
Si Si2 0.451725 0.130646 0.931251
Si Si3 0.634619 0.119288 0.560280
Si Si4 0.626982 0.533755 0.429293
Si Si5 0.907122 0.975853 0.101955
Si Si6 0.584205 0.116202 0.805323
Si Si7 0.899508 0.613764 0.749582
Si Si8 0.881706 0.622002 0.409551
O O1 0.719347 0.879262 0.166148
O O2 0.537470 0.960187 0.188606
O O3 0.048145 0.907049 0.336872
O O4 0.912310 0.070125 0.238246
O O5 0.603619 0.250000 0.977799
O O6 0.242218 0.121344 0.912051
O O7 0.670898 0.031560 0.001270
O O8 0.599889 0.250000 0.529553
O O9 0.500000 0.000000 0.500000
O O10 0.501383 0.120524 0.572183
O O11 0.392511 0.444093 0.346005
O O12 0.743298 0.593894 0.417994
O O13 0.875583 0.466126 0.526076
O O14 0.998513 0.063149 0.170510
O O15 0.149478 0.932482 0.141288
O O16 0.621255 0.250000 0.830771
O O17 0.350598 0.114633 0.697259
O O18 0.887883 0.750000 0.747487
O O19 0.994512 0.750000 0.443570
#
# Coordination Sequence:
#
# PCOD9161907 Si02
#       8
#     4   4   4   4   4   4   4   4
#     4  10  23  39  60  88 118 158 204 243 296 361
#     4  10  20  38  61  84 114 152 195 246 293 354
#     4  11  23  39  61  87 120 161 208 251 298 358
#     4  10  20  35  56  83 116 156 203 248 292 354
#     4  10  21  36  59  90 115 148 199 243 303 361
#     4  11  21  37  59  86 120 152 192 249 301 355
#     4  10  20  38  59  84 120 161 203 252 301 357
#     4  10  20  34  55  83 116 154 195 246 300 350
#
# _framework density 19.402276000000001
#
# number of rings (size 3 to 8) (size 9 to 14) (size 15 to 20)
#    0.000    1.750    1.250    3.375    0.000    4.000 
#    0.000    1.875    0.000    0.000    0.000    0.000 
#    0.000    0.000    0.000    0.000    0.000    0.000 
#
# Total GULP energy -178411.557004 kJ/mol
# GULP energy per Si atom -5575.361156 kJ/mol
# Density = 1.935812 g / cm^3
# Si number density = 19.402276 Si / 1000 Ang^3
#
#
#
# Elastic Constant Matrix: (Units=GPa)
#
#
# Indices 1 2 3 4 5 6 
#
# 1 93.9958 13.2394 29.2894 0.0000 27.0347 0.0000
# 2 13.2394 88.5301 25.5452 0.0000 -3.7475 0.0000
# 3 29.2894 25.5452 76.9168 0.0000 7.7698 0.0000
# 4 0.0000 0.0000 0.0000 -83.2813 0.0000 53.7804
# 5 27.0347 -3.7475 7.7698 0.0000 31.5667 0.0000
# 6 0.0000 0.0000 0.0000 53.7804 0.0000 -28.3162
#
#
#
# Elastic Compliance Matrix: (Units=1/GPa)
#
#
# Indices 1 2 3 4 5 6 
#
# 1 0.015847 -0.001703 -0.004182 0.000000 -0.012745 0.000000
# 2 -0.001703 0.012882 -0.004032 0.000000 0.003980 0.000000
# 3 -0.004182 -0.004032 0.016017 0.000000 -0.000840 0.000000
# 4 0.000000 0.000000 0.000000 0.053015 0.000000 0.100690
# 5 -0.012745 0.003980 -0.000840 0.000000 0.043273 0.000000
# 6 0.000000 0.000000 0.000000 0.100690 0.000000 0.155922
#
#
# Mechanical properties :
#
#
# Convention : Reuss Voigt Hill
#
# Bulk Modulus (GPa) = 40.13810 43.95453 42.04631
# Shear Modulus (GPa) = 15.38015 -3.24824 6.06595
#
# Velocity S-wave (km/s) = 2.81854 -1.29530 1.77009
# Velocity P-wave (km/s) = 5.59683 4.52399 5.08876
#
# Compressibility (1/GPa) = 0.02491398
#
# Stress axis : x y z
#
# Youngs Moduli (GPa) = 63.10230 77.62691 62.43251
#
# Poissons Ratio (x) = 0.13218 0.26107
# Poissons Ratio (y) = 0.10745 0.25173
# Poissons Ratio (z) = 0.26387 0.31299
#
# Static dielectric constant tensor:
#      x y z
#    x 1.694000 0.000000 -0.010840 
#    y 0.000000 1.660040 0.000000 
#    z -0.010840 0.000000 1.664620 
# 
# From -- ./inp_files/72854.got.cif
#   From: 2010.05.17/outbox.cif.g08.bks.cpg/sg11_37_cif.got.tgz:72854.got - 2010.06.03 12:22:45.
