data_PCOD9161847
_publ_section_title
;
Structure prediction by ZEFSAII (Michael W. Deem and Ramdas Pophale) SiO2 
 PCOD9161847
Probable space group: P 21/M
;
_chemical_formula_sum "Si O2"
_cell_formula_units_Z 28
_cell_length_a 16.001640
_cell_length_b 8.776678
_cell_length_c 21.335293
_cell_angle_alpha 90.000000
_cell_angle_beta 28.830689
_cell_angle_gamma 90.000000
_cell_volume 1444.911245
_symmetry_space_group_name_H-M "P 21/M"
_symmetry_group_IT_number 11
_symmetry_cell_setting 'monoclinic'
loop_
_space_group_symop_operation_xyz
x,y,z
-x,1/2+y,-z
-x,-y,-z
x,1/2-y,z
loop_
_atom_site_type_symbol
_atom_site_label
_atom_site_fract_x
_atom_site_fract_y
_atom_site_fract_z
Si Si1 0.968130 0.433398 0.618760
Si Si2 0.265953 0.566542 0.346468
Si Si3 0.230248 0.931311 0.645268
Si Si4 0.886223 0.431951 0.812724
Si Si5 0.170223 0.067331 0.919915
Si Si6 0.339650 0.434217 0.934985
Si Si7 0.403835 0.067840 0.652348
O O1 0.978689 0.250000 0.612220
O O2 0.154498 0.498847 0.476507
O O3 0.834546 0.477778 0.651435
O O4 0.904196 0.484083 0.728909
O O5 0.261912 0.750000 0.354182
O O6 0.465247 0.518955 0.210604
O O7 0.200685 0.750000 0.663679
O O8 0.395713 0.968728 0.492485
O O9 0.289170 0.982584 0.675710
O O10 0.060612 0.016031 0.733360
O O11 0.872646 0.250000 0.822352
O O12 0.727214 0.502090 0.955545
O O13 0.151722 0.250000 0.933904
O O14 0.212032 0.014844 0.962672
O O15 0.332318 0.031958 0.767944
O O16 0.000000 0.000000 0.000000
O O17 0.336001 0.250000 0.939643
O O18 0.384815 0.250000 0.654822
#
# Coordination Sequence:
#
# PCOD9161847 Si02
#       7
#     4   4   4   4   4   4   4
#     4   9  20  38  59  86 117 149 184 229 284 341
#     4   9  19  38  63  87 113 145 186 235 284 337
#     4  10  20  34  55  80 108 141 188 236 279 334
#     4  11  23  37  54  80 117 153 185 229 281 335
#     4  10  21  36  53  76 107 144 184 228 276 329
#     4  10  22  38  58  84 113 146 192 238 279 333
#     4   9  19  35  54  76 106 143 183 232 288 335
#
# _framework density 19.378352
#
# number of rings (size 3 to 8) (size 9 to 14) (size 15 to 20)
#    0.000    2.286    0.000    1.714    2.000    6.286 
#    0.000    0.000    0.000    0.000    0.000    0.000 
#    0.000    0.000    0.000    0.000    0.000    0.000 
#
# Total GULP energy -156360.635790 kJ/mol
# GULP energy per Si atom -5584.308421 kJ/mol
# Density = 1.933425 g / cm^3
# Si number density = 19.378352 Si / 1000 Ang^3
#
#
#
# Elastic Constant Matrix: (Units=GPa)
#
#
# Indices 1 2 3 4 5 6 
#
# 1 69.3701 18.6469 61.4871 0.0000 16.6280 0.0000
# 2 18.6469 12.3923 26.8919 0.0000 5.7394 0.0000
# 3 61.4871 26.8919 117.8387 0.0000 18.2087 0.0000
# 4 0.0000 0.0000 0.0000 31.7064 0.0000 3.3825
# 5 16.6280 5.7394 18.2087 0.0000 35.9656 0.0000
# 6 0.0000 0.0000 0.0000 3.3825 0.0000 20.5402
#
#
#
# Elastic Compliance Matrix: (Units=1/GPa)
#
#
# Indices 1 2 3 4 5 6 
#
# 1 0.030490 -0.021090 -0.010239 0.000000 -0.005547 0.000000
# 2 -0.021090 0.176410 -0.028652 0.000000 -0.003895 0.000000
# 3 -0.010239 -0.028652 0.020536 0.000000 -0.001091 0.000000
# 4 0.000000 0.000000 0.000000 0.032103 0.000000 -0.005287
# 5 -0.005547 -0.003895 -0.001091 0.000000 0.031543 0.000000
# 6 0.000000 0.000000 0.000000 -0.005287 0.000000 0.049556
#
#
# Mechanical properties :
#
#
# Convention : Reuss Voigt Hill
#
# Bulk Modulus (GPa) = 9.30460 45.96144 27.63302
# Shear Modulus (GPa) = 10.07203 23.81412 16.94307
#
# Velocity S-wave (km/s) = 2.28229 3.50937 2.96012
# Velocity P-wave (km/s) = 3.42886 6.33959 5.09644
#
# Compressibility (1/GPa) = 0.10747369
#
# Stress axis : x y z
#
# Youngs Moduli (GPa) = 32.79794 5.66861 48.69477
#
# Poissons Ratio (x) = 0.11955 0.49860
# Poissons Ratio (y) = 0.69171 1.39520
# Poissons Ratio (z) = 0.33583 0.16242
#
# Static dielectric constant tensor:
#      x y z
#    x 1.667130 0.000000 0.012140 
#    y 0.000000 1.654780 0.000000 
#    z 0.012140 0.000000 1.680740 
# 
# From -- ./inp_files/65340.got.cif
#   From: 2010.05.17/outbox.cif.g08.bks.cpg/sg11_33_cif.got.tgz:65340.got - 2010.06.03 12:22:45.
