data_PCOD9161225
_publ_section_title
;
Structure prediction by ZEFSAII (Michael W. Deem and Ramdas Pophale) SiO2 
 PCOD9161225
Probable space group: P 21/M
;
_chemical_formula_sum "Si O2"
_cell_formula_units_Z 24
_cell_length_a 21.899904
_cell_length_b 8.505036
_cell_length_c 23.222838
_cell_angle_alpha 90.000000
_cell_angle_beta 18.306014
_cell_angle_gamma 90.000000
_cell_volume 1358.597111
_symmetry_space_group_name_H-M "P 21/M"
_symmetry_group_IT_number 11
_symmetry_cell_setting 'monoclinic'
loop_
_space_group_symop_operation_xyz
x,y,z
-x,1/2+y,-z
-x,-y,-z
x,1/2-y,z
loop_
_atom_site_type_symbol
_atom_site_label
_atom_site_fract_x
_atom_site_fract_y
_atom_site_fract_z
Si Si1 0.878466 0.940347 0.284647
Si Si2 0.540142 0.440396 0.294885
Si Si3 0.069015 0.062953 0.999576
Si Si4 0.604121 0.059763 0.992325
Si Si5 0.201471 0.438248 0.294441
Si Si6 0.274837 0.941266 0.989593
O O1 0.879412 0.750000 0.281288
O O2 0.669870 0.992248 0.494826
O O3 0.056553 0.988184 0.166893
O O4 0.929582 0.003053 0.175709
O O5 0.545221 0.250000 0.291662
O O6 0.716341 0.501461 0.176195
O O7 0.587398 0.489486 0.186902
O O8 0.069725 0.250000 0.998388
O O9 0.000000 0.000000 0.000000
O O10 0.609538 0.250000 0.987101
O O11 0.387329 0.011148 0.166747
O O12 0.658970 0.003706 0.007036
O O13 0.751477 0.999642 0.811663
O O14 0.197583 0.250000 0.297242
O O15 0.000000 0.500000 0.500000
O O16 0.277919 0.750000 0.988340
#
# Coordination Sequence:
#
# PCOD9161225 Si02
#       6
#     4   4   4   4   4   4
#     4   9  18  34  56  79 103 131 166 209 253 298
#     4   9  18  34  55  78 103 130 164 206 251 300
#     4  11  22  36  54  75 103 136 170 208 249 296
#     4   9  18  33  53  75 100 132 171 212 252 297
#     4  10  20  33  50  73 102 135 171 212 256 302
#     4   8  15  30  53  79 102 128 166 209 251 297
#
# _framework density 17.665281
#
# number of rings (size 3 to 8) (size 9 to 14) (size 15 to 20)
#    0.000    2.667    0.000    3.000    0.000    3.333 
#    0.000    8.333    0.000    4.000    0.000    0.000 
#    0.000    0.000    0.000    0.000    0.000    0.000 
#
# Total GULP energy -133855.738835 kJ/mol
# GULP energy per Si atom -5577.322451 kJ/mol
# Density = 1.762507 g / cm^3
# Si number density = 17.665281 Si / 1000 Ang^3
#
#
#
# Elastic Constant Matrix: (Units=GPa)
#
#
# Indices 1 2 3 4 5 6 
#
# 1 186.4027 25.9082 103.0061 0.0000 18.6436 0.0000
# 2 25.9082 22.0502 31.1382 0.0000 1.6345 0.0000
# 3 103.0061 31.1382 197.2673 0.0000 5.2526 0.0000
# 4 0.0000 0.0000 0.0000 24.1296 0.0000 3.4721
# 5 18.6436 1.6345 5.2526 0.0000 8.2107 0.0000
# 6 0.0000 0.0000 0.0000 3.4721 0.0000 23.0372
#
#
#
# Elastic Compliance Matrix: (Units=1/GPa)
#
#
# Indices 1 2 3 4 5 6 
#
# 1 0.010259 -0.004850 -0.004066 0.000000 -0.019727 0.000000
# 2 -0.004850 0.060927 -0.007178 0.000000 0.003475 0.000000
# 3 -0.004066 -0.007178 0.008181 0.000000 0.005428 0.000000
# 4 0.000000 0.000000 0.000000 0.042362 0.000000 -0.006385
# 5 -0.019727 0.003475 0.005428 0.000000 0.162421 0.000000
# 6 0.000000 0.000000 0.000000 -0.006385 0.000000 0.044370
#
#
# Mechanical properties :
#
#
# Convention : Reuss Voigt Hill
#
# Bulk Modulus (GPa) = 21.19506 80.64725 50.92116
# Shear Modulus (GPa) = 13.28259 27.45335 20.36797
#
# Velocity S-wave (km/s) = 2.74506 3.94647 3.39926
# Velocity P-wave (km/s) = 4.69801 8.15587 6.65543
#
# Compressibility (1/GPa) = 0.04718080
#
# Stress axis : x y z
#
# Youngs Moduli (GPa) = 97.47827 16.41299 122.23737
#
# Poissons Ratio (x) = 0.07960 0.49701
# Poissons Ratio (y) = 0.47273 0.87736
# Poissons Ratio (z) = 0.39634 0.11780
#
# Static dielectric constant tensor:
#      x y z
#    x 1.587480 0.000000 -0.005210 
#    y 0.000000 1.604570 0.000000 
#    z -0.005210 0.000000 1.584400 
# 
# From -- ./inp_files/66386.got.cif
#   From: 2010.05.17/outbox.cif.g08.bks.cpg/sg11_34_cif.got.tgz:66386.got - 2010.06.03 12:22:45.
