data_PCOD9161175
_publ_section_title
;
Structure prediction by ZEFSAII (Michael W. Deem and Ramdas Pophale) SiO2 
 PCOD9161175
Probable space group: P 21/M
;
_chemical_formula_sum "Si O2"
_cell_formula_units_Z 32
_cell_length_a 8.077111
_cell_length_b 11.315950
_cell_length_c 31.064526
_cell_angle_alpha 90.000000
_cell_angle_beta 26.382627
_cell_angle_gamma 90.000000
_cell_volume 1261.682979
_symmetry_space_group_name_H-M "P 21/M"
_symmetry_group_IT_number 11
_symmetry_cell_setting 'monoclinic'
loop_
_space_group_symop_operation_xyz
x,y,z
-x,1/2+y,-z
-x,-y,-z
x,1/2-y,z
loop_
_atom_site_type_symbol
_atom_site_label
_atom_site_fract_x
_atom_site_fract_y
_atom_site_fract_z
Si Si1 0.368673 0.879685 0.425355
Si Si2 0.055898 0.375877 0.186165
Si Si3 0.608225 0.378158 0.878596
Si Si4 0.635858 0.619161 0.539552
Si Si5 0.959343 0.881479 0.911338
Si Si6 0.786733 0.627573 0.638398
Si Si7 0.050629 0.619797 0.362421
Si Si8 0.621682 0.621472 0.162108
O O1 0.552249 0.750000 0.378894
O O2 0.067766 0.888433 0.456499
O O3 0.108848 0.871194 0.528271
O O4 0.551892 0.006717 0.393818
O O5 0.209511 0.250000 0.167531
O O6 0.166272 0.501754 0.178687
O O7 0.154367 0.381003 0.112214
O O8 0.611060 0.368980 0.291713
O O9 0.806958 0.250000 0.833519
O O10 0.359158 0.377630 0.893727
O O11 0.373021 0.385736 0.976992
O O12 0.497713 0.750000 0.583507
O O13 0.665186 0.614117 0.480325
O O14 0.139083 0.750000 0.876436
O O15 0.812523 0.998078 0.133924
O O16 0.820969 0.750000 0.656387
O O17 0.786161 0.505673 0.662908
O O18 0.189410 0.750000 0.345266
O O19 0.192988 0.623323 0.279806
O O20 0.783594 0.750000 0.139102
#
# Coordination Sequence:
#
# PCOD9161175 Si02
#       8
#     4   4   4   4   4   4   4   4
#     4   8  13  21  35  56  84 115 142 174 217 259
#     4  10  20  33  49  70  93 119 153 190 229 274
#     4  10  22  36  49  68  94 121 153 191 230 274
#     4   8  13  21  34  56  85 114 143 174 213 260
#     4  10  20  35  53  71  91 117 151 192 234 276
#     4   9  16  27  43  64  90 117 148 185 222 264
#     4   9  16  26  42  64  90 118 148 182 219 264
#     4  10  20  33  49  71  95 121 153 188 227 273
#
# _framework density 25.362949
#
# number of rings (size 3 to 8) (size 9 to 14) (size 15 to 20)
#    0.000    2.750    1.250    0.750    0.000    2.000 
#    0.000    0.000    0.000    0.000    0.000    0.875 
#    0.000    0.000    0.000    0.000    0.000    0.000 
#
# Total GULP energy -178139.120955 kJ/mol
# GULP energy per Si atom -5566.847530 kJ/mol
# Density = 2.530522 g / cm^3
# Si number density = 25.362949 Si / 1000 Ang^3
#
#
#
# Elastic Constant Matrix: (Units=GPa)
#
#
# Indices 1 2 3 4 5 6 
#
# 1 140.8663 83.5626 -3.3496 0.0000 46.2344 0.0000
# 2 83.5626 356.8656 15.9605 0.0000 -3.1143 0.0000
# 3 -3.3496 15.9605 88.8730 0.0000 22.1549 0.0000
# 4 0.0000 0.0000 0.0000 -84.9116 0.0000 -30.3780
# 5 46.2344 -3.1143 22.1549 0.0000 30.7597 0.0000
# 6 0.0000 0.0000 0.0000 -30.3780 0.0000 31.3364
#
#
#
# Elastic Compliance Matrix: (Units=1/GPa)
#
#
# Indices 1 2 3 4 5 6 
#
# 1 0.038457 -0.010640 0.021986 0.000000 -0.074717 0.000000
# 2 -0.010640 0.005785 -0.006792 0.000000 0.021471 0.000000
# 3 0.021986 -0.006792 0.026461 0.000000 -0.052794 0.000000
# 4 0.000000 0.000000 0.000000 -0.008744 0.000000 -0.008477
# 5 -0.074717 0.021471 -0.052794 0.000000 0.185015 0.000000
# 6 0.000000 0.000000 0.000000 -0.008477 0.000000 0.023694
#
#
# Mechanical properties :
#
#
# Convention : Reuss Voigt Hill
#
# Bulk Modulus (GPa) = 12.52977 86.55021 49.53999
# Shear Modulus (GPa) = 17.35124 28.13232 22.74178
#
# Velocity S-wave (km/s) = 2.61840 3.33406 2.99767
# Velocity P-wave (km/s) = 3.75397 7.00143 5.61749
#
# Compressibility (1/GPa) = 0.07980990
#
# Stress axis : x y z
#
# Youngs Moduli (GPa) = 26.00329 172.86613 37.79100
#
# Poissons Ratio (x) = 1.83934 -0.83088
# Poissons Ratio (y) = 0.27668 0.25669
# Poissons Ratio (z) = -0.57171 1.17418
#
# Static dielectric constant tensor:
#      x y z
#    x 2.043560 0.000000 -0.004810 
#    y 0.000000 2.106650 0.000000 
#    z -0.004810 0.000000 1.997730 
# 
# From -- ./inp_files/72840.got.cif
#   From: 2010.05.17/outbox.cif.g08.bks.cpg/sg11_37_cif.got.tgz:72840.got - 2010.06.03 12:22:45.
