data_PCOD9161377
_publ_section_title
;
Structure prediction by ZEFSAII (Michael W. Deem and Ramdas Pophale) SiO2 
 PCOD9161377
Probable space group: P 21/M
;
_chemical_formula_sum "Si O2"
_cell_formula_units_Z 28
_cell_length_a 14.101455
_cell_length_b 8.731670
_cell_length_c 21.401870
_cell_angle_alpha 90.000000
_cell_angle_beta 32.696089
_cell_angle_gamma 90.000000
_cell_volume 1423.487886
_symmetry_space_group_name_H-M "P 21/M"
_symmetry_group_IT_number 11
_symmetry_cell_setting 'monoclinic'
loop_
_space_group_symop_operation_xyz
x,y,z
-x,1/2+y,-z
-x,-y,-z
x,1/2-y,z
loop_
_atom_site_type_symbol
_atom_site_label
_atom_site_fract_x
_atom_site_fract_y
_atom_site_fract_z
Si Si1 0.868670 0.434970 0.626592
Si Si2 0.032118 0.435119 0.158044
Si Si3 0.997722 0.433803 0.316479
Si Si4 0.849091 0.068290 0.037715
Si Si5 0.636600 0.075900 0.378276
Si Si6 0.531530 0.070858 0.742804
Si Si7 0.340668 0.425451 0.447279
O O1 0.883200 0.250000 0.617802
O O2 0.666124 0.475448 0.722904
O O3 0.000000 0.500000 0.500000
O O4 0.915564 0.499876 0.668850
O O5 0.040522 0.250000 0.145293
O O6 0.084991 0.469201 0.200640
O O7 0.829586 0.489598 0.265278
O O8 0.126296 0.510993 0.047261
O O9 0.983890 0.250000 0.328607
O O10 0.804346 0.509862 0.425087
O O11 0.864010 0.250000 0.033196
O O12 0.650549 0.017747 0.163645
O O13 0.000000 0.000000 0.000000
O O14 0.661178 0.250000 0.386335
O O15 0.532600 0.076159 0.371146
O O16 0.500000 0.000000 0.500000
O O17 0.491436 0.250000 0.770760
O O18 0.648849 0.036933 0.616874
O O19 0.295669 0.250000 0.454887
#
# Coordination Sequence:
#
# PCOD9161377 Si02
#       7
#     4   4   4   4   4   4   4
#     4  11  23  39  63  94 130 168 212 266 321 384
#     4  10  22  41  62  88 126 169 213 263 318 376
#     4  11  22  37  60  90 127 168 207 256 318 378
#     4  12  26  45  70  96 126 167 214 264 316 380
#     4  10  20  33  52  82 119 157 197 245 305 370
#     4  11  24  42  65  92 124 166 214 265 320 377
#     4  11  21  33  56  89 125 164 205 256 314 378
#
# _framework density 19.669993999999999
#
# number of rings (size 3 to 8) (size 9 to 14) (size 15 to 20)
#    0.000    1.143    2.857    3.857    0.000    5.143 
#    0.000    0.714    0.000    0.000    0.000    0.000 
#    0.000    0.000    0.000    0.000    0.000    0.000 
#
# Total GULP energy -156268.422849 kJ/mol
# GULP energy per Si atom -5581.015102 kJ/mol
# Density = 1.962522 g / cm^3
# Si number density = 19.669994 Si / 1000 Ang^3
#
#
#
# Elastic Constant Matrix: (Units=GPa)
#
#
# Indices 1 2 3 4 5 6 
#
# 1 118.7756 43.2880 33.9280 0.0000 2.3999 0.0000
# 2 43.2880 75.0567 28.3528 0.0000 1.7356 0.0000
# 3 33.9280 28.3528 82.7873 0.0000 11.7898 0.0000
# 4 0.0000 0.0000 0.0000 33.6517 0.0000 1.7972
# 5 2.3999 1.7356 11.7898 0.0000 30.8308 0.0000
# 6 0.0000 0.0000 0.0000 1.7972 0.0000 29.2420
#
#
#
# Elastic Compliance Matrix: (Units=1/GPa)
#
#
# Indices 1 2 3 4 5 6 
#
# 1 0.011178 -0.005399 -0.002804 0.000000 0.000506 0.000000
# 2 -0.005399 0.017954 -0.004074 0.000000 0.000967 0.000000
# 3 -0.002804 -0.004074 0.015398 0.000000 -0.005441 0.000000
# 4 0.000000 0.000000 0.000000 0.029814 0.000000 -0.001832
# 5 0.000506 0.000967 -0.005441 0.000000 0.034422 0.000000
# 6 0.000000 0.000000 0.000000 -0.001832 0.000000 0.034310
#
#
# Mechanical properties :
#
#
# Convention : Reuss Voigt Hill
#
# Bulk Modulus (GPa) = 50.06007 54.19523 52.12765
# Shear Modulus (GPa) = 28.68823 30.14830 29.41827
#
# Velocity S-wave (km/s) = 3.82314 3.91923 3.87148
# Velocity P-wave (km/s) = 6.70774 6.93487 6.82225
#
# Compressibility (1/GPa) = 0.01997600
#
# Stress axis : x y z
#
# Youngs Moduli (GPa) = 89.46439 55.69896 64.94252
#
# Poissons Ratio (x) = 0.30072 0.18209
# Poissons Ratio (y) = 0.48303 0.26456
# Poissons Ratio (z) = 0.25084 0.22691
#
# Static dielectric constant tensor:
#      x y z
#    x 1.758840 0.000000 -0.001150 
#    y 0.000000 1.673480 0.000000 
#    z -0.001150 0.000000 1.686130 
# 
# From -- ./inp_files/65385.got.cif
#   From: 2010.05.17/outbox.cif.g08.bks.cpg/sg11_33_cif.got.tgz:65385.got - 2010.06.03 12:22:45.
