data_PCOD9161413
_publ_section_title
;
Structure prediction by ZEFSAII (Michael W. Deem and Ramdas Pophale) SiO2 
 PCOD9161413
Probable space group: P 21/M
;
_chemical_formula_sum "Si O2"
_cell_formula_units_Z 32
_cell_length_a 21.751950
_cell_length_b 8.638406
_cell_length_c 14.641575
_cell_angle_alpha 90.000000
_cell_angle_beta 35.703797
_cell_angle_gamma 90.000000
_cell_volume 1605.577180
_symmetry_space_group_name_H-M "P 21/M"
_symmetry_group_IT_number 11
_symmetry_cell_setting 'monoclinic'
loop_
_space_group_symop_operation_xyz
x,y,z
-x,1/2+y,-z
-x,-y,-z
x,1/2-y,z
loop_
_atom_site_type_symbol
_atom_site_label
_atom_site_fract_x
_atom_site_fract_y
_atom_site_fract_z
Si Si1 0.955589 0.937176 0.782593
Si Si2 0.728282 0.574392 0.396312
Si Si3 0.656270 0.432852 0.664418
Si Si4 0.909491 0.563071 0.043737
Si Si5 0.804006 0.938888 0.801138
Si Si6 0.161931 0.065400 0.442413
Si Si7 0.428270 0.435822 0.870121
Si Si8 0.491394 0.923742 0.608719
O O1 0.954498 0.750000 0.784517
O O2 0.873476 0.989846 0.803573
O O3 0.923536 0.991359 0.922727
O O4 0.071460 0.991973 0.613982
O O5 0.761103 0.750000 0.384256
O O6 0.721793 0.466929 0.492493
O O7 0.802142 0.519641 0.225139
O O8 0.610535 0.583503 0.501178
O O9 0.653329 0.250000 0.685561
O O10 0.722055 0.517573 0.663146
O O11 0.536377 0.489902 0.789389
O O12 0.913540 0.750000 0.036410
O O13 0.000000 0.500000 0.000000
O O14 0.802973 0.750000 0.803637
O O15 0.850946 0.986793 0.647087
O O16 0.682367 0.990305 0.955395
O O17 0.152539 0.250000 0.457956
O O18 0.431313 0.250000 0.871122
O O19 0.431217 0.483403 0.760134
O O20 0.448579 0.750000 0.653175
O O21 0.500000 0.000000 0.500000
#
# Coordination Sequence:
#
# PCOD9161413 Si02
#       8
#     4   4   4   4   4   4   4   4
#     4  10  21  38  60  83 109 145 190 235 281 338
#     4   9  19  35  54  78 108 144 183 223 271 326
#     4  10  20  35  57  85 114 147 186 231 280 334
#     4  10  21  35  54  80 107 141 182 223 270 325
#     4   9  20  38  61  84 110 147 189 233 286 343
#     4  11  22  37  58  83 111 147 189 234 286 340
#     4   9  19  37  59  82 112 147 187 233 283 335
#     4  10  20  33  53  80 111 147 185 224 270 327
#
# _framework density 19.930529
#
# number of rings (size 3 to 8) (size 9 to 14) (size 15 to 20)
#    0.000    2.250    0.000    2.250    1.750    4.500 
#    0.000    2.500    0.000    0.000    0.000    0.000 
#    0.000    0.000    0.000    0.000    0.000    0.000 
#
# Total GULP energy -178546.393807 kJ/mol
# GULP energy per Si atom -5579.574806 kJ/mol
# Density = 1.988517 g / cm^3
# Si number density = 19.930529 Si / 1000 Ang^3
#
#
#
# Elastic Constant Matrix: (Units=GPa)
#
#
# Indices 1 2 3 4 5 6 
#
# 1 90.4118 8.5138 4.8311 0.0000 8.6844 0.0000
# 2 8.5138 10.2509 -0.9704 0.0000 -2.8409 0.0000
# 3 4.8311 -0.9704 58.8409 0.0000 -4.9753 0.0000
# 4 0.0000 0.0000 0.0000 15.2825 0.0000 1.4969
# 5 8.6844 -2.8409 -4.9753 0.0000 24.3011 0.0000
# 6 0.0000 0.0000 0.0000 1.4969 0.0000 26.9568
#
#
#
# Elastic Compliance Matrix: (Units=1/GPa)
#
#
# Indices 1 2 3 4 5 6 
#
# 1 0.012985 -0.012760 -0.001827 0.000000 -0.006506 0.000000
# 2 -0.012760 0.113784 0.004513 0.000000 0.018786 0.000000
# 3 -0.001827 0.004513 0.017624 0.000000 0.004789 0.000000
# 4 0.000000 0.000000 0.000000 0.065792 0.000000 -0.003653
# 5 -0.006506 0.018786 0.004789 0.000000 0.046652 0.000000
# 6 0.000000 0.000000 0.000000 -0.003653 0.000000 0.037299
#
#
# Mechanical properties :
#
#
# Convention : Reuss Voigt Hill
#
# Bulk Modulus (GPa) = 8.04868 20.47253 14.26060
# Shear Modulus (GPa) = 14.05681 23.11669 18.58675
#
# Velocity S-wave (km/s) = 2.65861 3.40937 3.05713
# Velocity P-wave (km/s) = 3.67034 5.07865 4.43081
#
# Compressibility (1/GPa) = 0.12424403
#
# Stress axis : x y z
#
# Youngs Moduli (GPa) = 77.01415 8.78860 56.73993
#
# Poissons Ratio (x) = 0.11214 0.10364
# Poissons Ratio (y) = 0.98272 -0.25604
# Poissons Ratio (z) = 0.14068 -0.03966
#
# Static dielectric constant tensor:
#      x y z
#    x 1.714400 0.000000 -0.015430 
#    y 0.000000 1.709110 0.000000 
#    z -0.015430 0.000000 1.727840 
# 
# From -- ./inp_files/55544.got.cif
#   From: 2010.05.17/outbox.cif.g08.bks.cpg/sg11_28_cif.got.tgz:55544.got - 2010.06.03 12:22:45.
