data_PCOD9161567
_publ_section_title
;
Structure prediction by ZEFSAII (Michael W. Deem and Ramdas Pophale) SiO2 
 PCOD9161567
Probable space group: P 21/M
;
_chemical_formula_sum "Si O2"
_cell_formula_units_Z 32
_cell_length_a 11.244564
_cell_length_b 8.898066
_cell_length_c 19.622937
_cell_angle_alpha 90.000000
_cell_angle_beta 63.907855
_cell_angle_gamma 90.000000
_cell_volume 1763.279218
_symmetry_space_group_name_H-M "P 21/M"
_symmetry_group_IT_number 11
_symmetry_cell_setting 'monoclinic'
loop_
_space_group_symop_operation_xyz
x,y,z
-x,1/2+y,-z
-x,-y,-z
x,1/2-y,z
loop_
_atom_site_type_symbol
_atom_site_label
_atom_site_fract_x
_atom_site_fract_y
_atom_site_fract_z
Si Si1 0.140936 0.071232 0.164923
Si Si2 0.646611 0.077184 0.112802
Si Si3 0.716739 0.426839 0.447844
Si Si4 0.302910 0.074181 0.761570
Si Si5 0.913185 0.425246 0.963005
Si Si6 0.914568 0.572439 0.302418
Si Si7 0.430064 0.928011 0.083857
Si Si8 0.503850 0.571338 0.401570
O O1 0.149917 0.250000 0.161168
O O2 0.076954 0.010910 0.110613
O O3 0.286322 0.999123 0.131326
O O4 0.046771 0.014995 0.249266
O O5 0.601975 0.250000 0.126453
O O6 0.706659 0.027221 0.169764
O O7 0.527005 0.970014 0.121529
O O8 0.762063 0.066514 0.027392
O O9 0.744299 0.250000 0.436722
O O10 0.842936 0.517407 0.389337
O O11 0.599883 0.471544 0.424353
O O12 0.646809 0.460049 0.538167
O O13 0.292655 0.250000 0.783160
O O14 0.191194 0.044979 0.732500
O O15 0.443735 0.049030 0.687943
O O16 0.948898 0.250000 0.945134
O O17 0.000000 0.500000 0.000000
O O18 0.938863 0.750000 0.298714
O O19 0.418583 0.750000 0.077550
O O20 0.500000 0.000000 0.000000
O O21 0.528270 0.750000 0.410719
#
# Coordination Sequence:
#
# PCOD9161567 Si02
#       8
#     4   4   4   4   4   4   4   4
#     4  12  24  38  57  79 104 135 175 219 266 313
#     4  11  23  37  54  77 104 136 175 218 263 309
#     4   9  15  25  44  70 101 138 179 216 256 307
#     4   9  18  32  50  74 107 144 178 215 261 309
#     4  11  23  37  54  76 107 141 176 213 258 313
#     4  10  20  34  51  75 110 144 177 216 264 317
#     4  12  24  41  62  80 100 131 173 220 267 313
#     4   8  15  27  43  67 102 142 178 213 256 309
#
# _framework density 18.148005000000001
#
# number of rings (size 3 to 8) (size 9 to 14) (size 15 to 20)
#    0.000    1.750    1.250    5.250    0.000    6.500 
#    0.000    0.000    0.000    0.000    0.000    0.875 
#    0.000    0.000    0.000    0.000    0.000    0.000 
#
# Total GULP energy -178611.608438 kJ/mol
# GULP energy per Si atom -5581.612764 kJ/mol
# Density = 1.810670 g / cm^3
# Si number density = 18.148005 Si / 1000 Ang^3
#
#
#
# Elastic Constant Matrix: (Units=GPa)
#
#
# Indices 1 2 3 4 5 6 
#
# 1 48.0700 28.1525 3.7940 0.0000 -20.5684 0.0000
# 2 28.1525 111.6124 36.2638 0.0000 -23.0870 0.0000
# 3 3.7940 36.2638 76.9307 0.0000 -31.1977 0.0000
# 4 0.0000 0.0000 0.0000 29.3950 0.0000 -4.6902
# 5 -20.5684 -23.0870 -31.1977 0.0000 25.5694 0.0000
# 6 0.0000 0.0000 0.0000 -4.6902 0.0000 23.2810
#
#
#
# Elastic Compliance Matrix: (Units=1/GPa)
#
#
# Indices 1 2 3 4 5 6 
#
# 1 0.056679 -0.008919 0.032923 0.000000 0.077709 0.000000
# 2 -0.008919 0.012629 -0.007519 0.000000 -0.004945 0.000000
# 3 0.032923 -0.007519 0.045340 0.000000 0.075015 0.000000
# 4 0.000000 0.000000 0.000000 0.035149 0.000000 0.007081
# 5 0.077709 -0.004945 0.075015 0.000000 0.188682 0.000000
# 6 0.000000 0.000000 0.000000 0.007081 0.000000 0.044380
#
#
# Mechanical properties :
#
#
# Convention : Reuss Voigt Hill
#
# Bulk Modulus (GPa) = 6.77426 41.44819 24.11123
# Shear Modulus (GPa) = 12.52833 26.87592 19.70212
#
# Velocity S-wave (km/s) = 2.63029 3.85246 3.29847
# Velocity P-wave (km/s) = 3.60075 6.53278 5.27459
#
# Compressibility (1/GPa) = 0.14761751
#
# Stress axis : x y z
#
# Youngs Moduli (GPa) = 17.64336 79.18126 22.05554
#
# Poissons Ratio (x) = 0.70621 -0.72612
# Poissons Ratio (y) = 0.15736 0.16583
# Poissons Ratio (z) = -0.58086 0.59535
#
# Static dielectric constant tensor:
#      x y z
#    x 1.621780 0.000000 -0.025890 
#    y 0.000000 1.617910 0.000000 
#    z -0.025890 0.000000 1.654450 
# 
# From -- ./inp_files/64201.got.cif
#   From: 2010.05.17/outbox.cif.g08.bks.cpg/sg11_33_cif.got.tgz:64201.got - 2010.06.03 12:22:45.
