data_PCOD9161835
_publ_section_title
;
Structure prediction by ZEFSAII (Michael W. Deem and Ramdas Pophale) SiO2 
 PCOD9161835
Probable space group: P 21/M
;
_chemical_formula_sum "Si O2"
_cell_formula_units_Z 32
_cell_length_a 20.674118
_cell_length_b 8.893521
_cell_length_c 25.860109
_cell_angle_alpha 90.000000
_cell_angle_beta 20.394873
_cell_angle_gamma 90.000000
_cell_volume 1656.987083
_symmetry_space_group_name_H-M "P 21/M"
_symmetry_group_IT_number 11
_symmetry_cell_setting 'monoclinic'
loop_
_space_group_symop_operation_xyz
x,y,z
-x,1/2+y,-z
-x,-y,-z
x,1/2-y,z
loop_
_atom_site_type_symbol
_atom_site_label
_atom_site_fract_x
_atom_site_fract_y
_atom_site_fract_z
Si Si1 0.196845 0.072907 0.503797
Si Si2 0.846161 0.422050 0.082153
Si Si3 0.205905 0.430020 0.685089
Si Si4 0.628212 0.076434 0.345296
Si Si5 0.172396 0.069397 0.400996
Si Si6 0.437434 0.072088 0.905883
Si Si7 0.026035 0.069659 0.234642
Si Si8 0.614809 0.070403 0.164785
O O1 0.151625 0.250000 0.542887
O O2 0.158619 0.027533 0.472530
O O3 0.419318 0.057661 0.340975
O O4 0.090185 0.985207 0.628552
O O5 0.898843 0.250000 0.033998
O O6 0.674240 0.426075 0.250590
O O7 0.780245 0.483658 0.077139
O O8 0.000000 0.500000 0.000000
O O9 0.185058 0.250000 0.699320
O O10 0.222403 0.485825 0.732138
O O11 0.415925 0.474072 0.510311
O O12 0.061507 0.499920 0.752497
O O13 0.639005 0.250000 0.354991
O O14 0.171894 0.250000 0.399159
O O15 0.367063 0.010828 0.231119
O O16 0.000000 0.000000 0.500000
O O17 0.464625 0.250000 0.892137
O O18 0.396192 0.028295 0.877597
O O19 0.244118 0.027168 0.078254
O O20 0.017598 0.250000 0.236503
O O21 0.636174 0.250000 0.136461
#
# Coordination Sequence:
#
# PCOD9161835 Si02
#       8
#     4   4   4   4   4   4   4   4
#     4   9  19  37  61  87 113 146 189 230 275 331
#     4  10  21  34  49  70 101 137 180 233 287 340
#     4  10  20  34  55  75  98 138 184 231 285 344
#     4   9  19  36  51  69 100 135 178 234 290 341
#     4  10  21  40  67  95 122 153 188 226 270 328
#     4  10  22  38  57  85 119 153 191 233 280 334
#     4  11  23  36  54  83 118 150 187 236 284 330
#     4   9  19  37  57  78 107 145 191 241 290 344
#
# _framework density 19.312161
#
# number of rings (size 3 to 8) (size 9 to 14) (size 15 to 20)
#    0.000    2.250    0.000    3.000    1.750    8.000 
#    0.000    1.875    0.000    0.000    0.000    0.000 
#    0.000    0.000    0.000    0.000    0.000    0.000 
#
# Total GULP energy -178442.970798 kJ/mol
# GULP energy per Si atom -5576.342837 kJ/mol
# Density = 1.926821 g / cm^3
# Si number density = 19.312161 Si / 1000 Ang^3
#
#
#
# Elastic Constant Matrix: (Units=GPa)
#
#
# Indices 1 2 3 4 5 6 
#
# 1 68.9929 18.6331 19.6769 0.0000 -24.7730 0.0000
# 2 18.6331 32.8900 13.3878 0.0000 -4.2438 0.0000
# 3 19.6769 13.3878 65.7729 0.0000 -8.7231 0.0000
# 4 0.0000 0.0000 0.0000 29.8508 0.0000 -1.9543
# 5 -24.7730 -4.2438 -8.7231 0.0000 32.2810 0.0000
# 6 0.0000 0.0000 0.0000 -1.9543 0.0000 31.7503
#
#
#
# Elastic Compliance Matrix: (Units=1/GPa)
#
#
# Indices 1 2 3 4 5 6 
#
# 1 0.023925 -0.010275 -0.002915 0.000000 0.016222 0.000000
# 2 -0.010275 0.037780 -0.005189 0.000000 -0.004321 0.000000
# 3 -0.002915 -0.005189 0.017367 0.000000 0.001774 0.000000
# 4 0.000000 0.000000 0.000000 0.033636 0.000000 0.002070
# 5 0.016222 -0.004321 0.001774 0.000000 0.043339 0.000000
# 6 0.000000 0.000000 0.000000 0.002070 0.000000 0.031623
#
#
# Mechanical properties :
#
#
# Convention : Reuss Voigt Hill
#
# Bulk Modulus (GPa) = 23.63203 30.11683 26.87443
# Shear Modulus (GPa) = 20.96150 26.50695 23.73422
#
# Velocity S-wave (km/s) = 3.29812 3.70882 3.50948
# Velocity P-wave (km/s) = 5.17367 5.82830 5.51071
#
# Compressibility (1/GPa) = 0.04231545
#
# Stress axis : x y z
#
# Youngs Moduli (GPa) = 41.79660 26.46901 57.57943
#
# Poissons Ratio (x) = 0.27196 0.16783
# Poissons Ratio (y) = 0.42945 0.29878
# Poissons Ratio (z) = 0.12183 0.13735
#
# Static dielectric constant tensor:
#      x y z
#    x 1.688990 0.000000 -0.006600 
#    y 0.000000 1.561070 0.000000 
#    z -0.006600 0.000000 1.764850 
# 
# From -- ./inp_files/72022.got.cif
#   From: 2010.05.17/outbox.cif.g08.bks.cpg/sg11_37_cif.got.tgz:72022.got - 2010.06.03 12:22:45.
