data_PCOD9161216
_publ_section_title
;
Structure prediction by ZEFSAII (Michael W. Deem and Ramdas Pophale) SiO2 
 PCOD9161216
Probable space group: P 21/M
;
_chemical_formula_sum "Si O2"
_cell_formula_units_Z 32
_cell_length_a 9.331115
_cell_length_b 7.443550
_cell_length_c 25.954249
_cell_angle_alpha 90.000000
_cell_angle_beta 57.365192
_cell_angle_gamma 90.000000
_cell_volume 1518.093928
_symmetry_space_group_name_H-M "P 21/M"
_symmetry_group_IT_number 11
_symmetry_cell_setting 'monoclinic'
loop_
_space_group_symop_operation_xyz
x,y,z
-x,1/2+y,-z
-x,-y,-z
x,1/2-y,z
loop_
_atom_site_type_symbol
_atom_site_label
_atom_site_fract_x
_atom_site_fract_y
_atom_site_fract_z
Si Si1 0.185861 0.969939 0.819387
Si Si2 0.533703 0.968865 0.699111
Si Si3 0.504725 0.965035 0.938417
Si Si4 0.868964 0.968865 0.699111
Si Si5 0.819975 0.034965 0.061583
Si Si6 0.065649 0.964437 0.565879
Si Si7 0.855978 0.969939 0.819387
Si Si8 0.736713 0.964437 0.565879
O O1 0.187049 0.750000 0.819423
O O2 0.355315 0.029528 0.756703
O O3 0.185594 0.030850 0.878616
O O4 0.015788 0.025777 0.822808
O O5 0.529037 0.750000 0.700364
O O6 0.692590 0.019876 0.704940
O O7 0.580318 0.026661 0.631689
O O8 0.505523 0.750000 0.931940
O O9 0.336717 0.034705 0.942189
O O10 0.678557 0.030850 0.878616
O O11 0.500000 0.000000 0.000000
O O12 0.869871 0.750000 0.700364
O O13 0.874577 0.029528 0.756703
O O14 0.024615 0.026661 0.631689
O O15 0.801343 0.250000 0.068060
O O16 0.000000 0.000000 0.000000
O O17 0.051388 0.750000 0.570142
O O18 0.905951 0.034211 0.562699
O O19 0.234730 1.000000 0.500000
O O20 0.854681 0.750000 0.819423
O O21 0.738187 0.750000 0.570142
#
# Coordination Sequence:
#
# PCOD9161216 Si02
#       8
#     4   4   4   4   4   4   4   4
#     4   9  16  26  42  64  88 114 147 186 223 260
#     4   8  13  22  37  57  80 106 139 179 219 257
#     4  10  20  33  50  72  97 124 153 187 228 272
#     4   8  13  22  37  57  80 106 139 179 219 257
#     4  10  20  33  50  72  97 124 153 187 228 272
#     4   8  13  21  35  56  80 105 134 170 211 254
#     4   9  16  26  42  64  88 114 147 186 223 260
#     4   8  13  21  35  56  80 105 134 170 211 254
#
# _framework density 21.079063000000001
#
# number of rings (size 3 to 8) (size 9 to 14) (size 15 to 20)
#    0.000    3.250    0.000    3.000    0.000    4.500 
#    0.000    0.000    0.000    2.250    0.000    3.500 
#    0.000    0.000    0.000    0.000    0.000    0.000 
#
# Total GULP energy -178403.764159 kJ/mol
# GULP energy per Si atom -5575.117630 kJ/mol
# Density = 2.103109 g / cm^3
# Si number density = 21.079063 Si / 1000 Ang^3
#
#
#
# Elastic Constant Matrix: (Units=GPa)
#
#
# Indices 1 2 3 4 5 6 
#
# 1 138.9579 5.1665 123.4064 0.0000 -2.6914 0.0000
# 2 5.1665 62.8516 5.2178 0.0000 -0.0039 0.0000
# 3 123.4064 5.2178 277.2594 0.0000 -7.9366 0.0000
# 4 0.0000 0.0000 0.0000 17.9843 0.0000 -1.3644
# 5 -2.6914 -0.0039 -7.9366 0.0000 25.6903 0.0000
# 6 0.0000 0.0000 0.0000 -1.3644 0.0000 0.2300
#
#
#
# Elastic Compliance Matrix: (Units=1/GPa)
#
#
# Indices 1 2 3 4 5 6 
#
# 1 0.011923 -0.000539 -0.005308 0.000000 -0.000391 0.000000
# 2 -0.000539 0.015960 -0.000062 0.000000 -0.000073 0.000000
# 3 -0.005308 -0.000062 0.006008 0.000000 0.001300 0.000000
# 4 0.000000 0.000000 0.000000 0.101108 0.000000 0.599804
# 5 -0.000391 -0.000073 0.001300 0.000000 0.039286 0.000000
# 6 0.000000 0.000000 0.000000 0.599804 0.000000 7.906235
#
#
# Mechanical properties :
#
#
# Convention : Reuss Voigt Hill
#
# Bulk Modulus (GPa) = 45.30799 82.96113 64.13456
# Shear Modulus (GPa) = 0.61731 31.79947 16.20839
#
# Velocity S-wave (km/s) = 0.54175 3.88826 2.77597
# Velocity P-wave (km/s) = 4.68319 7.72015 6.38486
#
# Compressibility (1/GPa) = 0.02207116
#
# Stress axis : x y z
#
# Youngs Moduli (GPa) = 83.87418 62.65656 166.45732
#
# Poissons Ratio (x) = 0.03380 0.88351
# Poissons Ratio (y) = 0.04525 0.01038
# Poissons Ratio (z) = 0.44518 0.00391
#
# Static dielectric constant tensor:
#      x y z
#    x 1.716370 0.000000 -0.004560 
#    y 0.000000 1.838680 0.000000 
#    z -0.004560 0.000000 1.775650 
# 
# From -- ./inp_files/27466.got.cif
#   From: 2010.05.17/outbox.cif.g08.bks.cpg/sg11_14_cif.got.tgz:27466.got - 2010.06.03 12:22:45.
