data_PCOD9161921
_publ_section_title
;
Structure prediction by ZEFSAII (Michael W. Deem and Ramdas Pophale) SiO2 
 PCOD9161921
Probable space group: P 21/M
;
_chemical_formula_sum "Si O2"
_cell_formula_units_Z 24
_cell_length_a 21.118435
_cell_length_b 8.552328
_cell_length_c 9.347656
_cell_angle_alpha 90.000000
_cell_angle_beta 48.103000
_cell_angle_gamma 90.000000
_cell_volume 1256.677848
_symmetry_space_group_name_H-M "P 21/M"
_symmetry_group_IT_number 11
_symmetry_cell_setting 'monoclinic'
loop_
_space_group_symop_operation_xyz
x,y,z
-x,1/2+y,-z
-x,-y,-z
x,1/2-y,z
loop_
_atom_site_type_symbol
_atom_site_label
_atom_site_fract_x
_atom_site_fract_y
_atom_site_fract_z
Si Si1 0.599976 0.563385 0.186627
Si Si2 0.080314 0.937844 0.966939
Si Si3 0.405396 0.939042 0.485973
Si Si4 0.079605 0.435880 0.290111
Si Si5 0.240235 0.563044 0.220094
Si Si6 0.753886 0.440290 0.460374
O O1 0.609202 0.750000 0.160160
O O2 0.613204 0.512899 0.331380
O O3 0.502203 0.520412 0.298258
O O4 0.669108 0.480418 0.984093
O O5 0.078728 0.750000 0.969699
O O6 0.166669 0.989760 0.756692
O O7 0.078284 0.997156 0.131984
O O8 0.000000 0.000000 0.000000
O O9 0.401668 0.750000 0.506743
O O10 0.334594 0.988954 0.478962
O O11 0.074098 0.250000 0.291604
O O12 0.165871 0.486511 0.239213
O O13 0.000000 0.500000 0.500000
O O14 0.228674 0.750000 0.233857
O O15 0.236305 0.508742 0.390729
O O16 0.753711 0.250000 0.462424
#
# Coordination Sequence:
#
# PCOD9161921 Si02
#       6
#     4   4   4   4   4   4
#     4  10  20  34  55  85 116 148 191 241 292 348
#     4  11  22  39  63  90 120 155 196 243 294 346
#     4   9  18  36  59  81 110 150 195 242 292 346
#     4  12  25  42  63  89 119 152 194 242 295 353
#     4  11  22  38  59  84 116 154 194 236 288 349
#     4   9  20  37  58  82 110 149 195 239 285 342
#
# _framework density 19.097974000000001
#
# number of rings (size 3 to 8) (size 9 to 14) (size 15 to 20)
#    0.000    1.667    0.000    5.000    0.000    4.000 
#    0.000    5.000    0.000    0.000    0.000    0.000 
#    0.000    0.000    0.000    0.000    0.000    0.000 
#
# Total GULP energy -134161.426316 kJ/mol
# GULP energy per Si atom -5590.059430 kJ/mol
# Density = 1.905451 g / cm^3
# Si number density = 19.097974 Si / 1000 Ang^3
#
#
#
# Elastic Constant Matrix: (Units=GPa)
#
#
# Indices 1 2 3 4 5 6 
#
# 1 182.3723 36.2718 90.0300 0.0000 13.0577 0.0000
# 2 36.2718 64.6556 37.2751 0.0000 2.4053 0.0000
# 3 90.0300 37.2751 163.4695 0.0000 7.6835 0.0000
# 4 0.0000 0.0000 0.0000 30.9824 0.0000 -1.8982
# 5 13.0577 2.4053 7.6835 0.0000 25.8757 0.0000
# 6 0.0000 0.0000 0.0000 -1.8982 0.0000 29.8961
#
#
#
# Elastic Compliance Matrix: (Units=1/GPa)
#
#
# Indices 1 2 3 4 5 6 
#
# 1 0.007972 -0.002203 -0.003761 0.000000 -0.002701 0.000000
# 2 -0.002203 0.018422 -0.003001 0.000000 0.000291 0.000000
# 3 -0.003761 -0.003001 0.008895 0.000000 -0.000464 0.000000
# 4 0.000000 0.000000 0.000000 0.032402 0.000000 0.002057
# 5 -0.002701 0.000291 -0.000464 0.000000 0.040120 0.000000
# 6 0.000000 0.000000 0.000000 0.002057 0.000000 0.033580
#
#
# Mechanical properties :
#
#
# Convention : Reuss Voigt Hill
#
# Bulk Modulus (GPa) = 57.61031 81.96126 69.78579
# Shear Modulus (GPa) = 30.28346 33.81221 32.04784
#
# Velocity S-wave (km/s) = 3.98639 4.21225 4.10088
# Velocity P-wave (km/s) = 7.17074 8.16497 7.68396
#
# Compressibility (1/GPa) = 0.01735800
#
# Stress axis : x y z
#
# Youngs Moduli (GPa) = 125.44684 54.28338 112.42604
#
# Poissons Ratio (x) = 0.11960 0.42282
# Poissons Ratio (y) = 0.27640 0.33737
# Poissons Ratio (z) = 0.47179 0.16290
#
# Static dielectric constant tensor:
#      x y z
#    x 1.640710 0.000000 -0.011130 
#    y 0.000000 1.652030 0.000000 
#    z -0.011130 0.000000 1.634270 
# 
# From -- ./inp_files/25755.got.cif
#   From: 2010.05.17/outbox.cif.g08.bks.cpg/sg11_13_cif.got.tgz:25755.got - 2010.06.03 12:22:45.
