data_PCOD9161862
_publ_section_title
;
Structure prediction by ZEFSAII (Michael W. Deem and Ramdas Pophale) SiO2 
 PCOD9161862
Probable space group: P 21/M
;
_chemical_formula_sum "Si O2"
_cell_formula_units_Z 32
_cell_length_a 20.353361
_cell_length_b 9.227463
_cell_length_c 26.262900
_cell_angle_alpha 90.000000
_cell_angle_beta 19.157079
_cell_angle_gamma 90.000000
_cell_volume 1618.622576
_symmetry_space_group_name_H-M "P 21/M"
_symmetry_group_IT_number 11
_symmetry_cell_setting 'monoclinic'
loop_
_space_group_symop_operation_xyz
x,y,z
-x,1/2+y,-z
-x,-y,-z
x,1/2-y,z
loop_
_atom_site_type_symbol
_atom_site_label
_atom_site_fract_x
_atom_site_fract_y
_atom_site_fract_z
Si Si1 0.204986 0.414155 0.197351
Si Si2 0.354671 0.914656 0.177831
Si Si3 0.461869 0.577374 0.748290
Si Si4 0.544749 0.422098 0.130407
Si Si5 0.055680 0.074511 0.012682
Si Si6 0.672406 0.582539 0.493831
Si Si7 0.351767 0.916845 0.644931
Si Si8 0.053396 0.423036 0.198720
O O1 0.154742 0.250000 0.249106
O O2 0.205481 0.515890 0.245967
O O3 0.077529 0.457000 0.241471
O O4 0.430286 0.411634 0.008796
O O5 0.301583 0.750000 0.229577
O O6 0.396334 0.008631 0.197492
O O7 0.417987 0.750000 0.774344
O O8 0.522095 0.553691 0.762615
O O9 0.264593 0.485662 0.880048
O O10 0.628185 0.540928 0.584415
O O11 0.563988 0.250000 0.107235
O O12 0.761800 0.497850 0.963841
O O13 0.057393 0.250000 0.006502
O O14 0.875440 0.032908 0.182985
O O15 0.000000 0.000000 0.000000
O O16 0.740747 0.750000 0.441545
O O17 0.459204 0.575151 0.621409
O O18 0.834933 0.484113 0.346528
O O19 0.347378 0.750000 0.632208
O O20 0.500000 0.000000 0.500000
O O21 0.069420 0.250000 0.179940
#
# Coordination Sequence:
#
# PCOD9161862 Si02
#       8
#     4   4   4   4   4   4   4   4
#     4   8  15  28  46  71 105 142 176 216 266 319
#     4   9  16  27  47  76 109 139 175 224 268 315
#     4  10  22  40  59  80 108 144 186 225 267 323
#     4  10  20  34  55  81 109 145 181 221 273 322
#     4  11  22  39  61  84 109 141 181 226 270 320
#     4  10  21  40  58  76 108 145 180 221 270 325
#     4  10  23  40  58  82 111 142 178 223 272 321
#     4  10  21  35  53  81 113 142 180 226 270 321
#
# _framework density 19.769895000000002
#
# number of rings (size 3 to 8) (size 9 to 14) (size 15 to 20)
#    0.000    2.250    1.250    2.250    1.750    6.500 
#    0.000    0.000    0.000    0.750    0.000    0.000 
#    0.000    0.000    0.000    0.000    0.000    0.000 
#
# Total GULP energy -178553.039071 kJ/mol
# GULP energy per Si atom -5579.782471 kJ/mol
# Density = 1.972490 g / cm^3
# Si number density = 19.769895 Si / 1000 Ang^3
#
#
#
# Elastic Constant Matrix: (Units=GPa)
#
#
# Indices 1 2 3 4 5 6 
#
# 1 52.1820 26.8822 -4.1183 0.0000 22.0204 0.0000
# 2 26.8822 48.2866 12.2224 0.0000 18.8020 0.0000
# 3 -4.1183 12.2224 37.9751 0.0000 18.1427 0.0000
# 4 0.0000 0.0000 0.0000 18.0668 0.0000 -1.6041
# 5 22.0204 18.8020 18.1427 0.0000 27.0460 0.0000
# 6 0.0000 0.0000 0.0000 -1.6041 0.0000 31.7272
#
#
#
# Elastic Compliance Matrix: (Units=1/GPa)
#
#
# Indices 1 2 3 4 5 6 
#
# 1 0.059501 -0.019076 0.043268 0.000000 -0.064208 0.000000
# 2 -0.019076 0.034517 -0.013442 0.000000 0.000553 0.000000
# 3 0.043268 -0.013442 0.070222 0.000000 -0.072989 0.000000
# 4 0.000000 0.000000 0.000000 0.055600 0.000000 0.002811
# 5 -0.064208 0.000553 -0.072989 0.000000 0.137829 0.000000
# 6 0.000000 0.000000 0.000000 0.002811 0.000000 0.031661
#
#
# Mechanical properties :
#
#
# Convention : Reuss Voigt Hill
#
# Bulk Modulus (GPa) = 5.38388 23.15736 14.27062
# Shear Modulus (GPa) = 11.63485 22.26516 16.95001
#
# Velocity S-wave (km/s) = 2.42856 3.35955 2.93126
# Velocity P-wave (km/s) = 3.25470 5.17568 4.32324
#
# Compressibility (1/GPa) = 0.18573967
#
# Stress axis : x y z
#
# Youngs Moduli (GPa) = 16.80647 28.97130 14.24046
#
# Poissons Ratio (x) = 0.55266 -0.61615
# Poissons Ratio (y) = 0.32060 0.19142
# Poissons Ratio (z) = -0.72718 0.38944
#
# Static dielectric constant tensor:
#      x y z
#    x 1.740700 0.000000 -0.000930 
#    y 0.000000 1.689540 0.000000 
#    z -0.000930 0.000000 1.672440 
# 
# From -- ./inp_files/72037.got.cif
#   From: 2010.05.17/outbox.cif.g08.bks.cpg/sg11_37_cif.got.tgz:72037.got - 2010.06.03 12:22:45.
