data_PCOD9161240
_publ_section_title
;
Structure prediction by ZEFSAII (Michael W. Deem and Ramdas Pophale) SiO2 
 PCOD9161240
Probable space group: P 21/M
;
_chemical_formula_sum "Si O2"
_cell_formula_units_Z 32
_cell_length_a 28.607898
_cell_length_b 8.891766
_cell_length_c 16.027157
_cell_angle_alpha 90.000000
_cell_angle_beta 27.155376
_cell_angle_gamma 90.000000
_cell_volume 1860.719607
_symmetry_space_group_name_H-M "P 21/M"
_symmetry_group_IT_number 11
_symmetry_cell_setting 'monoclinic'
loop_
_space_group_symop_operation_xyz
x,y,z
-x,1/2+y,-z
-x,-y,-z
x,1/2-y,z
loop_
_atom_site_type_symbol
_atom_site_label
_atom_site_fract_x
_atom_site_fract_y
_atom_site_fract_z
Si Si1 0.888869 0.427428 0.784541
Si Si2 0.146830 0.429668 0.814595
Si Si3 0.211707 0.429550 0.216605
Si Si4 0.047368 0.071221 0.794860
Si Si5 0.425020 0.070943 0.790277
Si Si6 0.329590 0.926945 0.779435
Si Si7 0.635997 0.570370 0.455475
Si Si8 0.087316 0.929185 0.555452
O O1 0.909958 0.250000 0.740249
O O2 0.860058 0.501515 0.741979
O O3 0.983998 0.507770 0.676566
O O4 0.787540 0.442880 0.002874
O O5 0.133780 0.250000 0.848683
O O6 0.114902 0.461495 0.769984
O O7 0.263061 0.469117 0.651913
O O8 0.066715 0.515435 0.000846
O O9 0.197915 0.250000 0.241323
O O10 0.179408 0.503241 0.354545
O O11 0.328106 0.461910 0.003570
O O12 0.046577 0.250000 0.781704
O O13 0.087212 0.987690 0.650059
O O14 0.431746 0.250000 0.769086
O O15 0.398968 0.995991 0.742521
O O16 0.531745 0.005160 0.652368
O O17 0.351976 0.750000 0.734089
O O18 0.345634 0.011523 0.667486
O O19 0.624727 0.750000 0.472922
O O20 0.088026 0.750000 0.551387
#
# Coordination Sequence:
#
# PCOD9161240 Si02
#       8
#     4   4   4   4   4   4   4   4
#     4  10  20  34  52  76 106 139 174 212 254 302
#     4   9  20  37  56  80 108 137 167 204 255 308
#     4  10  21  37  54  73 101 137 175 216 258 300
#     4  10  20  36  57  80 107 136 168 208 253 304
#     4  10  21  36  53  73 100 135 174 215 256 298
#     4  10  20  33  50  74 105 139 174 210 249 297
#     4  11  21  33  52  76 104 136 170 209 253 304
#     4  12  23  34  52  77 105 137 173 212 255 306
#
# _framework density 17.197647
#
# number of rings (size 3 to 8) (size 9 to 14) (size 15 to 20)
#    0.000    1.750    0.000    4.875    0.000    6.500 
#    0.000    0.000    0.000    0.750    0.000    0.000 
#    0.000    0.000    0.000    0.000    0.000    0.000 
#
# Total GULP energy -178847.458075 kJ/mol
# GULP energy per Si atom -5588.983065 kJ/mol
# Density = 1.715850 g / cm^3
# Si number density = 17.197647 Si / 1000 Ang^3
#
#
#
# Elastic Constant Matrix: (Units=GPa)
#
#
# Indices 1 2 3 4 5 6 
#
# 1 73.7447 47.2109 64.7195 0.0000 -4.5221 0.0000
# 2 47.2109 87.4103 55.4974 0.0000 1.8485 0.0000
# 3 64.7195 55.4974 90.9986 0.0000 -1.5045 0.0000
# 4 0.0000 0.0000 0.0000 31.8148 0.0000 1.0426
# 5 -4.5221 1.8485 -1.5045 0.0000 32.0500 0.0000
# 6 0.0000 0.0000 0.0000 1.0426 0.0000 26.6145
#
#
#
# Elastic Compliance Matrix: (Units=1/GPa)
#
#
# Indices 1 2 3 4 5 6 
#
# 1 0.038268 -0.005769 -0.023622 0.000000 0.004623 0.000000
# 2 -0.005769 0.019622 -0.007903 0.000000 -0.002317 0.000000
# 3 -0.023622 -0.007903 0.032587 0.000000 -0.001347 0.000000
# 4 0.000000 0.000000 0.000000 0.031472 0.000000 -0.001233
# 5 0.004623 -0.002317 -0.001347 0.000000 0.031924 0.000000
# 6 0.000000 0.000000 0.000000 -0.001233 0.000000 0.037622
#
#
# Mechanical properties :
#
#
# Convention : Reuss Voigt Hill
#
# Bulk Modulus (GPa) = 62.93135 65.22324 64.07730
# Shear Modulus (GPa) = 18.42437 23.74424 21.08431
#
# Velocity S-wave (km/s) = 3.27667 3.71977 3.50523
# Velocity P-wave (km/s) = 7.14058 7.51378 7.32955
#
# Compressibility (1/GPa) = 0.01589033
#
# Stress axis : x y z
#
# Youngs Moduli (GPa) = 26.13140 50.96192 30.68713
#
# Poissons Ratio (x) = 0.29399 0.72490
# Poissons Ratio (y) = 0.15075 0.24251
# Poissons Ratio (z) = 0.61728 0.40274
#
# Static dielectric constant tensor:
#      x y z
#    x 1.558370 0.000000 -0.006840 
#    y 0.000000 1.570250 0.000000 
#    z -0.006840 0.000000 1.592210 
# 
# From -- ./inp_files/51626.got.cif
#   From: 2010.05.17/outbox.cif.g08.bks.cpg/sg11_26_cif.got.tgz:51626.got - 2010.06.03 12:22:45.
