data_PCOD9161132
_publ_section_title
;
Structure prediction by ZEFSAII (Michael W. Deem and Ramdas Pophale) SiO2 
 PCOD9161132
Probable space group: P 21/M
;
_chemical_formula_sum "Si O2"
_cell_formula_units_Z 32
_cell_length_a 19.889322
_cell_length_b 7.516478
_cell_length_c 11.358856
_cell_angle_alpha 90.000000
_cell_angle_beta 57.749889
_cell_angle_gamma 90.000000
_cell_volume 1436.147512
_symmetry_space_group_name_H-M "P 21/M"
_symmetry_group_IT_number 11
_symmetry_cell_setting 'monoclinic'
loop_
_space_group_symop_operation_xyz
x,y,z
-x,1/2+y,-z
-x,-y,-z
x,1/2-y,z
loop_
_atom_site_type_symbol
_atom_site_label
_atom_site_fract_x
_atom_site_fract_y
_atom_site_fract_z
Si Si1 0.403390 0.531530 0.330523
Si Si2 0.592698 0.462332 0.415342
Si Si3 0.829225 0.038797 0.832503
Si Si4 0.554919 0.960768 0.062781
Si Si5 0.980451 0.957943 0.823571
Si Si6 0.703286 0.045688 0.783683
Si Si7 0.262307 0.532587 0.851203
Si Si8 0.117342 0.964605 0.844867
O O1 0.405338 0.750000 0.322659
O O2 0.377980 0.476387 0.483705
O O3 0.495109 0.475244 0.220507
O O4 0.344445 0.466973 0.282592
O O5 0.500000 0.500000 0.500000
O O6 0.601317 0.250000 0.405620
O O7 0.648794 0.530175 0.258383
O O8 0.815503 0.250000 0.842110
O O9 0.785204 0.967242 0.757398
O O10 0.922510 0.019302 0.773353
O O11 0.780702 0.966759 0.990956
O O12 0.567184 0.750000 0.062361
O O13 0.500000 0.000000 0.000000
O O14 0.639723 0.043539 0.951600
O O15 0.990484 0.750000 0.794240
O O16 0.066980 0.032930 0.780166
O O17 0.930514 0.988145 0.990831
O O18 0.718447 0.250000 0.735528
O O19 0.261021 0.750000 0.859436
O O20 0.206686 0.481082 0.792026
O O21 0.117457 0.750000 0.837016
#
# Coordination Sequence:
#
# PCOD9161132 Si02
#       8
#     4   4   4   4   4   4   4   4
#     4   8  16  30  44  60  81 107 139 179 218 247
#     4  10  20  33  47  62  84 112 145 181 216 250
#     4   9  17  28  42  62  89 115 140 171 209 259
#     4   9  16  27  42  60  81 105 136 175 217 254
#     4   9  15  23  39  64  89 112 136 170 213 255
#     4   9  17  29  45  62  83 111 142 175 214 256
#     4   8  15  28  44  61  81 111 145 174 205 247
#     4   8  14  26  42  59  84 114 145 173 203 251
#
# _framework density 22.281834
#
# number of rings (size 3 to 8) (size 9 to 14) (size 15 to 20)
#    0.000    3.250    0.000    2.250    1.750    1.000 
#    0.000    5.000    0.000    0.000    0.000    0.875 
#    0.000    0.000    0.000    0.000    0.000    0.000 
#
# Total GULP energy -178169.844934 kJ/mol
# GULP energy per Si atom -5567.807654 kJ/mol
# Density = 2.223112 g / cm^3
# Si number density = 22.281834 Si / 1000 Ang^3
#
#
#
# Elastic Constant Matrix: (Units=GPa)
#
#
# Indices 1 2 3 4 5 6 
#
# 1 150.9656 0.4998 -7.6633 0.0000 10.3584 0.0000
# 2 0.4998 58.5852 0.5280 0.0000 3.5915 0.0000
# 3 -7.6633 0.5280 16.0542 0.0000 5.0122 0.0000
# 4 0.0000 0.0000 0.0000 3.9590 0.0000 -1.5030
# 5 10.3584 3.5915 5.0122 0.0000 21.1936 0.0000
# 6 0.0000 0.0000 0.0000 -1.5030 0.0000 16.6297
#
#
#
# Elastic Compliance Matrix: (Units=1/GPa)
#
#
# Indices 1 2 3 4 5 6 
#
# 1 0.007195 0.000183 0.004898 0.000000 -0.004706 0.000000
# 2 0.000183 0.017255 0.000497 0.000000 -0.003131 0.000000
# 3 0.004898 0.000497 0.070596 0.000000 -0.019174 0.000000
# 4 0.000000 0.000000 0.000000 0.261562 0.000000 0.023640
# 5 -0.004706 -0.003131 -0.019174 0.000000 0.054549 0.000000
# 6 0.000000 0.000000 0.000000 0.023640 0.000000 0.062270
#
#
# Mechanical properties :
#
#
# Convention : Reuss Voigt Hill
#
# Bulk Modulus (GPa) = 9.41600 23.59268 16.50434
# Shear Modulus (GPa) = 10.04677 23.83917 16.94297
#
# Velocity S-wave (km/s) = 2.12573 3.27447 2.76052
# Velocity P-wave (km/s) = 3.20313 4.99074 4.19330
#
# Compressibility (1/GPa) = 0.10620220
#
# Stress axis : x y z
#
# Youngs Moduli (GPa) = 138.98698 57.95403 14.16502
#
# Poissons Ratio (x) = -0.01060 -0.06937
# Poissons Ratio (y) = -0.02543 -0.00705
# Poissons Ratio (z) = -0.68070 -0.02882
#
# Static dielectric constant tensor:
#      x y z
#    x 1.894700 0.000000 0.001250 
#    y 0.000000 1.907000 0.000000 
#    z 0.001250 0.000000 1.855570 
# 
# From -- ./inp_files/42436.got.cif
#   From: 2010.05.17/outbox.cif.g08.bks.cpg/sg11_22_cif.got.tgz:42436.got - 2010.06.03 12:22:45.
