data_PCOD9161360
_publ_section_title
;
Structure prediction by ZEFSAII (Michael W. Deem and Ramdas Pophale) SiO2 
 PCOD9161360
Probable space group: P 21/M
;
_chemical_formula_sum "Si O2"
_cell_formula_units_Z 28
_cell_length_a 26.844794
_cell_length_b 8.667842
_cell_length_c 9.839867
_cell_angle_alpha 90.000000
_cell_angle_beta 137.320644
_cell_angle_gamma 90.000000
_cell_volume 1552.110415
_symmetry_space_group_name_H-M "P 21/M"
_symmetry_group_IT_number 11
_symmetry_cell_setting 'monoclinic'
loop_
_space_group_symop_operation_xyz
x,y,z
-x,1/2+y,-z
-x,-y,-z
x,1/2-y,z
loop_
_atom_site_type_symbol
_atom_site_label
_atom_site_fract_x
_atom_site_fract_y
_atom_site_fract_z
Si Si1 0.712401 0.064219 0.076704
Si Si2 0.419495 0.935802 0.995316
Si Si3 0.583635 0.933898 0.311941
Si Si4 0.122444 0.935881 0.895123
Si Si5 0.292062 0.566537 0.248395
Si Si6 0.998111 0.434649 0.843364
Si Si7 0.126502 0.434033 0.600913
O O1 0.722781 0.250000 0.112100
O O2 0.789639 0.982836 0.261126
O O3 0.645622 0.011319 0.037174
O O4 0.693729 0.035195 0.881846
O O5 0.417840 0.750000 0.993683
O O6 0.502493 0.984032 0.201176
O O7 0.406615 0.992811 0.816846
O O8 0.582553 0.750000 0.295754
O O9 0.649230 0.983115 0.540747
O O10 0.116123 0.750000 0.878048
O O11 0.066935 0.004591 0.893203
O O12 0.108146 0.000128 0.714608
O O13 0.206827 0.975840 0.101555
O O14 0.298596 0.750000 0.283829
O O15 0.998431 0.250000 0.848268
O O16 0.927022 0.494036 0.618562
O O17 0.000000 0.500000 0.000000
O O18 0.118705 0.250000 0.587031
#
# Coordination Sequence:
#
# PCOD9161360 Si02
#       7
#     4   4   4   4   4   4   4
#     4   9  19  37  58  80 107 142 185 228 273 326
#     4   9  19  36  55  75 105 145 184 224 273 326
#     4  10  20  33  52  79 109 142 182 225 270 325
#     4  10  21  40  62  84 112 149 188 225 272 329
#     4   9  19  35  56  80 108 142 178 220 272 325
#     4  12  25  41  60  85 115 147 185 229 276 326
#     4  11  22  38  60  86 114 146 184 227 277 330
#
# _framework density 18.039954000000002
#
# number of rings (size 3 to 8) (size 9 to 14) (size 15 to 20)
#    0.000    2.000    0.000    4.714    0.000    5.714 
#    0.000    1.429    0.000    0.000    0.000    0.000 
#    0.000    0.000    0.000    0.000    0.000    0.000 
#
# Total GULP energy -156356.259557 kJ/mol
# GULP energy per Si atom -5584.152127 kJ/mol
# Density = 1.799889 g / cm^3
# Si number density = 18.039954 Si / 1000 Ang^3
#
#
#
# Elastic Constant Matrix: (Units=GPa)
#
#
# Indices 1 2 3 4 5 6 
#
# 1 302.8849 93.1809 84.4916 0.0000 14.7666 0.0000
# 2 93.1809 88.1487 53.5116 0.0000 4.3658 0.0000
# 3 84.4916 53.5116 130.3148 0.0000 3.7537 0.0000
# 4 0.0000 0.0000 0.0000 26.3487 0.0000 -0.5849
# 5 14.7666 4.3658 3.7537 0.0000 10.3465 0.0000
# 6 0.0000 0.0000 0.0000 -0.5849 0.0000 29.6946
#
#
#
# Elastic Compliance Matrix: (Units=1/GPa)
#
#
# Indices 1 2 3 4 5 6 
#
# 1 0.005352 -0.004508 -0.001469 0.000000 -0.005203 0.000000
# 2 -0.004508 0.019089 -0.004920 0.000000 0.000164 0.000000
# 3 -0.001469 -0.004920 0.010638 0.000000 0.000313 0.000000
# 4 0.000000 0.000000 0.000000 0.037969 0.000000 0.000748
# 5 -0.005203 0.000164 0.000313 0.000000 0.103894 0.000000
# 6 0.000000 0.000000 0.000000 0.000748 0.000000 0.033691
#
#
# Mechanical properties :
#
#
# Convention : Reuss Voigt Hill
#
# Bulk Modulus (GPa) = 75.28134 109.30185 92.29160
# Shear Modulus (GPa) = 21.11000 32.62224 26.86612
#
# Velocity S-wave (km/s) = 3.42450 4.25706 3.86328
# Velocity P-wave (km/s) = 7.58005 9.21324 8.43626
#
# Compressibility (1/GPa) = 0.01328350
#
# Stress axis : x y z
#
# Youngs Moduli (GPa) = 186.85016 52.38742 94.00621
#
# Poissons Ratio (x) = 0.23616 0.13809
# Poissons Ratio (y) = 0.84231 0.46254
# Poissons Ratio (z) = 0.27448 0.25776
#
# Static dielectric constant tensor:
#      x y z
#    x 1.609420 0.000000 0.021020 
#    y 0.000000 1.617120 0.000000 
#    z 0.021020 0.000000 1.588420 
# 
# From -- ./inp_files/28404.got.cif
#   From: 2010.05.17/outbox.cif.g08.bks.cpg/sg11_15_cif.got.tgz:28404.got - 2010.06.03 12:22:45.
