data_PCOD9161001
_publ_section_title
;
Structure prediction by ZEFSAII (Michael W. Deem and Ramdas Pophale) SiO2 
 PCOD9161001
Probable space group: P 21/M
;
_chemical_formula_sum "Si O2"
_cell_formula_units_Z 32
_cell_length_a 14.928794
_cell_length_b 7.735773
_cell_length_c 17.366195
_cell_angle_alpha 90.000000
_cell_angle_beta 114.610759
_cell_angle_gamma 90.000000
_cell_volume 1823.360087
_symmetry_space_group_name_H-M "P 21/M"
_symmetry_group_IT_number 11
_symmetry_cell_setting 'monoclinic'
loop_
_space_group_symop_operation_xyz
x,y,z
-x,1/2+y,-z
-x,-y,-z
x,1/2-y,z
loop_
_atom_site_type_symbol
_atom_site_label
_atom_site_fract_x
_atom_site_fract_y
_atom_site_fract_z
Si Si1 0.445166 0.457482 0.096999
Si Si2 0.683598 0.051670 0.340080
Si Si3 0.599657 0.541998 0.582862
Si Si4 0.457447 0.038718 0.270809
Si Si5 0.990447 0.456720 0.587506
Si Si6 0.651130 0.540588 0.093709
Si Si7 0.769996 0.954790 0.530950
Si Si8 0.179246 0.446933 0.743408
O O1 0.435690 0.250000 0.094352
O O2 0.419882 0.520269 0.173687
O O3 0.558904 0.495992 0.116033
O O4 0.379763 0.522840 0.002227
O O5 0.679577 0.250000 0.310818
O O6 0.572706 0.990713 0.314232
O O7 0.739455 0.044370 0.440748
O O8 0.743921 0.944855 0.299834
O O9 0.500000 0.500000 0.500000
O O10 0.604889 0.750000 0.588693
O O11 0.591688 0.477029 0.667772
O O12 0.696050 0.482192 0.570998
O O13 0.453298 0.250000 0.270017
O O14 0.995200 0.250000 0.592670
O O15 0.885673 0.515897 0.582812
O O16 0.000000 0.500000 0.500000
O O17 0.080986 0.527446 0.671396
O O18 0.656350 0.750000 0.093884
O O19 0.754722 0.474636 0.164462
O O20 0.753223 0.750000 0.514791
O O21 0.154806 0.250000 0.757472
#
# Coordination Sequence:
#
# PCOD9161001 Si02
#       8
#     4   4   4   4   4   4   4   4
#     4   9  16  28  45  66  92 121 150 182 223 274
#     4  11  19  28  47  68  93 126 158 189 224 270
#     4  10  20  33  48  67  92 122 156 194 230 272
#     4   9  17  29  45  68  93 121 156 188 222 269
#     4  11  22  34  49  67  92 123 159 196 232 277
#     4   9  17  28  44  66  93 120 148 184 227 273
#     4  11  22  34  47  66  94 124 158 197 234 271
#     4  10  20  32  45  66  94 123 155 191 230 272
#
# _framework density 17.550017
#
# number of rings (size 3 to 8) (size 9 to 14) (size 15 to 20)
#    0.000    2.000    3.750    1.125    0.000    1.000 
#    0.000    0.625    0.000    0.000    0.000    0.875 
#    0.000    0.000    0.000    0.000    0.000    0.000 
#
# Total GULP energy -178448.706885 kJ/mol
# GULP energy per Si atom -5576.522090 kJ/mol
# Density = 1.751007 g / cm^3
# Si number density = 17.550017 Si / 1000 Ang^3
#
#
#
# Elastic Constant Matrix: (Units=GPa)
#
#
# Indices 1 2 3 4 5 6 
#
# 1 101.3592 -0.6183 59.4101 0.0000 7.9202 0.0000
# 2 -0.6183 34.6568 -2.3047 0.0000 -0.1042 0.0000
# 3 59.4101 -2.3047 143.4897 0.0000 8.5853 0.0000
# 4 0.0000 0.0000 0.0000 7.7811 0.0000 5.2407
# 5 7.9202 -0.1042 8.5853 0.0000 29.0541 0.0000
# 6 0.0000 0.0000 0.0000 5.2407 0.0000 9.6726
#
#
#
# Elastic Compliance Matrix: (Units=1/GPa)
#
#
# Indices 1 2 3 4 5 6 
#
# 1 0.013142 -0.000126 -0.005323 0.000000 -0.002010 0.000000
# 2 -0.000126 0.028886 0.000517 0.000000 -0.000015 0.000000
# 3 -0.005323 0.000517 0.009258 0.000000 -0.001283 0.000000
# 4 0.000000 0.000000 0.000000 0.202361 0.000000 -0.109641
# 5 -0.002010 -0.000015 -0.001283 0.000000 0.035346 0.000000
# 6 0.000000 0.000000 0.000000 -0.109641 0.000000 0.162789
#
#
# Mechanical properties :
#
#
# Convention : Reuss Voigt Hill
#
# Bulk Modulus (GPa) = 24.14109 43.60889 33.87499
# Shear Modulus (GPa) = 10.51626 24.16946 17.34286
#
# Velocity S-wave (km/s) = 2.45055 3.71506 3.14697
# Velocity P-wave (km/s) = 4.66823 6.58062 5.70512
#
# Compressibility (1/GPa) = 0.04142316
#
# Stress axis : x y z
#
# Youngs Moduli (GPa) = 76.09020 34.61831 108.01253
#
# Poissons Ratio (x) = 0.00435 0.57497
# Poissons Ratio (y) = 0.00955 -0.05583
# Poissons Ratio (z) = 0.40504 -0.01789
#
# Static dielectric constant tensor:
#      x y z
#    x 1.586120 0.000000 0.012830 
#    y 0.000000 1.685010 0.000000 
#    z 0.012830 0.000000 1.642230 
# 
# From -- ./inp_files/59881.got.cif
#   From: 2010.05.17/outbox.cif.g08.bks.cpg/sg11_30_cif.got.tgz:59881.got - 2010.06.03 12:22:45.
