data_PCOD9161620
_publ_section_title
;
Structure prediction by ZEFSAII (Michael W. Deem and Ramdas Pophale) SiO2 
 PCOD9161620
Probable space group: P 21/M
;
_chemical_formula_sum "Si O2"
_cell_formula_units_Z 28
_cell_length_a 12.852328
_cell_length_b 8.920784
_cell_length_c 15.310737
_cell_angle_alpha 90.000000
_cell_angle_beta 105.381111
_cell_angle_gamma 90.000000
_cell_volume 1692.545472
_symmetry_space_group_name_H-M "P 21/M"
_symmetry_group_IT_number 11
_symmetry_cell_setting 'monoclinic'
loop_
_space_group_symop_operation_xyz
x,y,z
-x,1/2+y,-z
-x,-y,-z
x,1/2-y,z
loop_
_atom_site_type_symbol
_atom_site_label
_atom_site_fract_x
_atom_site_fract_y
_atom_site_fract_z
Si Si1 0.892072 0.929086 0.282650
Si Si2 0.849787 0.071404 0.899609
Si Si3 0.294275 0.429346 0.271341
Si Si4 0.242689 0.930295 0.592543
Si Si5 0.860195 0.070260 0.616884
Si Si6 0.517118 0.430449 0.408456
Si Si7 0.075663 0.928792 0.892017
O O1 0.884391 0.750000 0.274965
O O2 0.014916 0.967094 0.338978
O O3 0.811128 0.991540 0.336936
O O4 0.875043 0.001988 0.184181
O O5 0.852876 0.250000 0.887336
O O6 0.748628 0.002020 0.827210
O O7 0.857241 0.040165 0.004639
O O8 0.957825 0.000876 0.881488
O O9 0.286925 0.250000 0.264149
O O10 0.215631 0.487907 0.330515
O O11 0.415891 0.471519 0.325161
O O12 0.238199 0.750000 0.602757
O O13 0.177386 0.967374 0.489373
O O14 0.366972 0.974621 0.604299
O O15 0.846975 0.250000 0.625616
O O16 0.500000 0.500000 0.500000
O O17 0.517682 0.250000 0.417833
O O18 0.064040 0.750000 0.880734
#
# Coordination Sequence:
#
# PCOD9161620 Si02
#       7
#     4   4   4   4   4   4   4
#     4  11  22  34  52  80 111 142 179 219 264 319
#     4  10  20  34  53  79 109 140 175 216 266 320
#     4  11  21  32  53  82 110 140 178 221 267 314
#     4  10  21  37  54  73 106 148 184 218 264 314
#     4  10  20  34  52  76 108 145 177 214 263 316
#     4  10  21  36  55  79 105 140 183 227 265 308
#     4  10  20  34  54  79 107 140 176 216 265 319
#
# _framework density 16.543130000000001
#
# number of rings (size 3 to 8) (size 9 to 14) (size 15 to 20)
#    0.000    1.714    2.857    2.143    0.000    4.000 
#    0.000    0.000    0.000    0.857    0.000    0.000 
#    0.000    0.000    0.000    0.000    0.000    0.000 
#
# Total GULP energy -156367.595759 kJ/mol
# GULP energy per Si atom -5584.556991 kJ/mol
# Density = 1.650548 g / cm^3
# Si number density = 16.543130 Si / 1000 Ang^3
#
#
#
# Elastic Constant Matrix: (Units=GPa)
#
#
# Indices 1 2 3 4 5 6 
#
# 1 109.9495 45.9613 78.7793 0.0000 -6.3012 0.0000
# 2 45.9613 45.6130 60.2216 0.0000 -1.6087 0.0000
# 3 78.7793 60.2216 152.5501 0.0000 1.9798 0.0000
# 4 0.0000 0.0000 0.0000 30.2998 0.0000 -4.4152
# 5 -6.3012 -1.6087 1.9798 0.0000 24.2335 0.0000
# 6 0.0000 0.0000 0.0000 -4.4152 0.0000 19.3346
#
#
#
# Elastic Compliance Matrix: (Units=1/GPa)
#
#
# Indices 1 2 3 4 5 6 
#
# 1 0.017302 -0.011323 -0.004518 0.000000 0.004116 0.000000
# 2 -0.011323 0.053699 -0.015376 0.000000 0.001877 0.000000
# 3 -0.004518 -0.015376 0.015003 0.000000 -0.003421 0.000000
# 4 0.000000 0.000000 0.000000 0.034140 0.000000 0.007796
# 5 0.004116 0.001877 -0.003421 0.000000 0.042740 0.000000
# 6 0.000000 0.000000 0.000000 0.007796 0.000000 0.053501
#
#
# Mechanical properties :
#
#
# Convention : Reuss Voigt Hill
#
# Bulk Modulus (GPa) = 42.42752 75.33744 58.88248
# Shear Modulus (GPa) = 17.44138 22.98361 20.21249
#
# Velocity S-wave (km/s) = 3.25052 3.73139 3.49923
# Velocity P-wave (km/s) = 6.30794 8.01270 7.21087
#
# Compressibility (1/GPa) = 0.02356961
#
# Stress axis : x y z
#
# Youngs Moduli (GPa) = 57.79766 18.62215 66.65489
#
# Poissons Ratio (x) = 0.21087 0.30116
# Poissons Ratio (y) = 0.65446 1.02485
# Poissons Ratio (z) = 0.26114 0.28633
#
# Static dielectric constant tensor:
#      x y z
#    x 1.527970 0.000000 0.016500 
#    y 0.000000 1.551870 0.000000 
#    z 0.016500 0.000000 1.557980 
# 
# From -- ./inp_files/37035.got.cif
#   From: 2010.05.17/outbox.cif.g08.bks.cpg/sg11_19_cif.got.tgz:37035.got - 2010.06.03 12:22:45.
