data_PCOD9161981
_publ_section_title
;
Structure prediction by ZEFSAII (Michael W. Deem and Ramdas Pophale) SiO2 
 PCOD9161981
Probable space group: P 21/M
;
_chemical_formula_sum "Si O2"
_cell_formula_units_Z 28
_cell_length_a 12.684987
_cell_length_b 8.717399
_cell_length_c 17.030588
_cell_angle_alpha 90.000000
_cell_angle_beta 60.017145
_cell_angle_gamma 90.000000
_cell_volume 1631.218844
_symmetry_space_group_name_H-M "P 21/M"
_symmetry_group_IT_number 11
_symmetry_cell_setting 'monoclinic'
loop_
_space_group_symop_operation_xyz
x,y,z
-x,1/2+y,-z
-x,-y,-z
x,1/2-y,z
loop_
_atom_site_type_symbol
_atom_site_label
_atom_site_fract_x
_atom_site_fract_y
_atom_site_fract_z
Si Si1 0.690943 0.067101 0.899743
Si Si2 0.492433 0.932325 0.719106
Si Si3 0.562805 0.932994 0.095440
Si Si4 0.847172 0.566733 0.409472
Si Si5 0.762932 0.066547 0.606524
Si Si6 0.614721 0.067051 0.409963
Si Si7 0.109127 0.433078 0.285814
O O1 0.707892 0.250000 0.895759
O O2 0.572448 0.035468 0.889208
O O3 0.805802 0.987088 0.817308
O O4 0.656268 0.003503 0.998114
O O5 0.515178 0.750000 0.716485
O O6 0.411762 0.959928 0.671954
O O7 0.431506 0.992804 0.821187
O O8 0.621964 0.015991 0.660618
O O9 0.577335 0.750000 0.094259
O O10 0.849678 0.750000 0.413492
O O11 0.822721 0.497958 0.505064
O O12 0.736033 0.511879 0.396549
O O13 0.974774 0.502953 0.330936
O O14 0.771571 0.250000 0.605258
O O15 0.829085 0.997200 0.657779
O O16 0.621996 0.250000 0.420754
O O17 0.500000 0.000000 0.500000
O O18 0.103657 0.250000 0.291330
#
# Coordination Sequence:
#
# PCOD9161981 Si02
#       7
#     4   4   4   4   4   4   4
#     4  10  20  35  56  84 118 152 189 234 285 343
#     4  11  22  36  58  86 118 153 190 237 289 341
#     4  10  20  34  56  85 117 152 190 235 286 340
#     4  12  25  41  59  82 115 155 199 240 287 342
#     4  12  23  37  57  84 118 154 193 235 287 345
#     4  11  23  39  60  85 115 152 197 241 288 337
#     4  12  24  39  59  84 118 155 193 236 289 348
#
# _framework density 17.165078000000001
#
# number of rings (size 3 to 8) (size 9 to 14) (size 15 to 20)
#    0.000    0.857    2.857    6.000    0.000    2.857 
#    0.000    0.000    0.000    0.857    0.000    0.000 
#    0.000    0.000    0.000    0.000    0.000    0.000 
#
# Total GULP energy -156622.152972 kJ/mol
# GULP energy per Si atom -5593.648320 kJ/mol
# Density = 1.712601 g / cm^3
# Si number density = 17.165078 Si / 1000 Ang^3
#
#
#
# Elastic Constant Matrix: (Units=GPa)
#
#
# Indices 1 2 3 4 5 6 
#
# 1 77.6826 45.9873 60.9848 0.0000 -22.5414 0.0000
# 2 45.9873 113.5130 70.2904 0.0000 -3.8792 0.0000
# 3 60.9848 70.2904 149.3702 0.0000 -3.7467 0.0000
# 4 0.0000 0.0000 0.0000 33.6157 0.0000 -2.7727
# 5 -22.5414 -3.8792 -3.7467 0.0000 22.0146 0.0000
# 6 0.0000 0.0000 0.0000 -2.7727 0.0000 26.1741
#
#
#
# Elastic Compliance Matrix: (Units=1/GPa)
#
#
# Indices 1 2 3 4 5 6 
#
# 1 0.033624 -0.006396 -0.009925 0.000000 0.031613 0.000000
# 2 -0.006396 0.013680 -0.003947 0.000000 -0.004810 0.000000
# 3 -0.009925 -0.003947 0.012385 0.000000 -0.008751 0.000000
# 4 0.000000 0.000000 0.000000 0.030010 0.000000 0.003179
# 5 0.031613 -0.004810 -0.008751 0.000000 0.075457 0.000000
# 6 0.000000 0.000000 0.000000 0.003179 0.000000 0.038543
#
#
# Mechanical properties :
#
#
# Convention : Reuss Voigt Hill
#
# Bulk Modulus (GPa) = 52.21066 77.23230 64.72148
# Shear Modulus (GPa) = 19.95054 27.24776 23.59915
#
# Velocity S-wave (km/s) = 3.41291 3.98853 3.71190
# Velocity P-wave (km/s) = 6.78332 8.14265 7.49387
#
# Compressibility (1/GPa) = 0.01915318
#
# Stress axis : x y z
#
# Youngs Moduli (GPa) = 29.74055 73.09711 80.74226
#
# Poissons Ratio (x) = 0.46750 0.80140
# Poissons Ratio (y) = 0.19021 0.31870
# Poissons Ratio (z) = 0.29519 0.28853
#
# Static dielectric constant tensor:
#      x y z
#    x 1.557290 0.000000 0.003240 
#    y 0.000000 1.570460 0.000000 
#    z 0.003240 0.000000 1.565500 
# 
# From -- ./inp_files/49091.got.cif
#   From: 2010.05.17/outbox.cif.g08.bks.cpg/sg11_25_cif.got.tgz:49091.got - 2010.06.03 12:22:45.
