data_PCOD9161412
_publ_section_title
;
Structure prediction by ZEFSAII (Michael W. Deem and Ramdas Pophale) SiO2 
 PCOD9161412
Probable space group: P 21/M
;
_chemical_formula_sum "Si O2"
_cell_formula_units_Z 32
_cell_length_a 15.322049
_cell_length_b 18.083491
_cell_length_c 13.171320
_cell_angle_alpha 90.000000
_cell_angle_beta 30.724304
_cell_angle_gamma 90.000000
_cell_volume 1864.536083
_symmetry_space_group_name_H-M "P 21/M"
_symmetry_group_IT_number 11
_symmetry_cell_setting 'monoclinic'
loop_
_space_group_symop_operation_xyz
x,y,z
-x,1/2+y,-z
-x,-y,-z
x,1/2-y,z
loop_
_atom_site_type_symbol
_atom_site_label
_atom_site_fract_x
_atom_site_fract_y
_atom_site_fract_z
Si Si1 0.794249 0.835641 0.114789
Si Si2 0.694281 0.963673 0.065748
Si Si3 0.694454 0.618985 0.440500
Si Si4 0.694455 0.118985 0.170591
Si Si5 0.999999 0.668655 0.275859
Si Si6 0.694278 0.036327 0.545696
Si Si7 0.000002 0.012688 0.619284
Si Si8 0.205753 0.835641 0.703284
O O1 0.745477 0.750000 0.150061
O O2 0.726462 0.888463 0.094318
O O3 0.727576 0.863752 0.290095
O O4 0.000001 0.840331 0.910472
O O5 0.500002 0.966283 0.221469
O O6 0.714562 0.032005 0.124653
O O7 0.834086 0.977447 0.839440
O O8 0.499999 0.640092 0.660905
O O9 0.834850 0.659549 0.368630
O O10 0.714562 0.532006 0.446224
O O11 0.727575 0.136249 0.254755
O O12 0.834853 0.159548 0.961669
O O13 1.000000 0.750000 0.322930
O O14 0.999999 0.599862 0.352578
O O15 0.834080 0.022553 0.492396
O O16 0.726460 0.111537 0.452762
O O17 0.000000 0.000000 0.500000
O O18 0.254525 0.750000 0.641012
#
# Coordination Sequence:
#
# PCOD9161412 Si02
#       8
#     4   4   4   4   4   4   4   4
#     4  11  21  32  50  80 116 151 182 212 254 310
#     4  10  21  37  57  79 105 142 183 221 266 321
#     4  10  20  33  53  80 111 147 181 212 253 313
#     4  10  20  33  53  80 111 147 181 212 253 313
#     4  10  20  35  55  81 109 137 174 221 271 318
#     4  10  21  37  57  79 105 142 183 221 266 321
#     4  10  22  41  61  79 103 135 178 231 283 320
#     4  11  21  32  50  80 116 151 182 212 254 310
#
# _framework density 17.162445999999999
#
# number of rings (size 3 to 8) (size 9 to 14) (size 15 to 20)
#    0.000    1.750    2.500    2.250    0.000    7.000 
#    0.000    1.250    0.000    0.000    0.000    0.000 
#    0.000    0.000    0.000    0.000    0.000    0.000 
#
# Total GULP energy -178700.736982 kJ/mol
# GULP energy per Si atom -5584.398031 kJ/mol
# Density = 1.712338 g / cm^3
# Si number density = 17.162446 Si / 1000 Ang^3
#
#
#
# Elastic Constant Matrix: (Units=GPa)
#
#
# Indices 1 2 3 4 5 6 
#
# 1 98.6857 71.8864 81.5342 0.0000 5.7393 0.0000
# 2 71.8864 105.1073 67.4150 0.0000 5.4579 0.0000
# 3 81.5342 67.4150 104.6054 0.0000 -12.9879 0.0000
# 4 0.0000 0.0000 0.0000 7.0243 0.0000 0.0778
# 5 5.7393 5.4579 -12.9879 0.0000 29.1050 0.0000
# 6 0.0000 0.0000 0.0000 0.0778 0.0000 7.0883
#
#
#
# Elastic Compliance Matrix: (Units=1/GPa)
#
#
# Indices 1 2 3 4 5 6 
#
# 1 0.042333 -0.008792 -0.029814 0.000000 -0.020003 0.000000
# 2 -0.008792 0.020106 -0.006731 0.000000 -0.005040 0.000000
# 3 -0.029814 -0.006731 0.040252 0.000000 0.025104 0.000000
# 4 0.000000 0.000000 0.000000 0.142381 0.000000 -0.001562
# 5 -0.020003 -0.005040 0.025104 0.000000 0.050450 0.000000
# 6 0.000000 0.000000 0.000000 -0.001562 0.000000 0.141095
#
#
# Mechanical properties :
#
#
# Convention : Reuss Voigt Hill
#
# Bulk Modulus (GPa) = 83.20290 83.34106 83.27198
# Shear Modulus (GPa) = 9.41096 14.48104 11.94600
#
# Velocity S-wave (km/s) = 2.34422 2.90791 2.64115
# Velocity P-wave (km/s) = 7.47743 7.74210 7.61092
#
# Compressibility (1/GPa) = 0.01201881
#
# Stress axis : x y z
#
# Youngs Moduli (GPa) = 23.62216 49.73685 24.84320
#
# Poissons Ratio (x) = 0.43728 0.74067
# Poissons Ratio (y) = 0.20769 0.16721
# Poissons Ratio (z) = 0.70427 0.33475
#
# Static dielectric constant tensor:
#      x y z
#    x 1.543160 0.000000 -0.041230 
#    y 0.000000 1.595430 0.000000 
#    z -0.041230 0.000000 1.576900 
# 
# From -- ./inp_files/39935.got.cif
#   From: 2010.05.17/outbox.cif.g08.bks.cpg/sg11_20_cif.got.tgz:39935.got - 2010.06.03 12:22:45.
