data_PCOD9161285
_publ_section_title
;
Structure prediction by ZEFSAII (Michael W. Deem and Ramdas Pophale) SiO2 
 PCOD9161285
Probable space group: P 21/M
;
_chemical_formula_sum "Si O2"
_cell_formula_units_Z 28
_cell_length_a 7.298703
_cell_length_b 8.855573
_cell_length_c 32.679899
_cell_angle_alpha 90.000000
_cell_angle_beta 48.009460
_cell_angle_gamma 90.000000
_cell_volume 1569.932847
_symmetry_space_group_name_H-M "P 21/M"
_symmetry_group_IT_number 11
_symmetry_cell_setting 'monoclinic'
loop_
_space_group_symop_operation_xyz
x,y,z
-x,1/2+y,-z
-x,-y,-z
x,1/2-y,z
loop_
_atom_site_type_symbol
_atom_site_label
_atom_site_fract_x
_atom_site_fract_y
_atom_site_fract_z
Si Si1 0.616330 0.931090 0.357322
Si Si2 0.134665 0.568624 0.067331
Si Si3 0.763741 0.569514 0.650645
Si Si4 0.431173 0.570725 0.945095
Si Si5 0.189071 0.932123 0.267908
Si Si6 0.583129 0.931435 0.142185
Si Si7 0.341070 0.569223 0.560206
O O1 0.593238 0.750000 0.362360
O O2 0.901155 0.968382 0.303449
O O3 0.424339 0.997108 0.353457
O O4 0.579758 0.999659 0.408023
O O5 0.167853 0.750000 0.066985
O O6 0.325010 0.483289 0.067645
O O7 0.853641 0.529380 0.118689
O O8 0.208112 0.530216 0.009465
O O9 0.734529 0.750000 0.655024
O O10 0.728561 0.505126 0.701615
O O11 0.050246 0.534779 0.597368
O O12 0.429827 0.750000 0.940469
O O13 0.427889 0.494937 0.901670
O O14 0.207318 0.750000 0.269066
O O15 0.364861 0.982157 0.204669
O O16 0.570555 0.750000 0.141517
O O17 0.500000 0.500000 0.500000
O O18 0.368695 0.750000 0.557415
#
# Coordination Sequence:
#
# PCOD9161285 Si02
#       7
#     4   4   4   4   4   4   4
#     4  10  20  36  58  80 106 142 179 216 259 307
#     4   9  19  35  53  73 100 136 173 210 258 315
#     4  10  21  37  57  80 108 142 176 214 261 308
#     4  10  20  33  51  76 104 133 168 213 263 315
#     4   9  20  37  55  77 103 135 178 221 259 305
#     4  10  20  35  55  76 101 135 174 216 261 311
#     4  10  21  37  57  83 113 142 176 217 258 303
#
# _framework density 17.835158
#
# number of rings (size 3 to 8) (size 9 to 14) (size 15 to 20)
#    0.000    2.286    0.000    2.143    0.000    5.714 
#    0.000    5.714    0.000    0.000    0.000    0.000 
#    0.000    0.000    0.000    0.000    0.000    0.000 
#
# Total GULP energy -156273.888612 kJ/mol
# GULP energy per Si atom -5581.210308 kJ/mol
# Density = 1.779456 g / cm^3
# Si number density = 17.835158 Si / 1000 Ang^3
#
#
#
# Elastic Constant Matrix: (Units=GPa)
#
#
# Indices 1 2 3 4 5 6 
#
# 1 107.8729 35.9268 36.2760 0.0000 4.1211 0.0000
# 2 35.9268 28.2952 28.7975 0.0000 -2.6068 0.0000
# 3 36.2760 28.7975 92.4809 0.0000 -9.4031 0.0000
# 4 0.0000 0.0000 0.0000 27.6684 0.0000 8.0861
# 5 4.1211 -2.6068 -9.4031 0.0000 10.6286 0.0000
# 6 0.0000 0.0000 0.0000 8.0861 0.0000 33.9800
#
#
#
# Elastic Compliance Matrix: (Units=1/GPa)
#
#
# Indices 1 2 3 4 5 6 
#
# 1 0.017671 -0.022294 -0.001365 0.000000 -0.013527 0.000000
# 2 -0.022294 0.079895 -0.014573 0.000000 0.015347 0.000000
# 3 -0.001365 -0.014573 0.017116 0.000000 0.012097 0.000000
# 4 0.000000 0.000000 0.000000 0.038844 0.000000 -0.009244
# 5 -0.013527 0.015347 0.012097 0.000000 0.113797 0.000000
# 6 0.000000 0.000000 0.000000 -0.009244 0.000000 0.031629
#
#
# Mechanical properties :
#
#
# Convention : Reuss Voigt Hill
#
# Bulk Modulus (GPa) = 26.16558 47.84993 37.00775
# Shear Modulus (GPa) = 12.88148 22.96534 17.92341
#
# Velocity S-wave (km/s) = 2.69039 3.59227 3.17353
# Velocity P-wave (km/s) = 4.93493 6.64026 5.85007
#
# Compressibility (1/GPa) = 0.03821815
#
# Stress axis : x y z
#
# Youngs Moduli (GPa) = 56.59010 12.51647 58.42437
#
# Poissons Ratio (x) = 0.27905 0.07973
# Poissons Ratio (y) = 1.26164 0.85141
# Poissons Ratio (z) = 0.07722 0.18240
#
# Static dielectric constant tensor:
#      x y z
#    x 1.585270 0.000000 -0.020620 
#    y 0.000000 1.593220 0.000000 
#    z -0.020620 0.000000 1.599730 
# 
# From -- ./inp_files/72535.got.cif
#   From: 2010.05.17/outbox.cif.g08.bks.cpg/sg11_37_cif.got.tgz:72535.got - 2010.06.03 12:22:45.
