data_PCOD9161762
_publ_section_title
;
Structure prediction by ZEFSAII (Michael W. Deem and Ramdas Pophale) SiO2 
 PCOD9161762
Probable space group: P 21/M
;
_chemical_formula_sum "Si O2"
_cell_formula_units_Z 28
_cell_length_a 8.231770
_cell_length_b 11.577951
_cell_length_c 15.291767
_cell_angle_alpha 90.000000
_cell_angle_beta 113.806067
_cell_angle_gamma 90.000000
_cell_volume 1333.411731
_symmetry_space_group_name_H-M "P 21/M"
_symmetry_group_IT_number 11
_symmetry_cell_setting 'monoclinic'
loop_
_space_group_symop_operation_xyz
x,y,z
-x,1/2+y,-z
-x,-y,-z
x,1/2-y,z
loop_
_atom_site_type_symbol
_atom_site_label
_atom_site_fract_x
_atom_site_fract_y
_atom_site_fract_z
Si Si1 0.161856 0.381027 0.117703
Si Si2 0.793545 0.617649 0.674242
Si Si3 0.761478 0.048319 0.026563
Si Si4 0.954605 0.441698 0.582860
Si Si5 0.655355 0.877981 0.328710
Si Si6 0.395007 0.124519 0.880675
Si Si7 0.602991 0.119951 0.422034
O O1 0.222200 0.250000 0.116088
O O2 0.224713 0.417392 0.228203
O O3 0.225349 0.461866 0.053390
O O4 0.947254 0.386313 0.071966
O O5 0.856180 0.750000 0.687276
O O6 0.924138 0.537042 0.649834
O O7 0.598814 0.614383 0.587664
O O8 0.582706 0.119046 0.971352
O O9 0.728761 0.973804 0.106419
O O10 0.764911 0.381508 0.525795
O O11 0.000000 0.500000 0.500000
O O12 0.132292 0.372831 0.641222
O O13 0.604133 0.750000 0.355413
O O14 0.570309 0.888970 0.214527
O O15 0.621523 0.998786 0.372326
O O16 0.311483 0.250000 0.876682
O O17 0.613325 0.250000 0.380288
#
# Coordination Sequence:
#
# PCOD9161762 Si02
#       7
#     4   4   4   4   4   4   4
#     4  10  20  35  55  80 109 142 182 227 275 326
#     4  10  21  37  58  83 112 145 184 232 282 333
#     4  10  20  34  54  79 109 145 185 227 272 324
#     4  10  21  36  55  80 109 143 181 223 275 332
#     4  10  21  37  57  83 116 152 189 230 277 329
#     4  10  20  35  54  79 112 148 186 227 273 325
#     4  10  21  38  60  86 114 146 187 231 278 333
#
# _framework density 20.998766
#
# number of rings (size 3 to 8) (size 9 to 14) (size 15 to 20)
#    0.000    2.000    0.000    3.429    0.000    4.571 
#    0.000    5.000    0.000    6.857    0.000    0.000 
#    0.000    0.000    0.000    0.000    0.000    0.000 
#
# Total GULP energy -156076.327010 kJ/mol
# GULP energy per Si atom -5574.154536 kJ/mol
# Density = 2.095097 g / cm^3
# Si number density = 20.998766 Si / 1000 Ang^3
#
#
#
# Elastic Constant Matrix: (Units=GPa)
#
#
# Indices 1 2 3 4 5 6 
#
# 1 33.8792 18.1036 -9.5537 0.0000 0.9317 0.0000
# 2 18.1036 131.7451 16.4944 0.0000 -21.1162 0.0000
# 3 -9.5537 16.4944 40.2182 0.0000 4.5358 0.0000
# 4 0.0000 0.0000 0.0000 11.9541 0.0000 -3.4431
# 5 0.9317 -21.1162 4.5358 0.0000 26.3738 0.0000
# 6 0.0000 0.0000 0.0000 -3.4431 0.0000 11.8364
#
#
#
# Elastic Compliance Matrix: (Units=1/GPa)
#
#
# Indices 1 2 3 4 5 6 
#
# 1 0.038412 -0.008745 0.013924 0.000000 -0.010753 0.000000
# 2 -0.008745 0.011554 -0.008050 0.000000 0.010944 0.000000
# 3 0.013924 -0.008050 0.032894 0.000000 -0.012595 0.000000
# 4 0.000000 0.000000 0.000000 0.091303 0.000000 0.026559
# 5 -0.010753 0.010944 -0.012595 0.000000 0.049225 0.000000
# 6 0.000000 0.000000 0.000000 0.026559 0.000000 0.092211
#
#
# Mechanical properties :
#
#
# Convention : Reuss Voigt Hill
#
# Bulk Modulus (GPa) = 12.96731 28.43678 20.70205
# Shear Modulus (GPa) = 14.40726 22.08609 18.24668
#
# Velocity S-wave (km/s) = 2.62219 3.24663 2.95098
# Velocity P-wave (km/s) = 3.91874 5.25602 4.63585
#
# Compressibility (1/GPa) = 0.07711697
#
# Stress axis : x y z
#
# Youngs Moduli (GPa) = 26.03366 86.54892 30.40071
#
# Poissons Ratio (x) = 0.75688 -0.42330
# Poissons Ratio (y) = 0.22767 0.24473
# Poissons Ratio (z) = -0.36249 0.69674
#
# Static dielectric constant tensor:
#      x y z
#    x 1.730260 0.000000 0.014080 
#    y 0.000000 1.765110 0.000000 
#    z 0.014080 0.000000 1.741870 
# 
# From -- ./inp_files/47269.got.cif
#   From: 2010.05.17/outbox.cif.g08.bks.cpg/sg11_24_cif.got.tgz:47269.got - 2010.06.03 12:22:45.
