data_PCOD9161814
_publ_section_title
;
Structure prediction by ZEFSAII (Michael W. Deem and Ramdas Pophale) SiO2 
 PCOD9161814
Probable space group: P 21/M
;
_chemical_formula_sum "Si O2"
_cell_formula_units_Z 28
_cell_length_a 16.447113
_cell_length_b 9.783709
_cell_length_c 11.015026
_cell_angle_alpha 90.000000
_cell_angle_beta 48.742649
_cell_angle_gamma 90.000000
_cell_volume 1332.463051
_symmetry_space_group_name_H-M "P 21/M"
_symmetry_group_IT_number 11
_symmetry_cell_setting 'monoclinic'
loop_
_space_group_symop_operation_xyz
x,y,z
-x,1/2+y,-z
-x,-y,-z
x,1/2-y,z
loop_
_atom_site_type_symbol
_atom_site_label
_atom_site_fract_x
_atom_site_fract_y
_atom_site_fract_z
Si Si1 0.582065 0.966660 0.244306
Si Si2 0.853688 0.410778 0.393056
Si Si3 0.187675 0.095985 0.070522
Si Si4 0.186615 0.599062 0.281886
Si Si5 0.969693 0.415465 0.909496
Si Si6 0.353516 0.597626 0.567864
Si Si7 0.440684 0.893895 0.974679
O O1 0.466269 0.898484 0.382836
O O2 0.625464 0.006377 0.334704
O O3 0.553804 0.083843 0.174954
O O4 0.683186 0.896495 0.077185
O O5 0.881901 0.250000 0.336920
O O6 0.834524 0.417042 0.555510
O O7 0.745121 0.442467 0.422671
O O8 0.942924 0.522485 0.270252
O O9 0.144571 0.250000 0.095366
O O10 0.143729 0.980511 0.021623
O O11 0.153548 0.030470 0.233120
O O12 0.142668 0.750000 0.285607
O O13 0.315090 0.605960 0.133854
O O14 0.030139 0.750000 0.079583
O O15 0.000000 0.500000 0.000000
O O16 0.329045 0.750000 0.637178
O O17 0.491686 0.750000 0.955475
O O18 0.500000 0.000000 0.000000
#
# Coordination Sequence:
#
# PCOD9161814 Si02
#       7
#     4   4   4   4   4   4   4
#     4  10  21  36  57  88 123 158 198 247 301 359
#     4  10  21  40  65  91 121 158 202 249 300 359
#     4  11  23  40  64  92 122 158 203 251 300 359
#     4   9  20  38  59  86 120 158 199 246 302 362
#     4  12  26  44  66  91 122 159 201 250 302 357
#     4  10  20  36  59  86 119 159 198 242 299 358
#     4  10  20  34  54  82 117 159 204 247 296 355
#
# _framework density 21.013715999999999
#
# number of rings (size 3 to 8) (size 9 to 14) (size 15 to 20)
#    0.000    1.714    0.000    4.286    0.000    8.000 
#    0.000    5.000    0.000    0.000    0.000    0.000 
#    0.000    0.000    0.000    0.000    0.000    0.000 
#
# Total GULP energy -156077.755686 kJ/mol
# GULP energy per Si atom -5574.205560 kJ/mol
# Density = 2.096589 g / cm^3
# Si number density = 21.013716 Si / 1000 Ang^3
#
#
#
# Elastic Constant Matrix: (Units=GPa)
#
#
# Indices 1 2 3 4 5 6 
#
# 1 68.0515 34.3872 9.5908 0.0000 -6.0276 0.0000
# 2 34.3872 162.1725 36.0560 0.0000 9.5782 0.0000
# 3 9.5908 36.0560 87.2700 0.0000 4.4679 0.0000
# 4 0.0000 0.0000 0.0000 6.5246 0.0000 15.4904
# 5 -6.0276 9.5782 4.4679 0.0000 28.2170 0.0000
# 6 0.0000 0.0000 0.0000 15.4904 0.0000 -2.2224
#
#
#
# Elastic Compliance Matrix: (Units=1/GPa)
#
#
# Indices 1 2 3 4 5 6 
#
# 1 0.017146 -0.003807 -0.000570 0.000000 0.005045 0.000000
# 2 -0.003807 0.007735 -0.002623 0.000000 -0.003024 0.000000
# 3 -0.000570 -0.002623 0.012668 0.000000 -0.001237 0.000000
# 4 0.000000 0.000000 0.000000 0.008734 0.000000 0.060878
# 5 0.005045 -0.003024 -0.001237 0.000000 0.037740 0.000000
# 6 0.000000 0.000000 0.000000 0.060878 0.000000 -0.025642
#
#
# Mechanical properties :
#
#
# Convention : Reuss Voigt Hill
#
# Bulk Modulus (GPa) = 42.46207 53.06246 47.76227
# Shear Modulus (GPa) = 62.32120 22.33450 42.32785
#
# Velocity S-wave (km/s) = 5.45177 3.26368 4.49296
# Velocity P-wave (km/s) = 7.73820 6.28556 7.04940
#
# Compressibility (1/GPa) = 0.02355043
#
# Stress axis : x y z
#
# Youngs Moduli (GPa) = 58.32418 129.27976 78.93776
#
# Poissons Ratio (x) = 0.49215 0.04497
# Poissons Ratio (y) = 0.22203 0.20703
# Poissons Ratio (z) = 0.03323 0.33906
#
# Static dielectric constant tensor:
#      x y z
#    x 1.764590 0.000000 -0.004660 
#    y 0.000000 1.787940 0.000000 
#    z -0.004660 0.000000 1.777970 
# 
# From -- ./inp_files/21435.got.cif
#   From: 2010.05.17/outbox.cif.g08.bks.cpg/sg11_11_cif.got.tgz:21435.got - 2010.06.03 12:22:45.
