data_PCOD9161155
_publ_section_title
;
Structure prediction by ZEFSAII (Michael W. Deem and Ramdas Pophale) SiO2 
 PCOD9161155
Probable space group: P 21/M
;
_chemical_formula_sum "Si O2"
_cell_formula_units_Z 32
_cell_length_a 17.969599
_cell_length_b 9.062964
_cell_length_c 21.628546
_cell_angle_alpha 90.000000
_cell_angle_beta 33.153357
_cell_angle_gamma 90.000000
_cell_volume 1926.324635
_symmetry_space_group_name_H-M "P 21/M"
_symmetry_group_IT_number 11
_symmetry_cell_setting 'monoclinic'
loop_
_space_group_symop_operation_xyz
x,y,z
-x,1/2+y,-z
-x,-y,-z
x,1/2-y,z
loop_
_atom_site_type_symbol
_atom_site_label
_atom_site_fract_x
_atom_site_fract_y
_atom_site_fract_z
Si Si1 0.107431 0.073320 0.378911
Si Si2 0.088707 0.426005 0.732586
Si Si3 0.812599 0.574050 0.151304
Si Si4 0.948316 0.576408 0.938359
Si Si5 0.339422 0.580755 0.049142
Si Si6 0.060410 0.424934 0.266998
Si Si7 0.362104 0.425082 0.615801
Si Si8 0.390270 0.580230 0.162259
O O1 0.113501 0.250000 0.383355
O O2 0.062428 0.044862 0.339009
O O3 0.258023 0.003003 0.280556
O O4 0.000000 0.000000 0.500000
O O5 0.084280 0.250000 0.732222
O O6 0.232189 0.470508 0.664196
O O7 0.971431 0.483741 0.860739
O O8 0.060433 0.497546 0.686155
O O9 0.847072 0.750000 0.136367
O O10 0.677952 0.546482 0.284736
O O11 0.925245 0.472825 0.106160
O O12 0.820111 0.547676 0.072763
O O13 0.954158 0.750000 0.920189
O O14 0.320770 0.750000 0.042148
O O15 0.201102 0.488696 0.141513
O O16 0.371283 0.583388 0.100780
O O17 0.467749 0.504669 0.926804
O O18 0.055506 0.250000 0.261534
O O19 0.500000 0.500000 0.500000
O O20 0.375505 0.250000 0.599200
O O21 0.396075 0.750000 0.179359
#
# Coordination Sequence:
#
# PCOD9161155 Si02
#       8
#     4   4   4   4   4   4   4   4
#     4  10  20  33  50  73 100 130 169 212 251 296
#     4  10  20  33  48  69  98 127 157 200 252 301
#     4   8  15  27  42  64  93 119 146 186 233 277
#     4   9  15  25  44  67  90 117 149 185 229 282
#     4   9  16  27  45  69  96 124 152 187 236 287
#     4  10  20  33  50  73  98 126 163 205 249 301
#     4   9  18  31  47  69  96 127 164 202 240 285
#     4   9  16  27  45  69  96 124 155 192 234 281
#
# _framework density 16.611946
#
# number of rings (size 3 to 8) (size 9 to 14) (size 15 to 20)
#    0.000    2.750    0.000    3.000    0.000    7.500 
#    0.000    0.000    0.000    1.500    0.000    5.250 
#    0.000    0.000    0.000    0.000    0.000    0.000 
#
# Total GULP energy -178172.902221 kJ/mol
# GULP energy per Si atom -5567.903194 kJ/mol
# Density = 1.657414 g / cm^3
# Si number density = 16.611946 Si / 1000 Ang^3
#
#
#
# Elastic Constant Matrix: (Units=GPa)
#
#
# Indices 1 2 3 4 5 6 
#
# 1 49.5903 35.3700 37.5822 0.0000 1.8273 0.0000
# 2 35.3700 80.4877 60.7381 0.0000 6.1759 0.0000
# 3 37.5822 60.7381 141.5799 0.0000 8.1805 0.0000
# 4 0.0000 0.0000 0.0000 31.7168 0.0000 0.1180
# 5 1.8273 6.1759 8.1805 0.0000 11.3462 0.0000
# 6 0.0000 0.0000 0.0000 0.1180 0.0000 22.7728
#
#
#
# Elastic Compliance Matrix: (Units=1/GPa)
#
#
# Indices 1 2 3 4 5 6 
#
# 1 0.030624 -0.011009 -0.003618 0.000000 0.003669 0.000000
# 2 -0.011009 0.022553 -0.006413 0.000000 -0.005879 0.000000
# 3 -0.003618 -0.006413 0.010998 0.000000 -0.003856 0.000000
# 4 0.000000 0.000000 0.000000 0.031530 0.000000 -0.000163
# 5 0.003669 -0.005879 -0.003856 0.000000 0.093524 0.000000
# 6 0.000000 0.000000 0.000000 -0.000163 0.000000 0.043913
#
#
# Mechanical properties :
#
#
# Convention : Reuss Voigt Hill
#
# Bulk Modulus (GPa) = 45.26124 59.89316 52.57720
# Shear Modulus (GPa) = 17.69373 22.36501 20.02937
#
# Velocity S-wave (km/s) = 3.26716 3.67321 3.47612
# Velocity P-wave (km/s) = 6.44498 7.35680 6.91593
#
# Compressibility (1/GPa) = 0.02209396
#
# Stress axis : x y z
#
# Youngs Moduli (GPa) = 32.65398 44.34070 90.92807
#
# Poissons Ratio (x) = 0.48813 0.32901
# Poissons Ratio (y) = 0.35948 0.58314
# Poissons Ratio (z) = 0.11815 0.28437
#
# Static dielectric constant tensor:
#      x y z
#    x 1.581350 0.000000 0.011280 
#    y 0.000000 1.545970 0.000000 
#    z 0.011280 0.000000 1.567590 
# 
# From -- ./inp_files/58711.got.cif
#   From: 2010.05.17/outbox.cif.g08.bks.cpg/sg11_30_cif.got.tgz:58711.got - 2010.06.03 12:22:45.
