data_PCOD9161268
_publ_section_title
;
Structure prediction by ZEFSAII (Michael W. Deem and Ramdas Pophale) SiO2 
 PCOD9161268
Probable space group: P 21/M
;
_chemical_formula_sum "Si O2"
_cell_formula_units_Z 32
_cell_length_a 17.065896
_cell_length_b 8.772809
_cell_length_c 30.662851
_cell_angle_alpha 90.000000
_cell_angle_beta 25.801137
_cell_angle_gamma 90.000000
_cell_volume 1998.103815
_symmetry_space_group_name_H-M "P 21/M"
_symmetry_group_IT_number 11
_symmetry_cell_setting 'monoclinic'
loop_
_space_group_symop_operation_xyz
x,y,z
-x,1/2+y,-z
-x,-y,-z
x,1/2-y,z
loop_
_atom_site_type_symbol
_atom_site_label
_atom_site_fract_x
_atom_site_fract_y
_atom_site_fract_z
Si Si1 0.018066 0.075728 0.164105
Si Si2 0.361571 0.570483 0.950777
Si Si3 0.660024 0.567946 0.305132
Si Si4 0.978472 0.926225 0.733151
Si Si5 0.598722 0.430899 0.907648
Si Si6 0.384555 0.566734 0.517658
Si Si7 0.210270 0.932148 0.846151
Si Si8 0.212075 0.067843 0.940450
O O1 0.048840 0.250000 0.132981
O O2 0.026955 0.075982 0.211653
O O3 0.825178 0.017247 0.245715
O O4 0.170932 0.966586 0.069101
O O5 0.391295 0.750000 0.932716
O O6 0.506387 0.495363 0.910336
O O7 0.340080 0.497011 0.913867
O O8 0.688068 0.750000 0.291968
O O9 0.485097 0.533365 0.421878
O O10 0.667552 0.509283 0.251915
O O11 0.959563 0.750000 0.727616
O O12 0.177142 0.985208 0.621393
O O13 0.807641 0.022054 0.803545
O O14 0.576195 0.250000 0.920711
O O15 0.500000 0.500000 0.000000
O O16 0.500000 0.500000 0.500000
O O17 0.380553 0.750000 0.525649
O O18 0.228757 0.750000 0.835490
O O19 0.249140 0.994272 0.874885
O O20 0.998387 0.968949 0.943143
O O21 0.226217 0.250000 0.930669
#
# Coordination Sequence:
#
# PCOD9161268 Si02
#       8
#     4   4   4   4   4   4   4   4
#     4  11  20  31  50  73 104 141 177 217 259 302
#     4  12  23  35  53  76 105 140 177 213 258 313
#     4  11  21  32  50  76 106 141 180 216 258 310
#     4  10  21  37  53  72 104 140 178 222 263 303
#     4  12  24  37  54  76 103 137 178 219 262 310
#     4  10  21  35  52  75 104 139 178 218 260 307
#     4  10  20  33  51  74 105 140 174 213 261 309
#     4  10  20  34  52  75 106 137 172 214 260 310
#
# _framework density 16.015183
#
# number of rings (size 3 to 8) (size 9 to 14) (size 15 to 20)
#    0.000    1.250    3.750    3.750    0.000    2.500 
#    0.000    0.000    0.000    0.000    0.000    0.875 
#    0.000    0.000    0.000    0.000    0.000    0.000 
#
# Total GULP energy -178721.839055 kJ/mol
# GULP energy per Si atom -5585.057470 kJ/mol
# Density = 1.597873 g / cm^3
# Si number density = 16.015183 Si / 1000 Ang^3
#
#
#
# Elastic Constant Matrix: (Units=GPa)
#
#
# Indices 1 2 3 4 5 6 
#
# 1 120.4217 43.7228 48.4073 0.0000 1.7418 0.0000
# 2 43.7228 74.6594 24.4273 0.0000 1.3781 0.0000
# 3 48.4073 24.4273 77.4011 0.0000 -2.4718 0.0000
# 4 0.0000 0.0000 0.0000 17.2096 0.0000 -2.7118
# 5 1.7418 1.3781 -2.4718 0.0000 26.2346 0.0000
# 6 0.0000 0.0000 0.0000 -2.7118 0.0000 27.1269
#
#
#
# Elastic Compliance Matrix: (Units=1/GPa)
#
#
# Indices 1 2 3 4 5 6 
#
# 1 0.012846 -0.005420 -0.006361 0.000000 -0.001167 0.000000
# 2 -0.005420 0.017263 -0.002082 0.000000 -0.000743 0.000000
# 3 -0.006361 -0.002082 0.017625 0.000000 0.002192 0.000000
# 4 0.000000 0.000000 0.000000 0.059037 0.000000 0.005902
# 5 -0.001167 -0.000743 0.002192 0.000000 0.038441 0.000000
# 6 0.000000 0.000000 0.000000 0.005902 0.000000 0.037454
#
#
# Mechanical properties :
#
#
# Convention : Reuss Voigt Hill
#
# Bulk Modulus (GPa) = 49.97964 56.17745 53.07854
# Shear Modulus (GPa) = 23.03503 24.50923 23.77213
#
# Velocity S-wave (km/s) = 3.79664 3.91624 3.85691
# Velocity P-wave (km/s) = 7.10596 7.45675 7.28347
#
# Compressibility (1/GPa) = 0.02000815
#
# Stress axis : x y z
#
# Youngs Moduli (GPa) = 77.84597 57.92612 56.73835
#
# Poissons Ratio (x) = 0.31398 0.36089
# Poissons Ratio (y) = 0.42195 0.11813
# Poissons Ratio (z) = 0.49515 0.12060
#
# Static dielectric constant tensor:
#      x y z
#    x 1.530540 0.000000 0.007140 
#    y 0.000000 1.543440 0.000000 
#    z 0.007140 0.000000 1.532280 
# 
# From -- ./inp_files/71616.got.cif
#   From: 2010.05.17/outbox.cif.g08.bks.cpg/sg11_36_cif.got.tgz:71616.got - 2010.06.03 12:22:45.
