data_PCOD9161753
_publ_section_title
;
Structure prediction by ZEFSAII (Michael W. Deem and Ramdas Pophale) SiO2 
 PCOD9161753
Probable space group: P 21/M
;
_chemical_formula_sum "Si O2"
_cell_formula_units_Z 32
_cell_length_a 17.120100
_cell_length_b 8.675349
_cell_length_c 21.987635
_cell_angle_alpha 90.000000
_cell_angle_beta 152.739070
_cell_angle_gamma 90.000000
_cell_volume 1495.817106
_symmetry_space_group_name_H-M "P 21/M"
_symmetry_group_IT_number 11
_symmetry_cell_setting 'monoclinic'
loop_
_space_group_symop_operation_xyz
x,y,z
-x,1/2+y,-z
-x,-y,-z
x,1/2-y,z
loop_
_atom_site_type_symbol
_atom_site_label
_atom_site_fract_x
_atom_site_fract_y
_atom_site_fract_z
Si Si1 0.153278 0.428525 0.898554
Si Si2 0.994638 0.430891 0.083293
Si Si3 0.015835 0.437231 0.673211
Si Si4 0.673629 0.433447 0.488991
Si Si5 0.519628 0.073758 0.201454
Si Si6 0.311717 0.931208 0.363746
Si Si7 0.644110 0.433865 0.790306
Si Si8 0.839042 0.565021 0.353047
O O1 0.092592 0.250000 0.867624
O O2 0.087769 0.536092 0.907338
O O3 0.100449 0.480375 0.795412
O O4 0.356346 0.423618 0.044628
O O5 0.016173 0.250000 0.086699
O O6 0.180696 0.504384 0.222952
O O7 0.841911 0.492201 0.932999
O O8 0.010120 0.250000 0.667640
O O9 0.126198 0.487640 0.692235
O O10 0.817272 0.487289 0.540196
O O11 0.649055 0.250000 0.465685
O O12 0.751376 0.458622 0.610197
O O13 0.489222 0.509380 0.352657
O O14 0.563863 0.250000 0.249219
O O15 0.453140 0.987742 0.215625
O O16 0.673589 0.997334 0.272430
O O17 0.325204 0.750000 0.362947
O O18 0.500000 0.000000 0.500000
O O19 0.655182 0.250000 0.795434
O O20 0.836528 0.750000 0.352377
O O21 0.000000 0.500000 0.500000
#
# Coordination Sequence:
#
# PCOD9161753 Si02
#       8
#     4   4   4   4   4   4   4   4
#     4   9  17  34  57  79 105 145 190 233 285 341
#     4  10  20  36  58  87 120 152 189 235 284 338
#     4   9  18  34  55  78 105 141 187 236 285 336
#     4  10  20  37  61  87 115 148 192 238 287 344
#     4  10  20  34  54  78 110 149 191 235 286 347
#     4  11  23  40  64  91 120 153 188 231 283 344
#     4  10  21  36  58  87 118 152 195 243 286 333
#     4  11  22  35  52  73 105 146 188 238 293 345
#
# _framework density 21.392989
#
# number of rings (size 3 to 8) (size 9 to 14) (size 15 to 20)
#    0.000    2.000    1.250    2.625    0.000    4.500 
#    0.000    2.500    0.000    0.000    0.000    0.000 
#    0.000    0.000    0.000    0.000    0.000    0.000 
#
# Total GULP energy -178642.368700 kJ/mol
# GULP energy per Si atom -5582.574022 kJ/mol
# Density = 2.134430 g / cm^3
# Si number density = 21.392989 Si / 1000 Ang^3
#
#
#
# Elastic Constant Matrix: (Units=GPa)
#
#
# Indices 1 2 3 4 5 6 
#
# 1 60.8657 4.8010 34.6493 0.0000 7.4355 0.0000
# 2 4.8010 38.2357 33.1238 0.0000 2.0711 0.0000
# 3 34.6493 33.1238 157.3043 0.0000 -1.7567 0.0000
# 4 0.0000 0.0000 0.0000 36.0265 0.0000 4.6610
# 5 7.4355 2.0711 -1.7567 0.0000 44.5778 0.0000
# 6 0.0000 0.0000 0.0000 4.6610 0.0000 19.8861
#
#
#
# Elastic Compliance Matrix: (Units=1/GPa)
#
#
# Indices 1 2 3 4 5 6 
#
# 1 0.019385 0.001821 -0.004692 0.000000 -0.003503 0.000000
# 2 0.001821 0.032297 -0.007225 0.000000 -0.002089 0.000000
# 3 -0.004692 -0.007225 0.008929 0.000000 0.001470 0.000000
# 4 0.000000 0.000000 0.000000 0.028625 0.000000 -0.006709
# 5 -0.003503 -0.002089 0.001470 0.000000 0.023172 0.000000
# 6 0.000000 0.000000 0.000000 -0.006709 0.000000 0.051859
#
#
# Mechanical properties :
#
#
# Convention : Reuss Voigt Hill
#
# Bulk Modulus (GPa) = 24.74195 44.61711 34.67953
# Shear Modulus (GPa) = 25.26096 32.35352 28.80724
#
# Velocity S-wave (km/s) = 3.44001 3.89310 3.67355
# Velocity P-wave (km/s) = 5.23152 6.41167 5.85143
#
# Compressibility (1/GPa) = 0.04041718
#
# Stress axis : x y z
#
# Youngs Moduli (GPa) = 51.58572 30.96225 111.99991
#
# Poissons Ratio (x) = -0.05638 0.52556
# Poissons Ratio (y) = -0.09393 0.80923
# Poissons Ratio (z) = 0.24207 0.22371
#
# Static dielectric constant tensor:
#      x y z
#    x 1.818610 0.000000 -0.005470 
#    y 0.000000 1.741890 0.000000 
#    z -0.005470 0.000000 1.802950 
# 
# From -- ./inp_files/67126.got.cif
#   From: 2010.05.17/outbox.cif.g08.bks.cpg/sg11_34_cif.got.tgz:67126.got - 2010.06.03 12:22:45.
