data_PCOD9161044
_publ_section_title
;
Structure prediction by ZEFSAII (Michael W. Deem and Ramdas Pophale) SiO2 
 PCOD9161044
Probable space group: P 21/M
;
_chemical_formula_sum "Si O2"
_cell_formula_units_Z 28
_cell_length_a 12.050603
_cell_length_b 7.321153
_cell_length_c 17.557876
_cell_angle_alpha 90.000000
_cell_angle_beta 45.369645
_cell_angle_gamma 90.000000
_cell_volume 1102.374360
_symmetry_space_group_name_H-M "P 21/M"
_symmetry_group_IT_number 11
_symmetry_cell_setting 'monoclinic'
loop_
_space_group_symop_operation_xyz
x,y,z
-x,1/2+y,-z
-x,-y,-z
x,1/2-y,z
loop_
_atom_site_type_symbol
_atom_site_label
_atom_site_fract_x
_atom_site_fract_y
_atom_site_fract_z
Si Si1 0.819797 0.966254 0.103489
Si Si2 0.157115 0.027681 0.739230
Si Si3 0.195378 0.972529 0.135744
Si Si4 0.577255 0.454404 0.096168
Si Si5 0.749510 0.527370 0.467438
Si Si6 0.357468 0.459071 0.327640
Si Si7 0.901864 0.030545 0.653541
O O1 0.788948 0.750000 0.114980
O O2 0.785104 0.031235 0.205981
O O3 0.722537 0.057014 0.084142
O O4 0.000000 0.000000 0.000000
O O5 0.155568 0.250000 0.739863
O O6 0.257854 0.969778 0.617066
O O7 0.975133 0.972825 0.814803
O O8 0.198113 0.750000 0.130415
O O9 0.195391 0.023134 0.224123
O O10 0.343390 0.039437 0.016514
O O11 0.522708 0.250000 0.102506
O O12 0.451428 0.546529 0.212483
O O13 0.742993 0.750000 0.471229
O O14 0.637391 0.463281 0.589643
O O15 0.922988 0.473624 0.411201
O O16 0.413059 0.250000 0.305839
O O17 0.180487 0.457042 0.381819
O O18 0.902393 0.250000 0.648125
#
# Coordination Sequence:
#
# PCOD9161044 Si02
#       7
#     4   4   4   4   4   4   4
#     4  11  20  32  54  79  99 125 161 203 244 289
#     4   8  14  27  50  73  93 122 162 199 232 288
#     4   8  14  28  48  69  92 126 165 195 235 293
#     4  10  20  34  49  69 102 136 163 196 243 296
#     4   8  15  30  51  73  94 127 170 199 235 291
#     4  10  20  32  48  71 101 132 162 204 249 284
#     4   9  17  30  52  72  91 126 172 209 236 286
#
# _framework density 25.399721
#
# number of rings (size 3 to 8) (size 9 to 14) (size 15 to 20)
#    0.000    2.857    1.429    2.571    0.000    1.143 
#    0.000    1.429    0.000    1.714    0.000    0.000 
#    0.000    0.000    0.000    0.000    0.000    0.000 
#
# Total GULP energy -156403.370171 kJ/mol
# GULP energy per Si atom -5585.834649 kJ/mol
# Density = 2.534191 g / cm^3
# Si number density = 25.399721 Si / 1000 Ang^3
#
#
#
# Elastic Constant Matrix: (Units=GPa)
#
#
# Indices 1 2 3 4 5 6 
#
# 1 45.2900 -2.3797 -5.4192 0.0000 16.6247 0.0000
# 2 -2.3797 112.5264 5.6046 0.0000 1.2493 0.0000
# 3 -5.4192 5.6046 161.4582 0.0000 44.4653 0.0000
# 4 0.0000 0.0000 0.0000 -8.9324 0.0000 0.4092
# 5 16.6247 1.2493 44.4653 0.0000 41.2527 0.0000
# 6 0.0000 0.0000 0.0000 0.4092 0.0000 11.8622
#
#
#
# Elastic Compliance Matrix: (Units=1/GPa)
#
#
# Indices 1 2 3 4 5 6 
#
# 1 0.029624 0.000530 0.006070 0.000000 -0.018497 0.000000
# 2 0.000530 0.008912 -0.000225 0.000000 -0.000240 0.000000
# 3 0.006070 -0.000225 0.010064 0.000000 -0.013288 0.000000
# 4 0.000000 0.000000 0.000000 -0.111775 0.000000 0.003856
# 5 -0.018497 -0.000240 -0.013288 0.000000 0.046025 0.000000
# 6 0.000000 0.000000 0.000000 0.003856 0.000000 0.084168
#
#
# Mechanical properties :
#
#
# Convention : Reuss Voigt Hill
#
# Bulk Modulus (GPa) = 16.30041 34.98735 25.64388
# Shear Modulus (GPa) = 66.91726 30.26776 48.59251
#
# Velocity S-wave (km/s) = 5.13837 3.45578 4.37866
# Velocity P-wave (km/s) = 6.45254 5.45233 5.97341
#
# Compressibility (1/GPa) = 0.06134816
#
# Stress axis : x y z
#
# Youngs Moduli (GPa) = 33.75674 112.20958 99.35925
#
# Poissons Ratio (x) = -0.05942 -0.60310
# Poissons Ratio (y) = -0.01787 0.02240
# Poissons Ratio (z) = -0.20490 0.02529
#
# Static dielectric constant tensor:
#      x y z
#    x 1.947700 0.000000 -0.030440 
#    y 0.000000 1.987500 0.000000 
#    z -0.030440 0.000000 2.095200 
# 
# From -- ./inp_files/34308.got.cif
#   From: 2010.05.17/outbox.cif.g08.bks.cpg/sg11_18_cif.got.tgz:34308.got - 2010.06.03 12:22:45.
