data_PCOD9161135
_publ_section_title
;
Structure prediction by ZEFSAII (Michael W. Deem and Ramdas Pophale) SiO2 
 PCOD9161135
Probable space group: P 21/M
;
_chemical_formula_sum "Si O2"
_cell_formula_units_Z 32
_cell_length_a 14.089273
_cell_length_b 8.825818
_cell_length_c 26.965115
_cell_angle_alpha 90.000000
_cell_angle_beta 146.582162
_cell_angle_gamma 90.000000
_cell_volume 1846.685521
_symmetry_space_group_name_H-M "P 21/M"
_symmetry_group_IT_number 11
_symmetry_cell_setting 'monoclinic'
loop_
_space_group_symop_operation_xyz
x,y,z
-x,1/2+y,-z
-x,-y,-z
x,1/2-y,z
loop_
_atom_site_type_symbol
_atom_site_label
_atom_site_fract_x
_atom_site_fract_y
_atom_site_fract_z
Si Si1 0.636994 0.931808 0.277328
Si Si2 0.981119 0.431932 0.546803
Si Si3 0.329985 0.068048 0.952060
Si Si4 0.854595 0.067202 0.215613
Si Si5 0.762053 0.931094 0.601367
Si Si6 0.487967 0.931673 0.872892
Si Si7 0.462347 0.071661 0.404142
Si Si8 0.623322 0.569396 0.386130
O O1 0.627001 0.750000 0.272330
O O2 0.606112 0.980489 0.321041
O O3 0.835091 0.973763 0.349282
O O4 0.512294 0.998825 0.181668
O O5 0.968354 0.250000 0.539968
O O6 0.801753 0.501838 0.486036
O O7 0.000000 0.500000 0.500000
O O8 0.331907 0.250000 0.948908
O O9 0.175670 0.000755 0.852361
O O10 0.357686 0.027625 0.021953
O O11 0.500000 0.000000 0.000000
O O12 0.852224 0.250000 0.211012
O O13 0.691365 0.021076 0.178130
O O14 0.039759 0.022018 0.317986
O O15 0.746663 0.750000 0.584782
O O16 0.700904 0.956464 0.631515
O O17 0.626142 0.017811 0.508120
O O18 0.484102 0.750000 0.867254
O O19 0.474821 0.250000 0.400245
O O20 0.473160 0.984925 0.356941
O O21 0.637786 0.750000 0.392566
#
# Coordination Sequence:
#
# PCOD9161135 Si02
#       8
#     4   4   4   4   4   4   4   4
#     4   9  19  31  43  64  91 120 157 192 227 274
#     4   9  17  29  42  61  87 117 155 194 228 271
#     4   9  17  30  46  68  95 124 155 189 229 277
#     4   9  18  32  49  70  94 125 157 187 232 284
#     4   9  19  35  51  70  97 124 155 196 240 286
#     4   9  18  29  44  68  97 125 153 184 226 276
#     4  10  20  33  50  71  94 123 160 200 239 280
#     4  10  20  33  47  63  89 126 160 197 240 278
#
# _framework density 17.328343
#
# number of rings (size 3 to 8) (size 9 to 14) (size 15 to 20)
#    0.000    2.750    0.000    3.000    1.750    6.500 
#    0.000    0.000    0.000    0.000    0.000    0.875 
#    0.000    0.000    0.000    0.000    0.000    0.000 
#
# Total GULP energy -178239.018464 kJ/mol
# GULP energy per Si atom -5569.969327 kJ/mol
# Density = 1.728890 g / cm^3
# Si number density = 17.328343 Si / 1000 Ang^3
#
#
#
# Elastic Constant Matrix: (Units=GPa)
#
#
# Indices 1 2 3 4 5 6 
#
# 1 56.6458 12.5260 3.0568 0.0000 -15.4904 0.0000
# 2 12.5260 19.0615 4.2224 0.0000 -6.1396 0.0000
# 3 3.0568 4.2224 47.1851 0.0000 -17.9098 0.0000
# 4 0.0000 0.0000 0.0000 23.5911 0.0000 -5.2949
# 5 -15.4904 -6.1396 -17.9098 0.0000 26.5543 0.0000
# 6 0.0000 0.0000 0.0000 -5.2949 0.0000 22.6342
#
#
#
# Elastic Compliance Matrix: (Units=1/GPa)
#
#
# Indices 1 2 3 4 5 6 
#
# 1 0.024096 -0.012240 0.005101 0.000000 0.014667 0.000000
# 2 -0.012240 0.062901 -0.002723 0.000000 0.005567 0.000000
# 3 0.005101 -0.002723 0.029566 0.000000 0.022287 0.000000
# 4 0.000000 0.000000 0.000000 0.044738 0.000000 0.010466
# 5 0.014667 0.005567 0.022287 0.000000 0.062534 0.000000
# 6 0.000000 0.000000 0.000000 0.010466 0.000000 0.046629
#
#
# Mechanical properties :
#
#
# Convention : Reuss Voigt Hill
#
# Bulk Modulus (GPa) = 10.32637 18.05586 14.19111
# Shear Modulus (GPa) = 15.50547 21.42838 18.46693
#
# Velocity S-wave (km/s) = 2.99457 3.52036 3.26806
# Velocity P-wave (km/s) = 4.23424 5.19292 4.73789
#
# Compressibility (1/GPa) = 0.09683945
#
# Stress axis : x y z
#
# Youngs Moduli (GPa) = 41.50113 15.89788 33.82294
#
# Poissons Ratio (x) = 0.19459 -0.17254
# Poissons Ratio (y) = 0.50798 0.09210
# Poissons Ratio (z) = -0.21171 0.04329
#
# Static dielectric constant tensor:
#      x y z
#    x 1.604160 0.000000 -0.009140 
#    y 0.000000 1.577820 0.000000 
#    z -0.009140 0.000000 1.607410 
# 
# From -- ./inp_files/71644.got.cif
#   From: 2010.05.17/outbox.cif.g08.bks.cpg/sg11_36_cif.got.tgz:71644.got - 2010.06.03 12:22:45.
