data_PCOD9161519
_publ_section_title
;
Structure prediction by ZEFSAII (Michael W. Deem and Ramdas Pophale) SiO2 
 PCOD9161519
Probable space group: P 21/M
;
_chemical_formula_sum "Si O2"
_cell_formula_units_Z 32
_cell_length_a 20.939288
_cell_length_b 8.877781
_cell_length_c 26.440996
_cell_angle_alpha 90.000000
_cell_angle_beta 20.181292
_cell_angle_gamma 90.000000
_cell_volume 1695.714972
_symmetry_space_group_name_H-M "P 21/M"
_symmetry_group_IT_number 11
_symmetry_cell_setting 'monoclinic'
loop_
_space_group_symop_operation_xyz
x,y,z
-x,1/2+y,-z
-x,-y,-z
x,1/2-y,z
loop_
_atom_site_type_symbol
_atom_site_label
_atom_site_fract_x
_atom_site_fract_y
_atom_site_fract_z
Si Si1 0.822087 0.427380 0.108158
Si Si2 0.636232 0.578879 0.332481
Si Si3 0.415999 0.431148 0.917990
Si Si4 0.170739 0.569452 0.402732
Si Si5 0.769663 0.431768 0.523872
Si Si6 0.789909 0.075649 0.314506
Si Si7 0.979126 0.933268 0.758419
Si Si8 0.615204 0.069646 0.167924
O O1 0.839975 0.250000 0.093841
O O2 0.659311 0.474259 0.267016
O O3 0.777032 0.478618 0.085298
O O4 0.000000 0.500000 0.000000
O O5 0.686451 0.750000 0.282037
O O6 0.422282 0.577029 0.507799
O O7 0.768517 0.521679 0.279548
O O8 0.421113 0.250000 0.916602
O O9 0.628340 0.483330 0.768244
O O10 0.372474 0.483472 0.893647
O O11 0.236332 0.481956 0.083181
O O12 0.164778 0.750000 0.402312
O O13 0.161815 0.536153 0.469652
O O14 0.000000 0.500000 0.500000
O O15 0.738795 0.250000 0.543769
O O16 0.906485 0.476234 0.376691
O O17 0.576703 0.519123 0.663704
O O18 0.839616 0.250000 0.265541
O O19 0.920637 0.020229 0.263342
O O20 0.982083 0.750000 0.757489
O O21 0.617668 0.250000 0.158732
#
# Coordination Sequence:
#
# PCOD9161519 Si02
#       8
#     4   4   4   4   4   4   4   4
#     4  11  24  37  50  70  99 134 178 225 274 322
#     4  10  20  34  50  71 100 133 175 222 269 321
#     4   9  19  35  56  82 108 140 179 217 265 320
#     4   9  18  33  55  81 110 145 180 213 253 307
#     4   9  18  35  59  84 107 138 179 216 258 317
#     4   9  18  32  52  75  99 133 171 214 269 325
#     4   9  17  32  56  81 104 133 177 224 264 314
#     4  10  21  36  53  76 106 138 177 225 272 320
#
# _framework density 18.871096000000001
#
# number of rings (size 3 to 8) (size 9 to 14) (size 15 to 20)
#    0.000    2.500    0.000    2.625    1.750    5.500 
#    0.000    1.875    0.000    0.000    0.000    0.000 
#    0.000    0.000    0.000    0.000    0.000    0.000 
#
# Total GULP energy -178416.733082 kJ/mol
# GULP energy per Si atom -5575.522909 kJ/mol
# Density = 1.882814 g / cm^3
# Si number density = 18.871096 Si / 1000 Ang^3
#
#
#
# Elastic Constant Matrix: (Units=GPa)
#
#
# Indices 1 2 3 4 5 6 
#
# 1 50.9767 3.4718 14.7951 0.0000 -24.7942 0.0000
# 2 3.4718 -6.0956 -1.1526 0.0000 -13.4877 0.0000
# 3 14.7951 -1.1526 80.3888 0.0000 -4.7361 0.0000
# 4 0.0000 0.0000 0.0000 19.6007 0.0000 -3.6769
# 5 -24.7942 -13.4877 -4.7361 0.0000 27.7776 0.0000
# 6 0.0000 0.0000 0.0000 -3.6769 0.0000 25.3485
#
#
#
# Elastic Compliance Matrix: (Units=1/GPa)
#
#
# Indices 1 2 3 4 5 6 
#
# 1 0.030692 -0.019452 -0.004919 0.000000 0.017112 0.000000
# 2 -0.019452 -0.065831 -0.000273 0.000000 -0.049374 0.000000
# 3 -0.004919 -0.000273 0.013207 0.000000 -0.002272 0.000000
# 4 0.000000 0.000000 0.000000 0.052446 0.000000 0.007608
# 5 0.017112 -0.049374 -0.002272 0.000000 0.026913 0.000000
# 6 0.000000 0.000000 0.000000 0.007608 0.000000 0.040554
#
#
# Mechanical properties :
#
#
# Convention : Reuss Voigt Hill
#
# Bulk Modulus (GPa) = -14.04109 17.72206 1.84048
# Shear Modulus (GPa) = 40.47601 21.75574 31.11587
#
# Velocity S-wave (km/s) = 4.63630 3.39906 4.06503
# Velocity P-wave (km/s) = 4.60474 4.98160 4.79687
#
# Compressibility (1/GPa) = -0.07121952
#
# Stress axis : x y z
#
# Youngs Moduli (GPa) = 32.58133 -15.19050 75.71630
#
# Poissons Ratio (x) = -0.29549 0.37248
# Poissons Ratio (y) = 0.63378 0.02065
# Poissons Ratio (z) = 0.16028 -0.00414
#
# Static dielectric constant tensor:
#      x y z
#    x 1.668930 0.000000 0.018600 
#    y 0.000000 1.629700 0.000000 
#    z 0.018600 0.000000 1.724170 
# 
# From -- ./inp_files/67072.got.cif
#   From: 2010.05.17/outbox.cif.g08.bks.cpg/sg11_34_cif.got.tgz:67072.got - 2010.06.03 12:22:45.
