data_PCOD9161164
_publ_section_title
;
Structure prediction by ZEFSAII (Michael W. Deem and Ramdas Pophale) SiO2 
 PCOD9161164
Probable space group: P 21/M
;
_chemical_formula_sum "Si O2"
_cell_formula_units_Z 28
_cell_length_a 16.233299
_cell_length_b 8.872068
_cell_length_c 13.208907
_cell_angle_alpha 90.000000
_cell_angle_beta 55.000290
_cell_angle_gamma 90.000000
_cell_volume 1558.348513
_symmetry_space_group_name_H-M "P 21/M"
_symmetry_group_IT_number 11
_symmetry_cell_setting 'monoclinic'
loop_
_space_group_symop_operation_xyz
x,y,z
-x,1/2+y,-z
-x,-y,-z
x,1/2-y,z
loop_
_atom_site_type_symbol
_atom_site_label
_atom_site_fract_x
_atom_site_fract_y
_atom_site_fract_z
Si Si1 0.462869 0.930369 0.921586
Si Si2 0.132754 0.068521 0.492152
Si Si3 0.715693 0.569555 0.216840
Si Si4 0.290200 0.432337 0.553361
Si Si5 0.513879 0.430377 0.677051
Si Si6 0.098094 0.568258 0.305509
Si Si7 0.232837 0.930429 0.024931
O O1 0.474933 0.750000 0.913404
O O2 0.520315 0.000958 0.785201
O O3 0.344823 0.965739 0.987271
O O4 0.500000 0.000000 0.000000
O O5 0.136325 0.250000 0.481104
O O6 0.213216 0.021552 0.519510
O O7 0.019598 0.026344 0.606294
O O8 0.149205 0.997908 0.370201
O O9 0.723929 0.750000 0.203709
O O10 0.745342 0.522887 0.309193
O O11 0.597519 0.530534 0.285140
O O12 0.774884 0.498663 0.081410
O O13 0.297978 0.250000 0.546825
O O14 0.398654 0.500915 0.452700
O O15 0.522075 0.250000 0.675010
O O16 0.104629 0.750000 0.305074
O O17 0.152445 0.517093 0.164685
O O18 0.225495 0.750000 0.021939
#
# Coordination Sequence:
#
# PCOD9161164 Si02
#       7
#     4   4   4   4   4   4   4
#     4  10  20  33  48  72 104 135 168 209 252 302
#     4   9  19  34  53  77 102 131 166 206 256 306
#     4   9  19  35  52  73 103 136 171 209 249 302
#     4  10  20  34  52  76 104 134 170 212 257 299
#     4  10  20  33  50  73 100 137 175 208 250 299
#     4   9  18  35  55  75 102 132 165 208 254 303
#     4   9  19  34  53  73  98 134 169 205 253 300
#
# _framework density 17.967739999999999
#
# number of rings (size 3 to 8) (size 9 to 14) (size 15 to 20)
#    0.000    2.571    0.000    1.286    2.000    2.857 
#    0.000    0.714    0.000    0.000    0.000    0.000 
#    0.000    0.000    0.000    0.000    0.000    0.000 
#
# Total GULP energy -156209.600506 kJ/mol
# GULP energy per Si atom -5578.914304 kJ/mol
# Density = 1.792684 g / cm^3
# Si number density = 17.967740 Si / 1000 Ang^3
#
#
#
# Elastic Constant Matrix: (Units=GPa)
#
#
# Indices 1 2 3 4 5 6 
#
# 1 45.0594 14.5503 36.1579 0.0000 14.5892 0.0000
# 2 14.5503 7.6914 22.2318 0.0000 1.8840 0.0000
# 3 36.1579 22.2318 152.5391 0.0000 12.0608 0.0000
# 4 0.0000 0.0000 0.0000 31.0950 0.0000 3.8811
# 5 14.5892 1.8840 12.0608 0.0000 20.5818 0.0000
# 6 0.0000 0.0000 0.0000 3.8811 0.0000 17.6592
#
#
#
# Elastic Compliance Matrix: (Units=1/GPa)
#
#
# Indices 1 2 3 4 5 6 
#
# 1 0.095793 -0.198133 0.010596 0.000000 -0.055975 0.000000
# 2 -0.198133 0.634505 -0.054550 0.000000 0.114330 0.000000
# 3 0.010596 -0.054550 0.012786 0.000000 -0.010010 0.000000
# 4 0.000000 0.000000 0.000000 0.033067 0.000000 -0.007267
# 5 -0.055975 0.114330 -0.010010 0.000000 0.083664 0.000000
# 6 0.000000 0.000000 0.000000 -0.007267 0.000000 0.058225
#
#
# Mechanical properties :
#
#
# Convention : Reuss Voigt Hill
#
# Bulk Modulus (GPa) = 3.86236 39.01888 21.44062
# Shear Modulus (GPa) = 3.35905 22.69051 13.02478
#
# Velocity S-wave (km/s) = 1.36878 3.55751 2.69531
# Velocity P-wave (km/s) = 2.15693 6.21593 4.65242
#
# Compressibility (1/GPa) = 0.25890887
#
# Stress axis : x y z
#
# Youngs Moduli (GPa) = 10.43914 1.57603 78.21095
#
# Poissons Ratio (x) = 0.31226 -0.82871
# Poissons Ratio (y) = 2.06834 4.26642
# Poissons Ratio (z) = -0.11061 0.08597
#
# Static dielectric constant tensor:
#      x y z
#    x 1.608420 0.000000 -0.000070 
#    y 0.000000 1.607680 0.000000 
#    z -0.000070 0.000000 1.612090 
# 
# From -- ./inp_files/37211.got.cif
#   From: 2010.05.17/outbox.cif.g08.bks.cpg/sg11_19_cif.got.tgz:37211.got - 2010.06.03 12:22:45.
