data_PCOD9161580
_publ_section_title
;
Structure prediction by ZEFSAII (Michael W. Deem and Ramdas Pophale) SiO2 
 PCOD9161580
Probable space group: P 21/M
;
_chemical_formula_sum "Si O2"
_cell_formula_units_Z 32
_cell_length_a 17.391102
_cell_length_b 9.201378
_cell_length_c 14.740135
_cell_angle_alpha 90.000000
_cell_angle_beta 144.035354
_cell_angle_gamma 90.000000
_cell_volume 1385.259191
_symmetry_space_group_name_H-M "P 21/M"
_symmetry_group_IT_number 11
_symmetry_cell_setting 'monoclinic'
loop_
_space_group_symop_operation_xyz
x,y,z
-x,1/2+y,-z
-x,-y,-z
x,1/2-y,z
loop_
_atom_site_type_symbol
_atom_site_label
_atom_site_fract_x
_atom_site_fract_y
_atom_site_fract_z
Si Si1 0.888686 0.425543 0.332883
Si Si2 0.718625 0.915689 0.695876
Si Si3 0.897206 0.418639 0.001839
Si Si4 0.474254 0.915642 0.605228
Si Si5 0.258022 0.915641 0.633086
Si Si6 0.453326 0.413903 0.042416
Si Si7 0.051031 0.074977 0.316276
Si Si8 0.347794 0.913749 0.093990
O O1 0.893991 0.250000 0.335347
O O2 0.769008 0.459647 0.287114
O O3 0.933692 0.468023 0.274261
O O4 0.000000 0.500000 0.500000
O O5 0.743558 0.750000 0.688539
O O6 0.592552 0.907906 0.643763
O O7 0.842560 0.980413 0.869229
O O8 0.660530 0.024216 0.565181
O O9 0.916215 0.250000 0.991099
O O10 0.776691 0.417092 0.959111
O O11 0.015968 0.470627 0.180016
O O12 0.459297 0.750000 0.624568
O O13 0.532624 0.032074 0.730298
O O14 0.208847 0.750000 0.575545
O O15 0.412844 0.913181 0.770758
O O16 0.180549 0.012976 0.487452
O O17 0.416826 0.250000 0.984076
O O18 0.345513 0.487038 0.003018
O O19 0.500000 0.500000 0.000000
O O20 0.056803 0.250000 0.319560
O O21 0.366313 0.750000 0.079010
#
# Coordination Sequence:
#
# PCOD9161580 Si02
#       8
#     4   4   4   4   4   4   4   4
#     4   8  14  26  44  64  86 113 149 192 239 286
#     4   9  16  26  43  70 102 134 166 201 243 294
#     4   9  18  30  47  73 105 137 164 199 250 300
#     4   9  16  28  47  69  99 133 168 205 243 294
#     4   9  19  34  51  68  92 124 162 206 252 296
#     4  11  24  39  54  72  97 131 171 213 254 294
#     4   9  17  29  49  72  96 125 161 201 245 299
#     4  10  20  34  52  73 101 135 170 207 249 296
#
# _framework density 23.100370999999999
#
# number of rings (size 3 to 8) (size 9 to 14) (size 15 to 20)
#    0.000    2.750    0.000    1.500    1.750    5.000 
#    0.000    0.000    0.000    0.000    0.000    0.875 
#    0.000    0.000    0.000    0.000    0.000    0.000 
#
# Total GULP energy -178520.898055 kJ/mol
# GULP energy per Si atom -5578.778064 kJ/mol
# Density = 2.304779 g / cm^3
# Si number density = 23.100371 Si / 1000 Ang^3
#
#
#
# Elastic Constant Matrix: (Units=GPa)
#
#
# Indices 1 2 3 4 5 6 
#
# 1 71.1580 14.8694 -3.4051 0.0000 -7.1327 0.0000
# 2 14.8694 86.4847 22.4066 0.0000 -5.4969 0.0000
# 3 -3.4051 22.4066 109.5742 0.0000 -11.0244 0.0000
# 4 0.0000 0.0000 0.0000 24.5284 0.0000 -10.7048
# 5 -7.1327 -5.4969 -11.0244 0.0000 24.7026 0.0000
# 6 0.0000 0.0000 0.0000 -10.7048 0.0000 21.5507
#
#
#
# Elastic Compliance Matrix: (Units=1/GPa)
#
#
# Indices 1 2 3 4 5 6 
#
# 1 0.015131 -0.002701 0.001467 0.000000 0.004423 0.000000
# 2 -0.002701 0.012758 -0.002603 0.000000 0.000898 0.000000
# 3 0.001467 -0.002603 0.010144 0.000000 0.004372 0.000000
# 4 0.000000 0.000000 0.000000 0.052053 0.000000 0.025856
# 5 0.004423 0.000898 0.004372 0.000000 0.043909 0.000000
# 6 0.000000 0.000000 0.000000 0.025856 0.000000 0.059246
#
#
# Mechanical properties :
#
#
# Convention : Reuss Voigt Hill
#
# Bulk Modulus (GPa) = 32.93589 37.21764 35.07676
# Shear Modulus (GPa) = 23.69290 29.71274 26.70282
#
# Velocity S-wave (km/s) = 3.20605 3.59032 3.40361
# Velocity P-wave (km/s) = 5.29091 5.77351 5.53747
#
# Compressibility (1/GPa) = 0.03036202
#
# Stress axis : x y z
#
# Youngs Moduli (GPa) = 66.08899 78.37981 98.58184
#
# Poissons Ratio (x) = 0.21167 -0.14466
# Poissons Ratio (y) = 0.17848 0.25656
# Poissons Ratio (z) = -0.09698 0.20399
#
# Static dielectric constant tensor:
#      x y z
#    x 1.961360 0.000000 -0.008270 
#    y 0.000000 1.814540 0.000000 
#    z -0.008270 0.000000 1.922890 
# 
# From -- ./inp_files/61746.got.cif
#   From: 2010.05.17/outbox.cif.g08.bks.cpg/sg11_31_cif.got.tgz:61746.got - 2010.06.03 12:22:45.
