data_PCOD9161124
_publ_section_title
;
Structure prediction by ZEFSAII (Michael W. Deem and Ramdas Pophale) SiO2 
 PCOD9161124
Probable space group: P 21/M
;
_chemical_formula_sum "Si O2"
_cell_formula_units_Z 24
_cell_length_a 13.551642
_cell_length_b 11.392623
_cell_length_c 12.834709
_cell_angle_alpha 90.000000
_cell_angle_beta 30.820054
_cell_angle_gamma 90.000000
_cell_volume 1015.226356
_symmetry_space_group_name_H-M "P 21/M"
_symmetry_group_IT_number 11
_symmetry_cell_setting 'monoclinic'
loop_
_space_group_symop_operation_xyz
x,y,z
-x,1/2+y,-z
-x,-y,-z
x,1/2-y,z
loop_
_atom_site_type_symbol
_atom_site_label
_atom_site_fract_x
_atom_site_fract_y
_atom_site_fract_z
Si Si1 0.086514 0.750000 0.676540
Si Si2 0.903212 0.506429 0.345182
Si Si3 0.264735 0.750000 0.745207
Si Si4 0.730225 0.505043 0.271429
Si Si5 0.622411 0.750000 0.079248
Si Si6 0.310929 0.497610 0.064634
Si Si7 0.652356 0.750000 0.276901
Si Si8 0.298881 0.117819 0.282530
O O1 0.144703 0.626717 0.574639
O O2 0.159719 0.750000 0.728547
O O3 0.854284 0.750000 0.885196
O O4 0.831967 0.514495 0.291356
O O5 0.796053 0.592680 0.520532
O O6 0.131528 0.521084 0.152883
O O7 0.220295 0.619555 0.828480
O O8 0.494508 0.750000 0.512092
O O9 0.500000 0.500000 0.500000
O O10 0.765664 0.627383 0.180165
O O11 0.539038 0.750000 0.270962
O O12 0.584616 0.874054 0.059643
O O13 0.234997 0.472233 0.250054
O O14 0.472369 0.596341 0.915016
O O15 0.254499 0.250000 0.288909
#
# Coordination Sequence:
#
# PCOD9161124 Si02
#       8
#     2   4   2   4   2   4   2   4
#     4   8  18  36  58  93 107 156 214 245 298 383
#     4  10  21  40  67  89 129 168 206 263 320 375
#     4   8  16  34  54  77 114 154 209 255 291 369
#     4   9  19  35  58  91 122 162 215 257 309 381
#     4  10  20  38  65  82 127 162 206 264 303 379
#     4  10  23  43  62  95 126 162 216 263 310 396
#     4  10  20  32  59  88 116 166 205 258 322 353
#     4  11  24  41  64  94 126 165 210 265 329 375
#
# _framework density 23.640048
#
# number of rings (size 3 to 8) (size 9 to 14) (size 15 to 20)
#    0.000    2.333    0.833    0.500    8.167    0.667 
#    1.500    7.500    0.000    0.000    0.000    0.000 
#    0.000    0.000    0.000    0.000    0.000    0.000 
#
# Total GULP energy -134071.171119 kJ/mol
# GULP energy per Si atom -5586.298797 kJ/mol
# Density = 2.358624 g / cm^3
# Si number density = 23.640048 Si / 1000 Ang^3
#
#
#
# Elastic Constant Matrix: (Units=GPa)
#
#
# Indices 1 2 3 4 5 6 
#
# 1 93.9669 11.6237 17.3203 0.0000 -16.3417 0.0000
# 2 11.6237 121.6737 15.9027 0.0000 14.5607 0.0000
# 3 17.3203 15.9027 62.3535 0.0000 -6.6875 0.0000
# 4 0.0000 0.0000 0.0000 5.9341 0.0000 0.5604
# 5 -16.3417 14.5607 -6.6875 0.0000 36.8964 0.0000
# 6 0.0000 0.0000 0.0000 0.5604 0.0000 35.1264
#
#
#
# Elastic Compliance Matrix: (Units=1/GPa)
#
#
# Indices 1 2 3 4 5 6 
#
# 1 0.012247 -0.001523 -0.002414 0.000000 0.005588 0.000000
# 2 -0.001523 0.009255 -0.002449 0.000000 -0.004771 0.000000
# 3 -0.002414 -0.002449 0.017665 0.000000 0.003099 0.000000
# 4 0.000000 0.000000 0.000000 0.168773 0.000000 -0.002693
# 5 0.005588 -0.004771 0.003099 0.000000 0.032022 0.000000
# 6 0.000000 0.000000 0.000000 -0.002693 0.000000 0.028512
#
#
# Mechanical properties :
#
#
# Convention : Reuss Voigt Hill
#
# Bulk Modulus (GPa) = 37.88622 40.85415 39.37018
# Shear Modulus (GPa) = 17.23865 31.13454 24.18659
#
# Velocity S-wave (km/s) = 2.70333 3.63302 3.20209
# Velocity P-wave (km/s) = 5.07987 5.90912 5.51012
#
# Compressibility (1/GPa) = 0.02639482
#
# Stress axis : x y z
#
# Youngs Moduli (GPa) = 81.65102 108.04675 56.60848
#
# Poissons Ratio (x) = 0.16457 0.13666
# Poissons Ratio (y) = 0.12437 0.13864
# Poissons Ratio (z) = 0.19712 0.26461
#
# Static dielectric constant tensor:
#      x y z
#    x 1.861210 0.000000 -0.013600 
#    y 0.000000 1.921990 0.000000 
#    z -0.013600 0.000000 1.901480 
# 
# From -- ./inp_files/20885.got.cif
#   From: 2010.05.17/outbox.cif.g08.bks.cpg/sg11_11_cif.got.tgz:20885.got - 2010.06.03 12:22:45.
