data_PCOD9161726
_publ_section_title
;
Structure prediction by ZEFSAII (Michael W. Deem and Ramdas Pophale) SiO2 
 PCOD9161726
Probable space group: P 21/M
;
_chemical_formula_sum "Si O2"
_cell_formula_units_Z 32
_cell_length_a 10.749956
_cell_length_b 13.840590
_cell_length_c 16.423236
_cell_angle_alpha 90.000000
_cell_angle_beta 143.722709
_cell_angle_gamma 90.000000
_cell_volume 1445.829139
_symmetry_space_group_name_H-M "P 21/M"
_symmetry_group_IT_number 11
_symmetry_cell_setting 'monoclinic'
loop_
_space_group_symop_operation_xyz
x,y,z
-x,1/2+y,-z
-x,-y,-z
x,1/2-y,z
loop_
_atom_site_type_symbol
_atom_site_label
_atom_site_fract_x
_atom_site_fract_y
_atom_site_fract_z
Si Si1 0.718380 0.637488 0.990056
Si Si2 0.578008 0.134015 0.869429
Si Si3 0.530981 0.637704 0.445009
Si Si4 0.744129 0.134264 0.278101
Si Si5 0.236992 0.046243 0.287642
Si Si6 0.813843 0.865512 0.435747
Si Si7 0.989838 0.865869 0.986052
Si Si8 0.787109 0.469445 0.130111
O O1 0.742152 0.750000 0.019553
O O2 0.718463 0.578276 0.073464
O O3 0.499127 0.623336 0.825721
O O4 0.904496 0.603217 0.028932
O O5 0.569373 0.250000 0.870986
O O6 0.356010 0.095950 0.718549
O O7 0.652977 0.091594 0.994098
O O8 0.768779 0.111026 0.907659
O O9 0.462218 0.750000 0.399126
O O10 0.618639 0.618037 0.582037
O O11 0.355854 0.555515 0.340818
O O12 0.710643 0.620234 0.470884
O O13 0.770645 0.250000 0.274886
O O14 0.763110 0.073975 0.205624
O O15 0.941982 0.104937 0.438125
O O16 0.160178 0.091210 0.162504
O O17 0.028917 0.035893 0.232129
O O18 0.815385 0.750000 0.423903
O O19 0.971356 0.750000 0.973697
#
# Coordination Sequence:
#
# PCOD9161726 Si02
#       8
#     4   4   4   4   4   4   4   4
#     4  10  23  38  55  80 112 154 192 229 278 340
#     4   9  19  33  56  90 116 141 179 235 293 332
#     4  10  20  34  53  84 120 151 186 229 284 341
#     4  10  20  39  62  82 108 148 196 236 279 333
#     4  10  21  33  57  87 115 150 186 233 287 342
#     4   9  18  33  56  82 111 143 182 230 278 331
#     4   9  19  36  57  82 116 149 186 231 282 342
#     4  11  21  35  59  86 112 143 186 242 286 329
#
# _framework density 22.132629000000001
#
# number of rings (size 3 to 8) (size 9 to 14) (size 15 to 20)
#    0.000    2.250    1.250    1.125    3.500    2.500 
#    0.000    0.625    0.000    0.000    0.000    6.125 
#    0.000    0.000    0.000    0.000    0.000    0.000 
#
# Total GULP energy -178841.202289 kJ/mol
# GULP energy per Si atom -5588.787572 kJ/mol
# Density = 2.208225 g / cm^3
# Si number density = 22.132629 Si / 1000 Ang^3
#
#
#
# Elastic Constant Matrix: (Units=GPa)
#
#
# Indices 1 2 3 4 5 6 
#
# 1 40.6639 5.7502 6.0759 0.0000 21.0565 0.0000
# 2 5.7502 75.0528 17.6959 0.0000 -1.7678 0.0000
# 3 6.0759 17.6959 118.1703 0.0000 11.9704 0.0000
# 4 0.0000 0.0000 0.0000 34.0340 0.0000 1.2797
# 5 21.0565 -1.7678 11.9704 0.0000 21.6713 0.0000
# 6 0.0000 0.0000 0.0000 1.2797 0.0000 10.3149
#
#
#
# Elastic Compliance Matrix: (Units=1/GPa)
#
#
# Indices 1 2 3 4 5 6 
#
# 1 0.052782 -0.006175 0.003662 0.000000 -0.053811 0.000000
# 2 -0.006175 0.014653 -0.002760 0.000000 0.008720 0.000000
# 3 0.003662 -0.002760 0.009608 0.000000 -0.009090 0.000000
# 4 0.000000 0.000000 0.000000 0.029520 0.000000 -0.003662
# 5 -0.053811 0.008720 -0.009090 0.000000 0.104161 0.000000
# 6 0.000000 0.000000 0.000000 -0.003662 0.000000 0.097401
#
#
# Mechanical properties :
#
#
# Convention : Reuss Voigt Hill
#
# Bulk Modulus (GPa) = 15.03814 32.54787 23.79300
# Shear Modulus (GPa) = 14.66971 26.82838 20.74904
#
# Velocity S-wave (km/s) = 2.57730 3.48539 3.06516
# Velocity P-wave (km/s) = 3.95802 5.56193 4.82706
#
# Compressibility (1/GPa) = 0.06649757
#
# Stress axis : x y z
#
# Youngs Moduli (GPa) = 18.94572 68.24450 104.07733
#
# Poissons Ratio (x) = 0.42140 -0.38111
# Poissons Ratio (y) = 0.11699 0.28726
# Poissons Ratio (z) = -0.06938 0.18836
#
# Static dielectric constant tensor:
#      x y z
#    x 1.792070 0.000000 0.032610 
#    y 0.000000 1.834620 0.000000 
#    z 0.032610 0.000000 1.839320 
# 
# From -- ./inp_files/59515.got.cif
#   From: 2010.05.17/outbox.cif.g08.bks.cpg/sg11_30_cif.got.tgz:59515.got - 2010.06.03 12:22:45.
