data_PCOD9161929
_publ_section_title
;
Structure prediction by ZEFSAII (Michael W. Deem and Ramdas Pophale) SiO2 
 PCOD9161929
Probable space group: P 21/M
;
_chemical_formula_sum "Si O2"
_cell_formula_units_Z 32
_cell_length_a 12.085233
_cell_length_b 13.740179
_cell_length_c 14.241272
_cell_angle_alpha 90.000000
_cell_angle_beta 41.486447
_cell_angle_gamma 90.000000
_cell_volume 1566.551327
_symmetry_space_group_name_H-M "P 21/M"
_symmetry_group_IT_number 11
_symmetry_cell_setting 'monoclinic'
loop_
_space_group_symop_operation_xyz
x,y,z
-x,1/2+y,-z
-x,-y,-z
x,1/2-y,z
loop_
_atom_site_type_symbol
_atom_site_label
_atom_site_fract_x
_atom_site_fract_y
_atom_site_fract_z
Si Si1 0.615154 0.490209 0.666238
Si Si2 0.106613 0.865438 0.590634
Si Si3 0.758464 0.994903 0.143617
Si Si4 0.904358 0.865778 0.526654
Si Si5 0.855745 0.367027 0.796495
Si Si6 0.991433 0.633833 0.098941
Si Si7 0.466162 0.865730 0.097126
Si Si8 0.827553 0.864724 0.916116
O O1 0.726852 0.427874 0.523467
O O2 0.436708 0.517696 0.736459
O O3 0.730240 0.579065 0.626581
O O4 0.581192 0.422388 0.778345
O O5 0.143785 0.750000 0.568591
O O6 0.999310 0.883654 0.563977
O O7 0.990594 0.888693 0.752892
O O8 0.823935 0.927526 0.186459
O O9 0.799672 0.928402 0.025862
O O10 0.873039 0.090623 0.060719
O O11 0.878791 0.750000 0.535252
O O12 0.027745 0.898169 0.363908
O O13 0.855154 0.250000 0.794070
O O14 0.664059 0.397280 0.900314
O O15 0.932469 0.390755 0.847751
O O16 0.969046 0.750000 0.104766
O O17 0.440608 0.750000 0.129933
O O18 0.662879 0.878117 0.955642
O O19 0.833392 0.750000 0.937685
#
# Coordination Sequence:
#
# PCOD9161929 Si02
#       8
#     4   4   4   4   4   4   4   4
#     4  11  21  34  58  86 115 153 185 233 286 333
#     4  10  20  34  55  86 121 158 191 224 279 342
#     4  10  23  40  60  89 111 143 193 240 285 337
#     4  10  21  35  52  81 123 158 189 227 279 341
#     4   9  18  34  57  82 110 151 192 230 276 334
#     4  10  22  41  64  82 108 148 192 237 286 337
#     4   9  17  32  54  86 120 149 189 234 278 332
#     4   9  19  34  56  86 122 153 183 234 286 328
#
# _framework density 20.427036000000001
#
# number of rings (size 3 to 8) (size 9 to 14) (size 15 to 20)
#    0.000    2.250    1.250    1.125    1.750    3.000 
#    0.000    5.625    0.000    0.000    0.000    0.000 
#    0.000    0.000    0.000    0.000    0.000    0.000 
#
# Total GULP energy -178800.984957 kJ/mol
# GULP energy per Si atom -5587.530780 kJ/mol
# Density = 2.038054 g / cm^3
# Si number density = 20.427036 Si / 1000 Ang^3
#
#
#
# Elastic Constant Matrix: (Units=GPa)
#
#
# Indices 1 2 3 4 5 6 
#
# 1 61.8401 -12.9057 -12.1817 0.0000 -14.8050 0.0000
# 2 -12.9057 75.9355 -6.0408 0.0000 -2.5730 0.0000
# 3 -12.1817 -6.0408 46.2216 0.0000 -12.4083 0.0000
# 4 0.0000 0.0000 0.0000 22.9659 0.0000 -4.0803
# 5 -14.8050 -2.5730 -12.4083 0.0000 31.3255 0.0000
# 6 0.0000 0.0000 0.0000 -4.0803 0.0000 24.7814
#
#
#
# Elastic Compliance Matrix: (Units=1/GPa)
#
#
# Indices 1 2 3 4 5 6 
#
# 1 0.023263 0.005372 0.011081 0.000000 0.015825 0.000000
# 2 0.005372 0.014660 0.004852 0.000000 0.005665 0.000000
# 3 0.011081 0.004852 0.029880 0.000000 0.017472 0.000000
# 4 0.000000 0.000000 0.000000 0.044855 0.000000 0.007385
# 5 0.015825 0.005665 0.017472 0.000000 0.046788 0.000000
# 6 0.000000 0.000000 0.000000 0.007385 0.000000 0.041569
#
#
# Mechanical properties :
#
#
# Convention : Reuss Voigt Hill
#
# Bulk Modulus (GPa) = 9.05684 13.52677 11.29181
# Shear Modulus (GPa) = 25.61354 30.15625 27.88490
#
# Velocity S-wave (km/s) = 3.54489 3.84642 3.69873
# Velocity P-wave (km/s) = 4.60417 5.13449 4.87654
#
# Compressibility (1/GPa) = 0.11041373
#
# Stress axis : x y z
#
# Youngs Moduli (GPa) = 42.98606 68.21304 33.46739
#
# Poissons Ratio (x) = -0.36641 -0.37087
# Poissons Ratio (y) = -0.23090 -0.16240
# Poissons Ratio (z) = -0.47635 -0.33099
#
# Static dielectric constant tensor:
#      x y z
#    x 1.739760 0.000000 -0.001190 
#    y 0.000000 1.760710 0.000000 
#    z -0.001190 0.000000 1.715480 
# 
# From -- ./inp_files/47621.got.cif
#   From: 2010.05.17/outbox.cif.g08.bks.cpg/sg11_24_cif.got.tgz:47621.got - 2010.06.03 12:22:45.
