data_PCOD9161799
_publ_section_title
;
Structure prediction by ZEFSAII (Michael W. Deem and Ramdas Pophale) SiO2 
 PCOD9161799
Probable space group: P 21/M
;
_chemical_formula_sum "Si O2"
_cell_formula_units_Z 32
_cell_length_a 16.358558
_cell_length_b 8.815163
_cell_length_c 26.425911
_cell_angle_alpha 90.000000
_cell_angle_beta 28.778558
_cell_angle_gamma 90.000000
_cell_volume 1834.571326
_symmetry_space_group_name_H-M "P 21/M"
_symmetry_group_IT_number 11
_symmetry_cell_setting 'monoclinic'
loop_
_space_group_symop_operation_xyz
x,y,z
-x,1/2+y,-z
-x,-y,-z
x,1/2-y,z
loop_
_atom_site_type_symbol
_atom_site_label
_atom_site_fract_x
_atom_site_fract_y
_atom_site_fract_z
Si Si1 0.774366 0.432235 0.582839
Si Si2 0.334914 0.931138 0.152669
Si Si3 0.905573 0.431263 0.099461
Si Si4 0.158787 0.431207 0.346489
Si Si5 0.400368 0.068540 0.600841
Si Si6 0.982708 0.932259 0.165210
Si Si7 0.459722 0.433204 0.682447
Si Si8 0.728591 0.931191 0.920634
O O1 0.771273 0.250000 0.592010
O O2 0.760577 0.511508 0.644672
O O3 0.622260 0.473066 0.627751
O O4 0.958537 0.470863 0.459594
O O5 0.316186 0.750000 0.159229
O O6 0.245442 0.992376 0.251340
O O7 0.260007 0.007491 0.142801
O O8 0.536679 0.966064 0.043262
O O9 0.913634 0.250000 0.094531
O O10 0.986666 0.494938 0.107357
O O11 0.710842 0.487812 0.205537
O O12 0.000000 0.500000 0.000000
O O13 0.173592 0.250000 0.334611
O O14 0.408007 0.250000 0.592834
O O15 0.201379 0.025487 0.711419
O O16 0.478373 0.025606 0.613155
O O17 0.500000 0.000000 0.500000
O O18 0.988205 0.750000 0.157670
O O19 0.133292 0.991631 0.118514
O O20 0.435721 0.250000 0.697712
O O21 0.750559 0.750000 0.909199
#
# Coordination Sequence:
#
# PCOD9161799 Si02
#       8
#     4   4   4   4   4   4   4   4
#     4   9  19  36  56  77 105 142 180 221 269 318
#     4  10  21  37  56  79 109 143 178 220 268 316
#     4  11  22  37  57  81 108 140 178 220 268 320
#     4  10  20  34  54  81 110 141 179 221 265 317
#     4   9  19  34  53  78 107 139 175 218 266 315
#     4  10  21  38  57  80 110 142 178 221 267 314
#     4   9  19  37  56  76 106 141 178 222 269 316
#     4  10  21  37  57  81 108 141 181 222 266 316
#
# _framework density 17.442765999999999
#
# number of rings (size 3 to 8) (size 9 to 14) (size 15 to 20)
#    0.000    2.250    0.000    3.375    0.000    7.000 
#    0.000    2.500    0.000    0.000    0.000    0.000 
#    0.000    0.000    0.000    0.000    0.000    0.000 
#
# Total GULP energy -178641.438351 kJ/mol
# GULP energy per Si atom -5582.544948 kJ/mol
# Density = 1.740307 g / cm^3
# Si number density = 17.442766 Si / 1000 Ang^3
#
#
#
# Elastic Constant Matrix: (Units=GPa)
#
#
# Indices 1 2 3 4 5 6 
#
# 1 176.0631 69.9287 105.8520 0.0000 -4.6343 0.0000
# 2 69.9287 65.8317 58.2073 0.0000 4.7257 0.0000
# 3 105.8520 58.2073 122.8363 0.0000 29.9844 0.0000
# 4 0.0000 0.0000 0.0000 33.9367 0.0000 3.5741
# 5 -4.6343 4.7257 29.9844 0.0000 30.6021 0.0000
# 6 0.0000 0.0000 0.0000 3.5741 0.0000 35.2659
#
#
#
# Elastic Compliance Matrix: (Units=1/GPa)
#
#
# Indices 1 2 3 4 5 6 
#
# 1 0.023047 -0.004932 -0.024396 0.000000 0.028156 0.000000
# 2 -0.004932 0.030136 -0.011451 0.000000 0.005819 0.000000
# 3 -0.024396 -0.011451 0.046082 0.000000 -0.047078 0.000000
# 4 0.000000 0.000000 0.000000 0.029784 0.000000 -0.003019
# 5 0.028156 0.005819 -0.047078 0.000000 0.082170 0.000000
# 6 0.000000 0.000000 0.000000 -0.003019 0.000000 0.028662
#
#
# Mechanical properties :
#
#
# Convention : Reuss Voigt Hill
#
# Bulk Modulus (GPa) = 56.47446 92.52299 74.49873
# Shear Modulus (GPa) = 15.27458 28.67714 21.97586
#
# Velocity S-wave (km/s) = 2.96243 4.05911 3.55334
# Velocity P-wave (km/s) = 6.64444 8.66761 7.72257
#
# Compressibility (1/GPa) = 0.01770712
#
# Stress axis : x y z
#
# Youngs Moduli (GPa) = 43.38927 33.18314 21.70061
#
# Poissons Ratio (x) = 0.16365 0.52941
# Poissons Ratio (y) = 0.21399 0.24849
# Poissons Ratio (z) = 1.05854 0.37997
#
# Static dielectric constant tensor:
#      x y z
#    x 1.568100 0.000000 -0.008900 
#    y 0.000000 1.583370 0.000000 
#    z -0.008900 0.000000 1.571570 
# 
# From -- ./inp_files/69058.got.cif
#   From: 2010.05.17/outbox.cif.g08.bks.cpg/sg11_35_cif.got.tgz:69058.got - 2010.06.03 12:22:45.
