data_PCOD9161410
_publ_section_title
;
Structure prediction by ZEFSAII (Michael W. Deem and Ramdas Pophale) SiO2 
 PCOD9161410
Probable space group: P 21/M
;
_chemical_formula_sum "Si O2"
_cell_formula_units_Z 32
_cell_length_a 22.690157
_cell_length_b 7.707051
_cell_length_c 11.473954
_cell_angle_alpha 90.000000
_cell_angle_beta 46.015700
_cell_angle_gamma 90.000000
_cell_volume 1443.736105
_symmetry_space_group_name_H-M "P 21/M"
_symmetry_group_IT_number 11
_symmetry_cell_setting 'monoclinic'
loop_
_space_group_symop_operation_xyz
x,y,z
-x,1/2+y,-z
-x,-y,-z
x,1/2-y,z
loop_
_atom_site_type_symbol
_atom_site_label
_atom_site_fract_x
_atom_site_fract_y
_atom_site_fract_z
Si Si1 0.861011 0.054275 0.235459
Si Si2 0.453301 0.955583 0.184706
Si Si3 0.735344 0.549408 0.594931
Si Si4 0.155528 0.956620 0.111678
Si Si5 0.268333 0.963380 0.766728
Si Si6 0.449923 0.541019 0.450613
Si Si7 0.015793 0.540133 0.755667
Si Si8 0.855303 0.459585 0.615271
O O1 0.881444 0.250000 0.169311
O O2 0.805593 0.970451 0.212804
O O3 0.940544 0.973215 0.186731
O O4 0.795286 0.061431 0.431403
O O5 0.459271 0.750000 0.184720
O O6 0.477887 0.022265 0.282209
O O7 0.358593 0.005902 0.296149
O O8 0.500000 0.000000 0.000000
O O9 0.749379 0.750000 0.547163
O O10 0.768983 0.513968 0.677827
O O11 0.163455 0.750000 0.112827
O O12 0.137866 0.028562 0.263656
O O13 0.239232 0.015914 0.935320
O O14 0.076708 0.989152 0.139815
O O15 0.268883 0.750000 0.759233
O O16 0.356639 0.021100 0.601735
O O17 0.500000 0.500000 0.500000
O O18 0.448128 0.750000 0.446729
O O19 0.020273 0.750000 0.754178
O O20 0.071721 0.479793 0.569922
O O21 0.859412 0.250000 0.610587
#
# Coordination Sequence:
#
# PCOD9161410 Si02
#       8
#     4   4   4   4   4   4   4   4
#     4   9  17  35  58  77 106 150 191 227 282 346
#     4  11  23  41  64  91 123 159 198 247 301 359
#     4  11  21  34  57  87 112 141 188 241 289 343
#     4  10  20  33  53  80 110 147 196 239 279 344
#     4   9  18  36  59  80 107 149 189 227 281 347
#     4  10  22  41  65  90 122 160 196 241 302 365
#     4   9  18  31  50  75 109 152 192 237 293 340
#     4   9  19  35  53  76 110 155 195 231 286 349
#
# _framework density 22.164715999999999
#
# number of rings (size 3 to 8) (size 9 to 14) (size 15 to 20)
#    0.000    2.250    1.250    2.625    0.000    5.000 
#    0.000    2.500    0.000    0.000    0.000    0.000 
#    0.000    0.000    0.000    0.000    0.000    0.000 
#
# Total GULP energy -178488.549308 kJ/mol
# GULP energy per Si atom -5577.767166 kJ/mol
# Density = 2.211427 g / cm^3
# Si number density = 22.164716 Si / 1000 Ang^3
#
#
#
# Elastic Constant Matrix: (Units=GPa)
#
#
# Indices 1 2 3 4 5 6 
#
# 1 123.7103 -5.4009 71.2236 0.0000 21.1976 0.0000
# 2 -5.4009 48.8879 20.0723 0.0000 10.8231 0.0000
# 3 71.2236 20.0723 122.8828 0.0000 10.7551 0.0000
# 4 0.0000 0.0000 0.0000 11.8325 0.0000 -3.6740
# 5 21.1976 10.8231 10.7551 0.0000 -4.5816 0.0000
# 6 0.0000 0.0000 0.0000 -3.6740 0.0000 23.8618
#
#
#
# Elastic Compliance Matrix: (Units=1/GPa)
#
#
# Indices 1 2 3 4 5 6 
#
# 1 0.008194 -0.001020 -0.006380 0.000000 0.020528 0.000000
# 2 -0.001020 0.016658 -0.004281 0.000000 0.024582 0.000000
# 3 -0.006380 -0.004281 0.013276 0.000000 -0.008466 0.000000
# 4 0.000000 0.000000 0.000000 0.088756 0.000000 0.013666
# 5 0.020528 0.024582 -0.008466 0.000000 -0.085092 0.000000
# 6 0.000000 0.000000 0.000000 0.013666 0.000000 0.044012
#
#
# Mechanical properties :
#
#
# Convention : Reuss Voigt Hill
#
# Bulk Modulus (GPa) = 67.72082 51.91900 59.81991
# Shear Modulus (GPa) = 43.82582 20.19494 32.01038
#
# Velocity S-wave (km/s) = 4.45148 3.02177 3.80439
# Velocity P-wave (km/s) = 7.55253 5.97075 6.80773
#
# Compressibility (1/GPa) = 0.01476651
#
# Stress axis : x y z
#
# Youngs Moduli (GPa) = 122.03451 60.03116 75.32530
#
# Poissons Ratio (x) = 0.06123 0.48054
# Poissons Ratio (y) = 0.12447 0.32249
# Poissons Ratio (z) = 0.77853 0.25701
#
# Static dielectric constant tensor:
#      x y z
#    x 1.841150 0.000000 0.061720 
#    y 0.000000 1.819430 0.000000 
#    z 0.061720 0.000000 1.819460 
# 
# From -- ./inp_files/42830.got.cif
#   From: 2010.05.17/outbox.cif.g08.bks.cpg/sg11_22_cif.got.tgz:42830.got - 2010.06.03 12:22:45.
