data_PCOD9161172
_publ_section_title
;
Structure prediction by ZEFSAII (Michael W. Deem and Ramdas Pophale) SiO2 
 PCOD9161172
Probable space group: P 21/M
;
_chemical_formula_sum "Si O2"
_cell_formula_units_Z 32
_cell_length_a 22.141951
_cell_length_b 9.251429
_cell_length_c 7.089482
_cell_angle_alpha 90.000000
_cell_angle_beta 109.431172
_cell_angle_gamma 90.000000
_cell_volume 1369.525601
_symmetry_space_group_name_H-M "P 21/M"
_symmetry_group_IT_number 11
_symmetry_cell_setting 'monoclinic'
loop_
_space_group_symop_operation_xyz
x,y,z
-x,1/2+y,-z
-x,-y,-z
x,1/2-y,z
loop_
_atom_site_type_symbol
_atom_site_label
_atom_site_fract_x
_atom_site_fract_y
_atom_site_fract_z
Si Si1 0.698157 0.414396 0.595538
Si Si2 0.180158 0.412746 0.214723
Si Si3 0.325326 0.583111 0.973696
Si Si4 0.802881 0.917719 0.225060
Si Si5 0.068263 0.916737 0.601263
Si Si6 0.451196 0.416360 0.182172
Si Si7 0.575525 0.584350 0.391407
Si Si8 0.937766 0.091964 0.958919
O O1 0.712925 0.250000 0.555984
O O2 0.756242 0.523862 0.629025
O O3 0.686268 0.412696 0.810329
O O4 0.635315 0.477511 0.432504
O O5 0.166353 0.250000 0.257078
O O6 0.188647 0.413304 0.995502
O O7 0.121876 0.516803 0.197698
O O8 0.334507 0.750000 0.924726
O O9 0.388733 0.485409 0.020530
O O10 0.261945 0.511320 0.818019
O O11 0.795673 0.750000 0.276126
O O12 0.867244 0.991025 0.376605
O O13 0.067323 0.750000 0.528624
O O14 0.074663 0.901409 0.832758
O O15 0.000000 0.000000 0.500000
O O16 0.462535 0.250000 0.137505
O O17 0.512959 0.518454 0.228280
O O18 0.437727 0.413120 0.395315
O O19 0.588696 0.750000 0.349895
O O20 0.949150 0.250000 0.896365
O O21 0.000000 0.000000 0.000000
#
# Coordination Sequence:
#
# PCOD9161172 Si02
#       8
#     4   4   4   4   4   4   4   4
#     4   9  15  22  32  46  65  90 122 161 203 246
#     4   9  16  26  40  57  77 102 133 170 211 254
#     4   9  15  22  32  46  65  90 122 161 203 246
#     4   9  16  26  40  57  77 102 133 170 211 254
#     4  10  20  33  49  69  92 118 149 185 225 269
#     4   9  15  21  28  39  57  83 117 157 200 244
#     4   9  15  21  28  39  57  83 117 157 200 244
#     4  10  20  33  49  69  92 118 149 185 225 269
#
# _framework density 23.365753999999999
#
# number of rings (size 3 to 8) (size 9 to 14) (size 15 to 20)
#    0.000    2.750    0.000    3.000    0.000   10.500 
#    0.000    0.000    0.000    0.000    0.000    0.000 
#    0.000    0.000    0.000    0.000    0.000    1.250 
#
# Total GULP energy -178961.465061 kJ/mol
# GULP energy per Si atom -5592.545783 kJ/mol
# Density = 2.331257 g / cm^3
# Si number density = 23.365754 Si / 1000 Ang^3
#
#
#
# Elastic Constant Matrix: (Units=GPa)
#
#
# Indices 1 2 3 4 5 6 
#
# 1 35.7039 30.4067 34.4801 0.0000 27.6235 0.0000
# 2 30.4067 212.1851 46.1089 0.0000 46.3245 0.0000
# 3 34.4801 46.1089 135.9240 0.0000 13.5368 0.0000
# 4 0.0000 0.0000 0.0000 20.5880 0.0000 22.7236
# 5 27.6235 46.3245 13.5368 0.0000 64.9584 0.0000
# 6 0.0000 0.0000 0.0000 22.7236 0.0000 30.0955
#
#
#
# Elastic Compliance Matrix: (Units=1/GPa)
#
#
# Indices 1 2 3 4 5 6 
#
# 1 0.056463 -0.000948 -0.011925 0.000000 -0.020850 0.000000
# 2 -0.000948 0.005927 -0.001419 0.000000 -0.003528 0.000000
# 3 -0.011925 -0.001419 0.010475 0.000000 0.003900 0.000000
# 4 0.000000 0.000000 0.000000 0.291498 0.000000 -0.220096
# 5 -0.020850 -0.003528 0.003900 0.000000 0.025964 0.000000
# 6 0.000000 0.000000 0.000000 -0.220096 0.000000 0.199411
#
#
# Mechanical properties :
#
#
# Convention : Reuss Voigt Hill
#
# Bulk Modulus (GPa) = 22.58279 67.31158 44.94719
# Shear Modulus (GPa) = 7.89786 41.31619 24.60703
#
# Velocity S-wave (km/s) = 1.84050 4.20960 3.24871
# Velocity P-wave (km/s) = 3.76862 7.24555 5.77497
#
# Compressibility (1/GPa) = 0.04428151
#
# Stress axis : x y z
#
# Youngs Moduli (GPa) = 17.71074 168.71026 95.46532
#
# Poissons Ratio (x) = 0.15993 1.13843
# Poissons Ratio (y) = 0.01679 0.13545
# Poissons Ratio (z) = 0.21120 0.23937
#
# Static dielectric constant tensor:
#      x y z
#    x 1.577510 0.000000 0.189280 
#    y 0.000000 1.801680 0.000000 
#    z 0.189280 0.000000 1.609950 
# 
# From -- ./inp_files/43802.got.cif
#   From: 2010.05.17/outbox.cif.g08.bks.cpg/sg11_22_cif.got.tgz:43802.got - 2010.06.03 12:22:45.
