data_PCOD9161606
_publ_section_title
;
Structure prediction by ZEFSAII (Michael W. Deem and Ramdas Pophale) SiO2 
 PCOD9161606
Probable space group: P 21/M
;
_chemical_formula_sum "Si O2"
_cell_formula_units_Z 32
_cell_length_a 20.400076
_cell_length_b 12.102331
_cell_length_c 19.361832
_cell_angle_alpha 90.000000
_cell_angle_beta 159.890609
_cell_angle_gamma 90.000000
_cell_volume 1643.502335
_symmetry_space_group_name_H-M "P 21/M"
_symmetry_group_IT_number 11
_symmetry_cell_setting 'monoclinic'
loop_
_space_group_symop_operation_xyz
x,y,z
-x,1/2+y,-z
-x,-y,-z
x,1/2-y,z
loop_
_atom_site_type_symbol
_atom_site_label
_atom_site_fract_x
_atom_site_fract_y
_atom_site_fract_z
Si Si1 0.944935 0.983213 0.709443
Si Si2 0.420070 0.130463 0.699329
Si Si3 0.598765 0.041519 0.204272
Si Si4 0.362977 0.624508 0.512208
Si Si5 0.681306 0.058931 0.835468
Si Si6 0.402854 0.623415 0.398396
Si Si7 0.735055 0.877240 0.221579
Si Si8 0.992100 0.125481 0.628881
O O1 0.801545 0.888723 0.540204
O O2 0.796617 0.066484 0.599556
O O3 0.039993 0.042346 0.737646
O O4 0.110896 0.950695 0.925802
O O5 0.445619 0.250000 0.757854
O O6 0.546589 0.124291 0.755656
O O7 0.476703 0.031999 0.806945
O O8 0.764704 0.119174 0.396528
O O9 0.696517 0.955321 0.247974
O O10 0.439744 0.105469 0.004520
O O11 0.393177 0.750000 0.564398
O O12 0.562075 0.556581 0.711642
O O13 0.294283 0.624570 0.364212
O O14 0.692779 0.113293 0.771197
O O15 0.500000 0.500000 0.500000
O O16 0.496788 0.750000 0.491247
O O17 0.749259 0.750000 0.257269
O O18 0.916488 0.905897 0.353966
O O19 0.055539 0.250000 0.707515
#
# Coordination Sequence:
#
# PCOD9161606 Si02
#       8
#     4   4   4   4   4   4   4   4
#     4  10  21  35  53  79 107 140 179 221 267 322
#     4  10  21  36  53  75 105 139 175 218 267 319
#     4  10  20  35  53  75 103 133 169 212 258 309
#     4   9  19  35  54  79 110 142 180 225 272 323
#     4  10  20  35  56  79 108 143 182 224 272 325
#     4   9  18  34  56  81 111 146 184 229 280 333
#     4  10  20  34  54  77 100 131 170 210 256 310
#     4  10  20  34  52  75 105 137 170 211 258 309
#
# _framework density 19.470614000000001
#
# number of rings (size 3 to 8) (size 9 to 14) (size 15 to 20)
#    0.000    2.250    0.000    2.625    0.000    2.500 
#    0.000    3.125    0.000   14.250    0.000    0.000 
#    0.000    0.000    0.000    0.000    0.000    0.000 
#
# Total GULP energy -178181.630856 kJ/mol
# GULP energy per Si atom -5568.175964 kJ/mol
# Density = 1.942630 g / cm^3
# Si number density = 19.470614 Si / 1000 Ang^3
#
#
#
# Elastic Constant Matrix: (Units=GPa)
#
#
# Indices 1 2 3 4 5 6 
#
# 1 54.0182 11.0827 -4.2473 0.0000 -9.2147 0.0000
# 2 11.0827 78.6895 0.4054 0.0000 4.9446 0.0000
# 3 -4.2473 0.4054 46.2760 0.0000 -6.8581 0.0000
# 4 0.0000 0.0000 0.0000 -0.8431 0.0000 -2.8437
# 5 -9.2147 4.9446 -6.8581 0.0000 24.4097 0.0000
# 6 0.0000 0.0000 0.0000 -2.8437 0.0000 7.6828
#
#
#
# Elastic Compliance Matrix: (Units=1/GPa)
#
#
# Indices 1 2 3 4 5 6 
#
# 1 0.021172 -0.003608 0.003410 0.000000 0.009681 0.000000
# 2 -0.003608 0.013499 -0.001102 0.000000 -0.004406 0.000000
# 3 0.003410 -0.001102 0.023119 0.000000 0.008006 0.000000
# 4 0.000000 0.000000 0.000000 -0.527515 0.000000 -0.195253
# 5 0.009681 -0.004406 0.008006 0.000000 0.047764 0.000000
# 6 0.000000 0.000000 0.000000 -0.195253 0.000000 0.057890
#
#
# Mechanical properties :
#
#
# Convention : Reuss Voigt Hill
#
# Bulk Modulus (GPa) = 18.11978 21.49611 19.80795
# Shear Modulus (GPa) = -14.57412 17.69940 1.56264
#
# Velocity S-wave (km/s) = -2.73887 3.01829 0.89683
# Velocity P-wave (km/s) = 0.82188 4.81778 3.35675
#
# Compressibility (1/GPa) = 0.05518832
#
# Stress axis : x y z
#
# Youngs Moduli (GPa) = 47.23209 74.08045 43.25534
#
# Poissons Ratio (x) = 0.26727 -0.14748
# Poissons Ratio (y) = 0.17040 0.04768
# Poissons Ratio (z) = -0.16104 0.08166
#
# Static dielectric constant tensor:
#      x y z
#    x 1.679820 0.000000 -0.006490 
#    y 0.000000 1.730090 0.000000 
#    z -0.006490 0.000000 1.659160 
# 
# From -- ./inp_files/66558.got.cif
#   From: 2010.05.17/outbox.cif.g08.bks.cpg/sg11_34_cif.got.tgz:66558.got - 2010.06.03 12:22:45.
