data_PCOD9161906
_publ_section_title
;
Structure prediction by ZEFSAII (Michael W. Deem and Ramdas Pophale) SiO2 
 PCOD9161906
Probable space group: P 21/M
;
_chemical_formula_sum "Si O2"
_cell_formula_units_Z 32
_cell_length_a 31.372368
_cell_length_b 7.930511
_cell_length_c 12.327544
_cell_angle_alpha 90.000000
_cell_angle_beta 27.491834
_cell_angle_gamma 90.000000
_cell_volume 1415.831953
_symmetry_space_group_name_H-M "P 21/M"
_symmetry_group_IT_number 11
_symmetry_cell_setting 'monoclinic'
loop_
_space_group_symop_operation_xyz
x,y,z
-x,1/2+y,-z
-x,-y,-z
x,1/2-y,z
loop_
_atom_site_type_symbol
_atom_site_label
_atom_site_fract_x
_atom_site_fract_y
_atom_site_fract_z
Si Si1 0.563348 0.441331 0.518087
Si Si2 0.050746 0.547772 0.551832
Si Si3 0.603384 0.545583 0.799320
Si Si4 0.279302 0.451473 0.269134
Si Si5 0.076957 0.951214 0.738833
Si Si6 0.637887 0.951801 0.129660
Si Si7 0.301513 0.057325 0.623618
Si Si8 0.862657 0.546036 0.857650
O O1 0.563473 0.250000 0.558302
O O2 0.461050 0.478825 0.706448
O O3 0.628938 0.460665 0.265093
O O4 0.604305 0.554452 0.519807
O O5 0.045909 0.750000 0.568605
O O6 0.059886 0.482915 0.654153
O O7 0.129387 0.503742 0.286323
O O8 0.955362 0.488544 0.710847
O O9 0.607860 0.750000 0.789626
O O10 0.640973 0.485628 0.830393
O O11 0.673412 0.480419 0.548483
O O12 0.500000 0.500000 0.000000
O O13 0.291233 0.250000 0.233342
O O14 0.178623 0.487831 0.542330
O O15 0.289435 0.515568 0.123012
O O16 0.078559 0.750000 0.729368
O O17 0.000000 0.000000 0.000000
O O18 0.648128 0.750000 0.126937
O O19 0.272513 0.250000 0.668437
O O20 0.223624 0.981219 0.877387
O O21 0.859762 0.750000 0.863944
#
# Coordination Sequence:
#
# PCOD9161906 Si02
#       8
#     4   4   4   4   4   4   4   4
#     4  10  20  34  55  83 116 151 189 236 287 340
#     4   9  20  39  61  85 116 150 188 238 292 343
#     4  10  22  40  63  88 120 160 202 250 303 356
#     4  10  22  40  63  87 117 159 202 244 298 358
#     4  11  25  42  63  90 122 158 199 247 299 356
#     4   9  19  36  56  81 114 153 192 231 284 350
#     4  10  21  35  56  84 113 150 193 235 289 353
#     4   9  19  36  60  86 113 150 191 234 288 352
#
# _framework density 22.601552999999999
#
# number of rings (size 3 to 8) (size 9 to 14) (size 15 to 20)
#    0.000    2.250    0.000    1.500    3.500    4.500 
#    0.000    0.000    0.000    0.000    0.000    0.000 
#    0.000    0.000    0.000    0.000    0.000    0.000 
#
# Total GULP energy -178725.941168 kJ/mol
# GULP energy per Si atom -5585.185662 kJ/mol
# Density = 2.255011 g / cm^3
# Si number density = 22.601553 Si / 1000 Ang^3
#
#
#
# Elastic Constant Matrix: (Units=GPa)
#
#
# Indices 1 2 3 4 5 6 
#
# 1 94.8011 5.7171 24.6821 0.0000 17.5880 0.0000
# 2 5.7171 15.2062 -4.3997 0.0000 2.0168 0.0000
# 3 24.6821 -4.3997 109.7352 0.0000 20.4880 0.0000
# 4 0.0000 0.0000 0.0000 22.6239 0.0000 -0.5700
# 5 17.5880 2.0168 20.4880 0.0000 33.8730 0.0000
# 6 0.0000 0.0000 0.0000 -0.5700 0.0000 16.9467
#
#
#
# Elastic Compliance Matrix: (Units=1/GPa)
#
#
# Indices 1 2 3 4 5 6 
#
# 1 0.012254 -0.004549 -0.002031 0.000000 -0.004864 0.000000
# 2 -0.004549 0.069432 0.004665 0.000000 -0.004593 0.000000
# 3 -0.002031 0.004665 0.010835 0.000000 -0.005777 0.000000
# 4 0.000000 0.000000 0.000000 0.044239 0.000000 0.001488
# 5 -0.004864 -0.004593 -0.005777 0.000000 0.035815 0.000000
# 6 0.000000 0.000000 0.000000 0.001488 0.000000 0.059059
#
#
# Mechanical properties :
#
#
# Convention : Reuss Voigt Hill
#
# Bulk Modulus (GPa) = 11.27522 30.19347 20.73435
# Shear Modulus (GPa) = 18.86599 27.60492 23.23545
#
# Velocity S-wave (km/s) = 2.89229 3.49861 3.20980
# Velocity P-wave (km/s) = 4.01912 5.45054 4.78861
#
# Compressibility (1/GPa) = 0.08869007
#
# Stress axis : x y z
#
# Youngs Moduli (GPa) = 81.60781 14.40262 92.29188
#
# Poissons Ratio (x) = 0.06552 0.18740
# Poissons Ratio (y) = 0.37127 -0.43051
# Poissons Ratio (z) = 0.16571 -0.06718
#
# Static dielectric constant tensor:
#      x y z
#    x 1.831940 0.000000 -0.005000 
#    y 0.000000 1.830520 0.000000 
#    z -0.005000 0.000000 1.845220 
# 
# From -- ./inp_files/45142.got.cif
#   From: 2010.05.17/outbox.cif.g08.bks.cpg/sg11_23_cif.got.tgz:45142.got - 2010.06.03 12:22:45.
