data_PCOD9161813
_publ_section_title
;
Structure prediction by ZEFSAII (Michael W. Deem and Ramdas Pophale) SiO2 
 PCOD9161813
Probable space group: P 21/M
;
_chemical_formula_sum "Si O2"
_cell_formula_units_Z 32
_cell_length_a 32.042985
_cell_length_b 7.822868
_cell_length_c 12.560913
_cell_angle_alpha 90.000000
_cell_angle_beta 28.893198
_cell_angle_gamma 90.000000
_cell_volume 1521.345065
_symmetry_space_group_name_H-M "P 21/M"
_symmetry_group_IT_number 11
_symmetry_cell_setting 'monoclinic'
loop_
_space_group_symop_operation_xyz
x,y,z
-x,1/2+y,-z
-x,-y,-z
x,1/2-y,z
loop_
_atom_site_type_symbol
_atom_site_label
_atom_site_fract_x
_atom_site_fract_y
_atom_site_fract_z
Si Si1 0.206187 0.452916 0.180901
Si Si2 0.686737 0.049171 0.261068
Si Si3 0.062290 0.555207 0.767117
Si Si4 0.979806 0.556709 0.364729
Si Si5 0.234252 0.552408 0.519762
Si Si6 0.829567 0.038997 0.107163
Si Si7 0.499519 0.545326 0.376522
Si Si8 0.681045 0.452922 0.868631
O O1 0.201743 0.250000 0.173385
O O2 0.107687 0.522720 0.390420
O O3 0.250050 0.480564 0.198097
O O4 0.269437 0.530511 0.952072
O O5 0.678560 0.250000 0.303512
O O6 0.754523 0.980990 0.195329
O O7 0.590116 0.976667 0.472643
O O8 0.044889 0.750000 0.771824
O O9 0.047052 0.439082 0.699619
O O10 0.155017 0.550159 0.614162
O O11 0.000000 0.500000 0.000000
O O12 0.987793 0.750000 0.389618
O O13 0.076177 0.480150 0.145415
O O14 0.257863 0.750000 0.492136
O O15 0.197971 0.481667 0.712313
O O16 0.307300 0.476871 0.278242
O O17 0.835537 0.250000 0.096139
O O18 0.500000 0.500000 0.500000
O O19 0.498862 0.750000 0.370760
O O20 0.585941 0.483415 0.126697
O O21 0.695525 0.250000 0.830526
#
# Coordination Sequence:
#
# PCOD9161813 Si02
#       8
#     4   4   4   4   4   4   4   4
#     4  11  22  34  54  85 119 147 179 235 290 331
#     4  10  22  39  61  81 106 148 195 231 274 344
#     4  11  19  30  50  79 111 146 187 233 274 322
#     4  10  20  34  54  82 114 151 190 229 279 329
#     4   9  18  32  55  82 111 147 187 229 273 326
#     4   9  18  37  59  79 109 154 197 228 266 330
#     4  11  22  37  59  88 113 142 183 236 291 336
#     4  11  21  35  57  88 116 144 184 230 286 344
#
# _framework density 21.034018
#
# number of rings (size 3 to 8) (size 9 to 14) (size 15 to 20)
#    0.000    1.750    3.750    1.500    0.000    1.500 
#    0.000    1.250    0.000    0.000    0.000    0.000 
#    0.000    0.000    0.000    0.000    0.000    0.000 
#
# Total GULP energy -178463.254181 kJ/mol
# GULP energy per Si atom -5576.976693 kJ/mol
# Density = 2.098614 g / cm^3
# Si number density = 21.034018 Si / 1000 Ang^3
#
#
#
# Elastic Constant Matrix: (Units=GPa)
#
#
# Indices 1 2 3 4 5 6 
#
# 1 69.4836 -1.9618 33.3614 0.0000 -28.8451 0.0000
# 2 -1.9618 35.9401 -4.2183 0.0000 -8.4761 0.0000
# 3 33.3614 -4.2183 163.4681 0.0000 -26.4489 0.0000
# 4 0.0000 0.0000 0.0000 11.2550 0.0000 -2.9941
# 5 -28.8451 -8.4761 -26.4489 0.0000 27.8439 0.0000
# 6 0.0000 0.0000 0.0000 -2.9941 0.0000 10.3034
#
#
#
# Elastic Compliance Matrix: (Units=1/GPa)
#
#
# Indices 1 2 3 4 5 6 
#
# 1 0.027692 0.008765 -0.000416 0.000000 0.030961 0.000000
# 2 0.008765 0.033761 0.002617 0.000000 0.021843 0.000000
# 3 -0.000416 0.002617 0.007478 0.000000 0.007469 0.000000
# 4 0.000000 0.000000 0.000000 0.096293 0.000000 0.027982
# 5 0.030961 0.021843 0.007469 0.000000 0.081733 0.000000
# 6 0.000000 0.000000 0.000000 0.027982 0.000000 0.105187
#
#
# Mechanical properties :
#
#
# Convention : Reuss Voigt Hill
#
# Bulk Modulus (GPa) = 11.00573 35.91714 23.46144
# Shear Modulus (GPa) = 13.86958 25.99449 19.93204
#
# Velocity S-wave (km/s) = 2.57064 3.51925 3.08167
# Velocity P-wave (km/s) = 3.74895 5.79882 4.88267
#
# Compressibility (1/GPa) = 0.09086175
#
# Stress axis : x y z
#
# Youngs Moduli (GPa) = 36.11159 29.61999 133.71961
#
# Poissons Ratio (x) = -0.25961 0.05562
# Poissons Ratio (y) = -0.31650 -0.34989
# Poissons Ratio (z) = 0.01502 -0.07750
#
# Static dielectric constant tensor:
#      x y z
#    x 1.721710 0.000000 0.008460 
#    y 0.000000 1.808790 0.000000 
#    z 0.008460 0.000000 1.812080 
# 
# From -- ./inp_files/45138.got.cif
#   From: 2010.05.17/outbox.cif.g08.bks.cpg/sg11_23_cif.got.tgz:45138.got - 2010.06.03 12:22:45.
