data_PCOD9161774
_publ_section_title
;
Structure prediction by ZEFSAII (Michael W. Deem and Ramdas Pophale) SiO2 
 PCOD9161774
Probable space group: P 21/M
;
_chemical_formula_sum "Si O2"
_cell_formula_units_Z 32
_cell_length_a 16.303135
_cell_length_b 8.944227
_cell_length_c 26.385168
_cell_angle_alpha 90.000000
_cell_angle_beta 151.340192
_cell_angle_gamma 90.000000
_cell_volume 1845.271564
_symmetry_space_group_name_H-M "P 21/M"
_symmetry_group_IT_number 11
_symmetry_cell_setting 'monoclinic'
loop_
_space_group_symop_operation_xyz
x,y,z
-x,1/2+y,-z
-x,-y,-z
x,1/2-y,z
loop_
_atom_site_type_symbol
_atom_site_label
_atom_site_fract_x
_atom_site_fract_y
_atom_site_fract_z
Si Si1 0.262513 0.071647 0.913925
Si Si2 0.226910 0.571675 0.575433
Si Si3 0.916196 0.071592 0.905066
Si Si4 0.584912 0.928509 0.595416
Si Si5 0.135842 0.929197 0.639957
Si Si6 0.980172 0.571653 0.832853
Si Si7 0.656185 0.429030 0.146998
Si Si8 0.520980 0.428191 0.667675
O O1 0.240451 0.250000 0.903133
O O2 0.120787 0.994102 0.871485
O O3 0.259417 0.012126 0.854757
O O4 0.454218 0.035701 0.037618
O O5 0.895207 0.250000 0.376163
O O6 0.224564 0.535876 0.634253
O O7 0.379872 0.493658 0.628659
O O8 0.044832 0.512932 0.456424
O O9 0.940336 0.250000 0.918331
O O10 0.712469 0.040566 0.792009
O O11 0.992703 0.002505 0.895042
O O12 0.000000 0.000000 0.000000
O O13 0.561784 0.750000 0.582579
O O14 0.788622 0.960186 0.708387
O O15 0.500000 0.000000 0.500000
O O16 0.508281 0.997174 0.605437
O O17 0.238711 0.750000 0.576042
O O18 0.253284 0.967851 0.751319
O O19 0.998085 0.750000 0.847006
O O20 0.671913 0.250000 0.147775
O O21 0.501961 0.250000 0.652560
#
# Coordination Sequence:
#
# PCOD9161774 Si02
#       8
#     4   4   4   4   4   4   4   4
#     4  10  20  34  54  80 107 137 175 219 265 313
#     4  10  20  34  54  80 107 137 175 219 266 314
#     4  10  21  37  57  81 109 141 178 220 264 313
#     4  10  21  37  57  80 107 140 178 221 267 316
#     4   9  19  36  55  75 104 140 176 216 262 314
#     4  10  21  37  56  79 108 142 178 218 266 317
#     4   9  19  36  55  76 104 139 177 216 262 314
#     4  10  21  37  56  79 108 142 179 219 264 315
#
# _framework density 17.341621
#
# number of rings (size 3 to 8) (size 9 to 14) (size 15 to 20)
#    0.000    2.250    0.000    2.250    0.000    6.500 
#    0.000    2.500    0.000    0.000    0.000    0.000 
#    0.000    0.000    0.000    0.000    0.000    0.000 
#
# Total GULP energy -178655.440681 kJ/mol
# GULP energy per Si atom -5582.982521 kJ/mol
# Density = 1.730215 g / cm^3
# Si number density = 17.341621 Si / 1000 Ang^3
#
#
#
# Elastic Constant Matrix: (Units=GPa)
#
#
# Indices 1 2 3 4 5 6 
#
# 1 167.3997 78.2170 96.5397 0.0000 5.0844 0.0000
# 2 78.2170 68.2333 63.2909 0.0000 -4.0672 0.0000
# 3 96.5397 63.2909 110.8340 0.0000 -28.5149 0.0000
# 4 0.0000 0.0000 0.0000 30.5325 0.0000 -0.2271
# 5 5.0844 -4.0672 -28.5149 0.0000 30.5692 0.0000
# 6 0.0000 0.0000 0.0000 -0.2271 0.0000 38.0221
#
#
#
# Elastic Compliance Matrix: (Units=1/GPa)
#
#
# Indices 1 2 3 4 5 6 
#
# 1 0.023438 -0.006716 -0.023437 0.000000 -0.026654 0.000000
# 2 -0.006716 0.040883 -0.020801 0.000000 -0.012847 0.000000
# 3 -0.023437 -0.020801 0.054744 0.000000 0.052196 0.000000
# 4 0.000000 0.000000 0.000000 0.032753 0.000000 0.000196
# 5 -0.026654 -0.012847 0.052196 0.000000 0.084125 0.000000
# 6 0.000000 0.000000 0.000000 0.000196 0.000000 0.026302
#
#
# Mechanical properties :
#
#
# Convention : Reuss Voigt Hill
#
# Bulk Modulus (GPa) = 58.28899 91.39580 74.84240
# Shear Modulus (GPa) = 13.51818 27.05272 20.28545
#
# Velocity S-wave (km/s) = 2.79502 3.95395 3.42388
# Velocity P-wave (km/s) = 6.64089 8.58269 7.67346
#
# Compressibility (1/GPa) = 0.01715590
#
# Stress axis : x y z
#
# Youngs Moduli (GPa) = 42.66646 24.45983 18.26691
#
# Poissons Ratio (x) = 0.16428 0.42812
# Poissons Ratio (y) = 0.28656 0.37997
# Poissons Ratio (z) = 0.99997 0.50879
#
# Static dielectric constant tensor:
#      x y z
#    x 1.553780 0.000000 0.000270 
#    y 0.000000 1.577850 0.000000 
#    z 0.000270 0.000000 1.569410 
# 
# From -- ./inp_files/69009.got.cif
#   From: 2010.05.17/outbox.cif.g08.bks.cpg/sg11_35_cif.got.tgz:69009.got - 2010.06.03 12:22:45.
