data_PCOD9161178
_publ_section_title
;
Structure prediction by ZEFSAII (Michael W. Deem and Ramdas Pophale) SiO2 
 PCOD9161178
Probable space group: P 21/M
;
_chemical_formula_sum "Si O2"
_cell_formula_units_Z 20
_cell_length_a 14.030312
_cell_length_b 7.570942
_cell_length_c 23.106082
_cell_angle_alpha 90.000000
_cell_angle_beta 24.498144
_cell_angle_gamma 90.000000
_cell_volume 1017.746566
_symmetry_space_group_name_H-M "P 21/M"
_symmetry_group_IT_number 11
_symmetry_cell_setting 'monoclinic'
loop_
_space_group_symop_operation_xyz
x,y,z
-x,1/2+y,-z
-x,-y,-z
x,1/2-y,z
loop_
_atom_site_type_symbol
_atom_site_label
_atom_site_fract_x
_atom_site_fract_y
_atom_site_fract_z
Si Si1 0.769935 0.041283 0.417153
Si Si2 0.370233 0.960693 0.287237
Si Si3 0.970667 0.036806 0.424096
Si Si4 0.240014 0.535580 0.707642
Si Si5 0.889304 0.537910 0.999115
O O1 0.817979 0.250000 0.387322
O O2 0.915844 0.969446 0.390211
O O3 0.807770 0.970611 0.331403
O O4 0.499493 0.018381 0.579999
O O5 0.387188 0.750000 0.285881
O O6 0.221060 0.029312 0.424067
O O7 0.628421 0.030977 0.140987
O O8 0.216861 0.992518 0.315203
O O9 0.953751 0.250000 0.432240
O O10 0.237890 0.750000 0.708050
O O11 0.055599 0.472234 0.856228
O O12 0.878706 0.750000 0.998228
O O13 0.000000 0.500000 0.000000
#
# Coordination Sequence:
#
# PCOD9161178 Si02
#       5
#     4   4   4   4   4
#     4   9  17  31  50  70  94 123 155 192 231 272
#     4   9  18  31  46  66  92 120 152 190 230 272
#     4   9  17  30  48  67  88 119 156 191 228 270
#     4   9  18  31  48  71  96 122 154 191 231 276
#     4  10  20  33  49  70  96 124 153 189 234 278
#
# _framework density 19.651256
#
# number of rings (size 3 to 8) (size 9 to 14) (size 15 to 20)
#    0.000    2.800    0.000    1.200    0.000    4.000 
#    0.000    5.000    0.000    0.000    0.000    0.000 
#    0.000    0.000    0.000    0.000    0.000    0.000 
#
# Total GULP energy -111572.724565 kJ/mol
# GULP energy per Si atom -5578.636228 kJ/mol
# Density = 1.960653 g / cm^3
# Si number density = 19.651256 Si / 1000 Ang^3
#
#
#
# Elastic Constant Matrix: (Units=GPa)
#
#
# Indices 1 2 3 4 5 6 
#
# 1 163.3885 -10.2766 89.7227 0.0000 -12.5395 0.0000
# 2 -10.2766 40.4451 -8.0306 0.0000 4.7184 0.0000
# 3 89.7227 -8.0306 142.2807 0.0000 -3.9629 0.0000
# 4 0.0000 0.0000 0.0000 14.5941 0.0000 -3.5949
# 5 -12.5395 4.7184 -3.9629 0.0000 17.3460 0.0000
# 6 0.0000 0.0000 0.0000 -3.5949 0.0000 17.4221
#
#
#
# Elastic Compliance Matrix: (Units=1/GPa)
#
#
# Indices 1 2 3 4 5 6 
#
# 1 0.009922 0.000663 -0.006063 0.000000 0.005607 0.000000
# 2 0.000663 0.025804 0.000862 0.000000 -0.006343 0.000000
# 3 -0.006063 0.000862 0.010841 0.000000 -0.002141 0.000000
# 4 0.000000 0.000000 0.000000 0.072190 0.000000 0.014896
# 5 0.005607 -0.006343 -0.002141 0.000000 0.062940 0.000000
# 6 0.000000 0.000000 0.000000 0.014896 0.000000 0.060472
#
#
# Mechanical properties :
#
#
# Convention : Reuss Voigt Hill
#
# Bulk Modulus (GPa) = 26.67365 54.32724 40.50045
# Shear Modulus (GPa) = 18.95785 28.18569 23.57177
#
# Velocity S-wave (km/s) = 3.10935 3.79132 3.46714
# Velocity P-wave (km/s) = 5.14721 6.84625 6.05660
#
# Compressibility (1/GPa) = 0.03749018
#
# Stress axis : x y z
#
# Youngs Moduli (GPa) = 100.78676 38.75307 92.24368
#
# Poissons Ratio (x) = -0.02569 0.55929
# Poissons Ratio (y) = -0.06682 -0.07949
# Poissons Ratio (z) = 0.61109 -0.03339
#
# Static dielectric constant tensor:
#      x y z
#    x 1.686370 0.000000 0.016730 
#    y 0.000000 1.730080 0.000000 
#    z 0.016730 0.000000 1.671690 
# 
# From -- ./inp_files/16547.got.cif
#   From: 2010.05.17/outbox.cif.g08.bks.cpg/sg11_9_cif.got.tgz:16547.got - 2010.06.03 12:22:45.
