data_PCOD9161738
_publ_section_title
;
Structure prediction by ZEFSAII (Michael W. Deem and Ramdas Pophale) SiO2 
 PCOD9161738
Probable space group: P 21/M
;
_chemical_formula_sum "Si O2"
_cell_formula_units_Z 32
_cell_length_a 23.190091
_cell_length_b 9.139154
_cell_length_c 17.197451
_cell_angle_alpha 90.000000
_cell_angle_beta 31.123118
_cell_angle_gamma 90.000000
_cell_volume 1883.914680
_symmetry_space_group_name_H-M "P 21/M"
_symmetry_group_IT_number 11
_symmetry_cell_setting 'monoclinic'
loop_
_space_group_symop_operation_xyz
x,y,z
-x,1/2+y,-z
-x,-y,-z
x,1/2-y,z
loop_
_atom_site_type_symbol
_atom_site_label
_atom_site_fract_x
_atom_site_fract_y
_atom_site_fract_z
Si Si1 0.234338 0.924954 0.554125
Si Si2 0.121157 0.075388 0.364383
Si Si3 0.898218 0.919435 0.158684
Si Si4 0.131067 0.424377 0.179274
Si Si5 0.441457 0.425964 0.394195
Si Si6 0.130927 0.924787 0.507405
Si Si7 0.673886 0.581583 0.315495
Si Si8 0.689051 0.075948 0.134793
O O1 0.234493 0.750000 0.565236
O O2 0.200974 0.955747 0.503818
O O3 0.143181 0.997699 0.716425
O O4 0.352937 0.992363 0.442286
O O5 0.109573 0.250000 0.385133
O O6 0.171860 0.045475 0.220692
O O7 0.173555 0.007911 0.381525
O O8 0.000000 0.000000 0.500000
O O9 0.924938 0.750000 0.144871
O O10 0.792961 0.921307 0.221738
O O11 0.000000 0.000000 0.000000
O O12 0.137300 0.250000 0.158976
O O13 0.999585 0.464794 0.327050
O O14 0.207794 0.505125 0.029115
O O15 0.423558 0.250000 0.408861
O O16 0.412201 0.465347 0.517717
O O17 0.570521 0.459740 0.230801
O O18 0.132238 0.750000 0.491160
O O19 0.649219 0.750000 0.322018
O O20 0.679979 0.483627 0.232689
O O21 0.700464 0.250000 0.122929
#
# Coordination Sequence:
#
# PCOD9161738 Si02
#       8
#     4   4   4   4   4   4   4   4
#     4  10  20  34  54  78 101 133 175 212 253 308
#     4   9  17  31  52  76 103 136 168 203 250 305
#     4  10  21  35  50  71 103 140 172 210 258 302
#     4   9  19  34  50  74 108 138 162 198 257 310
#     4   9  20  38  53  71 101 135 173 219 263 298
#     4   9  19  34  53  78 107 135 166 207 252 307
#     4   9  19  35  52  69  96 135 172 211 261 304
#     4  11  22  33  51  78 103 130 173 220 256 302
#
# _framework density 16.985906
#
# number of rings (size 3 to 8) (size 9 to 14) (size 15 to 20)
#    0.000    2.500    0.000    3.375    1.750    7.000 
#    0.000    0.000    0.000    0.750    0.000    0.000 
#    0.000    0.000    0.000    0.000    0.000    0.000 
#
# Total GULP energy -178440.115745 kJ/mol
# GULP energy per Si atom -5576.253617 kJ/mol
# Density = 1.694725 g / cm^3
# Si number density = 16.985906 Si / 1000 Ang^3
#
#
#
# Elastic Constant Matrix: (Units=GPa)
#
#
# Indices 1 2 3 4 5 6 
#
# 1 93.2765 41.2614 19.0757 0.0000 19.2106 0.0000
# 2 41.2614 48.4027 17.6630 0.0000 9.1977 0.0000
# 3 19.0757 17.6630 39.9709 0.0000 2.3398 0.0000
# 4 0.0000 0.0000 0.0000 23.0439 0.0000 3.2424
# 5 19.2106 9.1977 2.3398 0.0000 10.3888 0.0000
# 6 0.0000 0.0000 0.0000 3.2424 0.0000 32.2043
#
#
#
# Elastic Compliance Matrix: (Units=1/GPa)
#
#
# Indices 1 2 3 4 5 6 
#
# 1 0.023650 -0.012779 -0.003792 0.000000 -0.031565 0.000000
# 2 -0.012779 0.036233 -0.009544 0.000000 -0.006299 0.000000
# 3 -0.003792 -0.009544 0.030543 0.000000 0.008583 0.000000
# 4 0.000000 0.000000 0.000000 0.044019 0.000000 -0.004432
# 5 -0.031565 -0.006299 0.008583 0.000000 0.158270 0.000000
# 6 0.000000 0.000000 0.000000 -0.004432 0.000000 0.031498
#
#
# Mechanical properties :
#
#
# Convention : Reuss Voigt Hill
#
# Bulk Modulus (GPa) = 26.18046 37.51670 31.84858
# Shear Modulus (GPa) = 12.84769 20.03741 16.44255
#
# Velocity S-wave (km/s) = 2.75321 3.43833 3.11466
# Velocity P-wave (km/s) = 5.05504 6.15611 5.63254
#
# Compressibility (1/GPa) = 0.03819642
#
# Stress axis : x y z
#
# Youngs Moduli (GPa) = 42.28334 27.59894 32.74077
#
# Poissons Ratio (x) = 0.35268 0.12415
# Poissons Ratio (y) = 0.54033 0.31248
# Poissons Ratio (z) = 0.16034 0.26341
#
# Static dielectric constant tensor:
#      x y z
#    x 1.587880 0.000000 -0.001570 
#    y 0.000000 1.559720 0.000000 
#    z -0.001570 0.000000 1.557080 
# 
# From -- ./inp_files/61733.got.cif
#   From: 2010.05.17/outbox.cif.g08.bks.cpg/sg11_31_cif.got.tgz:61733.got - 2010.06.03 12:22:45.
