data_PCOD9161561
_publ_section_title
;
Structure prediction by ZEFSAII (Michael W. Deem and Ramdas Pophale) SiO2 
 PCOD9161561
Probable space group: P 21/M
;
_chemical_formula_sum "Si O2"
_cell_formula_units_Z 24
_cell_length_a 13.815872
_cell_length_b 19.790021
_cell_length_c 8.100133
_cell_angle_alpha 90.000000
_cell_angle_beta 149.622415
_cell_angle_gamma 90.000000
_cell_volume 1119.970231
_symmetry_space_group_name_H-M "P 21/M"
_symmetry_group_IT_number 11
_symmetry_cell_setting 'monoclinic'
loop_
_space_group_symop_operation_xyz
x,y,z
-x,1/2+y,-z
-x,-y,-z
x,1/2-y,z
loop_
_atom_site_type_symbol
_atom_site_label
_atom_site_fract_x
_atom_site_fract_y
_atom_site_fract_z
Si Si1 0.079138 0.827449 0.011311
Si Si2 0.977751 0.972060 0.728193
Si Si3 0.726223 0.541580 0.029216
Si Si4 0.478948 0.175205 0.320489
Si Si5 0.401766 0.468706 0.693663
Si Si6 0.663092 0.675524 0.513985
O O1 0.072662 0.750000 0.928538
O O2 0.297496 0.834240 0.394210
O O3 0.047310 0.894810 0.855055
O O4 0.896233 0.828932 0.866098
O O5 0.853074 0.973459 0.376566
O O6 0.819532 0.991043 0.632346
O O7 0.147090 0.024313 0.943305
O O8 0.653272 0.617038 0.942388
O O9 0.537631 0.495280 0.750280
O O10 0.420977 0.250000 0.181441
O O11 0.441725 0.171236 0.463781
O O12 0.400771 0.387660 0.689470
O O13 0.500000 0.500000 0.000000
O O14 0.619907 0.750000 0.380575
#
# Coordination Sequence:
#
# PCOD9161561 Si02
#       6
#     4   4   4   4   4   4
#     4   9  18  33  52  73  97 129 170 208 244 297
#     4   9  19  34  52  73  99 133 168 206 252 301
#     4  10  20  34  51  74 105 132 164 212 257 300
#     4  10  21  35  52  76 104 134 169 210 257 307
#     4   9  18  33  52  75 102 132 170 212 251 296
#     4   9  18  33  52  74 103 137 171 208 253 306
#
# _framework density 21.429141000000001
#
# number of rings (size 3 to 8) (size 9 to 14) (size 15 to 20)
#    0.000    2.667    0.000    1.000    0.000    4.667 
#    0.000    5.833    0.000    6.000    0.000    9.333 
#    0.000    0.000    0.000    0.000    0.000    0.000 
#
# Total GULP energy -133742.947170 kJ/mol
# GULP energy per Si atom -5572.622799 kJ/mol
# Density = 2.138037 g / cm^3
# Si number density = 21.429141 Si / 1000 Ang^3
#
#
#
# Elastic Constant Matrix: (Units=GPa)
#
#
# Indices 1 2 3 4 5 6 
#
# 1 44.3159 13.0651 25.0865 0.0000 11.4240 0.0000
# 2 13.0651 102.1905 50.3055 0.0000 30.8584 0.0000
# 3 25.0865 50.3055 91.2369 0.0000 28.3882 0.0000
# 4 0.0000 0.0000 0.0000 43.0443 0.0000 3.4533
# 5 11.4240 30.8584 28.3882 0.0000 21.7037 0.0000
# 6 0.0000 0.0000 0.0000 3.4533 0.0000 26.1852
#
#
#
# Elastic Compliance Matrix: (Units=1/GPa)
#
#
# Indices 1 2 3 4 5 6 
#
# 1 0.027816 0.002483 -0.005671 0.000000 -0.010753 0.000000
# 2 0.002483 0.017924 -0.003759 0.000000 -0.021874 0.000000
# 3 -0.005671 -0.003759 0.020237 0.000000 -0.018139 0.000000
# 4 0.000000 0.000000 0.000000 0.023480 0.000000 -0.003097
# 5 -0.010753 -0.021874 -0.018139 0.000000 0.106561 0.000000
# 6 0.000000 0.000000 0.000000 -0.003097 0.000000 0.038598
#
#
# Mechanical properties :
#
#
# Convention : Reuss Voigt Hill
#
# Bulk Modulus (GPa) = 19.20113 46.07307 32.63710
# Shear Modulus (GPa) = 18.80601 28.13906 23.47254
#
# Velocity S-wave (km/s) = 2.96563 3.62763 3.31321
# Velocity P-wave (km/s) = 4.55042 6.25245 5.46807
#
# Compressibility (1/GPa) = 0.05208027
#
# Stress axis : x y z
#
# Youngs Moduli (GPa) = 35.95089 55.79039 49.41536
#
# Poissons Ratio (x) = -0.13851 0.28025
# Poissons Ratio (y) = -0.08925 0.18577
# Poissons Ratio (z) = 0.20389 0.20974
#
# Static dielectric constant tensor:
#      x y z
#    x 1.846370 0.000000 0.039020 
#    y 0.000000 1.792190 0.000000 
#    z 0.039020 0.000000 1.786970 
# 
# From -- ./inp_files/13259.got.cif
#   From: 2010.05.17/outbox.cif.g08.bks.cpg/sg11_7_cif.got.tgz:13259.got - 2010.06.03 12:22:45.
