data_PCOD9161105
_publ_section_title
;
Structure prediction by ZEFSAII (Michael W. Deem and Ramdas Pophale) SiO2 
 PCOD9161105
Probable space group: P 21/M
;
_chemical_formula_sum "Si O2"
_cell_formula_units_Z 28
_cell_length_a 22.504017
_cell_length_b 11.800333
_cell_length_c 12.916376
_cell_angle_alpha 90.000000
_cell_angle_beta 152.607846
_cell_angle_gamma 90.000000
_cell_volume 1578.071399
_symmetry_space_group_name_H-M "P 21/M"
_symmetry_group_IT_number 11
_symmetry_cell_setting 'monoclinic'
loop_
_space_group_symop_operation_xyz
x,y,z
-x,1/2+y,-z
-x,-y,-z
x,1/2-y,z
loop_
_atom_site_type_symbol
_atom_site_label
_atom_site_fract_x
_atom_site_fract_y
_atom_site_fract_z
Si Si1 0.825092 0.506357 0.338878
Si Si2 0.720193 0.886574 0.578711
Si Si3 0.572087 0.380374 0.886652
Si Si4 0.910237 0.619708 0.262830
Si Si5 0.906624 0.885068 0.680314
Si Si6 0.810832 0.475409 0.916163
Si Si7 0.567122 0.377673 0.631008
O O1 0.851844 0.590654 0.284561
O O2 0.848024 0.563781 0.484673
O O3 0.937874 0.412157 0.500373
O O4 0.683745 0.454502 0.109254
O O5 0.721644 0.750000 0.592462
O O6 0.574766 0.918714 0.320749
O O7 0.823355 0.920394 0.651162
O O8 0.754503 0.943243 0.740640
O O9 0.584953 0.250000 0.941093
O O10 0.588286 0.381736 0.787124
O O11 0.892471 0.750000 0.210005
O O12 0.844085 0.543781 0.072381
O O13 0.901108 0.750000 0.665484
O O14 0.055071 0.923323 0.915709
O O15 0.702404 0.385127 0.779801
O O16 0.500000 0.500000 0.500000
O O17 0.508081 0.250000 0.518711
#
# Coordination Sequence:
#
# PCOD9161105 Si02
#       7
#     4   4   4   4   4   4   4
#     4  10  20  35  53  80 109 149 189 232 283 342
#     4  10  21  37  58  82 111 149 192 235 285 346
#     4  10  20  36  57  82 114 149 186 229 286 347
#     4  10  20  32  52  82 114 144 184 239 293 341
#     4  10  22  38  56  79 110 151 193 237 285 338
#     4  11  20  36  58  84 112 147 186 237 288 346
#     4  11  22  37  58  88 122 154 190 236 293 352
#
# _framework density 17.743176999999999
#
# number of rings (size 3 to 8) (size 9 to 14) (size 15 to 20)
#    0.000    1.714    2.857    2.143    0.000    1.143 
#    0.000    0.000    0.000    2.571    0.000    0.000 
#    0.000    0.000    0.000    0.000    0.000    0.000 
#
# Total GULP energy -156188.342130 kJ/mol
# GULP energy per Si atom -5578.155076 kJ/mol
# Density = 1.770279 g / cm^3
# Si number density = 17.743177 Si / 1000 Ang^3
#
#
#
# Elastic Constant Matrix: (Units=GPa)
#
#
# Indices 1 2 3 4 5 6 
#
# 1 78.2386 12.6262 18.6788 0.0000 16.0588 0.0000
# 2 12.6262 69.6509 27.8707 0.0000 6.2304 0.0000
# 3 18.6788 27.8707 83.4041 0.0000 16.8475 0.0000
# 4 0.0000 0.0000 0.0000 9.5686 0.0000 3.2329
# 5 16.0588 6.2304 16.8475 0.0000 27.0951 0.0000
# 6 0.0000 0.0000 0.0000 3.2329 0.0000 19.6571
#
#
#
# Elastic Compliance Matrix: (Units=1/GPa)
#
#
# Indices 1 2 3 4 5 6 
#
# 1 0.014909 -0.001501 -0.001283 0.000000 -0.007693 0.000000
# 2 -0.001501 0.016729 -0.005326 0.000000 0.000354 0.000000
# 3 -0.001283 -0.005326 0.015617 0.000000 -0.007726 0.000000
# 4 0.000000 0.000000 0.000000 0.110658 0.000000 -0.018199
# 5 -0.007693 0.000354 -0.007726 0.000000 0.046189 0.000000
# 6 0.000000 0.000000 0.000000 -0.018199 0.000000 0.053865
#
#
# Mechanical properties :
#
#
# Convention : Reuss Voigt Hill
#
# Bulk Modulus (GPa) = 32.22129 38.84943 35.53536
# Shear Modulus (GPa) = 17.57271 22.73869 20.15570
#
# Velocity S-wave (km/s) = 3.15046 3.58375 3.37407
# Velocity P-wave (km/s) = 5.60653 6.25039 5.93719
#
# Compressibility (1/GPa) = 0.03103538
#
# Stress axis : x y z
#
# Youngs Moduli (GPa) = 67.07315 59.77739 64.03120
#
# Poissons Ratio (x) = 0.08972 0.08218
# Poissons Ratio (y) = 0.10068 0.34100
# Poissons Ratio (z) = 0.08608 0.31835
#
# Static dielectric constant tensor:
#      x y z
#    x 1.592210 0.000000 0.028960 
#    y 0.000000 1.604930 0.000000 
#    z 0.028960 0.000000 1.604390 
# 
# From -- ./inp_files/43190.got.cif
#   From: 2010.05.17/outbox.cif.g08.bks.cpg/sg11_22_cif.got.tgz:43190.got - 2010.06.03 12:22:45.
