data_PCOD9161766
_publ_section_title
;
Structure prediction by ZEFSAII (Michael W. Deem and Ramdas Pophale) SiO2 
 PCOD9161766
Probable space group: P 21/M
;
_chemical_formula_sum "Si O2"
_cell_formula_units_Z 32
_cell_length_a 14.321628
_cell_length_b 10.932539
_cell_length_c 18.320972
_cell_angle_alpha 90.000000
_cell_angle_beta 36.034776
_cell_angle_gamma 90.000000
_cell_volume 1687.497740
_symmetry_space_group_name_H-M "P 21/M"
_symmetry_group_IT_number 11
_symmetry_cell_setting 'monoclinic'
loop_
_space_group_symop_operation_xyz
x,y,z
-x,1/2+y,-z
-x,-y,-z
x,1/2-y,z
loop_
_atom_site_type_symbol
_atom_site_label
_atom_site_fract_x
_atom_site_fract_y
_atom_site_fract_z
Si Si1 0.499227 0.105396 0.347676
Si Si2 0.105685 0.380377 0.006249
Si Si3 0.052511 0.388661 0.258475
Si Si4 0.799045 0.954273 0.210262
Si Si5 0.546694 0.609722 0.795138
Si Si6 0.822138 0.609814 0.359976
Si Si7 0.077952 0.116945 0.415208
Si Si8 0.359973 0.111411 0.974363
O O1 0.525175 0.250000 0.337277
O O2 0.487730 0.078337 0.268240
O O3 0.333211 0.079327 0.493444
O O4 0.646339 0.038361 0.292248
O O5 0.025129 0.250000 0.067990
O O6 0.244877 0.392991 0.976509
O O7 0.969241 0.478096 0.105014
O O8 0.180328 0.382862 0.878674
O O9 0.004224 0.250000 0.263595
O O10 0.044385 0.388595 0.350537
O O11 0.235809 0.402993 0.118824
O O12 0.000000 0.500000 0.500000
O O13 0.780606 0.891340 0.300124
O O14 0.487420 0.750000 0.846135
O O15 0.734731 0.612423 0.688172
O O16 0.474282 0.503845 0.891743
O O17 0.873437 0.750000 0.346371
O O18 0.949191 0.501596 0.293704
O O19 0.019846 0.250000 0.479652
O O20 0.429832 0.250000 0.933627
#
# Coordination Sequence:
#
# PCOD9161766 Si02
#       8
#     4   4   4   4   4   4   4   4
#     4  10  21  36  55  80 115 155 194 237 295 350
#     4  10  20  34  54  79 112 153 196 241 288 341
#     4  10  22  41  62  87 117 156 195 235 291 353
#     4  11  20  35  55  81 112 153 199 241 290 345
#     4  10  21  39  60  87 117 151 191 240 294 349
#     4  11  23  38  57  85 118 153 197 249 291 339
#     4  10  22  41  66  91 121 154 194 237 287 347
#     4  10  20  38  59  83 117 155 193 239 289 345
#
# _framework density 18.962990000000001
#
# number of rings (size 3 to 8) (size 9 to 14) (size 15 to 20)
#    0.000    1.750    2.500    1.875    0.000    3.500 
#    0.000    1.875    0.000    0.000    0.000    0.000 
#    0.000    0.000    0.000    0.000    0.000    0.000 
#
# Total GULP energy -178380.759693 kJ/mol
# GULP energy per Si atom -5574.398740 kJ/mol
# Density = 1.891983 g / cm^3
# Si number density = 18.962990 Si / 1000 Ang^3
#
#
#
# Elastic Constant Matrix: (Units=GPa)
#
#
# Indices 1 2 3 4 5 6 
#
# 1 35.4004 22.7255 0.5559 0.0000 0.6762 0.0000
# 2 22.7255 129.7280 64.7815 0.0000 -9.4880 0.0000
# 3 0.5559 64.7815 85.7216 0.0000 2.2564 0.0000
# 4 0.0000 0.0000 0.0000 40.8038 0.0000 -6.0609
# 5 0.6762 -9.4880 2.2564 0.0000 23.1490 0.0000
# 6 0.0000 0.0000 0.0000 -6.0609 0.0000 19.3505
#
#
#
# Elastic Compliance Matrix: (Units=1/GPa)
#
#
# Indices 1 2 3 4 5 6 
#
# 1 0.034986 -0.010506 0.007873 0.000000 -0.006096 0.000000
# 2 -0.010506 0.016427 -0.012564 0.000000 0.008265 0.000000
# 3 0.007873 -0.012564 0.021306 0.000000 -0.007456 0.000000
# 4 0.000000 0.000000 0.000000 0.025703 0.000000 0.008051
# 5 -0.006096 0.008265 -0.007456 0.000000 0.047491 0.000000
# 6 0.000000 0.000000 0.000000 0.008051 0.000000 0.054200
#
#
# Mechanical properties :
#
#
# Convention : Reuss Voigt Hill
#
# Bulk Modulus (GPa) = 23.62670 47.44177 35.53423
# Shear Modulus (GPa) = 20.44036 27.51311 23.97674
#
# Velocity S-wave (km/s) = 3.28671 3.81318 3.55969
# Velocity P-wave (km/s) = 5.18553 6.66780 5.97282
#
# Compressibility (1/GPa) = 0.04232500
#
# Stress axis : x y z
#
# Youngs Moduli (GPa) = 28.58323 60.87451 46.93606
#
# Poissons Ratio (x) = 0.63956 -0.36954
# Poissons Ratio (y) = 0.30030 0.58969
# Poissons Ratio (z) = -0.22504 0.76481
#
# Static dielectric constant tensor:
#      x y z
#    x 1.641710 0.000000 0.027370 
#    y 0.000000 1.685150 0.000000 
#    z 0.027370 0.000000 1.652610 
# 
# From -- ./inp_files/52275.got.cif
#   From: 2010.05.17/outbox.cif.g08.bks.cpg/sg11_27_cif.got.tgz:52275.got - 2010.06.03 12:22:45.
