data_PCOD9161391
_publ_section_title
;
Structure prediction by ZEFSAII (Michael W. Deem and Ramdas Pophale) SiO2 
 PCOD9161391
Probable space group: P 21/M
;
_chemical_formula_sum "Si O2"
_cell_formula_units_Z 32
_cell_length_a 29.527901
_cell_length_b 9.733262
_cell_length_c 5.365301
_cell_angle_alpha 90.000000
_cell_angle_beta 101.874380
_cell_angle_gamma 90.000000
_cell_volume 1509.005343
_symmetry_space_group_name_H-M "P 21/M"
_symmetry_group_IT_number 11
_symmetry_cell_setting 'monoclinic'
loop_
_space_group_symop_operation_xyz
x,y,z
-x,1/2+y,-z
-x,-y,-z
x,1/2-y,z
loop_
_atom_site_type_symbol
_atom_site_label
_atom_site_fract_x
_atom_site_fract_y
_atom_site_fract_z
Si Si1 0.570449 0.597855 0.057291
Si Si2 0.200970 0.909887 0.442042
Si Si3 0.706952 0.583339 0.388881
Si Si4 0.140876 0.589824 0.872477
Si Si5 0.928314 0.596251 0.946759
Si Si6 0.345602 0.415190 0.175641
Si Si7 0.023863 0.597003 0.328093
Si Si8 0.475715 0.598414 0.668066
O O1 0.586737 0.750000 0.166096
O O2 0.517556 0.615428 0.913174
O O3 0.602594 0.554636 0.862813
O O4 0.567313 0.479902 0.258324
O O5 0.216242 0.750000 0.466296
O O6 0.174287 0.930407 0.150614
O O7 0.244050 0.011734 0.512106
O O8 0.168015 0.930176 0.645103
O O9 0.711064 0.750000 0.397706
O O10 0.686558 0.543326 0.095424
O O11 0.673245 0.538483 0.578486
O O12 0.125000 0.750000 0.866106
O O13 0.100662 0.478262 0.870369
O O14 0.910803 0.750000 0.865527
O O15 0.932436 0.482352 0.735655
O O16 0.981880 0.613991 0.084347
O O17 0.343775 0.250000 0.186715
O O18 0.035644 0.750000 0.431178
O O19 0.000000 0.500000 0.500000
O O20 0.500000 0.500000 0.500000
O O21 0.464369 0.750000 0.557521
#
# Coordination Sequence:
#
# PCOD9161391 Si02
#       8
#     4   4   4   4   4   4   4   4
#     4   9  19  35  54  77 107 148 190 234 283 335
#     4  10  22  40  60  84 116 152 190 233 292 355
#     4  10  20  36  59  86 112 143 186 235 286 344
#     4  10  22  39  60  86 115 154 196 237 287 351
#     4  10  22  38  56  85 117 151 197 246 293 341
#     4   9  19  34  58  86 112 144 189 235 282 342
#     4  10  21  37  58  83 117 157 196 241 291 345
#     4  10  20  33  53  78 109 148 189 234 283 336
#
# _framework density 21.206021
#
# number of rings (size 3 to 8) (size 9 to 14) (size 15 to 20)
#    0.000    2.250    0.000    1.875    3.500    3.000 
#    0.000    1.250    0.000    0.000    0.000    0.000 
#    0.000    0.000    0.000    0.000    0.000    0.000 
#
# Total GULP energy -178471.601474 kJ/mol
# GULP energy per Si atom -5577.237546 kJ/mol
# Density = 2.115776 g / cm^3
# Si number density = 21.206021 Si / 1000 Ang^3
#
#
#
# Elastic Constant Matrix: (Units=GPa)
#
#
# Indices 1 2 3 4 5 6 
#
# 1 81.1498 36.5306 19.9719 0.0000 -5.8738 0.0000
# 2 36.5306 129.8530 28.8826 0.0000 -21.9613 0.0000
# 3 19.9719 28.8826 83.9044 0.0000 -11.4915 0.0000
# 4 0.0000 0.0000 0.0000 17.7362 0.0000 -7.1837
# 5 -5.8738 -21.9613 -11.4915 0.0000 36.1793 0.0000
# 6 0.0000 0.0000 0.0000 -7.1837 0.0000 29.4875
#
#
#
# Elastic Compliance Matrix: (Units=1/GPa)
#
#
# Indices 1 2 3 4 5 6 
#
# 1 0.014491 -0.003674 -0.002267 0.000000 -0.000597 0.000000
# 2 -0.003674 0.009978 -0.001895 0.000000 0.004858 0.000000
# 3 -0.002267 -0.001895 0.013489 0.000000 0.002766 0.000000
# 4 0.000000 0.000000 0.000000 0.062554 0.000000 0.015239
# 5 -0.000597 0.004858 0.002766 0.000000 0.031371 0.000000
# 6 0.000000 0.000000 0.000000 0.015239 0.000000 0.037625
#
#
# Mechanical properties :
#
#
# Convention : Reuss Voigt Hill
#
# Bulk Modulus (GPa) = 44.86746 51.74193 48.30470
# Shear Modulus (GPa) = 25.95955 30.64874 28.30415
#
# Velocity S-wave (km/s) = 3.50259 3.80581 3.65735
# Velocity P-wave (km/s) = 6.12873 6.61551 6.37677
#
# Compressibility (1/GPa) = 0.02228787
#
# Stress axis : x y z
#
# Youngs Moduli (GPa) = 69.00745 100.22484 74.13464
#
# Poissons Ratio (x) = 0.36818 0.16803
# Poissons Ratio (y) = 0.25350 0.14047
# Poissons Ratio (z) = 0.15641 0.18991
#
# Static dielectric constant tensor:
#      x y z
#    x 1.770750 0.000000 0.038650 
#    y 0.000000 1.851950 0.000000 
#    z 0.038650 0.000000 1.841470 
# 
# From -- ./inp_files/9683.got.cif
#   From: 2010.05.17/outbox.cif.g08.bks.cpg/sg11_5_cif.got.tgz:9683.got - 2010.06.03 12:22:45.
