data_PCOD9161536
_publ_section_title
;
Structure prediction by ZEFSAII (Michael W. Deem and Ramdas Pophale) SiO2 
 PCOD9161536
Probable space group: P 21/M
;
_chemical_formula_sum "Si O2"
_cell_formula_units_Z 32
_cell_length_a 11.919751
_cell_length_b 7.425576
_cell_length_c 18.355005
_cell_angle_alpha 90.000000
_cell_angle_beta 66.572366
_cell_angle_gamma 90.000000
_cell_volume 1490.691303
_symmetry_space_group_name_H-M "P 21/M"
_symmetry_group_IT_number 11
_symmetry_cell_setting 'monoclinic'
loop_
_space_group_symop_operation_xyz
x,y,z
-x,1/2+y,-z
-x,-y,-z
x,1/2-y,z
loop_
_atom_site_type_symbol
_atom_site_label
_atom_site_fract_x
_atom_site_fract_y
_atom_site_fract_z
Si Si1 0.925901 0.531057 0.321136
Si Si2 0.196360 0.529953 0.225697
Si Si3 0.848001 0.030413 0.928777
Si Si4 0.120155 0.467585 0.832794
Si Si5 0.507717 0.956601 0.376976
Si Si6 0.321303 0.542754 0.897873
Si Si7 0.438212 0.542596 0.240355
Si Si8 0.312697 0.030939 0.542934
O O1 0.926249 0.750000 0.320879
O O2 0.882024 0.477280 0.251273
O O3 0.826021 0.475108 0.405973
O O4 0.066205 0.473727 0.293094
O O5 0.198245 0.750000 0.224895
O O6 0.194237 0.477263 0.141218
O O7 0.315333 0.464714 0.237496
O O8 0.849007 0.250000 0.931049
O O9 0.989694 0.974935 0.900443
O O10 0.757839 0.965839 0.015005
O O11 0.124611 0.250000 0.832740
O O12 0.233425 0.533347 0.850278
O O13 0.548859 0.750000 0.354680
O O14 0.487253 0.039967 0.303160
O O15 0.606342 0.031984 0.408489
O O16 0.380207 0.961925 0.453818
O O17 0.347499 0.750000 0.908245
O O18 0.450648 0.457730 0.845110
O O19 0.407885 0.750000 0.266370
O O20 0.318797 0.250000 0.538499
#
# Coordination Sequence:
#
# PCOD9161536 Si02
#       8
#     4   4   4   4   4   4   4   4
#     4   8  14  27  50  75  93 116 156 199 230 266
#     4   8  15  30  51  70  89 120 162 199 229 268
#     4   8  16  30  48  71  96 122 154 195 237 274
#     4   9  16  30  51  71  95 125 156 190 229 277
#     4   9  18  31  46  68  96 121 149 188 229 271
#     4  11  21  30  44  70 101 126 152 193 241 281
#     4  10  20  34  51  68  89 123 165 199 227 270
#     4   9  16  28  48  71  94 119 147 182 231 284
#
# _framework density 21.466550000000002
#
# number of rings (size 3 to 8) (size 9 to 14) (size 15 to 20)
#    0.000    3.000    0.000    3.000    0.000    3.000 
#    0.000    4.375    0.000    4.500    0.000    0.000 
#    0.000    0.000    0.000    0.000    0.000    0.000 
#
# Total GULP energy -178584.091983 kJ/mol
# GULP energy per Si atom -5580.752874 kJ/mol
# Density = 2.141769 g / cm^3
# Si number density = 21.466550 Si / 1000 Ang^3
#
#
#
# Elastic Constant Matrix: (Units=GPa)
#
#
# Indices 1 2 3 4 5 6 
#
# 1 80.7053 -1.9781 34.1867 0.0000 -17.7941 0.0000
# 2 -1.9781 66.5502 -7.3964 0.0000 2.6843 0.0000
# 3 34.1867 -7.3964 76.5554 0.0000 -31.8510 0.0000
# 4 0.0000 0.0000 0.0000 10.5726 0.0000 -6.8465
# 5 -17.7941 2.6843 -31.8510 0.0000 22.4966 0.0000
# 6 0.0000 0.0000 0.0000 -6.8465 0.0000 1.1358
#
#
#
# Elastic Compliance Matrix: (Units=1/GPa)
#
#
# Indices 1 2 3 4 5 6 
#
# 1 0.015616 -0.000278 -0.004496 0.000000 0.006019 0.000000
# 2 -0.000278 0.015198 0.001817 0.000000 0.000538 0.000000
# 3 -0.004496 0.001817 0.033279 0.000000 0.043344 0.000000
# 4 0.000000 0.000000 0.000000 -0.032575 0.000000 -0.196364
# 5 0.006019 0.000538 0.043344 0.000000 0.110516 0.000000
# 6 0.000000 0.000000 0.000000 -0.196364 0.000000 -0.303234
#
#
# Mechanical properties :
#
#
# Convention : Reuss Voigt Hill
#
# Bulk Modulus (GPa) = 17.18866 30.38171 23.78519
# Shear Modulus (GPa) = -36.79383 20.10757 -8.34313
#
# Velocity S-wave (km/s) = -4.14455 3.06386 -1.97358
# Velocity P-wave (km/s) = 3.85726 5.16722 2.43122
#
# Compressibility (1/GPa) = 0.05817789
#
# Stress axis : x y z
#
# Youngs Moduli (GPa) = 64.03873 65.79744 30.04895
#
# Poissons Ratio (x) = 0.01831 0.13509
# Poissons Ratio (y) = 0.01782 -0.05459
# Poissons Ratio (z) = 0.28791 -0.11953
#
# Static dielectric constant tensor:
#      x y z
#    x 1.756160 0.000000 -0.006630 
#    y 0.000000 1.862430 0.000000 
#    z -0.006630 0.000000 1.766060 
# 
# From -- ./inp_files/64200.got.cif
#   From: 2010.05.17/outbox.cif.g08.bks.cpg/sg11_33_cif.got.tgz:64200.got - 2010.06.03 12:22:45.
