data_PCOD9161383
_publ_section_title
;
Structure prediction by ZEFSAII (Michael W. Deem and Ramdas Pophale) SiO2 
 PCOD9161383
Probable space group: P 21/M
;
_chemical_formula_sum "Si O2"
_cell_formula_units_Z 32
_cell_length_a 17.244004
_cell_length_b 13.363476
_cell_length_c 19.926300
_cell_angle_alpha 90.000000
_cell_angle_beta 21.106492
_cell_angle_gamma 90.000000
_cell_volume 1653.523505
_symmetry_space_group_name_H-M "P 21/M"
_symmetry_group_IT_number 11
_symmetry_cell_setting 'monoclinic'
loop_
_space_group_symop_operation_xyz
x,y,z
-x,1/2+y,-z
-x,-y,-z
x,1/2-y,z
loop_
_atom_site_type_symbol
_atom_site_label
_atom_site_fract_x
_atom_site_fract_y
_atom_site_fract_z
Si Si1 0.639280 0.867047 0.672913
Si Si2 0.140981 0.371611 0.367521
Si Si3 0.228331 0.952425 0.510223
Si Si4 0.283754 0.368023 0.658454
Si Si5 0.665957 0.370372 0.721442
Si Si6 0.418591 0.005793 0.672493
Si Si7 0.203155 0.632809 0.955491
Si Si8 0.772783 0.628520 0.854097
O O1 0.686727 0.750000 0.627395
O O2 0.718478 0.901195 0.681935
O O3 0.385185 0.881337 0.865310
O O4 0.761455 0.930466 0.517659
O O5 0.149446 0.250000 0.359462
O O6 0.218948 0.403623 0.230826
O O7 0.889427 0.399712 0.577423
O O8 0.313432 0.901387 0.372826
O O9 0.987535 0.914223 0.715428
O O10 0.397388 0.937401 0.433164
O O11 0.325640 0.250000 0.628028
O O12 0.456558 0.424152 0.473209
O O13 0.298239 0.418685 0.720085
O O14 0.042450 0.383628 0.825351
O O15 0.661457 0.250000 0.726838
O O16 0.446988 0.404297 0.933300
O O17 0.267252 0.944682 0.845471
O O18 0.220440 0.750000 0.919494
O O19 0.785583 0.750000 0.845445
#
# Coordination Sequence:
#
# PCOD9161383 Si02
#       8
#     4   4   4   4   4   4   4   4
#     4   9  18  33  52  74 104 141 178 218 258 299
#     4   8  15  31  51  71 101 139 177 217 260 302
#     4  10  20  33  53  77 104 137 173 211 257 309
#     4  10  21  37  58  82 106 136 172 209 256 313
#     4   9  18  33  52  74 103 137 173 216 264 311
#     4  10  21  36  56  80 109 137 169 213 258 308
#     4   9  18  35  57  79 107 140 173 212 259 308
#     4   9  18  33  52  75 105 139 174 216 264 307
#
# _framework density 19.352613000000002
#
# number of rings (size 3 to 8) (size 9 to 14) (size 15 to 20)
#    0.000    2.750    0.000    1.875    0.000    5.500 
#    0.000    5.000    0.000   15.750    0.000    0.000 
#    0.000    0.000    0.000    0.000    0.000    0.000 
#
# Total GULP energy -178562.271063 kJ/mol
# GULP energy per Si atom -5580.070971 kJ/mol
# Density = 1.930857 g / cm^3
# Si number density = 19.352613 Si / 1000 Ang^3
#
#
#
# Elastic Constant Matrix: (Units=GPa)
#
#
# Indices 1 2 3 4 5 6 
#
# 1 65.8715 12.7904 20.0797 0.0000 -24.8318 0.0000
# 2 12.7904 54.4287 33.8778 0.0000 -13.8415 0.0000
# 3 20.0797 33.8778 102.6350 0.0000 -11.0851 0.0000
# 4 0.0000 0.0000 0.0000 27.3011 0.0000 -5.3391
# 5 -24.8318 -13.8415 -11.0851 0.0000 19.2188 0.0000
# 6 0.0000 0.0000 0.0000 -5.3391 0.0000 27.3247
#
#
#
# Elastic Compliance Matrix: (Units=1/GPa)
#
#
# Indices 1 2 3 4 5 6 
#
# 1 0.030992 0.005491 -0.003331 0.000000 0.042077 0.000000
# 2 0.005491 0.027644 -0.007766 0.000000 0.022525 0.000000
# 3 -0.003331 -0.007766 0.012679 0.000000 -0.002584 0.000000
# 4 0.000000 0.000000 0.000000 0.038084 0.000000 0.007441
# 5 0.042077 0.022525 -0.002584 0.000000 0.121131 0.000000
# 6 0.000000 0.000000 0.000000 0.007441 0.000000 0.038051
#
#
# Mechanical properties :
#
#
# Convention : Reuss Voigt Hill
#
# Bulk Modulus (GPa) = 16.63817 39.60344 28.12081
# Shear Modulus (GPa) = 16.67616 25.18141 20.92879
#
# Velocity S-wave (km/s) = 2.93866 3.61111 3.29210
# Velocity P-wave (km/s) = 4.48668 6.15592 5.38636
#
# Compressibility (1/GPa) = 0.06010275
#
# Stress axis : x y z
#
# Youngs Moduli (GPa) = 32.26602 36.17360 78.86806
#
# Poissons Ratio (x) = -0.19863 0.26273
# Poissons Ratio (y) = -0.17717 0.61252
# Poissons Ratio (z) = 0.10749 0.28094
#
# Static dielectric constant tensor:
#      x y z
#    x 1.675180 0.000000 -0.014130 
#    y 0.000000 1.713090 0.000000 
#    z -0.014130 0.000000 1.651410 
# 
# From -- ./inp_files/66280.got.cif
#   From: 2010.05.17/outbox.cif.g08.bks.cpg/sg11_34_cif.got.tgz:66280.got - 2010.06.03 12:22:45.
