data_PCOD9161881
_publ_section_title
;
Structure prediction by ZEFSAII (Michael W. Deem and Ramdas Pophale) SiO2 
 PCOD9161881
Probable space group: P 21/M
;
_chemical_formula_sum "Si O2"
_cell_formula_units_Z 32
_cell_length_a 22.507024
_cell_length_b 9.307826
_cell_length_c 28.857246
_cell_angle_alpha 90.000000
_cell_angle_beta 163.610820
_cell_angle_gamma 90.000000
_cell_volume 1705.756778
_symmetry_space_group_name_H-M "P 21/M"
_symmetry_group_IT_number 11
_symmetry_cell_setting 'monoclinic'
loop_
_space_group_symop_operation_xyz
x,y,z
-x,1/2+y,-z
-x,-y,-z
x,1/2-y,z
loop_
_atom_site_type_symbol
_atom_site_label
_atom_site_fract_x
_atom_site_fract_y
_atom_site_fract_z
Si Si1 0.539204 0.075873 0.269997
Si Si2 0.110301 0.079245 0.406325
Si Si3 0.136310 0.422186 0.029910
Si Si4 0.365807 0.911606 0.434983
Si Si5 0.767067 0.586277 0.792363
Si Si6 0.608310 0.420873 0.038231
Si Si7 0.447144 0.083078 0.096745
Si Si8 0.945248 0.418317 0.728319
O O1 0.554955 0.250000 0.285766
O O2 0.315412 0.034982 0.126911
O O3 0.543400 0.039932 0.218376
O O4 0.730460 0.000751 0.440039
O O5 0.147193 0.250000 0.434556
O O6 0.861462 0.053993 0.230385
O O7 0.138872 0.013307 0.376549
O O8 0.114198 0.250000 0.009731
O O9 0.215218 0.460516 0.141082
O O10 0.905916 0.494102 0.860176
O O11 0.336644 0.750000 0.395802
O O12 0.523803 0.910681 0.597042
O O13 0.148018 0.967264 0.292338
O O14 0.500000 0.000000 0.500000
O O15 0.847889 0.750000 0.850027
O O16 0.573539 0.250000 0.013646
O O17 0.500000 0.500000 0.000000
O O18 0.519196 0.486119 0.923346
O O19 0.504045 0.250000 0.129713
O O20 0.195856 0.077372 0.916494
O O21 0.885897 0.250000 0.677724
#
# Coordination Sequence:
#
# PCOD9161881 Si02
#       8
#     4   4   4   4   4   4   4   4
#     4  10  20  34  55  82 111 145 185 226 271 325
#     4  10  21  36  57  86 114 142 179 222 269 320
#     4   9  18  32  52  71  94 132 177 223 268 321
#     4  10  21  33  48  70  99 135 178 227 279 328
#     4   9  18  32  45  67  98 131 174 222 276 328
#     4  10  21  39  63  89 116 147 181 217 261 318
#     4   9  19  35  57  85 113 145 186 226 271 326
#     4   9  18  35  56  75 103 144 187 230 276 330
#
# _framework density 18.760000999999999
#
# number of rings (size 3 to 8) (size 9 to 14) (size 15 to 20)
#    0.000    2.500    0.000    1.500    1.750    5.500 
#    0.000    3.125    0.000    0.000    0.000    0.000 
#    0.000    0.000    0.000    0.000    0.000    0.000 
#
# Total GULP energy -178386.478299 kJ/mol
# GULP energy per Si atom -5574.577447 kJ/mol
# Density = 1.871730 g / cm^3
# Si number density = 18.760001 Si / 1000 Ang^3
#
#
#
# Elastic Constant Matrix: (Units=GPa)
#
#
# Indices 1 2 3 4 5 6 
#
# 1 128.7065 57.7406 20.6884 0.0000 5.7717 0.0000
# 2 57.7406 53.4040 23.2514 0.0000 4.0078 0.0000
# 3 20.6884 23.2514 41.8143 0.0000 -12.0397 0.0000
# 4 0.0000 0.0000 0.0000 26.8685 0.0000 2.2899
# 5 5.7717 4.0078 -12.0397 0.0000 28.1191 0.0000
# 6 0.0000 0.0000 0.0000 2.2899 0.0000 29.1663
#
#
#
# Elastic Compliance Matrix: (Units=1/GPa)
#
#
# Indices 1 2 3 4 5 6 
#
# 1 0.015234 -0.017495 0.002291 0.000000 0.000347 0.000000
# 2 -0.017495 0.048002 -0.021640 0.000000 -0.012516 0.000000
# 3 0.002291 -0.021640 0.040569 0.000000 0.019985 0.000000
# 4 0.000000 0.000000 0.000000 0.037469 0.000000 -0.002942
# 5 0.000347 -0.012516 0.019985 0.000000 0.045833 0.000000
# 6 0.000000 0.000000 0.000000 -0.002942 0.000000 0.034517
#
#
# Mechanical properties :
#
#
# Convention : Reuss Voigt Hill
#
# Bulk Modulus (GPa) = 33.20349 47.47619 40.33984
# Shear Modulus (GPa) = 16.37454 24.98040 20.67747
#
# Velocity S-wave (km/s) = 2.95760 3.65304 3.32356
# Velocity P-wave (km/s) = 5.42224 6.56925 6.02311
#
# Compressibility (1/GPa) = 0.03011732
#
# Stress axis : x y z
#
# Youngs Moduli (GPa) = 65.64060 20.83243 24.64917
#
# Poissons Ratio (x) = 0.36446 -0.05647
# Poissons Ratio (y) = 1.14839 0.53341
# Poissons Ratio (z) = -0.15038 0.45082
#
# Static dielectric constant tensor:
#      x y z
#    x 1.671320 0.000000 -0.017930 
#    y 0.000000 1.631120 0.000000 
#    z -0.017930 0.000000 1.675720 
# 
# From -- ./inp_files/72217.got.cif
#   From: 2010.05.17/outbox.cif.g08.bks.cpg/sg11_37_cif.got.tgz:72217.got - 2010.06.03 12:22:45.
