data_PCOD9161791
_publ_section_title
;
Structure prediction by ZEFSAII (Michael W. Deem and Ramdas Pophale) SiO2 
 PCOD9161791
Probable space group: P 21/M
;
_chemical_formula_sum "Si O2"
_cell_formula_units_Z 28
_cell_length_a 12.825732
_cell_length_b 8.665664
_cell_length_c 15.447607
_cell_angle_alpha 90.000000
_cell_angle_beta 105.855056
_cell_angle_gamma 90.000000
_cell_volume 1651.582937
_symmetry_space_group_name_H-M "P 21/M"
_symmetry_group_IT_number 11
_symmetry_cell_setting 'monoclinic'
loop_
_space_group_symop_operation_xyz
x,y,z
-x,1/2+y,-z
-x,-y,-z
x,1/2-y,z
loop_
_atom_site_type_symbol
_atom_site_label
_atom_site_fract_x
_atom_site_fract_y
_atom_site_fract_z
Si Si1 0.391139 0.064915 0.280061
Si Si2 0.368772 0.937490 0.608452
Si Si3 0.743306 0.063482 0.594248
Si Si4 0.344840 0.434660 0.902521
Si Si5 0.799022 0.064812 0.279090
Si Si6 0.985596 0.064980 0.593395
Si Si7 0.589242 0.065310 0.903107
O O1 0.391776 0.250000 0.276184
O O2 0.510441 0.011635 0.339829
O O3 0.304048 0.007839 0.329545
O O4 0.373584 0.998371 0.180524
O O5 0.368682 0.750000 0.608281
O O6 0.328556 0.987296 0.504818
O O7 0.282645 0.985708 0.662086
O O8 0.737446 0.250000 0.598193
O O9 0.867539 0.020846 0.602850
O O10 0.337112 0.250000 0.900302
O O11 0.252594 0.506587 0.821735
O O12 0.462503 0.478768 0.888921
O O13 0.346812 0.496063 0.000855
O O14 0.803454 0.250000 0.280910
O O15 0.916626 0.997777 0.326430
O O16 0.989922 0.250000 0.590364
O O17 0.000000 0.000000 0.500000
O O18 0.596103 0.250000 0.906616
#
# Coordination Sequence:
#
# PCOD9161791 Si02
#       7
#     4   4   4   4   4   4   4
#     4  11  21  34  54  81 112 146 184 227 271 327
#     4   9  18  33  52  77 110 146 179 219 272 320
#     4  10  21  38  54  74 109 150 187 226 272 324
#     4  10  20  34  54  83 112 142 182 226 272 327
#     4  11  20  35  57  81 113 146 181 228 278 326
#     4  11  22  37  57  80 108 145 189 234 275 320
#     4  10  20  34  54  80 111 147 181 221 274 329
#
# _framework density 16.953433
#
# number of rings (size 3 to 8) (size 9 to 14) (size 15 to 20)
#    0.000    1.714    2.857    2.571    0.000    2.286 
#    0.000    0.714    0.000    0.857    0.000    0.000 
#    0.000    0.000    0.000    0.000    0.000    0.000 
#
# Total GULP energy -156391.776415 kJ/mol
# GULP energy per Si atom -5585.420586 kJ/mol
# Density = 1.691485 g / cm^3
# Si number density = 16.953433 Si / 1000 Ang^3
#
#
#
# Elastic Constant Matrix: (Units=GPa)
#
#
# Indices 1 2 3 4 5 6 
#
# 1 95.0007 32.4335 71.3470 0.0000 -12.1325 0.0000
# 2 32.4335 40.5829 39.6951 0.0000 -2.0944 0.0000
# 3 71.3470 39.6951 163.6042 0.0000 -6.3036 0.0000
# 4 0.0000 0.0000 0.0000 29.1434 0.0000 0.2022
# 5 -12.1325 -2.0944 -6.3036 0.0000 26.8584 0.0000
# 6 0.0000 0.0000 0.0000 0.2022 0.0000 24.1702
#
#
#
# Elastic Compliance Matrix: (Units=1/GPa)
#
#
# Indices 1 2 3 4 5 6 
#
# 1 0.018734 -0.009036 -0.005730 0.000000 0.006413 0.000000
# 2 -0.009036 0.036679 -0.005052 0.000000 -0.002407 0.000000
# 3 -0.005730 -0.005052 0.009811 0.000000 -0.000680 0.000000
# 4 0.000000 0.000000 0.000000 0.034315 0.000000 -0.000287
# 5 0.006413 -0.002407 -0.000680 0.000000 0.039782 0.000000
# 6 0.000000 0.000000 0.000000 -0.000287 0.000000 0.041376
#
#
# Mechanical properties :
#
#
# Convention : Reuss Voigt Hill
#
# Bulk Modulus (GPa) = 39.08080 65.12653 52.10366
# Shear Modulus (GPa) = 21.84733 26.41521 24.13127
#
# Velocity S-wave (km/s) = 3.59370 3.95156 3.77687
# Velocity P-wave (km/s) = 6.34992 7.70183 7.05831
#
# Compressibility (1/GPa) = 0.02558802
#
# Stress axis : x y z
#
# Youngs Moduli (GPa) = 53.38025 27.26337 101.92969
#
# Poissons Ratio (x) = 0.24635 0.58407
# Poissons Ratio (y) = 0.48234 0.51491
# Poissons Ratio (z) = 0.30588 0.13773
#
# Static dielectric constant tensor:
#      x y z
#    x 1.554260 0.000000 0.005140 
#    y 0.000000 1.568200 0.000000 
#    z 0.005140 0.000000 1.554040 
# 
# From -- ./inp_files/37389.got.cif
#   From: 2010.05.17/outbox.cif.g08.bks.cpg/sg11_19_cif.got.tgz:37389.got - 2010.06.03 12:22:45.
