data_PCOD9161331
_publ_section_title
;
Structure prediction by ZEFSAII (Michael W. Deem and Ramdas Pophale) SiO2 
 PCOD9161331
Probable space group: P 21/M
;
_chemical_formula_sum "Si O2"
_cell_formula_units_Z 28
_cell_length_a 21.495065
_cell_length_b 7.741076
_cell_length_c 14.666690
_cell_angle_alpha 90.000000
_cell_angle_beta 144.791884
_cell_angle_gamma 90.000000
_cell_volume 1407.044140
_symmetry_space_group_name_H-M "P 21/M"
_symmetry_group_IT_number 11
_symmetry_cell_setting 'monoclinic'
loop_
_space_group_symop_operation_xyz
x,y,z
-x,1/2+y,-z
-x,-y,-z
x,1/2-y,z
loop_
_atom_site_type_symbol
_atom_site_label
_atom_site_fract_x
_atom_site_fract_y
_atom_site_fract_z
Si Si1 0.121036 0.048007 0.671207
Si Si2 0.768366 0.041262 0.011349
Si Si3 0.557728 0.459255 0.863729
Si Si4 0.882655 0.043017 0.968712
Si Si5 0.667462 0.050541 0.176500
Si Si6 0.128608 0.541021 0.251114
Si Si7 0.677888 0.044225 0.391808
O O1 0.137099 0.250000 0.674927
O O2 0.148220 0.007221 0.808793
O O3 0.211636 0.953871 0.719330
O O4 0.000000 0.000000 0.500000
O O5 0.765303 0.250000 0.004164
O O6 0.650772 0.982391 0.905375
O O7 0.808538 0.975855 0.961861
O O8 0.561185 0.250000 0.869917
O O9 0.437025 0.515457 0.698289
O O10 0.592822 0.524777 0.006740
O O11 0.869342 0.250000 0.950063
O O12 0.858622 0.977117 0.837911
O O13 0.008385 0.006475 0.138546
O O14 0.633408 0.250000 0.145519
O O15 0.667859 0.970408 0.277285
O O16 0.134189 0.750000 0.255307
O O17 0.222062 0.475989 0.429831
O O18 0.695989 0.250000 0.404270
#
# Coordination Sequence:
#
# PCOD9161331 Si02
#       7
#     4   4   4   4   4   4   4
#     4  11  22  34  50  75 106 137 171 213 254 308
#     4   9  19  36  55  75 101 137 175 213 261 308
#     4   9  18  33  51  72 102 137 177 218 255 305
#     4   9  18  35  57  76 102 136 171 212 263 318
#     4   9  19  35  51  72 104 141 174 211 257 304
#     4   9  19  34  52  79 107 133 168 216 266 309
#     4  10  20  33  52  76 106 137 172 216 260 305
#
# _framework density 19.899871999999998
#
# number of rings (size 3 to 8) (size 9 to 14) (size 15 to 20)
#    0.000    2.571    0.000    2.571    2.000    4.000 
#    0.000    0.714    0.000    0.000    0.000    0.000 
#    0.000    0.000    0.000    0.000    0.000    0.000 
#
# Total GULP energy -156233.527974 kJ/mol
# GULP energy per Si atom -5579.768856 kJ/mol
# Density = 1.985458 g / cm^3
# Si number density = 19.899872 Si / 1000 Ang^3
#
#
#
# Elastic Constant Matrix: (Units=GPa)
#
#
# Indices 1 2 3 4 5 6 
#
# 1 120.3375 4.1517 47.1012 0.0000 -10.4935 0.0000
# 2 4.1517 35.3820 -1.8554 0.0000 -5.7443 0.0000
# 3 47.1012 -1.8554 92.7406 0.0000 3.8025 0.0000
# 4 0.0000 0.0000 0.0000 17.1410 0.0000 6.6194
# 5 -10.4935 -5.7443 3.8025 0.0000 9.4387 0.0000
# 6 0.0000 0.0000 0.0000 6.6194 0.0000 14.9043
#
#
#
# Elastic Compliance Matrix: (Units=1/GPa)
#
#
# Indices 1 2 3 4 5 6 
#
# 1 0.012564 0.000982 -0.007076 0.000000 0.017417 0.000000
# 2 0.000982 0.031441 -0.000711 0.000000 0.020513 0.000000
# 3 -0.007076 -0.000711 0.014949 0.000000 -0.014322 0.000000
# 4 0.000000 0.000000 0.000000 0.070417 0.000000 -0.031274
# 5 0.017417 0.020513 -0.014322 0.000000 0.143563 0.000000
# 6 0.000000 0.000000 0.000000 -0.031274 0.000000 0.080985
#
#
# Mechanical properties :
#
#
# Convention : Reuss Voigt Hill
#
# Bulk Modulus (GPa) = 22.05281 38.58390 30.31835
# Shear Modulus (GPa) = 13.06703 21.56765 17.31734
#
# Velocity S-wave (km/s) = 2.56528 3.29570 2.95316
# Velocity P-wave (km/s) = 4.45871 5.82351 5.18620
#
# Compressibility (1/GPa) = 0.04534570
#
# Stress axis : x y z
#
# Youngs Moduli (GPa) = 79.59071 31.80598 66.89262
#
# Poissons Ratio (x) = -0.03124 0.47331
# Poissons Ratio (y) = -0.07818 0.04755
# Poissons Ratio (z) = 0.56315 0.02261
#
# Static dielectric constant tensor:
#      x y z
#    x 1.718490 0.000000 -0.010910 
#    y 0.000000 1.725440 0.000000 
#    z -0.010910 0.000000 1.684210 
# 
# From -- ./inp_files/37459.got.cif
#   From: 2010.05.17/outbox.cif.g08.bks.cpg/sg11_19_cif.got.tgz:37459.got - 2010.06.03 12:22:45.
