data_PCOD9161459
_publ_section_title
;
Structure prediction by ZEFSAII (Michael W. Deem and Ramdas Pophale) SiO2 
 PCOD9161459
Probable space group: P 21/M
;
_chemical_formula_sum "Si O2"
_cell_formula_units_Z 24
_cell_length_a 7.138406
_cell_length_b 16.842001
_cell_length_c 11.215014
_cell_angle_alpha 90.000000
_cell_angle_beta 44.377415
_cell_angle_gamma 90.000000
_cell_volume 942.994130
_symmetry_space_group_name_H-M "P 21/M"
_symmetry_group_IT_number 11
_symmetry_cell_setting 'monoclinic'
loop_
_space_group_symop_operation_xyz
x,y,z
-x,1/2+y,-z
-x,-y,-z
x,1/2-y,z
loop_
_atom_site_type_symbol
_atom_site_label
_atom_site_fract_x
_atom_site_fract_y
_atom_site_fract_z
Si Si1 0.614031 0.053517 0.657686
Si Si2 0.048601 0.663526 0.803028
Si Si3 0.168332 0.119603 0.454340
Si Si4 0.329966 0.836574 0.931466
Si Si5 0.803995 0.993921 0.973499
Si Si6 0.386045 0.166251 0.591081
O O1 0.477551 0.036482 0.845428
O O2 0.390624 0.091537 0.674832
O O3 0.865915 0.111739 0.549596
O O4 0.721786 0.968839 0.566000
O O5 0.913975 0.750000 0.842175
O O6 0.138656 0.663416 0.900985
O O7 0.324287 0.663947 0.604740
O O8 0.908997 0.578397 0.844782
O O9 0.373713 0.153501 0.262650
O O10 0.187093 0.163239 0.571094
O O11 0.307557 0.750000 0.999384
O O12 0.248970 0.915238 0.040998
O O13 0.000000 0.000000 0.000000
O O14 0.356282 0.250000 0.670746
#
# Coordination Sequence:
#
# PCOD9161459 Si02
#       6
#     4   4   4   4   4   4
#     4  10  20  33  55  82 104 137 185 228 272 329
#     4   8  15  29  48  71 103 142 179 220 277 332
#     4   9  18  33  52  77 108 138 176 231 281 323
#     4   8  14  27  48  71  99 139 180 219 270 327
#     4   9  17  30  51  78 107 143 182 222 272 327
#     4  10  20  34  55  81 108 143 184 229 280 330
#
# _framework density 25.450845999999999
#
# number of rings (size 3 to 8) (size 9 to 14) (size 15 to 20)
#    0.000    3.000    0.000    3.000    0.000    2.000 
#    0.000    0.000    0.000   20.000    0.000    1.167 
#    0.000    0.000    0.000    0.000    0.000    0.000 
#
# Total GULP energy -134169.038221 kJ/mol
# GULP energy per Si atom -5590.376593 kJ/mol
# Density = 2.539292 g / cm^3
# Si number density = 25.450846 Si / 1000 Ang^3
#
#
#
# Elastic Constant Matrix: (Units=GPa)
#
#
# Indices 1 2 3 4 5 6 
#
# 1 81.1736 34.5724 10.2326 0.0000 0.3180 0.0000
# 2 34.5724 184.1899 47.4133 0.0000 3.7375 0.0000
# 3 10.2326 47.4133 69.9946 0.0000 -17.0164 0.0000
# 4 0.0000 0.0000 0.0000 12.6944 0.0000 -3.3176
# 5 0.3180 3.7375 -17.0164 0.0000 22.0341 0.0000
# 6 0.0000 0.0000 0.0000 -3.3176 0.0000 16.5440
#
#
#
# Elastic Compliance Matrix: (Units=1/GPa)
#
#
# Indices 1 2 3 4 5 6 
#
# 1 0.013395 -0.002432 -0.000317 0.000000 -0.000026 0.000000
# 2 -0.002432 0.007633 -0.006305 0.000000 -0.006129 0.000000
# 3 -0.000317 -0.006305 0.023226 0.000000 0.019011 0.000000
# 4 0.000000 0.000000 0.000000 0.083132 0.000000 0.016670
# 5 -0.000026 -0.006129 0.019011 0.000000 0.061106 0.000000
# 6 0.000000 0.000000 0.000000 0.016670 0.000000 0.063788
#
#
# Mechanical properties :
#
#
# Convention : Reuss Voigt Hill
#
# Bulk Modulus (GPa) = 38.24697 57.75496 48.00096
# Shear Modulus (GPa) = 17.91457 26.46383 22.18920
#
# Velocity S-wave (km/s) = 2.65597 3.22809 2.95591
# Velocity P-wave (km/s) = 4.94631 6.05278 5.52730
#
# Compressibility (1/GPa) = 0.02614586
#
# Stress axis : x y z
#
# Youngs Moduli (GPa) = 74.65352 131.00944 43.05574
#
# Poissons Ratio (x) = 0.31864 0.01365
# Poissons Ratio (y) = 0.18157 0.27146
# Poissons Ratio (z) = 0.02366 0.82600
#
# Static dielectric constant tensor:
#      x y z
#    x 1.984310 0.000000 -0.028020 
#    y 0.000000 2.064190 0.000000 
#    z -0.028020 0.000000 1.970500 
# 
# From -- ./inp_files/47520.got.cif
#   From: 2010.05.17/outbox.cif.g08.bks.cpg/sg11_24_cif.got.tgz:47520.got - 2010.06.03 12:22:45.
