data_PCOD9161380
_publ_section_title
;
Structure prediction by ZEFSAII (Michael W. Deem and Ramdas Pophale) SiO2 
 PCOD9161380
Probable space group: P 21/M
;
_chemical_formula_sum "Si O2"
_cell_formula_units_Z 32
_cell_length_a 11.804931
_cell_length_b 8.088320
_cell_length_c 16.813298
_cell_angle_alpha 90.000000
_cell_angle_beta 91.666890
_cell_angle_gamma 90.000000
_cell_volume 1604.688987
_symmetry_space_group_name_H-M "P 21/M"
_symmetry_group_IT_number 11
_symmetry_cell_setting 'monoclinic'
loop_
_space_group_symop_operation_xyz
x,y,z
-x,1/2+y,-z
-x,-y,-z
x,1/2-y,z
loop_
_atom_site_type_symbol
_atom_site_label
_atom_site_fract_x
_atom_site_fract_y
_atom_site_fract_z
Si Si1 0.016191 0.943523 0.590499
Si Si2 0.819968 0.452917 0.273983
Si Si3 0.564354 0.552054 0.580381
Si Si4 0.824307 0.446789 0.954782
Si Si5 0.941247 0.049144 0.115475
Si Si6 0.437308 0.948994 0.737929
Si Si7 0.214447 0.554722 0.336307
Si Si8 0.341621 0.949514 0.178545
O O1 0.036097 0.750000 0.585979
O O2 0.121557 0.013579 0.643560
O O3 0.000000 0.000000 0.500000
O O4 0.902453 0.974855 0.638882
O O5 0.818278 0.250000 0.275156
O O6 0.896605 0.501319 0.200447
O O7 0.691188 0.508852 0.258428
O O8 0.500000 0.500000 0.500000
O O9 0.574627 0.750000 0.582942
O O10 0.490635 0.496409 0.654930
O O11 0.688908 0.477373 0.595577
O O12 0.809267 0.250000 0.962101
O O13 0.717477 0.512020 0.903110
O O14 0.935765 0.480600 0.904075
O O15 0.855928 0.508144 0.043466
O O16 0.947451 0.250000 0.113091
O O17 0.434267 0.750000 0.737810
O O18 0.528493 0.001820 0.805492
O O19 0.195427 0.750000 0.328316
O O20 0.268402 0.491949 0.254091
O O21 0.335808 0.750000 0.179529
#
# Coordination Sequence:
#
# PCOD9161380 Si02
#       8
#     4   4   4   4   4   4   4   4
#     4  11  23  37  54  77 104 135 173 216 264 319
#     4   9  19  36  55  74 103 139 173 211 258 311
#     4  10  20  33  53  77 100 130 172 220 267 312
#     4   9  17  30  51  79 110 135 167 214 260 302
#     4   9  17  31  53  79 104 138 175 208 252 308
#     4   9  19  35  53  73  98 136 177 213 255 308
#     4  10  20  35  53  73 102 135 171 213 259 310
#     4   9  18  33  52  76 105 137 169 212 263 304
#
# _framework density 19.941558000000001
#
# number of rings (size 3 to 8) (size 9 to 14) (size 15 to 20)
#    0.000    2.500    0.000    1.875    1.750    1.500 
#    0.000    3.125    0.000    0.000    0.000    0.000 
#    0.000    0.000    0.000    0.000    0.000    0.000 
#
# Total GULP energy -178544.683439 kJ/mol
# GULP energy per Si atom -5579.521357 kJ/mol
# Density = 1.989617 g / cm^3
# Si number density = 19.941558 Si / 1000 Ang^3
#
#
#
# Elastic Constant Matrix: (Units=GPa)
#
#
# Indices 1 2 3 4 5 6 
#
# 1 84.2739 -7.4242 48.1526 0.0000 27.9644 0.0000
# 2 -7.4242 4.3591 6.1510 0.0000 1.1229 0.0000
# 3 48.1526 6.1510 89.5121 0.0000 32.1322 0.0000
# 4 0.0000 0.0000 0.0000 15.3378 0.0000 2.2936
# 5 27.9644 1.1229 32.1322 0.0000 34.4762 0.0000
# 6 0.0000 0.0000 0.0000 2.2936 0.0000 23.4542
#
#
#
# Elastic Compliance Matrix: (Units=1/GPa)
#
#
# Indices 1 2 3 4 5 6 
#
# 1 0.037774 0.099445 -0.022531 0.000000 -0.012880 0.000000
# 2 0.099445 0.519195 -0.081372 0.000000 -0.021734 0.000000
# 3 -0.022531 -0.081372 0.032117 0.000000 -0.009008 0.000000
# 4 0.000000 0.000000 0.000000 0.066166 0.000000 -0.006471
# 5 -0.012880 -0.021734 -0.009008 0.000000 0.048556 0.000000
# 6 0.000000 0.000000 0.000000 -0.006471 0.000000 0.043269
#
#
# Mechanical properties :
#
#
# Convention : Reuss Voigt Hill
#
# Bulk Modulus (GPa) = 1.72363 30.21156 15.96759
# Shear Modulus (GPa) = 5.26658 23.40469 14.33563
#
# Velocity S-wave (km/s) = 1.62688 3.42959 2.68411
# Velocity P-wave (km/s) = 2.09647 5.55570 4.19887
#
# Compressibility (1/GPa) = 0.58017249
#
# Stress axis : x y z
#
# Youngs Moduli (GPa) = 26.47301 1.92606 31.13603
#
# Poissons Ratio (x) = -0.19154 0.70151
# Poissons Ratio (y) = -2.63262 2.53360
# Poissons Ratio (z) = 0.59645 0.15673
#
# Static dielectric constant tensor:
#      x y z
#    x 1.696260 0.000000 0.036190 
#    y 0.000000 1.701800 0.000000 
#    z 0.036190 0.000000 1.740020 
# 
# From -- ./inp_files/49326.got.cif
#   From: 2010.05.17/outbox.cif.g08.bks.cpg/sg11_25_cif.got.tgz:49326.got - 2010.06.03 12:22:45.
