data_PCOD9161206
_publ_section_title
;
Structure prediction by ZEFSAII (Michael W. Deem and Ramdas Pophale) SiO2 
 PCOD9161206
Probable space group: P 21/M
;
_chemical_formula_sum "Si O2"
_cell_formula_units_Z 24
_cell_length_a 11.009303
_cell_length_b 10.210202
_cell_length_c 11.117369
_cell_angle_alpha 90.000000
_cell_angle_beta 91.609424
_cell_angle_gamma 90.000000
_cell_volume 1249.179420
_symmetry_space_group_name_H-M "P 21/M"
_symmetry_group_IT_number 11
_symmetry_cell_setting 'monoclinic'
loop_
_space_group_symop_operation_xyz
x,y,z
-x,1/2+y,-z
-x,-y,-z
x,1/2-y,z
loop_
_atom_site_type_symbol
_atom_site_label
_atom_site_fract_x
_atom_site_fract_y
_atom_site_fract_z
Si Si1 0.519310 0.901384 0.683669
Si Si2 0.021458 0.515271 0.294486
Si Si3 0.251885 0.094708 0.157544
Si Si4 0.905141 0.901120 0.058163
Si Si5 0.338148 0.401294 0.567936
Si Si6 0.135134 0.886779 0.531595
O O1 0.479189 0.750000 0.705399
O O2 0.617004 0.942930 0.787706
O O3 0.590878 0.898906 0.557892
O O4 0.415567 0.009827 0.662648
O O5 0.143534 0.475667 0.227178
O O6 0.062109 0.606464 0.405227
O O7 0.923594 0.574721 0.199495
O O8 0.957506 0.395435 0.360395
O O9 0.241881 0.250000 0.182090
O O10 0.221361 0.074887 0.015410
O O11 0.938218 0.750000 0.034038
O O12 0.000000 0.000000 0.000000
O O13 0.319734 0.250000 0.604011
O O14 0.217032 0.484344 0.541237
O O15 0.206533 0.750000 0.537673
#
# Coordination Sequence:
#
# PCOD9161206 Si02
#       6
#     4   4   4   4   4   4
#     4   9  17  32  52  74 100 131 168 208 254 306
#     4  10  20  33  49  76 108 138 172 207 250 301
#     4   9  16  31  54  77 103 133 165 207 255 302
#     4   9  18  32  51  75 103 135 170 208 251 298
#     4  10  20  33  50  73 102 135 169 212 258 302
#     4  11  22  33  51  75 106 143 174 209 251 305
#
# _framework density 19.212612
#
# number of rings (size 3 to 8) (size 9 to 14) (size 15 to 20)
#    0.000    2.333    1.667    1.500    0.000    4.667 
#    0.000    0.833    0.000    1.000    0.000    0.000 
#    0.000    0.000    0.000    0.000    0.000    0.000 
#
# Total GULP energy -133650.158000 kJ/mol
# GULP energy per Si atom -5568.756583 kJ/mol
# Density = 1.916888 g / cm^3
# Si number density = 19.212612 Si / 1000 Ang^3
#
#
#
# Elastic Constant Matrix: (Units=GPa)
#
#
# Indices 1 2 3 4 5 6 
#
# 1 52.6969 41.3523 44.2308 0.0000 36.6531 0.0000
# 2 41.3523 127.8844 38.6904 0.0000 22.6734 0.0000
# 3 44.2308 38.6904 98.4137 0.0000 45.1358 0.0000
# 4 0.0000 0.0000 0.0000 -10.9087 0.0000 8.6719
# 5 36.6531 22.6734 45.1358 0.0000 41.4158 0.0000
# 6 0.0000 0.0000 0.0000 8.6719 0.0000 24.6643
#
#
#
# Elastic Compliance Matrix: (Units=1/GPa)
#
#
# Indices 1 2 3 4 5 6 
#
# 1 0.061450 -0.011060 -0.002208 0.000000 -0.045922 0.000000
# 2 -0.011060 0.010959 -0.002150 0.000000 0.006132 0.000000
# 3 -0.002208 -0.002150 0.021118 0.000000 -0.019884 0.000000
# 4 0.000000 0.000000 0.000000 -0.071645 0.000000 0.025190
# 5 -0.045922 0.006132 -0.019884 0.000000 0.083099 0.000000
# 6 0.000000 0.000000 0.000000 0.025190 0.000000 0.031688
#
#
# Mechanical properties :
#
#
# Convention : Reuss Voigt Hill
#
# Bulk Modulus (GPa) = 15.95142 58.61576 37.28359
# Shear Modulus (GPa) = 26.53880 21.34903 23.94391
#
# Velocity S-wave (km/s) = 3.72065 3.33708 3.53407
# Velocity P-wave (km/s) = 5.17477 6.73969 6.00839
#
# Compressibility (1/GPa) = 0.06269035
#
# Stress axis : x y z
#
# Youngs Moduli (GPa) = 16.27340 91.24675 47.35233
#
# Poissons Ratio (x) = 1.00922 0.10458
# Poissons Ratio (y) = 0.17999 0.10179
# Poissons Ratio (z) = 0.03594 0.19616
#
# Static dielectric constant tensor:
#      x y z
#    x 1.672050 0.000000 0.033780 
#    y 0.000000 1.578210 0.000000 
#    z 0.033780 0.000000 1.697470 
# 
# From -- ./inp_files/33803.got.cif
#   From: 2010.05.17/outbox.cif.g08.bks.cpg/sg11_17_cif.got.tgz:33803.got - 2010.06.03 12:22:45.
