data_PCOD9161913
_publ_section_title
;
Structure prediction by ZEFSAII (Michael W. Deem and Ramdas Pophale) SiO2 
 PCOD9161913
Probable space group: P 21/M
;
_chemical_formula_sum "Si O2"
_cell_formula_units_Z 28
_cell_length_a 9.219240
_cell_length_b 11.713392
_cell_length_c 15.104445
_cell_angle_alpha 90.000000
_cell_angle_beta 66.366702
_cell_angle_gamma 90.000000
_cell_volume 1494.306316
_symmetry_space_group_name_H-M "P 21/M"
_symmetry_group_IT_number 11
_symmetry_cell_setting 'monoclinic'
loop_
_space_group_symop_operation_xyz
x,y,z
-x,1/2+y,-z
-x,-y,-z
x,1/2-y,z
loop_
_atom_site_type_symbol
_atom_site_label
_atom_site_fract_x
_atom_site_fract_y
_atom_site_fract_z
Si Si1 0.845365 0.886299 0.189021
Si Si2 0.568092 0.614970 0.377826
Si Si3 0.528309 0.378376 0.942320
Si Si4 0.252686 0.479289 0.496005
Si Si5 0.063400 0.116456 0.378326
Si Si6 0.177074 0.121013 0.995697
Si Si7 0.154808 0.982376 0.184722
O O1 0.833007 0.750000 0.184130
O O2 0.682654 0.929344 0.271541
O O3 0.884790 0.930815 0.080952
O O4 0.991139 0.914430 0.216972
O O5 0.544962 0.750000 0.373661
O O6 0.399193 0.553580 0.423115
O O7 0.667632 0.591072 0.443440
O O8 0.539609 0.250000 0.984169
O O9 0.692682 0.400425 0.852447
O O10 0.500000 0.500000 0.000000
O O11 0.365450 0.370961 0.928964
O O12 0.171712 0.406267 0.438041
O O13 0.108257 0.557866 0.566096
O O14 0.042255 0.250000 0.369573
O O15 0.146882 0.060309 0.272866
O O16 0.114123 0.250000 0.022890
O O17 0.162087 0.056671 0.092297
#
# Coordination Sequence:
#
# PCOD9161913 Si02
#       7
#     4   4   4   4   4   4   4
#     4  10  20  34  55  84 113 147 190 236 285 342
#     4  10  20  38  62  85 113 147 190 242 296 351
#     4   9  19  35  57  83 114 153 198 245 296 353
#     4  10  22  40  60  85 113 150 196 241 300 358
#     4  11  23  39  59  86 119 154 196 246 304 363
#     4   9  19  35  55  78 111 152 192 237 286 343
#     4  11  20  35  55  85 116 154 191 238 292 353
#
# _framework density 18.737791999999999
#
# number of rings (size 3 to 8) (size 9 to 14) (size 15 to 20)
#    0.000    2.000    1.429    2.143    2.000    0.571 
#    0.000    1.429    0.000    0.857    0.000    0.000 
#    0.000    0.000    0.000    0.000    0.000    0.000 
#
# Total GULP energy -155877.620878 kJ/mol
# GULP energy per Si atom -5567.057889 kJ/mol
# Density = 1.869514 g / cm^3
# Si number density = 18.737792 Si / 1000 Ang^3
#
#
#
# Elastic Constant Matrix: (Units=GPa)
#
#
# Indices 1 2 3 4 5 6 
#
# 1 54.4146 5.9590 12.0943 0.0000 -12.4718 0.0000
# 2 5.9590 67.8348 23.3328 0.0000 -3.7798 0.0000
# 3 12.0943 23.3328 88.0850 0.0000 -7.8471 0.0000
# 4 0.0000 0.0000 0.0000 24.1252 0.0000 1.7763
# 5 -12.4718 -3.7798 -7.8471 0.0000 33.9468 0.0000
# 6 0.0000 0.0000 0.0000 1.7763 0.0000 14.4804
#
#
#
# Elastic Compliance Matrix: (Units=1/GPa)
#
#
# Indices 1 2 3 4 5 6 
#
# 1 0.020503 -0.000723 -0.002001 0.000000 0.006990 0.000000
# 2 -0.000723 0.016268 -0.004158 0.000000 0.000584 0.000000
# 3 -0.002001 -0.004158 0.012887 0.000000 0.001781 0.000000
# 4 0.000000 0.000000 0.000000 0.041828 0.000000 -0.005131
# 5 0.006990 0.000584 0.001781 0.000000 0.032503 0.000000
# 6 0.000000 0.000000 0.000000 -0.005131 0.000000 0.069688
#
#
# Mechanical properties :
#
#
# Convention : Reuss Voigt Hill
#
# Bulk Modulus (GPa) = 27.85935 32.56740 30.21338
# Shear Modulus (GPa) = 22.78871 25.77371 24.28121
#
# Velocity S-wave (km/s) = 3.49117 3.71279 3.60369
# Velocity P-wave (km/s) = 5.58134 5.98315 5.78573
#
# Compressibility (1/GPa) = 0.03589459
#
# Stress axis : x y z
#
# Youngs Moduli (GPa) = 48.77233 61.47050 77.59503
#
# Poissons Ratio (x) = 0.04447 0.15526
# Poissons Ratio (y) = 0.03528 0.32263
# Poissons Ratio (z) = 0.09759 0.25558
#
# Static dielectric constant tensor:
#      x y z
#    x 1.650870 0.000000 -0.002050 
#    y 0.000000 1.675230 0.000000 
#    z -0.002050 0.000000 1.672450 
# 
# From -- ./inp_files/21148.got.cif
#   From: 2010.05.17/outbox.cif.g08.bks.cpg/sg11_11_cif.got.tgz:21148.got - 2010.06.03 12:22:45.
