data_PCOD9161026
_publ_section_title
;
Structure prediction by ZEFSAII (Michael W. Deem and Ramdas Pophale) SiO2 
 PCOD9161026
Probable space group: P 21/M
;
_chemical_formula_sum "Si O2"
_cell_formula_units_Z 24
_cell_length_a 8.450675
_cell_length_b 17.112044
_cell_length_c 8.199726
_cell_angle_alpha 90.000000
_cell_angle_beta 91.290766
_cell_angle_gamma 90.000000
_cell_volume 1185.447741
_symmetry_space_group_name_H-M "P 21/M"
_symmetry_group_IT_number 11
_symmetry_cell_setting 'monoclinic'
loop_
_space_group_symop_operation_xyz
x,y,z
-x,1/2+y,-z
-x,-y,-z
x,1/2-y,z
loop_
_atom_site_type_symbol
_atom_site_label
_atom_site_fract_x
_atom_site_fract_y
_atom_site_fract_z
Si Si1 0.827277 0.579229 0.106942
Si Si2 0.983458 0.922027 0.775942
Si Si3 0.732998 0.161299 0.104757
Si Si4 0.893400 0.338286 0.749857
Si Si5 0.430386 0.986863 0.762110
Si Si6 0.748459 0.013430 0.586994
O O1 0.646865 0.558700 0.140501
O O2 0.920166 0.499036 0.159959
O O3 0.921576 0.644287 0.210577
O O4 0.862310 0.595731 0.919544
O O5 0.114798 0.855190 0.774943
O O6 0.883381 0.948145 0.617919
O O7 0.675969 0.250000 0.120179
O O8 0.608653 0.094145 0.147933
O O9 0.804172 0.150886 0.923438
O O10 0.868387 0.250000 0.695070
O O11 0.824151 0.403111 0.628973
O O12 0.331690 0.987380 0.590147
O O13 0.610612 0.998634 0.716415
#
# Coordination Sequence:
#
# PCOD9161026 Si02
#       6
#     4   4   4   4   4   4
#     4   8  15  29  49  70  91 118 154 194 233 276
#     4   8  15  29  49  70  91 118 154 194 233 276
#     4   9  18  33  52  73  95 120 156 202 245 283
#     4   9  18  33  52  73  95 120 156 202 245 283
#     4  10  20  32  47  70 100 131 161 193 231 280
#     4  10  20  32  47  70 100 131 161 193 231 280
#
# _framework density 20.245515000000001
#
# number of rings (size 3 to 8) (size 9 to 14) (size 15 to 20)
#    0.000    3.000    0.000    3.000    0.000    9.333 
#    0.000    1.667    0.000    6.000    0.000    0.000 
#    0.000    0.000    0.000    0.000    0.000    0.000 
#
# Total GULP energy -133892.239451 kJ/mol
# GULP energy per Si atom -5578.843310 kJ/mol
# Density = 2.019944 g / cm^3
# Si number density = 20.245515 Si / 1000 Ang^3
#
#
#
# Elastic Constant Matrix: (Units=GPa)
#
#
# Indices 1 2 3 4 5 6 
#
# 1 64.6640 20.2707 28.4966 0.0000 -10.4003 0.0000
# 2 20.2707 68.3545 14.8258 0.0000 -0.8559 0.0000
# 3 28.4966 14.8258 37.8122 0.0000 -0.2986 0.0000
# 4 0.0000 0.0000 0.0000 15.0699 0.0000 0.8483
# 5 -10.4003 -0.8559 -0.2986 0.0000 42.6675 0.0000
# 6 0.0000 0.0000 0.0000 0.8483 0.0000 9.6807
#
#
#
# Elastic Compliance Matrix: (Units=1/GPa)
#
#
# Indices 1 2 3 4 5 6 
#
# 1 0.025324 -0.003613 -0.017621 0.000000 0.005977 0.000000
# 2 -0.003613 0.016508 -0.003754 0.000000 -0.000576 0.000000
# 3 -0.017621 -0.003754 0.041166 0.000000 -0.004082 0.000000
# 4 0.000000 0.000000 0.000000 0.066686 0.000000 -0.005844
# 5 0.005977 -0.000576 -0.004082 0.000000 0.024854 0.000000
# 6 0.000000 0.000000 0.000000 -0.005844 0.000000 0.103810
#
#
# Mechanical properties :
#
#
# Convention : Reuss Voigt Hill
#
# Bulk Modulus (GPa) = 30.28354 33.11299 31.69826
# Shear Modulus (GPa) = 14.73480 20.63281 17.68380
#
# Velocity S-wave (km/s) = 2.70071 3.19584 2.95865
# Velocity P-wave (km/s) = 4.97150 5.47806 5.23091
#
# Compressibility (1/GPa) = 0.03302124
#
# Stress axis : x y z
#
# Youngs Moduli (GPa) = 39.48844 60.57608 24.29178
#
# Poissons Ratio (x) = 0.21887 0.42805
# Poissons Ratio (y) = 0.14267 0.09120
# Poissons Ratio (z) = 0.69583 0.22742
#
# Static dielectric constant tensor:
#      x y z
#    x 1.748490 0.000000 -0.014200 
#    y 0.000000 1.697630 0.000000 
#    z -0.014200 0.000000 1.778930 
# 
# From -- ./inp_files/13196.got.cif
#   From: 2010.05.17/outbox.cif.g08.bks.cpg/sg11_7_cif.got.tgz:13196.got - 2010.06.03 12:22:45.
