data_PCOD9161744
_publ_section_title
;
Structure prediction by ZEFSAII (Michael W. Deem and Ramdas Pophale) SiO2 
 PCOD9161744
Probable space group: P 21/M
;
_chemical_formula_sum "Si O2"
_cell_formula_units_Z 20
_cell_length_a 10.912238
_cell_length_b 11.412885
_cell_length_c 8.747338
_cell_angle_alpha 90.000000
_cell_angle_beta 82.245170
_cell_angle_gamma 90.000000
_cell_volume 1079.431472
_symmetry_space_group_name_H-M "P 21/M"
_symmetry_group_IT_number 11
_symmetry_cell_setting 'monoclinic'
loop_
_space_group_symop_operation_xyz
x,y,z
-x,1/2+y,-z
-x,-y,-z
x,1/2-y,z
loop_
_atom_site_type_symbol
_atom_site_label
_atom_site_fract_x
_atom_site_fract_y
_atom_site_fract_z
Si Si1 0.499997 0.950460 0.250001
Si Si2 0.053639 0.616787 0.070220
Si Si3 0.653255 0.121435 0.011672
Si Si4 0.653258 0.878565 0.511668
Si Si5 0.946363 0.883213 0.429776
O O1 0.578426 0.883928 0.365170
O O2 0.596222 0.028387 0.137133
O O3 0.403771 0.028385 0.362871
O O4 0.421570 0.883927 0.134831
O O5 0.026354 0.750000 0.010981
O O6 0.000004 0.617192 0.249999
O O7 0.201983 0.603747 0.044037
O O8 0.000000 0.500000 0.000000
O O9 0.637328 0.250000 0.083631
O O10 0.637332 0.750000 0.583626
O O11 0.798019 0.896252 0.455953
O O12 0.973647 0.750000 0.489018
O O13 0.000000 0.000000 0.500000
#
# Coordination Sequence:
#
# PCOD9161744 Si02
#       5
#     4   4   4   4   4
#     4  10  20  34  54  78 104 136 174 212 264 316
#     4  10  21  37  56  80 109 141 179 221 265 315
#     4  10  20  35  54  77 106 137 173 217 262 312
#     4  10  20  35  54  77 106 137 173 217 262 312
#     4  10  21  37  56  80 109 141 179 221 265 315
#
# _framework density 18.528272000000001
#
# number of rings (size 3 to 8) (size 9 to 14) (size 15 to 20)
#    0.000    2.000    0.000    3.600    0.000    0.800 
#    0.000   10.000    0.000    0.000    0.000    0.000 
#    0.000    0.000    0.000    0.000    0.000    0.000 
#
# Total GULP energy -111452.482451 kJ/mol
# GULP energy per Si atom -5572.624123 kJ/mol
# Density = 1.848610 g / cm^3
# Si number density = 18.528272 Si / 1000 Ang^3
#
#
#
# Elastic Constant Matrix: (Units=GPa)
#
#
# Indices 1 2 3 4 5 6 
#
# 1 97.2558 61.4643 14.5519 0.0000 -15.8839 0.0000
# 2 61.4643 145.5086 32.3999 0.0000 -0.7197 0.0000
# 3 14.5519 32.3999 53.7356 0.0000 -14.5902 0.0000
# 4 0.0000 0.0000 0.0000 14.8770 0.0000 6.1488
# 5 -15.8839 -0.7197 -14.5902 0.0000 27.7745 0.0000
# 6 0.0000 0.0000 0.0000 6.1488 0.0000 29.8939
#
#
#
# Elastic Compliance Matrix: (Units=1/GPa)
#
#
# Indices 1 2 3 4 5 6 
#
# 1 0.016336 -0.007521 0.003027 0.000000 0.010738 0.000000
# 2 -0.007521 0.011578 -0.007034 0.000000 -0.007696 0.000000
# 3 0.003027 -0.007034 0.026186 0.000000 0.015304 0.000000
# 4 0.000000 0.000000 0.000000 0.073463 0.000000 -0.015111
# 5 0.010738 -0.007696 0.015304 0.000000 0.049985 0.000000
# 6 0.000000 0.000000 0.000000 -0.015111 0.000000 0.036560
#
#
# Mechanical properties :
#
#
# Convention : Reuss Voigt Hill
#
# Bulk Modulus (GPa) = 32.21295 57.03692 44.62493
# Shear Modulus (GPa) = 20.20091 27.04799 23.62445
#
# Velocity S-wave (km/s) = 3.30551 3.82491 3.57466
# Velocity P-wave (km/s) = 5.65616 7.09627 6.41675
#
# Compressibility (1/GPa) = 0.03104342
#
# Stress axis : x y z
#
# Youngs Moduli (GPa) = 61.21276 86.37317 38.18783
#
# Poissons Ratio (x) = 0.64965 -0.11558
# Poissons Ratio (y) = 0.46041 0.26860
# Poissons Ratio (z) = -0.18526 0.60751
#
# Static dielectric constant tensor:
#      x y z
#    x 1.607150 0.000000 0.014890 
#    y 0.000000 1.669210 0.000000 
#    z 0.014890 0.000000 1.598960 
# 
# From -- ./inp_files/11810.got.cif
#   From: 2010.05.17/outbox.cif.g08.bks.cpg/sg11_6_cif.got.tgz:11810.got - 2010.06.03 12:22:45.
