data_PCOD9161138
_publ_section_title
;
Structure prediction by ZEFSAII (Michael W. Deem and Ramdas Pophale) SiO2 
 PCOD9161138
Probable space group: P 21/M
;
_chemical_formula_sum "Si O2"
_cell_formula_units_Z 32
_cell_length_a 23.968851
_cell_length_b 7.747084
_cell_length_c 17.425221
_cell_angle_alpha 90.000000
_cell_angle_beta 31.347274
_cell_angle_gamma 90.000000
_cell_volume 1683.271257
_symmetry_space_group_name_H-M "P 21/M"
_symmetry_group_IT_number 11
_symmetry_cell_setting 'monoclinic'
loop_
_space_group_symop_operation_xyz
x,y,z
-x,1/2+y,-z
-x,-y,-z
x,1/2-y,z
loop_
_atom_site_type_symbol
_atom_site_label
_atom_site_fract_x
_atom_site_fract_y
_atom_site_fract_z
Si Si1 0.169946 0.049075 0.645574
Si Si2 0.378620 0.456368 0.661180
Si Si3 0.370742 0.459494 0.317052
Si Si4 0.827317 0.449521 0.184377
Si Si5 0.378265 0.043588 0.972187
Si Si6 0.374024 0.456876 0.144463
Si Si7 0.271466 0.043103 0.943385
Si Si8 0.061856 0.541160 0.101625
O O1 0.171521 0.250000 0.621338
O O2 0.282121 0.977516 0.481893
O O3 0.058427 0.975458 0.744156
O O4 0.160980 0.038753 0.747870
O O5 0.500000 0.500000 0.500000
O O6 0.364029 0.250000 0.675155
O O7 0.295487 0.536991 0.698984
O O8 0.343548 0.518708 0.786985
O O9 0.375626 0.250000 0.312228
O O10 0.493415 0.516130 0.186960
O O11 0.333363 0.516710 0.275365
O O12 0.857094 0.250000 0.160268
O O13 0.894794 0.520668 0.032733
O O14 0.362281 0.250000 0.992976
O O15 0.314287 0.973970 0.973955
O O16 0.340328 0.975288 0.100259
O O17 0.360156 0.250000 0.159668
O O18 0.500000 0.500000 0.000000
O O19 0.282987 0.250000 0.932246
O O20 0.149613 0.004751 0.062247
O O21 0.059572 0.750000 0.099659
#
# Coordination Sequence:
#
# PCOD9161138 Si02
#       8
#     4   4   4   4   4   4   4   4
#     4  10  20  33  49  71  97 123 156 200 242 280
#     4  10  20  33  47  66  96 129 157 193 237 282
#     4   9  18  30  46  72  99 124 152 186 233 287
#     4  10  20  33  49  69  90 122 165 200 236 281
#     4   9  17  30  49  72  97 124 153 191 231 276
#     4   8  14  27  46  67  94 124 152 182 226 279
#     4   9  19  33  49  69  92 121 159 197 232 275
#     4   9  19  35  51  67  91 124 162 200 237 278
#
# _framework density 19.010601999999999
#
# number of rings (size 3 to 8) (size 9 to 14) (size 15 to 20)
#    0.000    2.750    0.000    1.125    1.750    2.500 
#    0.000    0.000    0.000    0.750    0.000    0.000 
#    0.000    0.000    0.000    0.000    0.000    0.000 
#
# Total GULP energy -178307.397133 kJ/mol
# GULP energy per Si atom -5572.106160 kJ/mol
# Density = 1.896733 g / cm^3
# Si number density = 19.010602 Si / 1000 Ang^3
#
#
#
# Elastic Constant Matrix: (Units=GPa)
#
#
# Indices 1 2 3 4 5 6 
#
# 1 133.1784 -4.2766 34.5917 0.0000 10.2066 0.0000
# 2 -4.2766 26.6851 -4.9396 0.0000 4.5019 0.0000
# 3 34.5917 -4.9396 43.5072 0.0000 -3.0696 0.0000
# 4 0.0000 0.0000 0.0000 11.7665 0.0000 -0.8290
# 5 10.2066 4.5019 -3.0696 0.0000 12.3033 0.0000
# 6 0.0000 0.0000 0.0000 -0.8290 0.0000 9.8223
#
#
#
# Elastic Compliance Matrix: (Units=1/GPa)
#
#
# Indices 1 2 3 4 5 6 
#
# 1 0.010923 0.002077 -0.009306 0.000000 -0.012143 0.000000
# 2 0.002077 0.040886 0.001846 0.000000 -0.016223 0.000000
# 3 -0.009306 0.001846 0.031647 0.000000 0.014940 0.000000
# 4 0.000000 0.000000 0.000000 0.085495 0.000000 0.007216
# 5 -0.012143 -0.016223 0.014940 0.000000 0.101017 0.000000
# 6 0.000000 0.000000 0.000000 0.007216 0.000000 0.102418
#
#
# Mechanical properties :
#
#
# Convention : Reuss Voigt Hill
#
# Bulk Modulus (GPa) = 13.75702 28.23576 20.99639
# Shear Modulus (GPa) = 12.27350 18.64476 15.45913
#
# Velocity S-wave (km/s) = 2.54365 3.13510 2.85473
# Velocity P-wave (km/s) = 3.98486 5.29056 4.68343
#
# Compressibility (1/GPa) = 0.07269017
#
# Stress axis : x y z
#
# Youngs Moduli (GPa) = 91.54897 24.45853 31.59833
#
# Poissons Ratio (x) = -0.05079 0.29405
# Poissons Ratio (y) = -0.19011 -0.05834
# Poissons Ratio (z) = 0.85193 -0.04516
#
# Static dielectric constant tensor:
#      x y z
#    x 1.681790 0.000000 0.024250 
#    y 0.000000 1.709040 0.000000 
#    z 0.024250 0.000000 1.664750 
# 
# From -- ./inp_files/42766.got.cif
#   From: 2010.05.17/outbox.cif.g08.bks.cpg/sg11_22_cif.got.tgz:42766.got - 2010.06.03 12:22:45.
