data_PCOD9161710
_publ_section_title
;
Structure prediction by ZEFSAII (Michael W. Deem and Ramdas Pophale) SiO2 
 PCOD9161710
Probable space group: P 21/M
;
_chemical_formula_sum "Si O2"
_cell_formula_units_Z 28
_cell_length_a 15.219329
_cell_length_b 13.280588
_cell_length_c 7.341999
_cell_angle_alpha 90.000000
_cell_angle_beta 50.073856
_cell_angle_gamma 90.000000
_cell_volume 1138.020869
_symmetry_space_group_name_H-M "P 21/M"
_symmetry_group_IT_number 11
_symmetry_cell_setting 'monoclinic'
loop_
_space_group_symop_operation_xyz
x,y,z
-x,1/2+y,-z
-x,-y,-z
x,1/2-y,z
loop_
_atom_site_type_symbol
_atom_site_label
_atom_site_fract_x
_atom_site_fract_y
_atom_site_fract_z
Si Si1 0.924924 0.635264 0.669044
Si Si2 0.985053 0.136466 0.037648
Si Si3 0.378614 0.587450 0.743244
Si Si4 0.391451 0.356913 0.689433
Si Si5 0.751953 0.429238 0.441137
Si Si6 0.768868 0.642964 0.424478
Si Si7 0.173098 0.915921 0.269984
O O1 0.879926 0.750000 0.708557
O O2 0.963494 0.621682 0.828401
O O3 0.848235 0.538377 0.717082
O O4 0.046589 0.626595 0.402817
O O5 0.938805 0.250000 0.088200
O O6 0.873484 0.066934 0.168547
O O7 0.093744 0.132744 0.759685
O O8 0.394769 0.468303 0.768336
O O9 0.501217 0.639069 0.593720
O O10 0.341009 0.603458 0.581649
O O11 0.271188 0.619698 0.004204
O O12 0.398880 0.250000 0.781867
O O13 0.275873 0.354306 0.724582
O O14 0.715779 0.539714 0.559122
O O15 0.785930 0.378702 0.584726
O O16 0.736487 0.750000 0.549960
#
# Coordination Sequence:
#
# PCOD9161710 Si02
#       7
#     4   4   4   4   4   4   4
#     4   9  18  33  51  77 114 148 181 219 260 319
#     4   9  17  30  52  80 109 141 175 216 267 319
#     4  10  21  38  58  79 108 144 180 224 272 317
#     4   9  19  37  59  80 104 140 186 228 267 316
#     4  10  20  34  53  80 110 137 173 218 266 325
#     4   9  17  31  52  77 105 139 178 221 267 313
#     4  10  21  35  54  80 109 145 182 218 268 322
#
# _framework density 24.604120000000002
#
# number of rings (size 3 to 8) (size 9 to 14) (size 15 to 20)
#    0.000    2.571    0.000    2.143    0.000    5.714 
#    0.000    7.857    0.000    3.429    0.000    0.000 
#    0.000    0.000    0.000    0.000    0.000    0.000 
#
# Total GULP energy -156118.452362 kJ/mol
# GULP energy per Si atom -5575.659013 kJ/mol
# Density = 2.454812 g / cm^3
# Si number density = 24.604120 Si / 1000 Ang^3
#
#
#
# Elastic Constant Matrix: (Units=GPa)
#
#
# Indices 1 2 3 4 5 6 
#
# 1 80.8259 5.0503 25.3038 0.0000 -9.5905 0.0000
# 2 5.0503 114.8471 -8.1871 0.0000 -3.7384 0.0000
# 3 25.3038 -8.1871 92.0001 0.0000 -22.0419 0.0000
# 4 0.0000 0.0000 0.0000 4.5703 0.0000 3.3344
# 5 -9.5905 -3.7384 -22.0419 0.0000 30.3081 0.0000
# 6 0.0000 0.0000 0.0000 3.3344 0.0000 7.1377
#
#
#
# Elastic Compliance Matrix: (Units=1/GPa)
#
#
# Indices 1 2 3 4 5 6 
#
# 1 0.013700 -0.000789 -0.003419 0.000000 0.001752 0.000000
# 2 -0.000789 0.008909 0.001469 0.000000 0.001918 0.000000
# 3 -0.003419 0.001469 0.014199 0.000000 0.009426 0.000000
# 4 0.000000 0.000000 0.000000 0.331926 0.000000 -0.155057
# 5 0.001752 0.001918 0.009426 0.000000 0.040640 0.000000
# 6 0.000000 0.000000 0.000000 -0.155057 0.000000 0.212535
#
#
# Mechanical properties :
#
#
# Convention : Reuss Voigt Hill
#
# Bulk Modulus (GPa) = 31.91735 36.88966 34.40351
# Shear Modulus (GPa) = 7.83910 26.10364 16.97137
#
# Velocity S-wave (km/s) = 1.78690 3.26075 2.62921
# Velocity P-wave (km/s) = 4.15426 5.40393 4.81977
#
# Compressibility (1/GPa) = 0.03133092
#
# Stress axis : x y z
#
# Youngs Moduli (GPa) = 72.99461 112.24473 70.42837
#
# Poissons Ratio (x) = 0.08857 0.24076
# Poissons Ratio (y) = 0.05760 -0.10348
# Poissons Ratio (z) = 0.24954 -0.16493
#
# Static dielectric constant tensor:
#      x y z
#    x 1.919020 0.000000 0.037990 
#    y 0.000000 2.052630 0.000000 
#    z 0.037990 0.000000 1.968170 
# 
# From -- ./inp_files/24944.got.cif
#   From: 2010.05.17/outbox.cif.g08.bks.cpg/sg11_13_cif.got.tgz:24944.got - 2010.06.03 12:22:45.
