data_PCOD9161350
_publ_section_title
;
Structure prediction by ZEFSAII (Michael W. Deem and Ramdas Pophale) SiO2 
 PCOD9161350
Probable space group: P 21/M
;
_chemical_formula_sum "Si O2"
_cell_formula_units_Z 32
_cell_length_a 7.815929
_cell_length_b 14.499893
_cell_length_c 15.954689
_cell_angle_alpha 90.000000
_cell_angle_beta 122.785613
_cell_angle_gamma 90.000000
_cell_volume 1520.113923
_symmetry_space_group_name_H-M "P 21/M"
_symmetry_group_IT_number 11
_symmetry_cell_setting 'monoclinic'
loop_
_space_group_symop_operation_xyz
x,y,z
-x,1/2+y,-z
-x,-y,-z
x,1/2-y,z
loop_
_atom_site_type_symbol
_atom_site_label
_atom_site_fract_x
_atom_site_fract_y
_atom_site_fract_z
Si Si1 0.613969 0.140872 0.128418
Si Si2 0.560318 0.352538 0.436742
Si Si3 0.310533 0.359268 0.706241
Si Si4 0.005868 0.514392 0.802164
Si Si5 0.330290 0.359974 0.896962
Si Si6 0.307797 0.142076 0.198772
Si Si7 0.259196 0.353576 0.514291
Si Si8 0.905264 0.021346 0.596414
O O1 0.659942 0.250000 0.145038
O O2 0.819066 0.082647 0.186741
O O3 0.452713 0.120165 0.158934
O O4 0.502085 0.120624 0.010859
O O5 0.654931 0.250000 0.463508
O O6 0.445822 0.363019 0.318717
O O7 0.399967 0.356471 0.470212
O O8 0.724183 0.428713 0.500832
O O9 0.274331 0.250000 0.702572
O O10 0.406259 0.382457 0.822049
O O11 0.390985 0.375004 0.633247
O O12 0.103449 0.416293 0.647811
O O13 0.130768 0.422588 0.860942
O O14 0.876143 0.570323 0.836171
O O15 0.865061 0.491872 0.684710
O O16 0.284096 0.250000 0.890103
O O17 0.238636 0.250000 0.172637
O O18 0.179336 0.250000 0.502334
O O19 0.078478 0.423980 0.446253
#
# Coordination Sequence:
#
# PCOD9161350 Si02
#       8
#     4   4   4   4   4   4   4   4
#     4  10  22  41  66  89 118 158 197 248 310 358
#     4  10  21  38  56  80 120 155 191 239 290 348
#     4   9  19  35  56  82 110 147 194 240 288 344
#     4  11  22  38  64  92 120 158 201 248 296 358
#     4   9  20  40  61  86 121 156 199 253 301 352
#     4  10  22  40  62  91 124 156 197 248 297 355
#     4  10  20  33  52  78 112 152 188 232 284 340
#     4  11  21  35  55  84 115 156 192 234 292 345
#
# _framework density 21.051053
#
# number of rings (size 3 to 8) (size 9 to 14) (size 15 to 20)
#    0.000    2.000    1.250    1.875    0.000    4.500 
#    0.000    2.500    2.750    0.750    0.000    0.000 
#    0.000    0.000    0.000    0.000    0.000    0.000 
#
# Total GULP energy -178577.749470 kJ/mol
# GULP energy per Si atom -5580.554671 kJ/mol
# Density = 2.100314 g / cm^3
# Si number density = 21.051053 Si / 1000 Ang^3
#
#
#
# Elastic Constant Matrix: (Units=GPa)
#
#
# Indices 1 2 3 4 5 6 
#
# 1 22.7850 9.8341 14.0403 0.0000 -4.5996 0.0000
# 2 9.8341 52.7439 9.6004 0.0000 12.4499 0.0000
# 3 14.0403 9.6004 87.7829 0.0000 -23.2042 0.0000
# 4 0.0000 0.0000 0.0000 21.3115 0.0000 9.2261
# 5 -4.5996 12.4499 -23.2042 0.0000 22.6033 0.0000
# 6 0.0000 0.0000 0.0000 9.2261 0.0000 15.9866
#
#
#
# Elastic Compliance Matrix: (Units=1/GPa)
#
#
# Indices 1 2 3 4 5 6 
#
# 1 0.054609 -0.013068 -0.003383 0.000000 0.014838 0.000000
# 2 -0.013068 0.029405 -0.008385 0.000000 -0.027464 0.000000
# 3 -0.003383 -0.008385 0.019061 0.000000 0.023498 0.000000
# 4 0.000000 0.000000 0.000000 0.062551 0.000000 -0.036099
# 5 0.014838 -0.027464 0.023498 0.000000 0.086511 0.000000
# 6 0.000000 0.000000 0.000000 -0.036099 0.000000 0.083386
#
#
# Mechanical properties :
#
#
# Convention : Reuss Voigt Hill
#
# Bulk Modulus (GPa) = 18.72601 25.58461 22.15531
# Shear Modulus (GPa) = 12.40704 20.63607 16.52156
#
# Velocity S-wave (km/s) = 2.43035 3.13435 2.80453
# Velocity P-wave (km/s) = 4.09759 5.02781 4.58635
#
# Compressibility (1/GPa) = 0.05340167
#
# Stress axis : x y z
#
# Youngs Moduli (GPa) = 18.31210 34.00760 52.46214
#
# Poissons Ratio (x) = 0.44443 0.17748
# Poissons Ratio (y) = 0.23931 0.43992
# Poissons Ratio (z) = 0.06195 0.28517
#
# Static dielectric constant tensor:
#      x y z
#    x 1.759200 0.000000 -0.042960 
#    y 0.000000 1.823340 0.000000 
#    z -0.042960 0.000000 1.764660 
# 
# From -- ./inp_files/47637.got.cif
#   From: 2010.05.17/outbox.cif.g08.bks.cpg/sg11_24_cif.got.tgz:47637.got - 2010.06.03 12:22:45.
