data_PCOD9161782
_publ_section_title
;
Structure prediction by ZEFSAII (Michael W. Deem and Ramdas Pophale) SiO2 
 PCOD9161782
Probable space group: P 21/M
;
_chemical_formula_sum "Si O2"
_cell_formula_units_Z 32
_cell_length_a 12.713739
_cell_length_b 7.815765
_cell_length_c 15.615492
_cell_angle_alpha 90.000000
_cell_angle_beta 93.026093
_cell_angle_gamma 90.000000
_cell_volume 1549.510246
_symmetry_space_group_name_H-M "P 21/M"
_symmetry_group_IT_number 11
_symmetry_cell_setting 'monoclinic'
loop_
_space_group_symop_operation_xyz
x,y,z
-x,1/2+y,-z
-x,-y,-z
x,1/2-y,z
loop_
_atom_site_type_symbol
_atom_site_label
_atom_site_fract_x
_atom_site_fract_y
_atom_site_fract_z
Si Si1 0.387809 0.959605 0.743862
Si Si2 0.531282 0.553521 0.597172
Si Si3 0.600675 0.043711 0.061419
Si Si4 0.169975 0.544063 0.985952
Si Si5 0.026141 0.455812 0.134918
Si Si6 0.963038 0.957899 0.669196
Si Si7 0.247232 0.950813 0.438219
Si Si8 0.193525 0.541477 0.624505
O O1 0.391272 0.750000 0.747142
O O2 0.469070 0.024749 0.674838
O O3 0.409446 0.018763 0.841013
O O4 0.271917 0.006646 0.704288
O O5 0.500000 0.500000 0.500000
O O6 0.501203 0.750000 0.599273
O O7 0.656439 0.533321 0.608298
O O8 0.606825 0.250000 0.064444
O O9 0.712321 0.981092 0.027646
O O10 0.500000 0.000000 0.000000
O O11 0.172063 0.750000 0.978965
O O12 0.081974 0.480709 0.914168
O O13 0.122329 0.500657 0.076524
O O14 0.018541 0.250000 0.137930
O O15 0.040582 0.515792 0.232318
O O16 0.960488 0.750000 0.667370
O O17 0.074142 0.014515 0.634026
O O18 0.863727 0.022548 0.612196
O O19 0.271547 0.750000 0.444179
O O20 0.238405 0.017745 0.535137
O O21 0.192038 0.750000 0.621738
#
# Coordination Sequence:
#
# PCOD9161782 Si02
#       8
#     4   4   4   4   4   4   4   4
#     4   9  18  35  60  83 104 141 186 226 271 326
#     4  11  21  37  60  84 111 143 186 231 274 325
#     4  10  21  37  57  80 109 143 182 226 273 325
#     4   9  18  34  56  80 105 138 179 224 274 324
#     4   9  18  33  55  81 106 138 180 224 270 327
#     4  10  20  34  54  80 109 142 182 225 272 329
#     4  11  22  36  54  79 112 147 182 225 275 324
#     4   9  17  33  57  80 104 138 184 228 268 321
#
# _framework density 20.651686999999999
#
# number of rings (size 3 to 8) (size 9 to 14) (size 15 to 20)
#    0.000    2.250    1.250    1.875    0.000    5.000 
#    0.000    5.625    0.000    1.500    0.000    0.000 
#    0.000    0.000    0.000    0.000    0.000    0.000 
#
# Total GULP energy -178665.720986 kJ/mol
# GULP energy per Si atom -5583.303781 kJ/mol
# Density = 2.060468 g / cm^3
# Si number density = 20.651687 Si / 1000 Ang^3
#
#
#
# Elastic Constant Matrix: (Units=GPa)
#
#
# Indices 1 2 3 4 5 6 
#
# 1 144.6517 -8.8047 48.9012 0.0000 -6.1284 0.0000
# 2 -8.8047 21.4576 -6.1456 0.0000 -2.3983 0.0000
# 3 48.9012 -6.1456 54.6314 0.0000 1.4031 0.0000
# 4 0.0000 0.0000 0.0000 21.9906 0.0000 3.3924
# 5 -6.1284 -2.3983 1.4031 0.0000 27.6146 0.0000
# 6 0.0000 0.0000 0.0000 3.3924 0.0000 22.9460
#
#
#
# Elastic Compliance Matrix: (Units=1/GPa)
#
#
# Indices 1 2 3 4 5 6 
#
# 1 0.010187 0.001932 -0.008975 0.000000 0.002885 0.000000
# 2 0.001932 0.048947 0.003662 0.000000 0.004494 0.000000
# 3 -0.008975 0.003662 0.026828 0.000000 -0.003037 0.000000
# 4 0.000000 0.000000 0.000000 0.046535 0.000000 -0.006880
# 5 0.002885 0.004494 -0.003037 0.000000 0.037397 0.000000
# 6 0.000000 0.000000 0.000000 -0.006880 0.000000 0.044598
#
#
# Mechanical properties :
#
#
# Convention : Reuss Voigt Hill
#
# Bulk Modulus (GPa) = 12.62646 32.07138 22.34892
# Shear Modulus (GPa) = 20.18922 26.96291 23.57606
#
# Velocity S-wave (km/s) = 3.13006 3.61723 3.38243
# Velocity P-wave (km/s) = 4.38068 5.74536 5.10879
#
# Compressibility (1/GPa) = 0.07919876
#
# Stress axis : x y z
#
# Youngs Moduli (GPa) = 98.16224 20.43018 37.27389
#
# Poissons Ratio (x) = -0.03947 0.33455
# Poissons Ratio (y) = -0.18964 -0.13648
# Poissons Ratio (z) = 0.88105 -0.07481
#
# Static dielectric constant tensor:
#      x y z
#    x 1.725020 0.000000 -0.021650 
#    y 0.000000 1.804570 0.000000 
#    z -0.021650 0.000000 1.729080 
# 
# From -- ./inp_files/42832.got.cif
#   From: 2010.05.17/outbox.cif.g08.bks.cpg/sg11_22_cif.got.tgz:42832.got - 2010.06.03 12:22:45.
