data_PCOD9161560
_publ_section_title
;
Structure prediction by ZEFSAII (Michael W. Deem and Ramdas Pophale) SiO2 
 PCOD9161560
Probable space group: P 21/M
;
_chemical_formula_sum "Si O2"
_cell_formula_units_Z 28
_cell_length_a 14.171431
_cell_length_b 9.478266
_cell_length_c 10.011994
_cell_angle_alpha 90.000000
_cell_angle_beta 106.436988
_cell_angle_gamma 90.000000
_cell_volume 1289.856323
_symmetry_space_group_name_H-M "P 21/M"
_symmetry_group_IT_number 11
_symmetry_cell_setting 'monoclinic'
loop_
_space_group_symop_operation_xyz
x,y,z
-x,1/2+y,-z
-x,-y,-z
x,1/2-y,z
loop_
_atom_site_type_symbol
_atom_site_label
_atom_site_fract_x
_atom_site_fract_y
_atom_site_fract_z
Si Si1 0.278396 0.086799 0.712889
Si Si2 0.676579 0.909198 0.967656
Si Si3 0.768682 0.582556 0.722654
Si Si4 0.085844 0.919086 0.615238
Si Si5 0.011127 0.417110 0.143438
Si Si6 0.408283 0.906634 0.421972
Si Si7 0.498250 0.907748 0.168480
O O1 0.269497 0.250000 0.661457
O O2 0.393048 0.040935 0.743018
O O3 0.191659 0.988386 0.625321
O O4 0.268016 0.088552 0.870174
O O5 0.645606 0.750000 0.923391
O O6 0.743444 0.949851 0.868500
O O7 0.577112 0.997842 0.945123
O O8 0.753840 0.750000 0.693780
O O9 0.882277 0.548133 0.750757
O O10 0.692537 0.492446 0.606043
O O11 0.083352 0.750000 0.589067
O O12 0.064577 0.940356 0.765754
O O13 0.000000 0.000000 0.500000
O O14 0.011344 0.250000 0.111885
O O15 0.000000 0.500000 0.000000
O O16 0.405650 0.750000 0.481117
O O17 0.432748 0.892125 0.275299
O O18 0.500000 0.000000 0.500000
O O19 0.513771 0.750000 0.118406
#
# Coordination Sequence:
#
# PCOD9161560 Si02
#       7
#     4   4   4   4   4   4   4
#     4  10  20  36  57  80 109 148 187 228 281 339
#     4   9  17  30  53  83 112 141 175 218 275 338
#     4   9  18  34  54  78 108 141 177 224 279 336
#     4  11  25  43  61  85 117 156 200 247 296 348
#     4  10  22  40  64  91 118 151 195 244 297 352
#     4  10  20  34  51  74 104 139 178 222 271 329
#     4   9  19  33  51  77 109 142 177 219 272 332
#
# _framework density 21.707844999999999
#
# number of rings (size 3 to 8) (size 9 to 14) (size 15 to 20)
#    0.000    2.286    0.000    2.143    0.000    5.714 
#    0.000    8.571    0.000    0.000    0.000    0.000 
#    0.000    0.000    0.000    0.000    0.000    0.000 
#
# Total GULP energy -156199.551277 kJ/mol
# GULP energy per Si atom -5578.555403 kJ/mol
# Density = 2.165844 g / cm^3
# Si number density = 21.707845 Si / 1000 Ang^3
#
#
#
# Elastic Constant Matrix: (Units=GPa)
#
#
# Indices 1 2 3 4 5 6 
#
# 1 121.2425 47.5403 16.7313 0.0000 25.9978 0.0000
# 2 47.5403 98.2249 44.3449 0.0000 38.4423 0.0000
# 3 16.7313 44.3449 63.5113 0.0000 19.7154 0.0000
# 4 0.0000 0.0000 0.0000 28.3409 0.0000 9.7668
# 5 25.9978 38.4423 19.7154 0.0000 44.0426 0.0000
# 6 0.0000 0.0000 0.0000 9.7668 0.0000 28.8398
#
#
#
# Elastic Compliance Matrix: (Units=1/GPa)
#
#
# Indices 1 2 3 4 5 6 
#
# 1 0.010450 -0.004555 0.001287 0.000000 -0.002769 0.000000
# 2 -0.004555 0.021515 -0.010252 0.000000 -0.011501 0.000000
# 3 0.001287 -0.010252 0.023254 0.000000 -0.002221 0.000000
# 4 0.000000 0.000000 0.000000 0.039947 0.000000 -0.013528
# 5 -0.002769 -0.011501 -0.002221 0.000000 0.035372 0.000000
# 6 0.000000 0.000000 0.000000 -0.013528 0.000000 0.039256
#
#
# Mechanical properties :
#
#
# Convention : Reuss Voigt Hill
#
# Bulk Modulus (GPa) = 35.48803 55.57906 45.53354
# Shear Modulus (GPa) = 24.24512 31.86880 28.05696
#
# Velocity S-wave (km/s) = 3.34561 3.83571 3.59901
# Velocity P-wave (km/s) = 5.59532 6.72872 6.18802
#
# Compressibility (1/GPa) = 0.02817852
#
# Stress axis : x y z
#
# Youngs Moduli (GPa) = 95.69206 46.47912 43.00393
#
# Poissons Ratio (x) = 0.21173 -0.05535
# Poissons Ratio (y) = 0.43591 0.44088
# Poissons Ratio (z) = -0.12317 0.47650
#
# Static dielectric constant tensor:
#      x y z
#    x 1.804100 0.000000 -0.057970 
#    y 0.000000 1.830200 0.000000 
#    z -0.057970 0.000000 1.852900 
# 
# From -- ./inp_files/38392.got.cif
#   From: 2010.05.17/outbox.cif.g08.bks.cpg/sg11_20_cif.got.tgz:38392.got - 2010.06.03 12:22:45.
