data_PCOD9161127
_publ_section_title
;
Structure prediction by ZEFSAII (Michael W. Deem and Ramdas Pophale) SiO2 
 PCOD9161127
Probable space group: P 21/M
;
_chemical_formula_sum "Si O2"
_cell_formula_units_Z 32
_cell_length_a 33.863937
_cell_length_b 8.738006
_cell_length_c 22.610859
_cell_angle_alpha 90.000000
_cell_angle_beta 161.691666
_cell_angle_gamma 90.000000
_cell_volume 2101.730494
_symmetry_space_group_name_H-M "P 21/M"
_symmetry_group_IT_number 11
_symmetry_cell_setting 'monoclinic'
loop_
_space_group_symop_operation_xyz
x,y,z
-x,1/2+y,-z
-x,-y,-z
x,1/2-y,z
loop_
_atom_site_type_symbol
_atom_site_label
_atom_site_fract_x
_atom_site_fract_y
_atom_site_fract_z
Si Si1 0.819368 0.065556 0.261345
Si Si2 0.197486 0.566039 0.170925
Si Si3 0.257959 0.567532 0.028899
Si Si4 0.639624 0.932472 0.704203
Si Si5 0.038770 0.430574 0.649883
Si Si6 0.421810 0.567317 0.145799
Si Si7 0.694798 0.066495 0.547068
Si Si8 0.044875 0.565867 0.126919
O O1 0.834685 0.250000 0.272224
O O2 0.893598 0.032185 0.427509
O O3 0.889272 0.973983 0.308626
O O4 0.672926 0.030245 0.043016
O O5 0.196554 0.750000 0.167491
O O6 0.275576 0.498739 0.227966
O O7 0.263217 0.518437 0.326726
O O8 0.054513 0.504420 0.968936
O O9 0.266347 0.750000 0.048204
O O10 0.303239 0.484345 0.152005
O O11 0.348328 0.523576 0.101965
O O12 0.116189 0.521232 0.809242
O O13 0.634650 0.750000 0.693356
O O14 0.500000 0.000000 0.500000
O O15 0.049157 0.250000 0.676120
O O16 0.435814 0.750000 0.167408
O O17 0.558517 0.495377 0.337715
O O18 0.689917 0.250000 0.541124
O O19 0.807651 0.023292 0.662608
O O20 0.034869 0.750000 0.112895
O O21 0.000000 0.500000 0.000000
#
# Coordination Sequence:
#
# PCOD9161127 Si02
#       8
#     4   4   4   4   4   4   4   4
#     4   8  15  26  38  57  85 114 144 179 219 263
#     4  10  20  34  49  65  86 115 151 189 226 263
#     4  10  20  33  45  61  87 118 153 190 223 259
#     4  12  24  36  49  66  89 119 153 187 223 260
#     4   9  15  25  42  60  80 110 147 184 221 261
#     4   9  17  27  41  61  87 118 148 178 215 259
#     4   9  18  29  43  64  89 114 142 178 219 263
#     4   9  17  30  46  65  87 112 144 183 226 269
#
# _framework density 15.225549000000001
#
# number of rings (size 3 to 8) (size 9 to 14) (size 15 to 20)
#    0.000    2.500    0.000    4.875    0.000    8.000 
#    0.000    0.000    0.000    0.000    0.000    0.000 
#    0.000    1.000    0.000    3.000    0.000    4.875 
#
# Total GULP energy -178201.283854 kJ/mol
# GULP energy per Si atom -5568.790120 kJ/mol
# Density = 1.519090 g / cm^3
# Si number density = 15.225549 Si / 1000 Ang^3
#
#
#
# Elastic Constant Matrix: (Units=GPa)
#
#
# Indices 1 2 3 4 5 6 
#
# 1 58.1892 28.9082 55.1847 0.0000 11.3137 0.0000
# 2 28.9082 54.6150 41.6039 0.0000 5.2330 0.0000
# 3 55.1847 41.6039 149.1586 0.0000 8.6632 0.0000
# 4 0.0000 0.0000 0.0000 29.4211 0.0000 1.1574
# 5 11.3137 5.2330 8.6632 0.0000 22.1130 0.0000
# 6 0.0000 0.0000 0.0000 1.1574 0.0000 19.6279
#
#
#
# Elastic Compliance Matrix: (Units=1/GPa)
#
#
# Indices 1 2 3 4 5 6 
#
# 1 0.032165 -0.009397 -0.008649 0.000000 -0.010844 0.000000
# 2 -0.009397 0.026196 -0.003836 0.000000 0.000112 0.000000
# 3 -0.008649 -0.003836 0.010913 0.000000 0.001058 0.000000
# 4 0.000000 0.000000 0.000000 0.034068 0.000000 -0.002009
# 5 -0.010844 0.000112 0.001058 0.000000 0.050330 0.000000
# 6 0.000000 0.000000 0.000000 -0.002009 0.000000 0.051066
#
#
# Mechanical properties :
#
#
# Convention : Reuss Voigt Hill
#
# Bulk Modulus (GPa) = 39.20384 57.03959 48.12172
# Shear Modulus (GPa) = 19.45477 23.31681 21.38579
#
# Velocity S-wave (km/s) = 3.57847 3.91759 3.75186
# Velocity P-wave (km/s) = 6.54817 7.61628 7.10233
#
# Compressibility (1/GPa) = 0.02550770
#
# Stress axis : x y z
#
# Youngs Moduli (GPa) = 31.08972 38.17401 91.63516
#
# Poissons Ratio (x) = 0.35874 0.79257
# Poissons Ratio (y) = 0.29217 0.35154
# Poissons Ratio (z) = 0.26890 0.14645
#
# Static dielectric constant tensor:
#      x y z
#    x 1.467220 0.000000 -0.000710 
#    y 0.000000 1.503160 0.000000 
#    z -0.000710 0.000000 1.546540 
# 
# From -- ./inp_files/67414.got.cif
#   From: 2010.05.17/outbox.cif.g08.bks.cpg/sg11_34_cif.got.tgz:67414.got - 2010.06.03 12:22:45.
