data_PCOD9161570
_publ_section_title
;
Structure prediction by ZEFSAII (Michael W. Deem and Ramdas Pophale) SiO2 
 PCOD9161570
Probable space group: P 21/M
;
_chemical_formula_sum "Si O2"
_cell_formula_units_Z 32
_cell_length_a 15.318450
_cell_length_b 8.956199
_cell_length_c 23.111660
_cell_angle_alpha 90.000000
_cell_angle_beta 30.784325
_cell_angle_gamma 90.000000
_cell_volume 1622.843505
_symmetry_space_group_name_H-M "P 21/M"
_symmetry_group_IT_number 11
_symmetry_cell_setting 'monoclinic'
loop_
_space_group_symop_operation_xyz
x,y,z
-x,1/2+y,-z
-x,-y,-z
x,1/2-y,z
loop_
_atom_site_type_symbol
_atom_site_label
_atom_site_fract_x
_atom_site_fract_y
_atom_site_fract_z
Si Si1 0.709988 0.928701 0.548981
Si Si2 0.058012 0.570882 0.406336
Si Si3 0.430761 0.076411 0.783955
Si Si4 0.480879 0.571635 0.573222
Si Si5 0.153136 0.071047 0.027793
Si Si6 0.299354 0.428197 0.062089
Si Si7 0.664068 0.927737 0.829163
Si Si8 0.189039 0.423990 0.810781
O O1 0.699134 0.750000 0.555538
O O2 0.624992 0.980893 0.537313
O O3 0.904937 0.969735 0.449083
O O4 0.591960 0.987972 0.668372
O O5 0.067916 0.750000 0.406205
O O6 0.232498 0.507583 0.280634
O O7 0.000000 0.500000 0.500000
O O8 0.479578 0.250000 0.761544
O O9 0.335613 0.027786 0.896246
O O10 0.283709 0.064179 0.818503
O O11 0.500000 0.500000 0.500000
O O12 0.488304 0.750000 0.564855
O O13 0.302810 0.520197 0.702270
O O14 0.134408 0.250000 0.029759
O O15 0.160196 0.039003 0.092146
O O16 0.001002 0.986364 0.083047
O O17 0.335065 0.250000 0.038688
O O18 0.252727 0.462024 0.154945
O O19 0.471707 0.514304 0.947004
O O20 0.666198 0.750000 0.819039
O O21 0.191374 0.250000 0.793003
#
# Coordination Sequence:
#
# PCOD9161570 Si02
#       8
#     4   4   4   4   4   4   4   4
#     4   9  21  39  57  81 113 148 188 231 283 340
#     4  11  24  41  61  87 117 151 193 242 294 349
#     4   9  19  34  54  79 112 149 185 226 276 330
#     4  10  20  37  59  82 111 148 186 231 280 334
#     4  10  20  34  54  82 111 144 187 230 277 329
#     4   9  20  38  59  84 114 150 191 236 289 342
#     4  10  21  39  60  83 114 150 189 235 289 346
#     4  10  20  34  51  78 112 147 186 226 272 328
#
# _framework density 19.718475999999999
#
# number of rings (size 3 to 8) (size 9 to 14) (size 15 to 20)
#    0.000    2.250    0.000    1.875    1.750    4.500 
#    0.000    2.500    0.000    0.000    0.000    0.000 
#    0.000    0.000    0.000    0.000    0.000    0.000 
#
# Total GULP energy -178644.365831 kJ/mol
# GULP energy per Si atom -5582.636432 kJ/mol
# Density = 1.967360 g / cm^3
# Si number density = 19.718476 Si / 1000 Ang^3
#
#
#
# Elastic Constant Matrix: (Units=GPa)
#
#
# Indices 1 2 3 4 5 6 
#
# 1 37.8778 20.3309 14.8775 0.0000 13.7848 0.0000
# 2 20.3309 38.3142 22.4440 0.0000 6.7136 0.0000
# 3 14.8775 22.4440 65.8031 0.0000 12.7779 0.0000
# 4 0.0000 0.0000 0.0000 33.3000 0.0000 2.2798
# 5 13.7848 6.7136 12.7779 0.0000 32.3973 0.0000
# 6 0.0000 0.0000 0.0000 2.2798 0.0000 21.0827
#
#
#
# Elastic Compliance Matrix: (Units=1/GPa)
#
#
# Indices 1 2 3 4 5 6 
#
# 1 0.042119 -0.019901 -0.000060 0.000000 -0.013773 0.000000
# 2 -0.019901 0.042218 -0.010662 0.000000 0.003924 0.000000
# 3 -0.000060 -0.010662 0.019940 0.000000 -0.005630 0.000000
# 4 0.000000 0.000000 0.000000 0.030254 0.000000 -0.003272
# 5 -0.013773 0.003924 -0.005630 0.000000 0.038134 0.000000
# 6 0.000000 0.000000 0.000000 -0.003272 0.000000 0.047786
#
#
# Mechanical properties :
#
#
# Convention : Reuss Voigt Hill
#
# Bulk Modulus (GPa) = 23.23946 28.58886 25.91416
# Shear Modulus (GPa) = 16.88948 22.97885 19.93417
#
# Velocity S-wave (km/s) = 2.92983 3.41742 3.18298
# Velocity P-wave (km/s) = 4.82249 5.48650 5.16518
#
# Compressibility (1/GPa) = 0.04303026
#
# Stress axis : x y z
#
# Youngs Moduli (GPa) = 23.74243 23.68642 50.14959
#
# Poissons Ratio (x) = 0.47138 0.00303
# Poissons Ratio (y) = 0.47249 0.53471
# Poissons Ratio (z) = 0.00143 0.25255
#
# Static dielectric constant tensor:
#      x y z
#    x 1.731580 0.000000 -0.002030 
#    y 0.000000 1.658710 0.000000 
#    z -0.002030 0.000000 1.675330 
# 
# From -- ./inp_files/69003.got.cif
#   From: 2010.05.17/outbox.cif.g08.bks.cpg/sg11_35_cif.got.tgz:69003.got - 2010.06.03 12:22:45.
