data_PCOD9161432
_publ_section_title
;
Structure prediction by ZEFSAII (Michael W. Deem and Ramdas Pophale) SiO2 
 PCOD9161432
Probable space group: P 21/M
;
_chemical_formula_sum "Si O2"
_cell_formula_units_Z 32
_cell_length_a 11.452306
_cell_length_b 8.142068
_cell_length_c 16.449481
_cell_angle_alpha 90.000000
_cell_angle_beta 89.460299
_cell_angle_gamma 90.000000
_cell_volume 1533.771281
_symmetry_space_group_name_H-M "P 21/M"
_symmetry_group_IT_number 11
_symmetry_cell_setting 'monoclinic'
loop_
_space_group_symop_operation_xyz
x,y,z
-x,1/2+y,-z
-x,-y,-z
x,1/2-y,z
loop_
_atom_site_type_symbol
_atom_site_label
_atom_site_fract_x
_atom_site_fract_y
_atom_site_fract_z
Si Si1 0.691933 0.441446 0.471027
Si Si2 0.518093 0.439904 0.908348
Si Si3 0.658433 0.941999 0.765132
Si Si4 0.077726 0.050565 0.240791
Si Si5 0.851731 0.049208 0.333538
Si Si6 0.715764 0.057427 0.171860
Si Si7 0.464968 0.943266 0.385957
Si Si8 0.059033 0.056862 0.916627
O O1 0.717785 0.250000 0.484537
O O2 0.799307 0.512823 0.418880
O O3 0.642571 0.506435 0.556812
O O4 0.580115 0.461036 0.412350
O O5 0.549538 0.250000 0.909404
O O6 0.618356 0.533351 0.857815
O O7 0.397646 0.466724 0.860112
O O8 0.500000 0.500000 0.000000
O O9 0.652732 0.750000 0.745155
O O10 0.789554 0.002578 0.748374
O O11 0.569306 0.033120 0.706404
O O12 0.076593 0.250000 0.235652
O O13 0.983547 0.001441 0.309913
O O14 0.028270 0.982085 0.156796
O O15 0.848122 0.250000 0.334420
O O16 0.769007 0.999172 0.258003
O O17 0.686537 0.250000 0.180053
O O18 0.821139 0.035089 0.107074
O O19 0.483775 0.750000 0.403597
O O20 0.083887 0.250000 0.919689
O O21 0.000000 0.000000 0.000000
#
# Coordination Sequence:
#
# PCOD9161432 Si02
#       8
#     4   4   4   4   4   4   4   4
#     4   9  17  32  57  85 115 149 190 238 289 345
#     4  12  26  42  60  84 114 148 189 235 287 346
#     4  11  23  40  60  80 113 155 194 237 291 352
#     4   9  20  38  58  80 107 146 196 241 288 346
#     4   8  15  32  58  83 107 141 185 234 282 331
#     4  10  20  37  59  84 113 145 187 232 282 341
#     4  10  20  33  53  85 119 152 190 235 289 349
#     4  11  22  36  57  82 111 145 186 237 290 340
#
# _framework density 20.863606999999998
#
# number of rings (size 3 to 8) (size 9 to 14) (size 15 to 20)
#    0.000    2.000    0.000    4.875    1.750    2.500 
#    0.000    3.125    0.000    0.000    0.000    0.000 
#    0.000    0.000    0.000    0.000    0.000    0.000 
#
# Total GULP energy -178710.175698 kJ/mol
# GULP energy per Si atom -5584.692991 kJ/mol
# Density = 2.081612 g / cm^3
# Si number density = 20.863607 Si / 1000 Ang^3
#
#
#
# Elastic Constant Matrix: (Units=GPa)
#
#
# Indices 1 2 3 4 5 6 
#
# 1 52.6481 -13.7239 16.6198 0.0000 -10.3957 0.0000
# 2 -13.7239 28.1546 -9.8433 0.0000 6.5811 0.0000
# 3 16.6198 -9.8433 71.8364 0.0000 -29.0105 0.0000
# 4 0.0000 0.0000 0.0000 19.8163 0.0000 -0.8373
# 5 -10.3957 6.5811 -29.0105 0.0000 29.4595 0.0000
# 6 0.0000 0.0000 0.0000 -0.8373 0.0000 21.6787
#
#
#
# Elastic Compliance Matrix: (Units=1/GPa)
#
#
# Indices 1 2 3 4 5 6 
#
# 1 0.022969 0.009480 -0.002651 0.000000 0.003376 0.000000
# 2 0.009480 0.041758 0.001847 0.000000 -0.004165 0.000000
# 3 -0.002651 0.001847 0.023646 0.000000 0.021938 0.000000
# 4 0.000000 0.000000 0.000000 0.050546 0.000000 0.001952
# 5 0.003376 -0.004165 0.021938 0.000000 0.057670 0.000000
# 6 0.000000 0.000000 0.000000 0.001952 0.000000 0.046204
#
#
# Mechanical properties :
#
#
# Convention : Reuss Voigt Hill
#
# Bulk Modulus (GPa) = 9.45859 15.41603 12.43731
# Shear Modulus (GPa) = 19.18028 24.82999 22.00514
#
# Velocity S-wave (km/s) = 3.03531 3.45354 3.25116
# Velocity P-wave (km/s) = 4.10214 4.82779 4.47968
#
# Compressibility (1/GPa) = 0.10572400
#
# Stress axis : x y z
#
# Youngs Moduli (GPa) = 43.53708 23.94736 42.28971
#
# Poissons Ratio (x) = -0.22702 0.11213
# Poissons Ratio (y) = -0.41273 -0.07810
# Poissons Ratio (z) = 0.11544 -0.04423
#
# Static dielectric constant tensor:
#      x y z
#    x 1.752590 0.000000 -0.042930 
#    y 0.000000 1.734990 0.000000 
#    z -0.042930 0.000000 1.746080 
# 
# From -- ./inp_files/49284.got.cif
#   From: 2010.05.17/outbox.cif.g08.bks.cpg/sg11_25_cif.got.tgz:49284.got - 2010.06.03 12:22:45.
