data_PCOD9161176
_publ_section_title
;
Structure prediction by ZEFSAII (Michael W. Deem and Ramdas Pophale) SiO2 
 PCOD9161176
Probable space group: P 21/M
;
_chemical_formula_sum "Si O2"
_cell_formula_units_Z 28
_cell_length_a 21.767065
_cell_length_b 8.931088
_cell_length_c 11.428864
_cell_angle_alpha 90.000000
_cell_angle_beta 129.079745
_cell_angle_gamma 90.000000
_cell_volume 1724.724472
_symmetry_space_group_name_H-M "P 21/M"
_symmetry_group_IT_number 11
_symmetry_cell_setting 'monoclinic'
loop_
_space_group_symop_operation_xyz
x,y,z
-x,1/2+y,-z
-x,-y,-z
x,1/2-y,z
loop_
_atom_site_type_symbol
_atom_site_label
_atom_site_fract_x
_atom_site_fract_y
_atom_site_fract_z
Si Si1 0.963656 0.928051 0.638521
Si Si2 0.115015 0.070575 0.703085
Si Si3 0.440087 0.423689 0.264613
Si Si4 0.402319 0.076570 0.498351
Si Si5 0.769671 0.931964 0.761040
Si Si6 0.072995 0.570941 0.158677
Si Si7 0.270104 0.068174 0.018623
O O1 0.965623 0.750000 0.663350
O O2 0.907475 0.956103 0.458776
O O3 0.935228 0.015288 0.718119
O O4 0.050077 0.986106 0.703319
O O5 0.107281 0.250000 0.714742
O O6 0.203112 0.024056 0.846111
O O7 0.447613 0.250000 0.242137
O O8 0.524899 0.498819 0.349737
O O9 0.420864 0.431124 0.381008
O O10 0.360089 0.487784 0.110194
O O11 0.402280 0.250000 0.531121
O O12 0.312341 0.020336 0.400587
O O13 0.775663 0.750000 0.760594
O O14 0.759951 0.970281 0.886855
O O15 0.845962 0.008395 0.798539
O O16 0.069904 0.750000 0.148084
O O17 0.000000 0.500000 0.000000
O O18 0.275611 0.250000 0.023575
#
# Coordination Sequence:
#
# PCOD9161176 Si02
#       7
#     4   4   4   4   4   4   4
#     4  10  20  33  49  70  94 121 155 191 231 276
#     4   9  17  31  51  71  93 122 155 192 231 272
#     4   8  13  22  38  60  87 118 150 181 215 262
#     4   8  14  24  38  59  89 122 150 178 218 266
#     4   9  17  30  47  67  94 125 154 185 225 273
#     4  12  24  36  50  68  92 121 154 191 231 274
#     4   8  14  26  45  68  92 120 151 184 226 270
#
# _framework density 16.234476999999998
#
# number of rings (size 3 to 8) (size 9 to 14) (size 15 to 20)
#    0.000    2.857    0.000    4.286    0.000    2.286 
#    0.000    2.857    0.000    0.000    0.000    1.000 
#    0.000    0.000    0.000    0.000    0.000    0.000 
#
# Total GULP energy -155936.546171 kJ/mol
# GULP energy per Si atom -5569.162363 kJ/mol
# Density = 1.619753 g / cm^3
# Si number density = 16.234477 Si / 1000 Ang^3
#
#
#
# Elastic Constant Matrix: (Units=GPa)
#
#
# Indices 1 2 3 4 5 6 
#
# 1 80.8658 40.8293 57.5356 0.0000 29.4455 0.0000
# 2 40.8293 52.7786 41.9977 0.0000 14.9250 0.0000
# 3 57.5356 41.9977 120.5325 0.0000 43.7219 0.0000
# 4 0.0000 0.0000 0.0000 21.5184 0.0000 5.2617
# 5 29.4455 14.9250 43.7219 0.0000 32.1151 0.0000
# 6 0.0000 0.0000 0.0000 5.2617 0.0000 25.4989
#
#
#
# Elastic Compliance Matrix: (Units=1/GPa)
#
#
# Indices 1 2 3 4 5 6 
#
# 1 0.026755 -0.014693 -0.002431 0.000000 -0.014394 0.000000
# 2 -0.014693 0.034289 -0.007982 0.000000 0.008403 0.000000
# 3 -0.002431 -0.007982 0.019922 0.000000 -0.021184 0.000000
# 4 0.000000 0.000000 0.000000 0.048941 0.000000 -0.010099
# 5 -0.014394 0.008403 -0.021184 0.000000 0.069270 0.000000
# 6 0.000000 0.000000 0.000000 -0.010099 0.000000 0.041301
#
#
# Mechanical properties :
#
#
# Convention : Reuss Voigt Hill
#
# Bulk Modulus (GPa) = 32.51532 59.43357 45.97444
# Shear Modulus (GPa) = 16.61443 23.41410 20.01427
#
# Velocity S-wave (km/s) = 3.20254 3.80181 3.51497
# Velocity P-wave (km/s) = 5.80922 7.48068 6.69730
#
# Compressibility (1/GPa) = 0.03075473
#
# Stress axis : x y z
#
# Youngs Moduli (GPa) = 37.37556 29.16404 50.19469
#
# Poissons Ratio (x) = 0.42852 0.12202
# Poissons Ratio (y) = 0.54917 0.40065
# Poissons Ratio (z) = 0.09085 0.23278
#
# Static dielectric constant tensor:
#      x y z
#    x 1.526350 0.000000 0.023750 
#    y 0.000000 1.539450 0.000000 
#    z 0.023750 0.000000 1.572190 
# 
# From -- ./inp_files/42135.got.cif
#   From: 2010.05.17/outbox.cif.g08.bks.cpg/sg11_22_cif.got.tgz:42135.got - 2010.06.03 12:22:45.
