data_PCOD9161054
_publ_section_title
;
Structure prediction by ZEFSAII (Michael W. Deem and Ramdas Pophale) SiO2 
 PCOD9161054
Probable space group: P 21/M
;
_chemical_formula_sum "Si O2"
_cell_formula_units_Z 32
_cell_length_a 15.396939
_cell_length_b 9.677722
_cell_length_c 15.930093
_cell_angle_alpha 90.000000
_cell_angle_beta 128.070592
_cell_angle_gamma 90.000000
_cell_volume 1868.699232
_symmetry_space_group_name_H-M "P 21/M"
_symmetry_group_IT_number 11
_symmetry_cell_setting 'monoclinic'
loop_
_space_group_symop_operation_xyz
x,y,z
-x,1/2+y,-z
-x,-y,-z
x,1/2-y,z
loop_
_atom_site_type_symbol
_atom_site_label
_atom_site_fract_x
_atom_site_fract_y
_atom_site_fract_z
Si Si1 0.460425 0.910239 0.857390
Si Si2 0.129019 0.466820 0.087442
Si Si3 0.338181 0.587163 0.955428
Si Si4 0.863549 0.591705 0.097654
Si Si5 0.279464 0.587616 0.421544
Si Si6 0.542116 0.087179 0.334257
Si Si7 0.656657 0.401341 0.733617
Si Si8 0.916813 0.906528 0.753425
O O1 0.501855 0.750000 0.886907
O O2 0.368733 0.923323 0.874973
O O3 0.419994 0.933723 0.738866
O O4 0.557568 0.017553 0.935762
O O5 0.220238 0.585404 0.155222
O O6 0.130979 0.395919 0.179713
O O7 0.159004 0.401059 0.016209
O O8 0.000000 0.500000 0.000000
O O9 0.325173 0.750000 0.968669
O O10 0.233169 0.496275 0.917423
O O11 0.872464 0.750000 0.133377
O O12 0.975647 0.504081 0.177685
O O13 0.249196 0.750000 0.417399
O O14 0.367239 0.542759 0.543738
O O15 0.333181 0.582339 0.360706
O O16 0.174480 0.487395 0.354883
O O17 0.525705 0.250000 0.337659
O O18 0.425904 0.013016 0.278933
O O19 0.611899 0.250000 0.725922
O O20 0.940787 0.750000 0.739381
#
# Coordination Sequence:
#
# PCOD9161054 Si02
#       8
#     4   4   4   4   4   4   4   4
#     4   9  19  35  53  74 100 131 166 204 249 297
#     4   9  20  33  48  71 102 137 169 201 240 288
#     4  10  20  34  52  75 103 131 162 204 250 296
#     4  11  21  33  51  74 101 133 167 202 244 296
#     4   9  19  35  51  70 100 135 167 202 246 292
#     4  10  20  34  53  74  98 131 169 206 246 293
#     4  10  20  32  48  73 104 134 167 206 245 288
#     4  10  20  34  52  74 100 131 167 205 244 288
#
# _framework density 17.124210999999999
#
# number of rings (size 3 to 8) (size 9 to 14) (size 15 to 20)
#    0.000    2.250    0.000    2.625    0.000   11.500 
#    0.000    0.000    0.000    0.750    0.000    0.000 
#    0.000    0.000    0.000    0.000    0.000    0.000 
#
# Total GULP energy -178250.361112 kJ/mol
# GULP energy per Si atom -5570.323785 kJ/mol
# Density = 1.708524 g / cm^3
# Si number density = 17.124211 Si / 1000 Ang^3
#
#
#
# Elastic Constant Matrix: (Units=GPa)
#
#
# Indices 1 2 3 4 5 6 
#
# 1 79.5567 56.6815 36.5995 0.0000 8.5466 0.0000
# 2 56.6815 109.9268 36.8978 0.0000 5.3514 0.0000
# 3 36.5995 36.8978 93.7374 0.0000 3.6084 0.0000
# 4 0.0000 0.0000 0.0000 16.6334 0.0000 5.5643
# 5 8.5466 5.3514 3.6084 0.0000 13.5945 0.0000
# 6 0.0000 0.0000 0.0000 5.5643 0.0000 15.9402
#
#
#
# Elastic Compliance Matrix: (Units=1/GPa)
#
#
# Indices 1 2 3 4 5 6 
#
# 1 0.022551 -0.009616 -0.004668 0.000000 -0.009153 0.000000
# 2 -0.009616 0.014710 -0.002067 0.000000 0.000803 0.000000
# 3 -0.004668 -0.002067 0.013296 0.000000 0.000219 0.000000
# 4 0.000000 0.000000 0.000000 0.068069 0.000000 -0.023761
# 5 -0.009153 0.000803 0.000219 0.000000 0.078939 0.000000
# 6 0.000000 0.000000 0.000000 -0.023761 0.000000 0.071029
#
#
# Mechanical properties :
#
#
# Convention : Reuss Voigt Hill
#
# Bulk Modulus (GPa) = 56.00221 60.39760 58.19991
# Shear Modulus (GPa) = 16.27364 19.43644 17.85504
#
# Velocity S-wave (km/s) = 3.08609 3.37267 3.23256
# Velocity P-wave (km/s) = 6.74337 7.10728 6.92772
#
# Compressibility (1/GPa) = 0.01785644
#
# Stress axis : x y z
#
# Youngs Moduli (GPa) = 44.34372 67.98250 75.21262
#
# Poissons Ratio (x) = 0.65370 0.35107
# Poissons Ratio (y) = 0.42639 0.15544
# Poissons Ratio (z) = 0.20698 0.14050
#
# Static dielectric constant tensor:
#      x y z
#    x 1.569290 0.000000 -0.005390 
#    y 0.000000 1.584380 0.000000 
#    z -0.005390 0.000000 1.582020 
# 
# From -- ./inp_files/51785.got.cif
#   From: 2010.05.17/outbox.cif.g08.bks.cpg/sg11_26_cif.got.tgz:51785.got - 2010.06.03 12:22:45.
