data_PCOD9161111
_publ_section_title
;
Structure prediction by ZEFSAII (Michael W. Deem and Ramdas Pophale) SiO2 
 PCOD9161111
Probable space group: P 21/M
;
_chemical_formula_sum "Si O2"
_cell_formula_units_Z 32
_cell_length_a 16.422212
_cell_length_b 8.407063
_cell_length_c 24.671975
_cell_angle_alpha 90.000000
_cell_angle_beta 151.994704
_cell_angle_gamma 90.000000
_cell_volume 1599.427847
_symmetry_space_group_name_H-M "P 21/M"
_symmetry_group_IT_number 11
_symmetry_cell_setting 'monoclinic'
loop_
_space_group_symop_operation_xyz
x,y,z
-x,1/2+y,-z
-x,-y,-z
x,1/2-y,z
loop_
_atom_site_type_symbol
_atom_site_label
_atom_site_fract_x
_atom_site_fract_y
_atom_site_fract_z
Si Si1 0.322979 0.442431 0.321827
Si Si2 0.811122 0.060476 0.871749
Si Si3 0.330987 0.442815 0.831340
Si Si4 0.819830 0.559554 0.369239
Si Si5 0.549684 0.058949 0.297697
Si Si6 0.087250 0.058462 0.280506
Si Si7 0.308217 0.941440 0.502028
Si Si8 0.713361 0.058914 0.072980
O O1 0.323205 0.250000 0.322404
O O2 0.227907 0.497905 0.211589
O O3 0.223921 0.502139 0.316534
O O4 0.522025 0.493949 0.432305
O O5 0.809403 0.250000 0.871587
O O6 0.648065 0.000224 0.812027
O O7 0.000000 0.000000 0.000000
O O8 0.324829 0.250000 0.830512
O O9 0.212973 0.495110 0.711878
O O10 0.284356 0.508842 0.862779
O O11 0.531856 0.493709 0.940436
O O12 0.823742 0.750000 0.371109
O O13 0.658191 0.504502 0.310926
O O14 0.000000 0.500000 0.500000
O O15 0.546865 0.250000 0.295041
O O16 0.652937 0.009309 0.413451
O O17 0.089161 0.250000 0.279356
O O18 0.893247 0.001573 0.153366
O O19 0.144307 0.008177 0.374093
O O20 0.297922 0.750000 0.495609
O O21 0.713032 0.250000 0.070286
#
# Coordination Sequence:
#
# PCOD9161111 Si02
#       8
#     4   4   4   4   4   4   4   4
#     4   9  19  36  53  77 113 150 187 233 285 335
#     4  11  22  38  61  87 116 154 196 240 291 351
#     4   9  20  39  58  78 111 148 187 233 291 350
#     4  11  24  40  61  89 119 157 201 249 305 362
#     4  10  22  41  60  85 118 154 197 245 298 353
#     4  10  20  32  53  83 111 142 185 235 286 341
#     4   9  19  34  53  76 111 151 185 228 283 342
#     4   9  19  36  57  82 108 143 187 236 289 343
#
# _framework density 20.007155000000001
#
# number of rings (size 3 to 8) (size 9 to 14) (size 15 to 20)
#    0.000    2.250    0.000    3.000    1.750    5.500 
#    0.000    2.500    0.000    0.000    0.000    0.000 
#    0.000    0.000    0.000    0.000    0.000    0.000 
#
# Total GULP energy -178614.141215 kJ/mol
# GULP energy per Si atom -5581.691913 kJ/mol
# Density = 1.996162 g / cm^3
# Si number density = 20.007155 Si / 1000 Ang^3
#
#
#
# Elastic Constant Matrix: (Units=GPa)
#
#
# Indices 1 2 3 4 5 6 
#
# 1 33.0877 -2.6913 5.3194 0.0000 -4.5887 0.0000
# 2 -2.6913 7.8941 2.6416 0.0000 3.1902 0.0000
# 3 5.3194 2.6416 101.6550 0.0000 -7.6277 0.0000
# 4 0.0000 0.0000 0.0000 29.7604 0.0000 -0.3306
# 5 -4.5887 3.1902 -7.6277 0.0000 15.9999 0.0000
# 6 0.0000 0.0000 0.0000 -0.3306 0.0000 25.2477
#
#
#
# Elastic Compliance Matrix: (Units=1/GPa)
#
#
# Indices 1 2 3 4 5 6 
#
# 1 0.032096 0.008654 -0.001393 0.000000 0.006815 0.000000
# 2 0.008654 0.143552 -0.006373 0.000000 -0.029179 0.000000
# 3 -0.001393 -0.006373 0.010517 0.000000 0.005885 0.000000
# 4 0.000000 0.000000 0.000000 0.033607 0.000000 0.000440
# 5 0.006815 -0.029179 0.005885 0.000000 0.073079 0.000000
# 6 0.000000 0.000000 0.000000 0.000440 0.000000 0.039613
#
#
# Mechanical properties :
#
#
# Convention : Reuss Voigt Hill
#
# Bulk Modulus (GPa) = 5.32081 17.01960 11.17020
# Shear Modulus (GPa) = 12.71185 23.35940 18.03562
#
# Velocity S-wave (km/s) = 2.52338 3.42065 3.00569
# Velocity P-wave (km/s) = 3.33993 4.91186 4.20009
#
# Compressibility (1/GPa) = 0.18794142
#
# Stress axis : x y z
#
# Youngs Moduli (GPa) = 31.15678 6.96613 95.08163
#
# Poissons Ratio (x) = -0.06028 0.13245
# Poissons Ratio (y) = -0.26963 0.60592
# Poissons Ratio (z) = 0.04340 0.04439
#
# Static dielectric constant tensor:
#      x y z
#    x 1.722310 0.000000 0.022940 
#    y 0.000000 1.683730 0.000000 
#    z 0.022940 0.000000 1.721520 
# 
# From -- ./inp_files/69076.got.cif
#   From: 2010.05.17/outbox.cif.g08.bks.cpg/sg11_35_cif.got.tgz:69076.got - 2010.06.03 12:22:45.
