data_PCOD9161544
_publ_section_title
;
Structure prediction by ZEFSAII (Michael W. Deem and Ramdas Pophale) SiO2 
 PCOD9161544
Probable space group: P 21/M
;
_chemical_formula_sum "Si O2"
_cell_formula_units_Z 32
_cell_length_a 22.504346
_cell_length_b 7.751005
_cell_length_c 22.412970
_cell_angle_alpha 90.000000
_cell_angle_beta 25.110619
_cell_angle_gamma 90.000000
_cell_volume 1659.073720
_symmetry_space_group_name_H-M "P 21/M"
_symmetry_group_IT_number 11
_symmetry_cell_setting 'monoclinic'
loop_
_space_group_symop_operation_xyz
x,y,z
-x,1/2+y,-z
-x,-y,-z
x,1/2-y,z
loop_
_atom_site_type_symbol
_atom_site_label
_atom_site_fract_x
_atom_site_fract_y
_atom_site_fract_z
Si Si1 0.241504 0.459535 0.437370
Si Si2 0.689722 0.542122 0.879593
Si Si3 0.067100 0.455027 0.876041
Si Si4 0.021001 0.546024 0.791168
Si Si5 0.666577 0.947571 0.522004
Si Si6 0.379509 0.041878 0.562984
Si Si7 0.922064 0.955823 0.758728
Si Si8 0.629581 0.957741 0.803679
O O1 0.248151 0.250000 0.432753
O O2 0.329360 0.524470 0.415198
O O3 0.300527 0.521866 0.320647
O O4 0.079535 0.508493 0.593331
O O5 0.702756 0.750000 0.865075
O O6 0.807190 0.472479 0.817691
O O7 0.697139 0.478092 0.804381
O O8 0.534414 0.501196 0.043988
O O9 0.072292 0.250000 0.867023
O O10 0.982299 0.518795 0.895037
O O11 0.227121 0.521605 0.723863
O O12 0.000000 0.500000 0.000000
O O13 0.047254 0.750000 0.758581
O O14 0.168786 0.450921 0.646104
O O15 0.918815 0.486399 0.831002
O O16 0.617893 0.750000 0.572074
O O17 0.594974 0.024769 0.527987
O O18 0.371390 0.250000 0.565848
O O19 0.500000 0.000000 0.500000
O O20 0.901341 0.750000 0.778444
O O21 0.642234 0.750000 0.791875
#
# Coordination Sequence:
#
# PCOD9161544 Si02
#       8
#     4   4   4   4   4   4   4   4
#     4   9  17  30  49  71  94 119 152 196 238 276
#     4   9  18  33  49  66  94 129 159 191 235 284
#     4  10  20  34  51  72  97 126 159 195 235 279
#     4   9  16  28  47  69  93 123 157 192 232 279
#     4   8  15  29  46  65  92 123 153 189 234 280
#     4   9  18  31  48  69  93 121 153 188 228 275
#     4   9  18  31  48  71  97 123 154 193 236 282
#     4   9  18  32  49  69  93 124 161 196 233 281
#
# _framework density 19.287870999999999
#
# number of rings (size 3 to 8) (size 9 to 14) (size 15 to 20)
#    0.000    3.000    0.000    1.500    0.000    4.500 
#    0.000    1.250    0.000    3.000    0.000    0.000 
#    0.000    0.000    0.000    0.000    0.000    0.000 
#
# Total GULP energy -178202.785245 kJ/mol
# GULP energy per Si atom -5568.837039 kJ/mol
# Density = 1.924397 g / cm^3
# Si number density = 19.287871 Si / 1000 Ang^3
#
#
#
# Elastic Constant Matrix: (Units=GPa)
#
#
# Indices 1 2 3 4 5 6 
#
# 1 244.2103 8.2374 86.4747 0.0000 16.3224 0.0000
# 2 8.2374 31.5847 -4.3593 0.0000 -0.2585 0.0000
# 3 86.4747 -4.3593 60.0229 0.0000 21.9175 0.0000
# 4 0.0000 0.0000 0.0000 18.9640 0.0000 -2.9123
# 5 16.3224 -0.2585 21.9175 0.0000 31.3222 0.0000
# 6 0.0000 0.0000 0.0000 -2.9123 0.0000 11.0512
#
#
#
# Elastic Compliance Matrix: (Units=1/GPa)
#
#
# Indices 1 2 3 4 5 6 
#
# 1 0.009799 -0.004835 -0.016909 0.000000 0.006686 0.000000
# 2 -0.004835 0.034445 0.011341 0.000000 -0.005132 0.000000
# 3 -0.016909 0.011341 0.051839 0.000000 -0.027369 0.000000
# 4 0.000000 0.000000 0.000000 0.054956 0.000000 0.014482
# 5 0.006686 -0.005132 -0.027369 0.000000 0.047551 0.000000
# 6 0.000000 0.000000 0.000000 0.014482 0.000000 0.094304
#
#
# Mechanical properties :
#
#
# Convention : Reuss Voigt Hill
#
# Bulk Modulus (GPa) = 13.28440 57.39151 35.33796
# Shear Modulus (GPa) = 14.75832 28.63182 21.69507
#
# Velocity S-wave (km/s) = 2.76915 3.85703 3.35745
# Velocity P-wave (km/s) = 4.13844 7.04666 5.77850
#
# Compressibility (1/GPa) = 0.07527624
#
# Stress axis : x y z
#
# Youngs Moduli (GPa) = 102.05494 29.03180 19.29047
#
# Poissons Ratio (x) = 0.14036 0.32619
# Poissons Ratio (y) = 0.49340 -0.21877
# Poissons Ratio (z) = 1.72569 -0.32925
#
# Static dielectric constant tensor:
#      x y z
#    x 1.743080 0.000000 0.030420 
#    y 0.000000 1.762740 0.000000 
#    z 0.030420 0.000000 1.634900 
# 
# From -- ./inp_files/66408.got.cif
#   From: 2010.05.17/outbox.cif.g08.bks.cpg/sg11_34_cif.got.tgz:66408.got - 2010.06.03 12:22:45.
