data_PCOD9161836
_publ_section_title
;
Structure prediction by ZEFSAII (Michael W. Deem and Ramdas Pophale) SiO2 
 PCOD9161836
Probable space group: P 21/M
;
_chemical_formula_sum "Si O2"
_cell_formula_units_Z 32
_cell_length_a 20.167081
_cell_length_b 8.926233
_cell_length_c 25.170715
_cell_angle_alpha 90.000000
_cell_angle_beta 20.753562
_cell_angle_gamma 90.000000
_cell_volume 1605.603247
_symmetry_space_group_name_H-M "P 21/M"
_symmetry_group_IT_number 11
_symmetry_cell_setting 'monoclinic'
loop_
_space_group_symop_operation_xyz
x,y,z
-x,1/2+y,-z
-x,-y,-z
x,1/2-y,z
loop_
_atom_site_type_symbol
_atom_site_label
_atom_site_fract_x
_atom_site_fract_y
_atom_site_fract_z
Si Si1 0.214718 0.924750 0.492298
Si Si2 0.853131 0.421345 0.072034
Si Si3 0.210058 0.573444 0.679850
Si Si4 0.586648 0.078506 0.367637
Si Si5 0.176760 0.929654 0.396770
Si Si6 0.433681 0.927100 0.910013
Si Si7 0.024401 0.928883 0.235976
Si Si8 0.635310 0.923488 0.148986
O O1 0.162922 0.750000 0.537115
O O2 0.172324 0.970644 0.462979
O O3 0.439603 0.933917 0.327502
O O4 0.106865 0.015988 0.617855
O O5 0.903466 0.250000 0.020619
O O6 0.670393 0.416768 0.246579
O O7 0.804376 0.522135 0.058367
O O8 0.000000 0.500000 0.000000
O O9 0.174560 0.750000 0.703894
O O10 0.253770 0.533384 0.708765
O O11 0.410230 0.529321 0.504069
O O12 0.054903 0.493280 0.760230
O O13 0.529331 0.250000 0.425046
O O14 0.174298 0.750000 0.395773
O O15 0.371548 0.988583 0.225798
O O16 0.000000 0.000000 0.500000
O O17 0.461886 0.750000 0.895734
O O18 0.387126 0.967956 0.883963
O O19 0.241400 0.973642 0.083216
O O20 0.019154 0.750000 0.236405
O O21 0.655425 0.750000 0.116899
#
# Coordination Sequence:
#
# PCOD9161836 Si02
#       8
#     4   4   4   4   4   4   4   4
#     4   9  20  38  61  89 117 150 191 231 277 336
#     4  11  23  36  51  74 104 141 188 240 293 347
#     4  10  20  34  55  77 102 141 183 231 287 344
#     4   9  20  37  52  72 100 136 185 235 288 346
#     4  10  21  40  67  96 123 156 193 231 277 335
#     4  10  22  39  59  88 121 155 195 238 285 340
#     4  11  23  36  55  85 118 151 190 237 287 337
#     4  10  21  38  58  81 110 148 195 244 294 350
#
# _framework density 19.930204
#
# number of rings (size 3 to 8) (size 9 to 14) (size 15 to 20)
#    0.000    2.000    0.000    3.750    1.750    8.500 
#    0.000    0.625    0.000    0.000    0.000    0.000 
#    0.000    0.000    0.000    0.000    0.000    0.000 
#
# Total GULP energy -178667.303283 kJ/mol
# GULP energy per Si atom -5583.353228 kJ/mol
# Density = 1.988484 g / cm^3
# Si number density = 19.930204 Si / 1000 Ang^3
#
#
#
# Elastic Constant Matrix: (Units=GPa)
#
#
# Indices 1 2 3 4 5 6 
#
# 1 57.4920 20.1869 17.4990 0.0000 -25.9847 0.0000
# 2 20.1869 43.6390 20.4757 0.0000 -7.8517 0.0000
# 3 17.4990 20.4757 76.0026 0.0000 -15.0354 0.0000
# 4 0.0000 0.0000 0.0000 28.3683 0.0000 -5.0062
# 5 -25.9847 -7.8517 -15.0354 0.0000 37.6436 0.0000
# 6 0.0000 0.0000 0.0000 -5.0062 0.0000 29.8098
#
#
#
# Elastic Compliance Matrix: (Units=1/GPa)
#
#
# Indices 1 2 3 4 5 6 
#
# 1 0.029115 -0.010041 -0.000474 0.000000 0.017814 0.000000
# 2 -0.010041 0.029984 -0.006406 0.000000 -0.003235 0.000000
# 3 -0.000474 -0.006406 0.015921 0.000000 0.004696 0.000000
# 4 0.000000 0.000000 0.000000 0.036327 0.000000 0.006101
# 5 0.017814 -0.003235 0.004696 0.000000 0.040062 0.000000
# 6 0.000000 0.000000 0.000000 0.006101 0.000000 0.034571
#
#
# Mechanical properties :
#
#
# Convention : Reuss Voigt Hill
#
# Bulk Modulus (GPa) = 24.28495 32.60631 28.44563
# Shear Modulus (GPa) = 21.40890 27.09581 24.25235
#
# Velocity S-wave (km/s) = 3.28104 3.69119 3.49214
# Velocity P-wave (km/s) = 5.15414 5.87897 5.52844
#
# Compressibility (1/GPa) = 0.04117777
#
# Stress axis : x y z
#
# Youngs Moduli (GPa) = 34.34673 33.35159 62.80835
#
# Poissons Ratio (x) = 0.33487 0.02980
# Poissons Ratio (y) = 0.34486 0.40236
# Poissons Ratio (z) = 0.01630 0.21365
#
# Static dielectric constant tensor:
#      x y z
#    x 1.697580 0.000000 0.007860 
#    y 0.000000 1.682910 0.000000 
#    z 0.007860 0.000000 1.747350 
# 
# From -- ./inp_files/72023.got.cif
#   From: 2010.05.17/outbox.cif.g08.bks.cpg/sg11_37_cif.got.tgz:72023.got - 2010.06.03 12:22:45.
