data_PCOD9161372
_publ_section_title
;
Structure prediction by ZEFSAII (Michael W. Deem and Ramdas Pophale) SiO2 
 PCOD9161372
Probable space group: P 21/M
;
_chemical_formula_sum "Si O2"
_cell_formula_units_Z 28
_cell_length_a 15.262641
_cell_length_b 8.199909
_cell_length_c 17.193193
_cell_angle_alpha 90.000000
_cell_angle_beta 39.720605
_cell_angle_gamma 90.000000
_cell_volume 1375.074861
_symmetry_space_group_name_H-M "P 21/M"
_symmetry_group_IT_number 11
_symmetry_cell_setting 'monoclinic'
loop_
_space_group_symop_operation_xyz
x,y,z
-x,1/2+y,-z
-x,-y,-z
x,1/2-y,z
loop_
_atom_site_type_symbol
_atom_site_label
_atom_site_fract_x
_atom_site_fract_y
_atom_site_fract_z
Si Si1 0.837400 0.949259 0.438586
Si Si2 0.341882 0.058526 0.763731
Si Si3 0.916568 0.444836 0.980899
Si Si4 0.581224 0.555153 0.703675
Si Si5 0.184272 0.448540 0.717594
Si Si6 0.911987 0.445678 0.636081
Si Si7 0.595428 0.944502 0.863630
O O1 0.835421 0.750000 0.438622
O O2 0.730915 0.005898 0.576628
O O3 0.784072 0.004004 0.390731
O O4 0.990326 0.996527 0.358355
O O5 0.362508 0.250000 0.739625
O O6 0.278625 0.992759 0.725182
O O7 0.478710 0.981976 0.703622
O O8 0.228632 0.028006 0.908244
O O9 0.897188 0.250000 0.993596
O O10 0.024031 0.489968 0.840921
O O11 0.000000 0.500000 0.000000
O O12 0.589158 0.750000 0.704616
O O13 0.541150 0.492773 0.816407
O O14 0.191487 0.250000 0.715997
O O15 0.904466 0.250000 0.638979
O O16 0.757283 0.509456 0.752660
O O17 0.000000 0.500000 0.500000
O O18 0.588380 0.750000 0.869131
O O19 0.500000 0.000000 0.000000
#
# Coordination Sequence:
#
# PCOD9161372 Si02
#       7
#     4   4   4   4   4   4   4
#     4   9  18  35  58  83 111 150 194 237 291 357
#     4  10  20  33  52  80 113 151 191 238 291 344
#     4   9  16  29  50  75 104 144 187 233 284 343
#     4  10  21  38  58  80 111 153 197 236 291 367
#     4   8  16  31  52  79 111 144 187 235 282 340
#     4  11  21  38  65  92 120 160 203 251 305 366
#     4  11  24  43  64  93 124 158 202 253 313 373
#
# _framework density 20.362527
#
# number of rings (size 3 to 8) (size 9 to 14) (size 15 to 20)
#    0.000    2.286    1.429    2.571    0.000    2.857 
#    0.000    2.857    0.000   13.714    0.000    0.000 
#    0.000    0.000    0.000    0.000    0.000    0.000 
#
# Total GULP energy -155985.210704 kJ/mol
# GULP energy per Si atom -5570.900382 kJ/mol
# Density = 2.031618 g / cm^3
# Si number density = 20.362527 Si / 1000 Ang^3
#
#
#
# Elastic Constant Matrix: (Units=GPa)
#
#
# Indices 1 2 3 4 5 6 
#
# 1 122.9806 9.6959 59.9840 0.0000 7.2505 0.0000
# 2 9.6959 21.1344 16.7581 0.0000 7.0316 0.0000
# 3 59.9840 16.7581 115.8626 0.0000 13.1930 0.0000
# 4 0.0000 0.0000 0.0000 27.9740 0.0000 -6.0350
# 5 7.2505 7.0316 13.1930 0.0000 35.6375 0.0000
# 6 0.0000 0.0000 0.0000 -6.0350 0.0000 24.5322
#
#
#
# Elastic Compliance Matrix: (Units=1/GPa)
#
#
# Indices 1 2 3 4 5 6 
#
# 1 0.010885 -0.000581 -0.005546 0.000000 -0.000047 0.000000
# 2 -0.000581 0.055767 -0.006813 0.000000 -0.008363 0.000000
# 3 -0.005546 -0.006813 0.012743 0.000000 -0.002245 0.000000
# 4 0.000000 0.000000 0.000000 0.037751 0.000000 0.009287
# 5 -0.000047 -0.008363 -0.002245 0.000000 0.030551 0.000000
# 6 0.000000 0.000000 0.000000 0.009287 0.000000 0.043047
#
#
# Mechanical properties :
#
#
# Convention : Reuss Voigt Hill
#
# Bulk Modulus (GPa) = 18.68597 48.09484 33.39041
# Shear Modulus (GPa) = 21.32530 29.19804 25.26167
#
# Velocity S-wave (km/s) = 3.23968 3.79081 3.52603
# Velocity P-wave (km/s) = 4.81567 6.54453 5.74550
#
# Compressibility (1/GPa) = 0.05351608
#
# Stress axis : x y z
#
# Youngs Moduli (GPa) = 91.86967 17.93163 78.47289
#
# Poissons Ratio (x) = 0.01041 0.43521
# Poissons Ratio (y) = 0.05333 0.53465
# Poissons Ratio (z) = 0.50951 0.12217
#
# Static dielectric constant tensor:
#      x y z
#    x 1.735100 0.000000 0.011440 
#    y 0.000000 1.719180 0.000000 
#    z 0.011440 0.000000 1.783890 
# 
# From -- ./inp_files/60071.got.cif
#   From: 2010.05.17/outbox.cif.g08.bks.cpg/sg11_31_cif.got.tgz:60071.got - 2010.06.03 12:22:45.
