data_PCOD9161545
_publ_section_title
;
Structure prediction by ZEFSAII (Michael W. Deem and Ramdas Pophale) SiO2 
 PCOD9161545
Probable space group: P 21/M
;
_chemical_formula_sum "Si O2"
_cell_formula_units_Z 24
_cell_length_a 18.055717
_cell_length_b 9.188964
_cell_length_c 7.142499
_cell_angle_alpha 90.000000
_cell_angle_beta 118.013160
_cell_angle_gamma 90.000000
_cell_volume 1046.196713
_symmetry_space_group_name_H-M "P 21/M"
_symmetry_group_IT_number 11
_symmetry_cell_setting 'monoclinic'
loop_
_space_group_symop_operation_xyz
x,y,z
-x,1/2+y,-z
-x,-y,-z
x,1/2-y,z
loop_
_atom_site_type_symbol
_atom_site_label
_atom_site_fract_x
_atom_site_fract_y
_atom_site_fract_z
Si Si1 0.595370 0.084556 0.420652
Si Si2 0.913836 0.420472 0.938623
Si Si3 0.086933 0.426590 0.674498
Si Si4 0.566572 0.084949 0.839577
Si Si5 0.243505 0.085213 0.323470
Si Si6 0.273495 0.086926 0.904488
O O1 0.613503 0.250000 0.387133
O O2 0.581070 0.086127 0.630165
O O3 0.511620 0.022463 0.227947
O O4 0.673594 0.978239 0.485311
O O5 0.922153 0.250000 0.925802
O O6 0.835867 0.483461 0.733183
O O7 0.897531 0.471521 0.128617
O O8 0.000000 0.500000 0.000000
O O9 0.073589 0.250000 0.690574
O O10 0.181628 0.434409 0.701354
O O11 0.000000 0.500000 0.500000
O O12 0.546803 0.250000 0.870799
O O13 0.652235 0.027887 0.034306
O O14 0.224866 0.250000 0.355371
O O15 0.259431 0.087571 0.115845
O O16 0.302820 0.250000 0.891532
#
# Coordination Sequence:
#
# PCOD9161545 Si02
#       6
#     4   4   4   4   4   4
#     4   9  15  22  33  51  77 110 145 180 222 272
#     4  11  21  34  51  71  96 127 162 200 242 287
#     4  10  20  34  51  72  97 127 162 200 242 287
#     4   9  15  21  32  51  76 108 145 182 221 268
#     4   9  16  27  41  59  84 114 149 188 230 277
#     4   8  15  26  39  56  82 114 147 184 227 275
#
# _framework density 22.940232999999999
#
# number of rings (size 3 to 8) (size 9 to 14) (size 15 to 20)
#    0.000    2.667    0.000    4.500    0.000    8.667 
#    0.000    0.000    0.000    0.000    0.000    0.000 
#    0.000    1.333    0.000    5.000    0.000   13.333 
#
# Total GULP energy -133927.795522 kJ/mol
# GULP energy per Si atom -5580.324813 kJ/mol
# Density = 2.288802 g / cm^3
# Si number density = 22.940233 Si / 1000 Ang^3
#
#
#
# Elastic Constant Matrix: (Units=GPa)
#
#
# Indices 1 2 3 4 5 6 
#
# 1 46.1429 49.0289 30.0501 0.0000 37.7027 0.0000
# 2 49.0289 197.2356 41.6228 0.0000 39.9570 0.0000
# 3 30.0501 41.6228 110.0196 0.0000 19.8885 0.0000
# 4 0.0000 0.0000 0.0000 27.1102 0.0000 19.2906
# 5 37.7027 39.9570 19.8885 0.0000 51.0924 0.0000
# 6 0.0000 0.0000 0.0000 19.2906 0.0000 34.3733
#
#
#
# Elastic Compliance Matrix: (Units=1/GPa)
#
#
# Indices 1 2 3 4 5 6 
#
# 1 0.069072 -0.006773 -0.008656 0.000000 -0.042304 0.000000
# 2 -0.006773 0.006940 -0.000751 0.000000 -0.000137 0.000000
# 3 -0.008656 -0.000751 0.011270 0.000000 0.002588 0.000000
# 4 0.000000 0.000000 0.000000 0.061410 0.000000 -0.034464
# 5 -0.042304 -0.000137 0.002588 0.000000 0.049890 0.000000
# 6 0.000000 0.000000 0.000000 -0.034464 0.000000 0.048434
#
#
# Mechanical properties :
#
#
# Convention : Reuss Voigt Hill
#
# Bulk Modulus (GPa) = 18.20781 66.08909 42.14845
# Shear Modulus (GPa) = 16.79649 38.02826 27.41237
#
# Velocity S-wave (km/s) = 2.70883 4.07592 3.46055
# Velocity P-wave (km/s) = 4.21165 7.14301 5.86347
#
# Compressibility (1/GPa) = 0.05492148
#
# Stress axis : x y z
#
# Youngs Moduli (GPa) = 14.47774 144.09347 88.73282
#
# Poissons Ratio (x) = 0.97595 0.76808
# Poissons Ratio (y) = 0.09806 0.06662
# Poissons Ratio (z) = 0.12532 0.10818
#
# Static dielectric constant tensor:
#      x y z
#    x 1.921690 0.000000 -0.087350 
#    y 0.000000 1.761490 0.000000 
#    z -0.087350 0.000000 2.004720 
# 
# From -- ./inp_files/25951.got.cif
#   From: 2010.05.17/outbox.cif.g08.bks.cpg/sg11_13_cif.got.tgz:25951.got - 2010.06.03 12:22:45.
