data_PCOD9161347
_publ_section_title
;
Structure prediction by ZEFSAII (Michael W. Deem and Ramdas Pophale) SiO2 
 PCOD9161347
Probable space group: P 21/M
;
_chemical_formula_sum "Si O2"
_cell_formula_units_Z 32
_cell_length_a 10.483595
_cell_length_b 10.077889
_cell_length_c 29.275452
_cell_angle_alpha 90.000000
_cell_angle_beta 28.165219
_cell_angle_gamma 90.000000
_cell_volume 1459.956274
_symmetry_space_group_name_H-M "P 21/M"
_symmetry_group_IT_number 11
_symmetry_cell_setting 'monoclinic'
loop_
_space_group_symop_operation_xyz
x,y,z
-x,1/2+y,-z
-x,-y,-z
x,1/2-y,z
loop_
_atom_site_type_symbol
_atom_site_label
_atom_site_fract_x
_atom_site_fract_y
_atom_site_fract_z
Si Si1 0.666229 0.900410 0.047839
Si Si2 0.437262 0.608821 0.848804
Si Si3 0.752911 0.596381 0.566648
Si Si4 0.034856 0.601313 0.221191
Si Si5 0.488229 0.508441 0.268562
Si Si6 0.921564 0.401702 0.332175
Si Si7 0.107499 0.402533 0.576859
Si Si8 0.050702 0.896161 0.108500
O O1 0.768882 0.750000 0.016989
O O2 0.798929 0.989743 0.966746
O O3 0.345568 0.893814 0.139592
O O4 0.695764 0.982535 0.085281
O O5 0.320418 0.750000 0.900828
O O6 0.436708 0.595043 0.794664
O O7 0.753439 0.608420 0.762933
O O8 0.828076 0.750000 0.550045
O O9 0.539226 0.556494 0.672704
O O10 0.000000 0.500000 0.500000
O O11 0.709243 0.581824 0.526242
O O12 0.917439 0.750000 0.265257
O O13 0.890526 0.488110 0.296179
O O14 0.047087 0.575074 0.163550
O O15 0.202161 0.571408 0.342873
O O16 0.739727 0.605973 0.191197
O O17 0.817040 0.250000 0.363833
O O18 0.826443 0.490548 0.405153
O O19 0.122465 0.250000 0.588552
O O20 0.175950 0.750000 0.062169
#
# Coordination Sequence:
#
# PCOD9161347 Si02
#       8
#     4   4   4   4   4   4   4   4
#     4  10  21  36  55  77 100 132 176 222 264 307
#     4   9  18  33  53  74 101 136 171 212 258 305
#     4   9  18  32  52  78 108 141 175 212 255 306
#     4   9  19  36  56  77 102 134 174 218 262 309
#     4  10  20  33  52  78 108 138 174 211 254 308
#     4   9  17  30  52  80 104 130 169 216 259 300
#     4   9  17  31  53  79 106 136 168 206 253 305
#     4  11  23  37  54  76 105 140 174 213 262 314
#
# _framework density 21.918464
#
# number of rings (size 3 to 8) (size 9 to 14) (size 15 to 20)
#    0.000    2.500    0.000    1.875    0.000    9.500 
#    0.000    0.000    0.000    0.750    0.000    0.000 
#    0.000    0.000    0.000    0.000    0.000    0.000 
#
# Total GULP energy -178611.671283 kJ/mol
# GULP energy per Si atom -5581.614728 kJ/mol
# Density = 2.186858 g / cm^3
# Si number density = 21.918464 Si / 1000 Ang^3
#
#
#
# Elastic Constant Matrix: (Units=GPa)
#
#
# Indices 1 2 3 4 5 6 
#
# 1 16.6938 33.3213 60.5570 0.0000 11.5621 0.0000
# 2 33.3213 215.0001 90.9913 0.0000 44.5797 0.0000
# 3 60.5570 90.9913 35.3934 0.0000 31.1416 0.0000
# 4 0.0000 0.0000 0.0000 18.2855 0.0000 11.3585
# 5 11.5621 44.5797 31.1416 0.0000 51.0805 0.0000
# 6 0.0000 0.0000 0.0000 11.3585 0.0000 8.2110
#
#
#
# Elastic Compliance Matrix: (Units=1/GPa)
#
#
# Indices 1 2 3 4 5 6 
#
# 1 0.003188 -0.008175 0.021399 0.000000 -0.006633 0.000000
# 2 -0.008175 0.007094 -0.000929 0.000000 -0.003774 0.000000
# 3 0.021399 -0.000929 -0.005226 0.000000 -0.000847 0.000000
# 4 0.000000 0.000000 0.000000 0.388642 0.000000 -0.537619
# 5 -0.006633 -0.003774 -0.000847 0.000000 0.024888 0.000000
# 6 0.000000 0.000000 0.000000 -0.537619 0.000000 0.865491
#
#
# Mechanical properties :
#
#
# Convention : Reuss Voigt Hill
#
# Bulk Modulus (GPa) = 33.73190 70.75851 52.24520
# Shear Modulus (GPa) = 3.93897 20.99658 12.46778
#
# Velocity S-wave (km/s) = 1.34201 3.09842 2.38759
# Velocity P-wave (km/s) = 4.22190 6.71959 5.61148
#
# Compressibility (1/GPa) = 0.02964553
#
# Stress axis : x y z
#
# Youngs Moduli (GPa) = 313.69623 140.96435 -191.33962
#
# Poissons Ratio (x) = 1.15242 4.09456
# Poissons Ratio (y) = 2.56455 -0.17778
# Poissons Ratio (z) = -6.71293 0.13098
#
# Static dielectric constant tensor:
#      x y z
#    x 1.791950 0.000000 -0.006700 
#    y 0.000000 1.804210 0.000000 
#    z -0.006700 0.000000 1.800680 
# 
# From -- ./inp_files/73122.got.cif
#   From: 2010.05.17/outbox.cif.g08.bks.cpg/sg11_37_cif.got.tgz:73122.got - 2010.06.03 12:22:45.
