data_PCOD9161495
_publ_section_title
;
Structure prediction by ZEFSAII (Michael W. Deem and Ramdas Pophale) SiO2 
 PCOD9161495
Probable space group: P 21/M
;
_chemical_formula_sum "Si O2"
_cell_formula_units_Z 32
_cell_length_a 13.269426
_cell_length_b 18.844076
_cell_length_c 9.274719
_cell_angle_alpha 90.000000
_cell_angle_beta 47.539104
_cell_angle_gamma 90.000000
_cell_volume 1710.921352
_symmetry_space_group_name_H-M "P 21/M"
_symmetry_group_IT_number 11
_symmetry_cell_setting 'monoclinic'
loop_
_space_group_symop_operation_xyz
x,y,z
-x,1/2+y,-z
-x,-y,-z
x,1/2-y,z
loop_
_atom_site_type_symbol
_atom_site_label
_atom_site_fract_x
_atom_site_fract_y
_atom_site_fract_z
Si Si1 0.686076 0.449913 0.908342
Si Si2 0.848618 0.832612 0.498261
Si Si3 0.210693 0.667307 0.652834
Si Si4 0.880296 0.334587 0.586847
Si Si5 0.359403 0.968509 0.578007
Si Si6 0.618316 0.555263 0.719024
Si Si7 0.028328 0.114272 0.914904
Si Si8 0.858132 0.512663 0.981746
O O1 0.768496 0.380378 0.780916
O O2 0.641169 0.494120 0.813522
O O3 0.545009 0.431263 0.127810
O O4 0.788929 0.501928 0.895179
O O5 0.822208 0.750000 0.547364
O O6 0.712702 0.877538 0.658612
O O7 0.898306 0.843312 0.283667
O O8 0.972777 0.853907 0.485974
O O9 0.250486 0.750000 0.615325
O O10 0.139503 0.651868 0.565624
O O11 0.337281 0.612590 0.548356
O O12 0.102575 0.653147 0.887244
O O13 0.862027 0.250000 0.626625
O O14 0.252480 0.978382 0.806624
O O15 0.500000 0.000000 0.500000
O O16 0.325665 0.020796 0.480605
O O17 0.111402 0.088572 0.976630
O O18 0.986292 0.039997 0.876703
#
# Coordination Sequence:
#
# PCOD9161495 Si02
#       8
#     4   4   4   4   4   4   4   4
#     4  11  22  39  60  88 118 161 200 247 292 362
#     4  11  23  40  60  88 124 157 196 256 311 360
#     4  10  22  39  60  88 119 155 198 248 304 363
#     4  10  22  39  61  88 120 158 202 248 302 362
#     4  11  20  38  61  84 118 150 197 253 291 349
#     4  11  24  38  59  88 119 156 202 245 301 357
#     4  10  20  35  59  90 115 149 195 253 303 351
#     4  10  20  33  58  88 114 149 197 245 296 345
#
# _framework density 18.703372999999999
#
# number of rings (size 3 to 8) (size 9 to 14) (size 15 to 20)
#    0.000    1.500    5.000    0.375    1.750    1.000 
#    0.000    0.625    0.000    0.000    0.000    0.000 
#    0.000    0.000    0.000    0.000    0.000    0.000 
#
# Total GULP energy -178272.522871 kJ/mol
# GULP energy per Si atom -5571.016340 kJ/mol
# Density = 1.866080 g / cm^3
# Si number density = 18.703373 Si / 1000 Ang^3
#
#
#
# Elastic Constant Matrix: (Units=GPa)
#
#
# Indices 1 2 3 4 5 6 
#
# 1 86.9376 34.8949 11.8080 0.0000 -11.4538 0.0000
# 2 34.8949 75.4078 8.8138 0.0000 -18.8200 0.0000
# 3 11.8080 8.8138 33.4206 0.0000 -9.7897 0.0000
# 4 0.0000 0.0000 0.0000 22.5972 0.0000 2.8285
# 5 -11.4538 -18.8200 -9.7897 0.0000 27.4053 0.0000
# 6 0.0000 0.0000 0.0000 2.8285 0.0000 28.5941
#
#
#
# Elastic Compliance Matrix: (Units=1/GPa)
#
#
# Indices 1 2 3 4 5 6 
#
# 1 0.014513 -0.006167 -0.003312 0.000000 0.000647 0.000000
# 2 -0.006167 0.018662 0.000286 0.000000 0.010341 0.000000
# 3 -0.003312 0.000286 0.034252 0.000000 0.011048 0.000000
# 4 0.000000 0.000000 0.000000 0.044808 0.000000 -0.004432
# 5 0.000647 0.010341 0.011048 0.000000 0.047808 0.000000
# 6 0.000000 0.000000 0.000000 -0.004432 0.000000 0.035411
#
#
# Mechanical properties :
#
#
# Convention : Reuss Voigt Hill
#
# Bulk Modulus (GPa) = 20.39027 34.08880 27.23954
# Shear Modulus (GPa) = 21.72147 25.06928 23.39537
#
# Velocity S-wave (km/s) = 3.41158 3.66507 3.54059
# Velocity P-wave (km/s) = 5.14238 6.01464 5.59553
#
# Compressibility (1/GPa) = 0.04904300
#
# Stress axis : x y z
#
# Youngs Moduli (GPa) = 68.90396 53.58357 29.19496
#
# Poissons Ratio (x) = 0.33046 0.09668
# Poissons Ratio (y) = 0.42495 -0.00836
# Poissons Ratio (z) = 0.22818 -0.01534
#
# Static dielectric constant tensor:
#      x y z
#    x 1.739980 0.000000 -0.001040 
#    y 0.000000 1.676390 0.000000 
#    z -0.001040 0.000000 1.655910 
# 
# From -- ./inp_files/19343.got.cif
#   From: 2010.05.17/outbox.cif.g08.bks.cpg/sg11_10_cif.got.tgz:19343.got - 2010.06.03 12:22:45.
