data_PCOD9161796
_publ_section_title
;
Structure prediction by ZEFSAII (Michael W. Deem and Ramdas Pophale) SiO2 
 PCOD9161796
Probable space group: P 21/M
;
_chemical_formula_sum "Si O2"
_cell_formula_units_Z 28
_cell_length_a 29.821293
_cell_length_b 8.621446
_cell_length_c 9.269394
_cell_angle_alpha 90.000000
_cell_angle_beta 140.947457
_cell_angle_gamma 90.000000
_cell_volume 1501.485315
_symmetry_space_group_name_H-M "P 21/M"
_symmetry_group_IT_number 11
_symmetry_cell_setting 'monoclinic'
loop_
_space_group_symop_operation_xyz
x,y,z
-x,1/2+y,-z
-x,-y,-z
x,1/2-y,z
loop_
_atom_site_type_symbol
_atom_site_label
_atom_site_fract_x
_atom_site_fract_y
_atom_site_fract_z
Si Si1 0.151417 0.435551 0.209587
Si Si2 0.568615 0.437699 0.754421
Si Si3 0.002672 0.935971 0.843379
Si Si4 0.431492 0.562552 0.912074
Si Si5 0.153798 0.436741 0.553455
Si Si6 0.288514 0.562342 0.388900
Si Si7 0.710430 0.437048 0.941243
O O1 0.149994 0.250000 0.202824
O O2 0.158969 0.483992 0.397312
O O3 0.217767 0.498410 0.286427
O O4 0.075611 0.497556 0.962400
O O5 0.500000 0.500000 0.500000
O O6 0.567117 0.250000 0.747399
O O7 0.640914 0.489598 0.855879
O O8 0.568188 0.487241 0.920271
O O9 0.006637 0.750000 0.856528
O O10 0.925281 0.980499 0.587686
O O11 0.000000 0.000000 0.000000
O O12 0.433398 0.750000 0.913625
O O13 0.358844 0.512757 0.651739
O O14 0.500000 0.500000 0.000000
O O15 0.158376 0.250000 0.568792
O O16 0.217849 0.506240 0.803930
O O17 0.285896 0.750000 0.386055
O O18 0.293402 0.512422 0.234631
O O19 0.710233 0.250000 0.942347
#
# Coordination Sequence:
#
# PCOD9161796 Si02
#       7
#     4   4   4   4   4   4   4
#     4  10  20  34  54  81 108 139 180 223 268 320
#     4  10  21  37  57  82 108 139 177 217 263 316
#     4   9  17  31  52  79 109 140 177 222 268 318
#     4  10  21  37  58  82 109 141 178 218 266 319
#     4   9  19  34  53  79 108 137 174 218 265 315
#     4  10  21  37  55  77 106 141 179 222 268 316
#     4  10  21  36  55  78 105 139 180 220 264 316
#
# _framework density 18.648201
#
# number of rings (size 3 to 8) (size 9 to 14) (size 15 to 20)
#    0.000    2.286    0.000    3.429    0.000    8.000 
#    0.000    0.714    0.000    0.000    0.000    0.000 
#    0.000    0.000    0.000    0.000    0.000    0.000 
#
# Total GULP energy -156270.174758 kJ/mol
# GULP energy per Si atom -5581.077670 kJ/mol
# Density = 1.860576 g / cm^3
# Si number density = 18.648201 Si / 1000 Ang^3
#
#
#
# Elastic Constant Matrix: (Units=GPa)
#
#
# Indices 1 2 3 4 5 6 
#
# 1 173.9864 33.2328 118.8144 0.0000 20.5007 0.0000
# 2 33.2328 14.1720 32.4837 0.0000 3.3373 0.0000
# 3 118.8144 32.4837 193.1871 0.0000 21.5566 0.0000
# 4 0.0000 0.0000 0.0000 33.8403 0.0000 6.7801
# 5 20.5007 3.3373 21.5566 0.0000 37.7660 0.0000
# 6 0.0000 0.0000 0.0000 6.7801 0.0000 29.6265
#
#
#
# Elastic Compliance Matrix: (Units=1/GPa)
#
#
# Indices 1 2 3 4 5 6 
#
# 1 0.012646 -0.019336 -0.004220 0.000000 -0.002748 0.000000
# 2 -0.019336 0.144404 -0.012962 0.000000 0.005134 0.000000
# 3 -0.004220 -0.012962 0.010219 0.000000 -0.002397 0.000000
# 4 0.000000 0.000000 0.000000 0.030971 0.000000 -0.007088
# 5 -0.002748 0.005134 -0.002397 0.000000 0.028885 0.000000
# 6 0.000000 0.000000 0.000000 -0.007088 0.000000 0.035376
#
#
# Mechanical properties :
#
#
# Convention : Reuss Voigt Hill
#
# Bulk Modulus (GPa) = 10.61188 83.37858 46.99523
# Shear Modulus (GPa) = 13.62594 33.36754 23.49674
#
# Velocity S-wave (km/s) = 2.70605 4.23462 3.55350
# Velocity P-wave (km/s) = 3.93275 8.28962 6.48784
#
# Compressibility (1/GPa) = 0.09423404
#
# Stress axis : x y z
#
# Youngs Moduli (GPa) = 79.07398 6.92499 97.85973
#
# Poissons Ratio (x) = 0.13390 0.41297
# Poissons Ratio (y) = 1.52894 1.26848
# Poissons Ratio (z) = 0.33369 0.08976
#
# Static dielectric constant tensor:
#      x y z
#    x 1.625680 0.000000 0.004150 
#    y 0.000000 1.638160 0.000000 
#    z 0.004150 0.000000 1.630030 
# 
# From -- ./inp_files/28534.got.cif
#   From: 2010.05.17/outbox.cif.g08.bks.cpg/sg11_15_cif.got.tgz:28534.got - 2010.06.03 12:22:45.
