data_PCOD9161013
_publ_section_title
;
Structure prediction by ZEFSAII (Michael W. Deem and Ramdas Pophale) SiO2 
 PCOD9161013
Probable space group: P 21/M
;
_chemical_formula_sum "Si O2"
_cell_formula_units_Z 32
_cell_length_a 25.701158
_cell_length_b 9.080575
_cell_length_c 22.914359
_cell_angle_alpha 90.000000
_cell_angle_beta 164.166611
_cell_angle_gamma 90.000000
_cell_volume 1459.094020
_symmetry_space_group_name_H-M "P 21/M"
_symmetry_group_IT_number 11
_symmetry_cell_setting 'monoclinic'
loop_
_space_group_symop_operation_xyz
x,y,z
-x,1/2+y,-z
-x,-y,-z
x,1/2-y,z
loop_
_atom_site_type_symbol
_atom_site_label
_atom_site_fract_x
_atom_site_fract_y
_atom_site_fract_z
Si Si1 0.577997 0.914814 0.639222
Si Si2 0.722664 0.926120 0.021192
Si Si3 0.859968 0.929347 0.545569
Si Si4 0.897567 0.579365 0.713085
Si Si5 0.192594 0.072453 0.636906
Si Si6 0.774669 0.927864 0.202514
Si Si7 0.646796 0.419408 0.825714
Si Si8 0.019469 0.915919 0.082755
O O1 0.502970 0.750000 0.560784
O O2 0.803921 0.906909 0.873625
O O3 0.500000 0.000000 0.500000
O O4 0.543544 0.002873 0.660920
O O5 0.726147 0.750000 0.018448
O O6 0.661519 0.965160 0.021256
O O7 0.936184 0.992089 0.244649
O O8 0.611677 0.998464 0.848256
O O9 0.883586 0.750000 0.572568
O O10 0.800821 0.972184 0.547670
O O11 0.745834 0.967462 0.362723
O O12 0.849166 0.750000 0.670905
O O13 0.125284 0.574573 0.942971
O O14 0.872114 0.492780 0.746092
O O15 0.179493 0.250000 0.623122
O O16 0.297913 0.029892 0.811124
O O17 0.981292 0.003991 0.417506
O O18 0.799167 0.750000 0.227985
O O19 0.594853 0.250000 0.774424
O O20 0.087989 0.750000 0.146534
O O21 0.000000 0.000000 0.000000
#
# Coordination Sequence:
#
# PCOD9161013 Si02
#       8
#     4   4   4   4   4   4   4   4
#     4  10  20  33  49  69  90 113 141 174 213 256
#     4   9  14  19  28  43  63  87 118 157 198 237
#     4   8  13  20  30  43  60  86 119 155 195 237
#     4   8  14  24  37  53  73  97 127 164 204 243
#     4   8  12  18  26  36  53  79 113 150 188 231
#     4   8  13  18  24  36  55  80 111 150 192 230
#     4   9  16  26  39  54  73  99 130 165 203 242
#     4  10  20  32  47  66  87 112 142 175 212 253
#
# _framework density 21.931418000000001
#
# number of rings (size 3 to 8) (size 9 to 14) (size 15 to 20)
#    0.000    3.250    0.000    2.250    0.000    5.000 
#    0.000    0.000    0.000    0.000    0.000    0.000 
#    0.000    0.000    0.000    0.000    0.000    1.250 
#
# Total GULP energy -178266.783971 kJ/mol
# GULP energy per Si atom -5570.836999 kJ/mol
# Density = 2.188150 g / cm^3
# Si number density = 21.931418 Si / 1000 Ang^3
#
#
#
# Elastic Constant Matrix: (Units=GPa)
#
#
# Indices 1 2 3 4 5 6 
#
# 1 174.4861 72.3158 86.8311 0.0000 -67.4625 0.0000
# 2 72.3158 75.0188 31.0036 0.0000 -42.3013 0.0000
# 3 86.8311 31.0036 63.3761 0.0000 -41.8810 0.0000
# 4 0.0000 0.0000 0.0000 8.7977 0.0000 -19.6308
# 5 -67.4625 -42.3013 -41.8810 0.0000 86.7905 0.0000
# 6 0.0000 0.0000 0.0000 -19.6308 0.0000 22.1333
#
#
#
# Elastic Compliance Matrix: (Units=1/GPa)
#
#
# Indices 1 2 3 4 5 6 
#
# 1 0.024611 -0.012408 -0.027901 0.000000 -0.000381 0.000000
# 2 -0.012408 0.025560 0.009331 0.000000 0.007315 0.000000
# 3 -0.027901 0.009331 0.055960 0.000000 0.009864 0.000000
# 4 0.000000 0.000000 0.000000 -0.116095 0.000000 -0.102969
# 5 -0.000381 0.007315 0.009864 0.000000 0.019551 0.000000
# 6 0.000000 0.000000 0.000000 -0.102969 0.000000 -0.046146
#
#
# Mechanical properties :
#
#
# Convention : Reuss Voigt Hill
#
# Bulk Modulus (GPa) = 22.63808 77.02022 49.82915
# Shear Modulus (GPa) = 124.61951 31.72632 78.17291
#
# Velocity S-wave (km/s) = 7.54624 3.80757 5.97676
# Velocity P-wave (km/s) = 9.28829 7.38410 8.39039
#
# Compressibility (1/GPa) = 0.04417336
#
# Stress axis : x y z
#
# Youngs Moduli (GPa) = 40.63201 39.12351 17.87001
#
# Poissons Ratio (x) = 0.48546 0.49860
# Poissons Ratio (y) = 0.50418 -0.16675
# Poissons Ratio (z) = 1.13369 -0.36506
#
# Static dielectric constant tensor:
#      x y z
#    x -0.590570 0.000000 -3.719200 
#    y 0.000000 1.721610 0.000000 
#    z -3.719200 0.000000 -3.784060 
# 
# From -- ./inp_files/70418.got.cif
#   From: 2010.05.17/outbox.cif.g08.bks.cpg/sg11_36_cif.got.tgz:70418.got - 2010.06.03 12:22:45.
