data_PCOD9161736
_publ_section_title
;
Structure prediction by ZEFSAII (Michael W. Deem and Ramdas Pophale) SiO2 
 PCOD9161736
Probable space group: P 21/M
;
_chemical_formula_sum "Si O2"
_cell_formula_units_Z 28
_cell_length_a 13.804142
_cell_length_b 8.056320
_cell_length_c 14.872007
_cell_angle_alpha 90.000000
_cell_angle_beta 57.560348
_cell_angle_gamma 90.000000
_cell_volume 1395.841081
_symmetry_space_group_name_H-M "P 21/M"
_symmetry_group_IT_number 11
_symmetry_cell_setting 'monoclinic'
loop_
_space_group_symop_operation_xyz
x,y,z
-x,1/2+y,-z
-x,-y,-z
x,1/2-y,z
loop_
_atom_site_type_symbol
_atom_site_label
_atom_site_fract_x
_atom_site_fract_y
_atom_site_fract_z
Si Si1 0.561111 0.451851 0.322900
Si Si2 0.699845 0.549724 0.548912
Si Si3 0.300625 0.049998 0.248140
Si Si4 0.438705 0.547982 0.884033
Si Si5 0.779130 0.050200 0.324078
Si Si6 0.778135 0.447495 0.897754
Si Si7 0.998097 0.052687 0.104519
O O1 0.301924 0.250000 0.449463
O O2 0.431093 0.508743 0.405861
O O3 0.589433 0.494785 0.205401
O O4 0.659992 0.513151 0.339743
O O5 0.696577 0.750000 0.751614
O O6 0.729346 0.494387 0.635669
O O7 0.780336 0.493128 0.428322
O O8 0.559287 0.250000 0.112198
O O9 0.431242 0.990767 0.162629
O O10 0.219729 0.996177 0.207597
O O11 0.440936 0.750000 0.671521
O O12 0.340016 0.485262 0.999123
O O13 0.777669 0.250000 0.317232
O O14 0.887251 0.985873 0.213608
O O15 0.773731 0.250000 0.905935
O O16 0.886551 0.504767 0.900909
O O17 0.989090 0.250000 0.109853
O O18 0.000000 0.000000 0.000000
#
# Coordination Sequence:
#
# PCOD9161736 Si02
#       7
#     4   4   4   4   4   4   4
#     4   8  14  28  50  77 107 138 169 207 259 317
#     4   9  18  32  53  79 107 138 173 214 262 313
#     4   9  18  34  54  78 109 143 177 218 265 316
#     4   8  15  29  51  78 109 142 175 212 262 319
#     4  10  20  34  54  77 105 140 176 215 262 312
#     4  11  21  34  55  81 108 142 180 220 265 314
#     4  11  24  41  59  80 106 139 177 218 262 311
#
# _framework density 20.059591000000001
#
# number of rings (size 3 to 8) (size 9 to 14) (size 15 to 20)
#    0.000    2.571    0.000    4.286    0.000    4.000 
#    0.000    1.429    0.000    4.286    0.000    0.000 
#    0.000    0.000    0.000    0.000    0.000    0.000 
#
# Total GULP energy -156260.858470 kJ/mol
# GULP energy per Si atom -5580.744945 kJ/mol
# Density = 2.001393 g / cm^3
# Si number density = 20.059591 Si / 1000 Ang^3
#
#
#
# Elastic Constant Matrix: (Units=GPa)
#
#
# Indices 1 2 3 4 5 6 
#
# 1 121.7172 11.4215 75.6937 0.0000 33.1492 0.0000
# 2 11.4215 18.3768 11.7889 0.0000 0.4408 0.0000
# 3 75.6937 11.7889 162.7561 0.0000 18.8230 0.0000
# 4 0.0000 0.0000 0.0000 21.7610 0.0000 4.6282
# 5 33.1492 0.4408 18.8230 0.0000 18.6839 0.0000
# 6 0.0000 0.0000 0.0000 4.6282 0.0000 22.5425
#
#
#
# Elastic Compliance Matrix: (Units=1/GPa)
#
#
# Indices 1 2 3 4 5 6 
#
# 1 0.021093 -0.008816 -0.005509 0.000000 -0.031666 0.000000
# 2 -0.008816 0.060922 -0.002213 0.000000 0.016434 0.000000
# 3 -0.005509 -0.002213 0.008750 0.000000 0.001012 0.000000
# 4 0.000000 0.000000 0.000000 0.048052 0.000000 -0.009865
# 5 -0.031666 0.016434 0.001012 0.000000 0.108297 0.000000
# 6 0.000000 0.000000 0.000000 -0.009865 0.000000 0.046386
#
#
# Mechanical properties :
#
#
# Convention : Reuss Voigt Hill
#
# Bulk Modulus (GPa) = 17.33481 55.62870 36.48175
# Shear Modulus (GPa) = 14.45903 26.19387 20.32645
#
# Velocity S-wave (km/s) = 2.68769 3.61751 3.18670
# Velocity P-wave (km/s) = 4.27691 6.72610 5.63615
#
# Compressibility (1/GPa) = 0.05768741
#
# Stress axis : x y z
#
# Youngs Moduli (GPa) = 47.40906 16.41456 114.29103
#
# Poissons Ratio (x) = 0.14471 0.62964
# Poissons Ratio (y) = 0.41796 0.25295
# Poissons Ratio (z) = 0.26118 0.03633
#
# Static dielectric constant tensor:
#      x y z
#    x 1.685600 0.000000 -0.011530 
#    y 0.000000 1.719630 0.000000 
#    z -0.011530 0.000000 1.719610 
# 
# From -- ./inp_files/49103.got.cif
#   From: 2010.05.17/outbox.cif.g08.bks.cpg/sg11_25_cif.got.tgz:49103.got - 2010.06.03 12:22:45.
