data_PCOD9161976
_publ_section_title
;
Structure prediction by ZEFSAII (Michael W. Deem and Ramdas Pophale) SiO2 
 PCOD9161976
Probable space group: P 21/M
;
_chemical_formula_sum "Si O2"
_cell_formula_units_Z 32
_cell_length_a 11.361447
_cell_length_b 16.838892
_cell_length_c 12.375648
_cell_angle_alpha 90.000000
_cell_angle_beta 129.253159
_cell_angle_gamma 90.000000
_cell_volume 1833.398032
_symmetry_space_group_name_H-M "P 21/M"
_symmetry_group_IT_number 11
_symmetry_cell_setting 'monoclinic'
loop_
_space_group_symop_operation_xyz
x,y,z
-x,1/2+y,-z
-x,-y,-z
x,1/2-y,z
loop_
_atom_site_type_symbol
_atom_site_label
_atom_site_fract_x
_atom_site_fract_y
_atom_site_fract_z
Si Si1 0.660490 0.656683 0.121748
Si Si2 0.332040 0.404996 0.103694
Si Si3 0.506534 0.432485 0.788246
Si Si4 0.225036 0.548340 0.608976
Si Si5 0.000124 0.560579 0.098605
Si Si6 0.315958 0.845933 0.298450
Si Si7 0.431669 0.656426 0.603374
Si Si8 0.924692 0.527475 0.291075
O O1 0.684176 0.750000 0.152296
O O2 0.540944 0.620802 0.137428
O O3 0.816092 0.605578 0.228023
O O4 0.608794 0.639745 0.968623
O O5 0.373544 0.497986 0.111903
O O6 0.413673 0.380223 0.261013
O O7 0.153655 0.389205 0.005030
O O8 0.352569 0.479902 0.664581
O O9 0.576525 0.380680 0.732796
O O10 0.306034 0.627672 0.616394
O O11 0.173393 0.539198 0.703310
O O12 0.076239 0.538145 0.449458
O O13 0.975295 0.515069 0.197814
O O14 0.150865 0.613429 0.191487
O O15 0.000000 0.500000 0.000000
O O16 0.305902 0.750000 0.286867
O O17 0.382872 0.868922 0.455046
O O18 0.445072 0.750000 0.610541
#
# Coordination Sequence:
#
# PCOD9161976 Si02
#       8
#     4   4   4   4   4   4   4   4
#     4  10  20  34  56  85 115 147 183 235 288 329
#     4  10  21  36  58  83 112 145 190 231 277 334
#     4  10  20  36  57  81 114 148 189 229 279 335
#     4   9  18  35  57  79 109 146 185 236 269 326
#     4  11  21  37  57  83 112 149 185 228 279 339
#     4  11  23  38  58  84 114 149 189 233 280 337
#     4  10  21  36  55  84 114 146 185 231 287 331
#     4   9  19  34  55  83 109 143 189 226 278 323
#
# _framework density 17.45393
#
# number of rings (size 3 to 8) (size 9 to 14) (size 15 to 20)
#    0.000    2.000    2.500    1.125    0.000    7.000 
#    0.000    0.000    0.000    0.000    0.000    0.000 
#    0.000    0.000    0.000    0.000    0.000    0.000 
#
# Total GULP energy -178337.679874 kJ/mol
# GULP energy per Si atom -5573.052496 kJ/mol
# Density = 1.741420 g / cm^3
# Si number density = 17.453930 Si / 1000 Ang^3
#
#
#
# Elastic Constant Matrix: (Units=GPa)
#
#
# Indices 1 2 3 4 5 6 
#
# 1 111.2747 29.3392 51.8161 0.0000 -14.5637 0.0000
# 2 29.3392 51.6427 29.4681 0.0000 -19.6132 0.0000
# 3 51.8161 29.4681 103.8653 0.0000 -1.3192 0.0000
# 4 0.0000 0.0000 0.0000 23.2158 0.0000 -9.3316
# 5 -14.5637 -19.6132 -1.3192 0.0000 28.8922 0.0000
# 6 0.0000 0.0000 0.0000 -9.3316 0.0000 12.1783
#
#
#
# Elastic Compliance Matrix: (Units=1/GPa)
#
#
# Indices 1 2 3 4 5 6 
#
# 1 0.012857 -0.002268 -0.005711 0.000000 0.004681 0.000000
# 2 -0.002268 0.033226 -0.008028 0.000000 0.021045 0.000000
# 3 -0.005711 -0.008028 0.014657 0.000000 -0.007659 0.000000
# 4 0.000000 0.000000 0.000000 0.062245 0.000000 0.047696
# 5 0.004681 0.021045 -0.007659 0.000000 0.050908 0.000000
# 6 0.000000 0.000000 0.000000 0.047696 0.000000 0.118660
#
#
# Mechanical properties :
#
#
# Convention : Reuss Voigt Hill
#
# Bulk Modulus (GPa) = 34.81140 54.22548 44.51844
# Shear Modulus (GPa) = 14.96369 23.26788 19.11578
#
# Velocity S-wave (km/s) = 2.93119 3.65513 3.31299
# Velocity P-wave (km/s) = 5.60748 6.99632 6.34005
#
# Compressibility (1/GPa) = 0.02872623
#
# Stress axis : x y z
#
# Youngs Moduli (GPa) = 77.78049 30.09709 68.22511
#
# Poissons Ratio (x) = 0.06825 0.38964
# Poissons Ratio (y) = 0.17638 0.54771
# Poissons Ratio (z) = 0.44421 0.24162
#
# Static dielectric constant tensor:
#      x y z
#    x 1.619160 0.000000 0.006240 
#    y 0.000000 1.580200 0.000000 
#    z 0.006240 0.000000 1.611670 
# 
# From -- ./inp_files/36046.got.cif
#   From: 2010.05.17/outbox.cif.g08.bks.cpg/sg11_19_cif.got.tgz:36046.got - 2010.06.03 12:22:45.
