data_PCOD9161081
_publ_section_title
;
Structure prediction by ZEFSAII (Michael W. Deem and Ramdas Pophale) SiO2 
 PCOD9161081
Probable space group: P 21/M
;
_chemical_formula_sum "Si O2"
_cell_formula_units_Z 24
_cell_length_a 9.127516
_cell_length_b 13.010735
_cell_length_c 12.151031
_cell_angle_alpha 90.000000
_cell_angle_beta 131.730436
_cell_angle_gamma 90.000000
_cell_volume 1076.891878
_symmetry_space_group_name_H-M "P 21/M"
_symmetry_group_IT_number 11
_symmetry_cell_setting 'monoclinic'
loop_
_space_group_symop_operation_xyz
x,y,z
-x,1/2+y,-z
-x,-y,-z
x,1/2-y,z
loop_
_atom_site_type_symbol
_atom_site_label
_atom_site_fract_x
_atom_site_fract_y
_atom_site_fract_z
Si Si1 0.722443 0.474000 0.340737
Si Si2 0.716217 0.133975 0.677416
Si Si3 0.019174 0.366269 0.631652
Si Si4 0.722445 0.526000 0.881707
Si Si5 0.019174 0.633731 0.887522
Si Si6 0.716214 0.866025 0.538800
O O1 0.872032 0.385765 0.454249
O O2 0.499999 0.441093 0.207491
O O3 0.722223 0.551706 0.445446
O O4 0.817930 0.545463 0.295142
O O5 0.728847 0.250000 0.729008
O O6 0.884565 0.122379 0.672066
O O7 0.722225 0.051706 0.776779
O O8 0.500001 0.125267 0.514386
O O9 0.096620 0.250000 0.668084
O O10 0.872032 0.614236 0.917782
O O11 0.817932 0.454538 0.022790
O O12 0.096622 0.750000 0.928536
O O13 0.884563 0.622379 0.712498
O O14 0.728843 0.750000 0.499836
#
# Coordination Sequence:
#
# PCOD9161081 Si02
#       6
#     4   4   4   4   4   4
#     4  10  20  34  53  76 102 133 169 208 249 296
#     4   9  17  31  53  78 101 128 165 207 249 296
#     4  10  20  32  50  77 105 132 166 209 253 295
#     4  10  20  34  53  76 102 133 169 208 249 296
#     4  10  20  32  50  77 105 132 166 209 253 295
#     4   9  17  31  53  78 101 128 165 207 249 296
#
# _framework density 22.286359999999998
#
# number of rings (size 3 to 8) (size 9 to 14) (size 15 to 20)
#    0.000    2.333    0.000    3.000    0.000    6.667 
#    0.000    0.000    0.000   18.000    0.000   18.667 
#    0.000    0.000    0.000    0.000    0.000    0.000 
#
# Total GULP energy -134138.410859 kJ/mol
# GULP energy per Si atom -5589.100452 kJ/mol
# Density = 2.223564 g / cm^3
# Si number density = 22.286360 Si / 1000 Ang^3
#
#
#
# Elastic Constant Matrix: (Units=GPa)
#
#
# Indices 1 2 3 4 5 6 
#
# 1 63.1709 -16.3310 0.0887 0.0000 7.4090 0.0000
# 2 -16.3310 60.6672 -15.3140 0.0000 -14.6516 0.0000
# 3 0.0887 -15.3140 62.1240 0.0000 7.7013 0.0000
# 4 0.0000 0.0000 0.0000 20.3214 0.0000 -3.0704
# 5 7.4090 -14.6516 7.7013 0.0000 27.0767 0.0000
# 6 0.0000 0.0000 0.0000 -3.0704 0.0000 20.1087
#
#
#
# Elastic Compliance Matrix: (Units=1/GPa)
#
#
# Indices 1 2 3 4 5 6 
#
# 1 0.017273 0.004329 0.001387 0.000000 -0.002779 0.000000
# 2 0.004329 0.020822 0.004018 0.000000 0.008940 0.000000
# 3 0.001387 0.004018 0.017479 0.000000 -0.003177 0.000000
# 4 0.000000 0.000000 0.000000 0.050371 0.000000 0.007691
# 5 -0.002779 0.008940 -0.003177 0.000000 0.043433 0.000000
# 6 0.000000 0.000000 0.000000 0.007691 0.000000 0.050904
#
#
# Mechanical properties :
#
#
# Convention : Reuss Voigt Hill
#
# Bulk Modulus (GPa) = 13.32583 13.64996 13.48789
# Shear Modulus (GPa) = 24.29203 28.00259 26.14731
#
# Velocity S-wave (km/s) = 3.30509 3.54855 3.42898
# Velocity P-wave (km/s) = 4.53400 4.78828 4.66288
#
# Compressibility (1/GPa) = 0.07504222
#
# Stress axis : x y z
#
# Youngs Moduli (GPa) = 57.89359 48.02622 57.21076
#
# Poissons Ratio (x) = -0.20789 -0.07934
# Poissons Ratio (y) = -0.25061 -0.22989
# Poissons Ratio (z) = -0.08029 -0.19299
#
# Static dielectric constant tensor:
#      x y z
#    x 1.846490 0.000000 0.008280 
#    y 0.000000 1.859510 0.000000 
#    z 0.008280 0.000000 1.845920 
# 
# From -- ./inp_files/50187.got.cif
#   From: 2010.05.17/outbox.cif.g08.bks.cpg/sg11_26_cif.got.tgz:50187.got - 2010.06.03 12:22:45.
