data_PCOD9161362
_publ_section_title
;
Structure prediction by ZEFSAII (Michael W. Deem and Ramdas Pophale) SiO2 
 PCOD9161362
Probable space group: P 21/M
;
_chemical_formula_sum "Si O2"
_cell_formula_units_Z 28
_cell_length_a 17.852101
_cell_length_b 8.735538
_cell_length_c 13.362292
_cell_angle_alpha 90.000000
_cell_angle_beta 42.193469
_cell_angle_gamma 90.000000
_cell_volume 1399.568016
_symmetry_space_group_name_H-M "P 21/M"
_symmetry_group_IT_number 11
_symmetry_cell_setting 'monoclinic'
loop_
_space_group_symop_operation_xyz
x,y,z
-x,1/2+y,-z
-x,-y,-z
x,1/2-y,z
loop_
_atom_site_type_symbol
_atom_site_label
_atom_site_fract_x
_atom_site_fract_y
_atom_site_fract_z
Si Si1 0.784289 0.425919 0.004818
Si Si2 0.635782 0.915106 0.279180
Si Si3 0.778733 0.067441 0.465368
Si Si4 0.566954 0.919757 0.577077
Si Si5 0.997986 0.432941 0.116407
Si Si6 0.354513 0.067493 0.240293
Si Si7 0.401733 0.066981 0.960256
O O1 0.801722 0.250000 0.962428
O O2 0.899699 0.508329 0.916343
O O3 0.718708 0.447674 0.174995
O O4 0.697924 0.501404 0.011291
O O5 0.686061 0.750000 0.203590
O O6 0.596696 0.910596 0.430680
O O7 0.526771 0.951422 0.322305
O O8 0.762599 0.250000 0.474288
O O9 0.888392 0.029990 0.291859
O O10 0.679875 0.971067 0.514308
O O11 0.753563 0.016312 0.604744
O O12 0.527715 0.750000 0.646827
O O13 0.003976 0.250000 0.099710
O O14 0.000000 0.500000 0.000000
O O15 0.346153 0.250000 0.264543
O O16 0.473943 0.008792 0.167564
O O17 0.363701 0.038891 0.112775
O O18 0.412226 0.250000 0.935959
#
# Coordination Sequence:
#
# PCOD9161362 Si02
#       7
#     4   4   4   4   4   4   4
#     4  12  24  38  59  85 115 153 197 244 294 350
#     4  10  20  34  53  78 111 148 186 234 290 348
#     4  11  23  38  58  83 114 152 193 240 293 350
#     4  10  20  33  52  79 111 146 186 233 286 348
#     4  11  25  44  64  87 117 157 204 250 297 349
#     4  10  21  38  63  93 123 156 195 241 295 355
#     4  10  21  39  63  91 124 158 194 241 296 354
#
# _framework density 20.006174000000001
#
# number of rings (size 3 to 8) (size 9 to 14) (size 15 to 20)
#    0.000    1.429    0.000    5.571    0.000    8.000 
#    0.000    0.714    0.000    0.000    0.000    0.000 
#    0.000    0.000    0.000    0.000    0.000    0.000 
#
# Total GULP energy -156131.837386 kJ/mol
# GULP energy per Si atom -5576.137049 kJ/mol
# Density = 1.996064 g / cm^3
# Si number density = 20.006174 Si / 1000 Ang^3
#
#
#
# Elastic Constant Matrix: (Units=GPa)
#
#
# Indices 1 2 3 4 5 6 
#
# 1 85.3962 32.9342 41.1517 0.0000 0.6643 0.0000
# 2 32.9342 93.6823 51.7759 0.0000 -3.0189 0.0000
# 3 41.1517 51.7759 123.4610 0.0000 -2.3554 0.0000
# 4 0.0000 0.0000 0.0000 33.1784 0.0000 0.0530
# 5 0.6643 -3.0189 -2.3554 0.0000 27.9990 0.0000
# 6 0.0000 0.0000 0.0000 0.0530 0.0000 27.6054
#
#
#
# Elastic Compliance Matrix: (Units=1/GPa)
#
#
# Indices 1 2 3 4 5 6 
#
# 1 0.014676 -0.003225 -0.003558 0.000000 -0.000995 0.000000
# 2 -0.003225 0.014632 -0.005038 0.000000 0.001230 0.000000
# 3 -0.003558 -0.005038 0.011408 0.000000 0.000501 0.000000
# 4 0.000000 0.000000 0.000000 0.030140 0.000000 -0.000058
# 5 -0.000995 0.001230 0.000501 0.000000 0.035914 0.000000
# 6 0.000000 0.000000 0.000000 -0.000058 0.000000 0.036225
#
#
# Mechanical properties :
#
#
# Convention : Reuss Voigt Hill
#
# Bulk Modulus (GPa) = 58.56828 61.58480 60.07654
# Shear Modulus (GPa) = 29.01421 29.53508 29.27464
#
# Velocity S-wave (km/s) = 3.81236 3.84643 3.82943
# Velocity P-wave (km/s) = 6.97979 7.11171 7.04606
#
# Compressibility (1/GPa) = 0.01707409
#
# Stress axis : x y z
#
# Youngs Moduli (GPa) = 68.13662 68.34313 87.65700
#
# Poissons Ratio (x) = 0.22040 0.31192
# Poissons Ratio (y) = 0.21974 0.44160
# Poissons Ratio (z) = 0.24246 0.34430
#
# Static dielectric constant tensor:
#      x y z
#    x 1.769200 0.000000 0.078880 
#    y 0.000000 1.702460 0.000000 
#    z 0.078880 0.000000 1.785620 
# 
# From -- ./inp_files/53180.got.cif
#   From: 2010.05.17/outbox.cif.g08.bks.cpg/sg11_27_cif.got.tgz:53180.got - 2010.06.03 12:22:45.
