data_PCOD9161722
_publ_section_title
;
Structure prediction by ZEFSAII (Michael W. Deem and Ramdas Pophale) SiO2 
 PCOD9161722
Probable space group: P 21/M
;
_chemical_formula_sum "Si O2"
_cell_formula_units_Z 32
_cell_length_a 11.224096
_cell_length_b 13.722484
_cell_length_c 15.210336
_cell_angle_alpha 90.000000
_cell_angle_beta 137.781210
_cell_angle_gamma 90.000000
_cell_volume 1574.231491
_symmetry_space_group_name_H-M "P 21/M"
_symmetry_group_IT_number 11
_symmetry_cell_setting 'monoclinic'
loop_
_space_group_symop_operation_xyz
x,y,z
-x,1/2+y,-z
-x,-y,-z
x,1/2-y,z
loop_
_atom_site_type_symbol
_atom_site_label
_atom_site_fract_x
_atom_site_fract_y
_atom_site_fract_z
Si Si1 0.273003 0.364536 0.736528
Si Si2 0.739889 0.933860 0.890609
Si Si3 0.182660 0.861140 0.326349
Si Si4 0.606882 0.136371 0.384412
Si Si5 0.067664 0.633913 0.568598
Si Si6 0.601090 0.475816 0.965556
Si Si7 0.868427 0.142923 0.905494
Si Si8 0.091598 0.988595 0.759802
O O1 0.292931 0.250000 0.756832
O O2 0.465162 0.413632 0.832747
O O3 0.189074 0.414774 0.775957
O O4 0.123546 0.383054 0.581003
O O5 0.580293 0.913106 0.737254
O O6 0.652138 0.928037 0.938948
O O7 0.797860 0.046773 0.914272
O O8 0.917373 0.870711 0.980854
O O9 0.106915 0.750000 0.304376
O O10 0.337425 0.870223 0.483222
O O11 0.209171 0.859980 0.236313
O O12 0.073217 0.960175 0.284322
O O13 0.582500 0.250000 0.349878
O O14 0.772909 0.104071 0.412061
O O15 0.085657 0.750000 0.591662
O O16 0.070669 0.577878 0.662446
O O17 0.500000 0.500000 0.000000
O O18 0.785846 0.433689 0.102707
O O19 0.826725 0.250000 0.920021
#
# Coordination Sequence:
#
# PCOD9161722 Si02
#       8
#     4   4   4   4   4   4   4   4
#     4  10  20  34  53  82 119 162 201 237 292 356
#     4  11  22  40  63  90 117 156 203 244 302 357
#     4  10  20  36  61  89 111 148 198 250 300 348
#     4  10  20  35  59  90 120 151 200 250 295 354
#     4  10  21  35  54  84 121 166 203 239 296 359
#     4  10  22  35  54  89 121 156 196 238 293 357
#     4  10  23  43  65  86 116 155 202 254 300 355
#     4  11  19  34  56  81 120 154 199 245 291 349
#
# _framework density 20.327376999999998
#
# number of rings (size 3 to 8) (size 9 to 14) (size 15 to 20)
#    0.000    1.750    2.500    2.625    1.750    1.500 
#    0.000    1.875    0.000    0.000    0.000    0.000 
#    0.000    0.000    0.000    0.000    0.000    0.000 
#
# Total GULP energy -178207.929975 kJ/mol
# GULP energy per Si atom -5568.997812 kJ/mol
# Density = 2.028111 g / cm^3
# Si number density = 20.327377 Si / 1000 Ang^3
#
#
#
# Elastic Constant Matrix: (Units=GPa)
#
#
# Indices 1 2 3 4 5 6 
#
# 1 29.3374 9.0574 19.5643 0.0000 1.1181 0.0000
# 2 9.0574 68.0068 28.2166 0.0000 7.4575 0.0000
# 3 19.5643 28.2166 131.0439 0.0000 4.5834 0.0000
# 4 0.0000 0.0000 0.0000 21.9857 0.0000 2.1610
# 5 1.1181 7.4575 4.5834 0.0000 23.9097 0.0000
# 6 0.0000 0.0000 0.0000 2.1610 0.0000 22.7576
#
#
#
# Elastic Compliance Matrix: (Units=1/GPa)
#
#
# Indices 1 2 3 4 5 6 
#
# 1 0.038406 -0.003017 -0.005088 0.000000 0.000120 0.000000
# 2 -0.003017 0.016857 -0.003021 0.000000 -0.004538 0.000000
# 3 -0.005088 -0.003021 0.009061 0.000000 -0.000557 0.000000
# 4 0.000000 0.000000 0.000000 0.045913 0.000000 -0.004360
# 5 0.000120 -0.004538 -0.000557 0.000000 0.043340 0.000000
# 6 0.000000 0.000000 0.000000 -0.004360 0.000000 0.044355
#
#
# Mechanical properties :
#
#
# Convention : Reuss Voigt Hill
#
# Bulk Modulus (GPa) = 23.76886 38.00721 30.88804
# Shear Modulus (GPa) = 21.34846 25.16723 23.25785
#
# Velocity S-wave (km/s) = 3.24424 3.52248 3.38622
# Velocity P-wave (km/s) = 5.07463 5.93986 5.52421
#
# Compressibility (1/GPa) = 0.04207185
#
# Stress axis : x y z
#
# Youngs Moduli (GPa) = 26.03729 59.32221 110.36815
#
# Poissons Ratio (x) = 0.17898 0.56161
# Poissons Ratio (y) = 0.07856 0.33337
# Poissons Ratio (z) = 0.13249 0.17919
#
# Static dielectric constant tensor:
#      x y z
#    x 1.779720 0.000000 0.038690 
#    y 0.000000 1.731330 0.000000 
#    z 0.038690 0.000000 1.891710 
# 
# From -- ./inp_files/50401.got.cif
#   From: 2010.05.17/outbox.cif.g08.bks.cpg/sg11_26_cif.got.tgz:50401.got - 2010.06.03 12:22:45.
