data_PCOD9161466
_publ_section_title
;
Structure prediction by ZEFSAII (Michael W. Deem and Ramdas Pophale) SiO2 
 PCOD9161466
Probable space group: P 21/M
;
_chemical_formula_sum "Si O2"
_cell_formula_units_Z 32
_cell_length_a 26.328060
_cell_length_b 13.526797
_cell_length_c 10.560084
_cell_angle_alpha 90.000000
_cell_angle_beta 25.555065
_cell_angle_gamma 90.000000
_cell_volume 1622.331276
_symmetry_space_group_name_H-M "P 21/M"
_symmetry_group_IT_number 11
_symmetry_cell_setting 'monoclinic'
loop_
_space_group_symop_operation_xyz
x,y,z
-x,1/2+y,-z
-x,-y,-z
x,1/2-y,z
loop_
_atom_site_type_symbol
_atom_site_label
_atom_site_fract_x
_atom_site_fract_y
_atom_site_fract_z
Si Si1 0.358346 0.631181 0.848514
Si Si2 0.681221 0.637538 0.686840
Si Si3 0.686828 0.045391 0.514841
Si Si4 0.707162 0.134047 0.738868
Si Si5 0.477841 0.868955 0.330271
Si Si6 0.911318 0.133035 0.619284
Si Si7 0.946800 0.455948 0.813987
Si Si8 0.105551 0.038538 0.677714
O O1 0.361013 0.750000 0.834438
O O2 0.447827 0.595514 0.539173
O O3 0.380023 0.609963 0.947906
O O4 0.223408 0.603777 0.114400
O O5 0.660033 0.750000 0.699736
O O6 0.649669 0.563100 0.645552
O O7 0.814718 0.615950 0.426493
O O8 0.604977 0.612364 0.983307
O O9 0.668544 0.111614 0.682201
O O10 0.613622 0.084511 0.562261
O O11 0.823704 0.042787 0.166113
O O12 0.739237 0.250000 0.676749
O O13 0.814174 0.058627 0.522159
O O14 0.462499 0.750000 0.361985
O O15 0.925283 0.250000 0.563657
O O16 0.005979 0.064553 0.333749
O O17 0.929304 0.108107 0.727095
O O18 0.049350 0.418657 0.676662
O O19 0.000000 0.000000 0.000000
#
# Coordination Sequence:
#
# PCOD9161466 Si02
#       8
#     4   4   4   4   4   4   4   4
#     4   9  17  32  56  81 110 147 188 232 285 342
#     4  10  23  39  57  83 117 157 194 234 290 350
#     4  11  21  37  58  89 118 148 191 244 294 336
#     4  10  20  33  55  86 115 146 187 240 294 339
#     4  10  20  38  62  85 112 154 202 240 282 344
#     4  10  21  35  55  84 114 152 194 238 288 343
#     4  11  21  35  56  84 119 148 190 241 288 352
#     4  11  21  38  53  82 117 148 186 233 291 350
#
# _framework density 19.724701
#
# number of rings (size 3 to 8) (size 9 to 14) (size 15 to 20)
#    0.000    1.750    5.000    0.750    0.000    2.000 
#    0.000    2.500    0.000    0.000    0.000    4.375 
#    0.000    0.000    0.000    0.000    0.000    0.000 
#
# Total GULP energy -178473.813220 kJ/mol
# GULP energy per Si atom -5577.306663 kJ/mol
# Density = 1.967981 g / cm^3
# Si number density = 19.724701 Si / 1000 Ang^3
#
#
#
# Elastic Constant Matrix: (Units=GPa)
#
#
# Indices 1 2 3 4 5 6 
#
# 1 50.5327 -0.0159 12.2200 0.0000 24.0556 0.0000
# 2 -0.0159 45.8423 2.8660 0.0000 -3.3006 0.0000
# 3 12.2200 2.8660 87.7220 0.0000 17.8738 0.0000
# 4 0.0000 0.0000 0.0000 17.9927 0.0000 8.0173
# 5 24.0556 -3.3006 17.8738 0.0000 28.9753 0.0000
# 6 0.0000 0.0000 0.0000 8.0173 0.0000 17.1074
#
#
#
# Elastic Compliance Matrix: (Units=1/GPa)
#
#
# Indices 1 2 3 4 5 6 
#
# 1 0.033018 -0.002115 0.001263 0.000000 -0.028431 0.000000
# 2 -0.002115 0.022282 -0.001496 0.000000 0.005217 0.000000
# 3 0.001263 -0.001496 0.013177 0.000000 -0.009347 0.000000
# 4 0.000000 0.000000 0.000000 0.070247 0.000000 -0.032921
# 5 -0.028431 0.005217 -0.009347 0.000000 0.064476 0.000000
# 6 0.000000 0.000000 0.000000 -0.032921 0.000000 0.073883
#
#
# Mechanical properties :
#
#
# Convention : Reuss Voigt Hill
#
# Bulk Modulus (GPa) = 15.67875 23.80414 19.74145
# Shear Modulus (GPa) = 16.49946 24.08354 20.29150
#
# Velocity S-wave (km/s) = 2.89535 3.49805 3.21087
# Velocity P-wave (km/s) = 4.37532 5.33006 4.87611
#
# Compressibility (1/GPa) = 0.06378058
#
# Stress axis : x y z
#
# Youngs Moduli (GPa) = 30.28692 44.87862 75.88866
#
# Poissons Ratio (x) = 0.09490 -0.09582
# Poissons Ratio (y) = 0.06404 0.11356
# Poissons Ratio (z) = -0.03824 0.06716
#
# Static dielectric constant tensor:
#      x y z
#    x 1.713160 0.000000 0.017760 
#    y 0.000000 1.688620 0.000000 
#    z 0.017760 0.000000 1.719970 
# 
# From -- ./inp_files/27785.got.cif
#   From: 2010.05.17/outbox.cif.g08.bks.cpg/sg11_14_cif.got.tgz:27785.got - 2010.06.03 12:22:45.
