data_PCOD9161638
_publ_section_title
;
Structure prediction by ZEFSAII (Michael W. Deem and Ramdas Pophale) SiO2 
 PCOD9161638
Probable space group: P 21/M
;
_chemical_formula_sum "Si O2"
_cell_formula_units_Z 24
_cell_length_a 12.027403
_cell_length_b 8.794367
_cell_length_c 12.987297
_cell_angle_alpha 90.000000
_cell_angle_beta 90.633800
_cell_angle_gamma 90.000000
_cell_volume 1373.626462
_symmetry_space_group_name_H-M "P 21/M"
_symmetry_group_IT_number 11
_symmetry_cell_setting 'monoclinic'
loop_
_space_group_symop_operation_xyz
x,y,z
-x,1/2+y,-z
-x,-y,-z
x,1/2-y,z
loop_
_atom_site_type_symbol
_atom_site_label
_atom_site_fract_x
_atom_site_fract_y
_atom_site_fract_z
Si Si1 0.621977 0.933082 0.512564
Si Si2 0.231572 0.433742 0.684426
Si Si3 0.381442 0.066716 0.880383
Si Si4 0.998210 0.432510 0.384681
Si Si5 0.362559 0.568194 0.103567
Si Si6 0.233784 0.433385 0.289862
O O1 0.615111 0.750000 0.512749
O O2 0.698407 0.976666 0.416418
O O3 0.681741 0.981307 0.618491
O O4 0.500000 0.000000 0.500000
O O5 0.219957 0.250000 0.684273
O O6 0.301895 0.478363 0.785750
O O7 0.111135 0.508091 0.673928
O O8 0.377992 0.250000 0.888952
O O9 0.510740 0.023911 0.863005
O O10 0.346407 0.995241 0.988539
O O11 0.996701 0.250000 0.392517
O O12 0.110341 0.477129 0.325267
O O13 0.000000 0.500000 0.500000
O O14 0.356629 0.750000 0.102295
O O15 0.275606 0.502628 0.183883
O O16 0.236981 0.250000 0.282820
#
# Coordination Sequence:
#
# PCOD9161638 Si02
#       6
#     4   4   4   4   4   4
#     4  10  20  34  52  79 113 143 175 222 276 330
#     4  10  20  37  57  80 112 146 184 227 276 329
#     4   9  19  36  58  82 114 149 178 223 282 330
#     4  11  22  38  58  80 109 148 189 229 275 329
#     4  10  20  35  58  85 111 143 187 229 269 329
#     4  10  21  37  55  77 111 147 180 224 278 328
#
# _framework density 17.471999
#
# number of rings (size 3 to 8) (size 9 to 14) (size 15 to 20)
#    0.000    2.000    1.667    2.000    0.000    5.333 
#    0.000    0.833    0.000    0.000    0.000    0.000 
#    0.000    0.000    0.000    0.000    0.000    0.000 
#
# Total GULP energy -134011.747300 kJ/mol
# GULP energy per Si atom -5583.822804 kJ/mol
# Density = 1.743223 g / cm^3
# Si number density = 17.471999 Si / 1000 Ang^3
#
#
#
# Elastic Constant Matrix: (Units=GPa)
#
#
# Indices 1 2 3 4 5 6 
#
# 1 89.2488 20.8368 37.9202 0.0000 -23.5326 0.0000
# 2 20.8368 15.7647 22.4945 0.0000 -8.0309 0.0000
# 3 37.9202 22.4945 95.0781 0.0000 -20.8829 0.0000
# 4 0.0000 0.0000 0.0000 20.5085 0.0000 2.7595
# 5 -23.5326 -8.0309 -20.8829 0.0000 32.2706 0.0000
# 6 0.0000 0.0000 0.0000 2.7595 0.0000 32.0534
#
#
#
# Elastic Compliance Matrix: (Units=1/GPa)
#
#
# Indices 1 2 3 4 5 6 
#
# 1 0.018006 -0.018132 -0.001164 0.000000 0.007865 0.000000
# 2 -0.018132 0.117289 -0.019829 0.000000 0.003135 0.000000
# 3 -0.001164 -0.019829 0.016789 0.000000 0.005081 0.000000
# 4 0.000000 0.000000 0.000000 0.049332 0.000000 -0.004247
# 5 0.007865 0.003135 0.005081 0.000000 0.040791 0.000000
# 6 0.000000 0.000000 0.000000 -0.004247 0.000000 0.031564
#
#
# Mechanical properties :
#
#
# Convention : Reuss Voigt Hill
#
# Bulk Modulus (GPa) = 13.54383 40.28829 26.91606
# Shear Modulus (GPa) = 13.27551 24.88917 19.08234
#
# Velocity S-wave (km/s) = 2.75947 3.77837 3.30838
# Velocity P-wave (km/s) = 4.23337 6.49181 5.48019
#
# Compressibility (1/GPa) = 0.07383434
#
# Stress axis : x y z
#
# Youngs Moduli (GPa) = 55.53622 8.52594 59.56138
#
# Poissons Ratio (x) = 0.15459 0.06935
# Poissons Ratio (y) = 1.00696 1.18106
# Poissons Ratio (z) = 0.06466 0.16906
#
# Static dielectric constant tensor:
#      x y z
#    x 1.576760 0.000000 0.004920 
#    y 0.000000 1.586540 0.000000 
#    z 0.004920 0.000000 1.567740 
# 
# From -- ./inp_files/33763.got.cif
#   From: 2010.05.17/outbox.cif.g08.bks.cpg/sg11_17_cif.got.tgz:33763.got - 2010.06.03 12:22:45.
