data_PCOD9161926
_publ_section_title
;
Structure prediction by ZEFSAII (Michael W. Deem and Ramdas Pophale) SiO2 
 PCOD9161926
Probable space group: P 21/M
;
_chemical_formula_sum "Si O2"
_cell_formula_units_Z 28
_cell_length_a 13.650487
_cell_length_b 8.860959
_cell_length_c 19.912557
_cell_angle_alpha 90.000000
_cell_angle_beta 35.681905
_cell_angle_gamma 90.000000
_cell_volume 1404.871165
_symmetry_space_group_name_H-M "P 21/M"
_symmetry_group_IT_number 11
_symmetry_cell_setting 'monoclinic'
loop_
_space_group_symop_operation_xyz
x,y,z
-x,1/2+y,-z
-x,-y,-z
x,1/2-y,z
loop_
_atom_site_type_symbol
_atom_site_label
_atom_site_fract_x
_atom_site_fract_y
_atom_site_fract_z
Si Si1 0.007685 0.930143 0.174891
Si Si2 0.147279 0.069131 0.964690
Si Si3 0.167226 0.429157 0.372799
Si Si4 0.930120 0.426057 0.703095
Si Si5 0.329479 0.582972 0.614291
Si Si6 0.263172 0.917061 0.497846
Si Si7 0.498281 0.069141 0.276011
O O1 0.019116 0.750000 0.159237
O O2 0.068152 0.962466 0.218140
O O3 0.814032 0.982519 0.271833
O O4 0.111532 0.018138 0.061025
O O5 0.147043 0.250000 0.958795
O O6 0.326408 0.000202 0.844121
O O7 0.000000 0.000000 0.000000
O O8 0.148101 0.250000 0.386349
O O9 0.181275 0.480665 0.287225
O O10 0.339657 0.468654 0.315679
O O11 0.000000 0.500000 0.500000
O O12 0.893436 0.250000 0.716966
O O13 0.116207 0.461872 0.570429
O O14 0.500000 0.500000 0.500000
O O15 0.352239 0.750000 0.632666
O O16 0.257326 0.604876 0.580033
O O17 0.235868 0.750000 0.481959
O O18 0.437887 0.988983 0.377947
O O19 0.509936 0.250000 0.275173
#
# Coordination Sequence:
#
# PCOD9161926 Si02
#       7
#     4   4   4   4   4   4   4
#     4  10  22  42  64  88 122 161 208 260 312 374
#     4  12  27  47  70  92 121 165 214 265 318 376
#     4  11  22  36  61  95 133 169 207 257 315 380
#     4  10  20  36  61  92 127 166 203 249 311 372
#     4  10  21  35  55  85 119 156 202 254 314 375
#     4  10  20  34  55  85 122 162 203 251 307 370
#     4  11  24  41  62  91 127 166 212 262 313 373
#
# _framework density 19.930653
#
# number of rings (size 3 to 8) (size 9 to 14) (size 15 to 20)
#    0.000    1.429    1.429    3.857    2.000    5.143 
#    0.000    0.714    0.000    0.000    0.000    0.000 
#    0.000    0.000    0.000    0.000    0.000    0.000 
#
# Total GULP energy -156163.581247 kJ/mol
# GULP energy per Si atom -5577.270759 kJ/mol
# Density = 1.988529 g / cm^3
# Si number density = 19.930653 Si / 1000 Ang^3
#
#
#
# Elastic Constant Matrix: (Units=GPa)
#
#
# Indices 1 2 3 4 5 6 
#
# 1 68.5949 36.1864 29.6045 0.0000 -3.4592 0.0000
# 2 36.1864 115.7795 41.0137 0.0000 -1.5524 0.0000
# 3 29.6045 41.0137 119.0624 0.0000 -1.3363 0.0000
# 4 0.0000 0.0000 0.0000 34.6481 0.0000 1.0034
# 5 -3.4592 -1.5524 -1.3363 0.0000 27.4976 0.0000
# 6 0.0000 0.0000 0.0000 1.0034 0.0000 31.0901
#
#
#
# Elastic Compliance Matrix: (Units=1/GPa)
#
#
# Indices 1 2 3 4 5 6 
#
# 1 0.018418 -0.004688 -0.002943 0.000000 0.001909 0.000000
# 2 -0.004688 0.011035 -0.002637 0.000000 -0.000095 0.000000
# 3 -0.002943 -0.002637 0.010039 0.000000 -0.000031 0.000000
# 4 0.000000 0.000000 0.000000 0.028889 0.000000 -0.000932
# 5 0.001909 -0.000095 -0.000031 0.000000 0.036600 0.000000
# 6 0.000000 0.000000 0.000000 -0.000932 0.000000 0.032195
#
#
# Mechanical properties :
#
#
# Convention : Reuss Voigt Hill
#
# Bulk Modulus (GPa) = 52.75465 57.44954 55.10210
# Shear Modulus (GPa) = 30.48222 31.75600 31.11911
#
# Velocity S-wave (km/s) = 3.91501 3.99598 3.95570
# Velocity P-wave (km/s) = 6.85296 7.08362 6.96925
#
# Compressibility (1/GPa) = 0.01895568
#
# Stress axis : x y z
#
# Youngs Moduli (GPa) = 54.29442 90.61964 99.61490
#
# Poissons Ratio (x) = 0.42485 0.29318
# Poissons Ratio (y) = 0.25455 0.26265
# Poissons Ratio (z) = 0.15980 0.23893
#
# Static dielectric constant tensor:
#      x y z
#    x 1.809860 0.000000 0.023790 
#    y 0.000000 1.725150 0.000000 
#    z 0.023790 0.000000 1.670930 
# 
# From -- ./inp_files/54632.got.cif
#   From: 2010.05.17/outbox.cif.g08.bks.cpg/sg11_28_cif.got.tgz:54632.got - 2010.06.03 12:22:45.
