data_PCOD9161194
_publ_section_title
;
Structure prediction by ZEFSAII (Michael W. Deem and Ramdas Pophale) SiO2 
 PCOD9161194
Probable space group: P 21/M
;
_chemical_formula_sum "Si O2"
_cell_formula_units_Z 28
_cell_length_a 11.618988
_cell_length_b 24.782652
_cell_length_c 9.143747
_cell_angle_alpha 90.000000
_cell_angle_beta 38.246003
_cell_angle_gamma 90.000000
_cell_volume 1629.890424
_symmetry_space_group_name_H-M "P 21/M"
_symmetry_group_IT_number 11
_symmetry_cell_setting 'monoclinic'
loop_
_space_group_symop_operation_xyz
x,y,z
-x,1/2+y,-z
-x,-y,-z
x,1/2-y,z
loop_
_atom_site_type_symbol
_atom_site_label
_atom_site_fract_x
_atom_site_fract_y
_atom_site_fract_z
Si Si1 0.957659 0.589598 0.318881
Si Si2 0.337267 0.408712 0.138195
Si Si3 0.974026 0.872894 0.978774
Si Si4 0.268066 0.812461 0.520577
Si Si5 0.775467 0.394937 0.692238
Si Si6 0.053794 0.034396 0.226430
Si Si7 0.296981 0.188520 0.961937
O O1 0.768446 0.589091 0.602366
O O2 0.117431 0.614447 0.263554
O O3 0.019258 0.527798 0.231610
O O4 0.939609 0.619067 0.183012
O O5 0.244530 0.453721 0.124745
O O6 0.559684 0.410625 0.925332
O O7 0.282162 0.352691 0.111998
O O8 0.952369 0.929378 0.913178
O O9 0.174181 0.847146 0.742238
O O10 0.833347 0.832722 0.036930
O O11 0.745655 0.750000 0.954927
O O12 0.212519 0.843009 0.426015
O O13 0.490288 0.814259 0.303496
O O14 0.891890 0.441754 0.493334
O O15 0.790294 0.250000 0.418892
#
# Coordination Sequence:
#
# PCOD9161194 Si02
#       7
#     4   4   4   4   4   4   4
#     4  11  21  31  47  74 105 130 155 199 250 285
#     4   9  18  33  53  75  96 123 164 206 242 284
#     4  10  20  33  49  73 102 131 162 196 237 290
#     4   9  18  35  56  72  91 126 167 201 236 286
#     4   9  18  33  53  75  96 123 164 206 242 284
#     4   9  19  34  50  69  97 135 170 195 229 285
#     4   9  18  35  56  72  91 126 167 201 236 286
#
# _framework density 17.179067
#
# number of rings (size 3 to 8) (size 9 to 14) (size 15 to 20)
#    0.000    2.571    0.000    3.429    0.000    3.429 
#    0.000    2.857    0.000   12.000    0.000    0.000 
#    0.000    0.000    0.000    0.000    0.000    0.000 
#
# Total GULP energy -156158.506542 kJ/mol
# GULP energy per Si atom -5577.089519 kJ/mol
# Density = 1.713997 g / cm^3
# Si number density = 17.179067 Si / 1000 Ang^3
#
#
#
# Elastic Constant Matrix: (Units=GPa)
#
#
# Indices 1 2 3 4 5 6 
#
# 1 45.6680 -11.9480 17.9617 0.0000 3.0533 0.0000
# 2 -11.9480 37.9192 -13.6341 0.0000 8.7857 0.0000
# 3 17.9617 -13.6341 44.9979 0.0000 4.8442 0.0000
# 4 0.0000 0.0000 0.0000 14.7933 0.0000 -4.5575
# 5 3.0533 8.7857 4.8442 0.0000 25.2964 0.0000
# 6 0.0000 0.0000 0.0000 -4.5575 0.0000 12.0613
#
#
#
# Elastic Compliance Matrix: (Units=1/GPa)
#
#
# Indices 1 2 3 4 5 6 
#
# 1 0.027171 0.006409 -0.008486 0.000000 -0.003881 0.000000
# 2 0.006409 0.035359 0.009762 0.000000 -0.014923 0.000000
# 3 -0.008486 0.009762 0.029430 0.000000 -0.008002 0.000000
# 4 0.000000 0.000000 0.000000 0.076504 0.000000 0.028908
# 5 -0.003881 -0.014923 -0.008002 0.000000 0.046715 0.000000
# 6 0.000000 0.000000 0.000000 0.028908 0.000000 0.093833
#
#
# Mechanical properties :
#
#
# Convention : Reuss Voigt Hill
#
# Bulk Modulus (GPa) = 9.31710 12.59384 10.95547
# Shear Modulus (GPa) = 15.17821 19.51057 17.34439
#
# Velocity S-wave (km/s) = 2.97565 3.37370 3.18090
# Velocity P-wave (km/s) = 4.15226 4.74580 4.45892
#
# Compressibility (1/GPa) = 0.10732948
#
# Stress axis : x y z
#
# Youngs Moduli (GPa) = 36.80378 28.28141 33.97915
#
# Poissons Ratio (x) = -0.18126 0.28835
# Poissons Ratio (y) = -0.23588 -0.33170
# Poissons Ratio (z) = 0.31232 -0.27608
#
# Static dielectric constant tensor:
#      x y z
#    x 1.576080 0.000000 -0.024980 
#    y 0.000000 1.585700 0.000000 
#    z -0.024980 0.000000 1.581400 
# 
# From -- ./inp_files/19630.got.cif
#   From: 2010.05.17/outbox.cif.g08.bks.cpg/sg11_10_cif.got.tgz:19630.got - 2010.06.03 12:22:45.
