data_PCOD9161214
_publ_section_title
;
Structure prediction by ZEFSAII (Michael W. Deem and Ramdas Pophale) SiO2 
 PCOD9161214
Probable space group: P 21/M
;
_chemical_formula_sum "Si O2"
_cell_formula_units_Z 24
_cell_length_a 19.156254
_cell_length_b 9.389508
_cell_length_c 15.025968
_cell_angle_alpha 90.000000
_cell_angle_beta 23.438837
_cell_angle_gamma 90.000000
_cell_volume 1075.047817
_symmetry_space_group_name_H-M "P 21/M"
_symmetry_group_IT_number 11
_symmetry_cell_setting 'monoclinic'
loop_
_space_group_symop_operation_xyz
x,y,z
-x,1/2+y,-z
-x,-y,-z
x,1/2-y,z
loop_
_atom_site_type_symbol
_atom_site_label
_atom_site_fract_x
_atom_site_fract_y
_atom_site_fract_z
Si Si1 0.063615 0.916624 0.753071
Si Si2 0.357558 0.920634 0.281585
Si Si3 0.184344 0.088781 0.131216
Si Si4 0.279157 0.582314 0.177501
Si Si5 0.216840 0.581975 0.818468
Si Si6 0.533130 0.582749 0.338256
O O1 0.077284 0.750000 0.761659
O O2 0.246319 0.966730 0.497261
O O3 0.937366 0.924725 0.813119
O O4 0.961291 0.000552 0.949100
O O5 0.390252 0.750000 0.250280
O O6 0.244336 0.940434 0.322956
O O7 0.534435 0.006161 0.058438
O O8 0.167309 0.250000 0.184783
O O9 0.380238 0.070027 0.859810
O O10 0.156402 0.983809 0.245456
O O11 0.293254 0.750000 0.147329
O O12 0.188402 0.750000 0.861229
O O13 0.327335 0.557513 0.598230
O O14 0.356017 0.523164 0.728935
O O15 0.564664 0.750000 0.327679
#
# Coordination Sequence:
#
# PCOD9161214 Si02
#       6
#     4   4   4   4   4   4
#     4   9  18  32  49  70  96 126 158 190 231 283
#     4   9  19  36  53  67  90 126 160 190 233 287
#     4   9  17  30  48  70  97 127 155 186 229 279
#     4  10  20  33  50  72  94 119 157 199 234 275
#     4   9  15  24  42  68  95 122 154 193 231 267
#     4   8  15  27  42  63  94 129 158 184 224 279
#
# _framework density 22.324587999999999
#
# number of rings (size 3 to 8) (size 9 to 14) (size 15 to 20)
#    0.000    3.000    0.000    2.000    0.000    5.333 
#    0.000    0.000    0.000    1.000    0.000    0.000 
#    0.000    0.000    0.000    0.000    0.000    0.000 
#
# Total GULP energy -133966.841629 kJ/mol
# GULP energy per Si atom -5581.951735 kJ/mol
# Density = 2.227378 g / cm^3
# Si number density = 22.324588 Si / 1000 Ang^3
#
#
#
# Elastic Constant Matrix: (Units=GPa)
#
#
# Indices 1 2 3 4 5 6 
#
# 1 86.2620 32.1576 15.7913 0.0000 18.6511 0.0000
# 2 32.1576 53.0222 41.1352 0.0000 21.2674 0.0000
# 3 15.7913 41.1352 132.7290 0.0000 16.9092 0.0000
# 4 0.0000 0.0000 0.0000 25.7599 0.0000 7.2099
# 5 18.6511 21.2674 16.9092 0.0000 38.5367 0.0000
# 6 0.0000 0.0000 0.0000 7.2099 0.0000 23.8566
#
#
#
# Elastic Compliance Matrix: (Units=1/GPa)
#
#
# Indices 1 2 3 4 5 6 
#
# 1 0.015430 -0.009260 0.001414 0.000000 -0.002977 0.000000
# 2 -0.009260 0.035666 -0.008490 0.000000 -0.011476 0.000000
# 3 0.001414 -0.008490 0.010049 0.000000 -0.000408 0.000000
# 4 0.000000 0.000000 0.000000 0.042407 0.000000 -0.012816
# 5 -0.002977 -0.011476 -0.000408 0.000000 0.033903 0.000000
# 6 0.000000 0.000000 0.000000 -0.012816 0.000000 0.045790
#
#
# Mechanical properties :
#
#
# Convention : Reuss Voigt Hill
#
# Bulk Modulus (GPa) = 35.12283 50.02014 42.57148
# Shear Modulus (GPa) = 22.18189 29.82591 26.00390
#
# Velocity S-wave (km/s) = 3.15557 3.65911 3.41663
# Velocity P-wave (km/s) = 5.38923 6.34875 5.88857
#
# Compressibility (1/GPa) = 0.02847151
#
# Stress axis : x y z
#
# Youngs Moduli (GPa) = 64.80982 28.03794 99.51126
#
# Poissons Ratio (x) = 0.25964 -0.14066
# Poissons Ratio (y) = 0.60017 0.84483
# Poissons Ratio (z) = -0.09161 0.23804
#
# Static dielectric constant tensor:
#      x y z
#    x 1.895380 0.000000 -0.046640 
#    y 0.000000 1.732620 0.000000 
#    z -0.046640 0.000000 1.876430 
# 
# From -- ./inp_files/23765.got.cif
#   From: 2010.05.17/outbox.cif.g08.bks.cpg/sg11_12_cif.got.tgz:23765.got - 2010.06.03 12:22:45.
