data_PCOD9161435
_publ_section_title
;
Structure prediction by ZEFSAII (Michael W. Deem and Ramdas Pophale) SiO2 
 PCOD9161435
Probable space group: P 21/M
;
_chemical_formula_sum "Si O2"
_cell_formula_units_Z 32
_cell_length_a 13.376282
_cell_length_b 7.612291
_cell_length_c 14.655541
_cell_angle_alpha 90.000000
_cell_angle_beta 85.392647
_cell_angle_gamma 90.000000
_cell_volume 1487.465809
_symmetry_space_group_name_H-M "P 21/M"
_symmetry_group_IT_number 11
_symmetry_cell_setting 'monoclinic'
loop_
_space_group_symop_operation_xyz
x,y,z
-x,1/2+y,-z
-x,-y,-z
x,1/2-y,z
loop_
_atom_site_type_symbol
_atom_site_label
_atom_site_fract_x
_atom_site_fract_y
_atom_site_fract_z
Si Si1 0.204934 0.034331 0.890624
Si Si2 0.401018 0.460620 0.566228
Si Si3 0.052701 0.959221 0.401127
Si Si4 0.594910 0.960907 0.226615
Si Si5 0.982625 0.958457 0.214425
Si Si6 0.192350 0.037432 0.100928
Si Si7 0.627916 0.539073 0.782872
Si Si8 0.717871 0.543591 0.590457
O O1 0.204099 0.250000 0.891519
O O2 0.308804 0.976903 0.836691
O O3 0.109851 0.972712 0.838248
O O4 0.196260 0.977423 0.996089
O O5 0.500000 0.500000 0.500000
O O6 0.392486 0.250000 0.576619
O O7 0.404559 0.530545 0.668978
O O8 0.311878 0.527086 0.506832
O O9 0.059038 0.750000 0.391367
O O10 0.994734 0.028999 0.316344
O O11 0.165911 0.027104 0.395383
O O12 0.000000 0.000000 0.500000
O O13 0.602832 0.750000 0.230026
O O14 0.487746 0.000853 0.189414
O O15 0.964653 0.750000 0.223678
O O16 0.088630 0.984628 0.156353
O O17 0.194683 0.250000 0.100485
O O18 0.288637 0.975040 0.151870
O O19 0.638698 0.750000 0.779238
O O20 0.655124 0.467980 0.679814
O O21 0.693019 0.750000 0.588527
#
# Coordination Sequence:
#
# PCOD9161435 Si02
#       8
#     4   4   4   4   4   4   4   4
#     4   9  20  38  58  82 112 148 187 231 286 336
#     4  10  20  33  54  78 105 144 184 225 272 327
#     4  11  24  38  57  85 116 149 185 228 279 335
#     4  10  21  36  56  81 110 147 191 231 274 336
#     4  10  21  38  61  85 112 146 187 234 278 331
#     4  10  20  37  61  84 110 146 187 232 284 340
#     4  10  20  35  56  82 114 148 182 229 284 330
#     4  10  20  36  56  79 112 148 185 231 281 335
#
# _framework density 21.513100000000001
#
# number of rings (size 3 to 8) (size 9 to 14) (size 15 to 20)
#    0.000    2.000    2.500    0.750    1.750    2.500 
#    0.000    1.250    0.000    0.000    0.000    0.000 
#    0.000    0.000    0.000    0.000    0.000    0.000 
#
# Total GULP energy -178741.153500 kJ/mol
# GULP energy per Si atom -5585.661047 kJ/mol
# Density = 2.146414 g / cm^3
# Si number density = 21.513100 Si / 1000 Ang^3
#
#
#
# Elastic Constant Matrix: (Units=GPa)
#
#
# Indices 1 2 3 4 5 6 
#
# 1 155.9509 -11.7091 83.4575 0.0000 15.2152 0.0000
# 2 -11.7091 34.5543 -9.3995 0.0000 3.4861 0.0000
# 3 83.4575 -9.3995 139.0564 0.0000 -2.1725 0.0000
# 4 0.0000 0.0000 0.0000 13.2946 0.0000 9.5367
# 5 15.2152 3.4861 -2.1725 0.0000 32.9422 0.0000
# 6 0.0000 0.0000 0.0000 9.5367 0.0000 210.0024
#
#
#
# Elastic Compliance Matrix: (Units=1/GPa)
#
#
# Indices 1 2 3 4 5 6 
#
# 1 0.010440 0.002408 -0.006189 0.000000 -0.005485 0.000000
# 2 0.002408 0.030335 0.000539 0.000000 -0.004287 0.000000
# 3 -0.006189 0.000539 0.010997 0.000000 0.003527 0.000000
# 4 0.000000 0.000000 0.000000 0.077751 0.000000 -0.003531
# 5 -0.005485 -0.004287 0.003527 0.000000 0.033576 0.000000
# 6 0.000000 0.000000 0.000000 -0.003531 0.000000 0.004922
#
#
# Mechanical properties :
#
#
# Convention : Reuss Voigt Hill
#
# Bulk Modulus (GPa) = 22.08149 50.47325 36.27737
# Shear Modulus (GPa) = 26.37100 69.06203 47.71651
#
# Velocity S-wave (km/s) = 3.50496 5.67204 4.71470
# Velocity P-wave (km/s) = 5.16393 8.14915 6.82183
#
# Compressibility (1/GPa) = 0.04528680
#
# Stress axis : x y z
#
# Youngs Moduli (GPa) = 95.78414 32.96543 90.93248
#
# Poissons Ratio (x) = -0.07937 0.56276
# Poissons Ratio (y) = -0.23061 -0.04897
# Poissons Ratio (z) = 0.59279 -0.01775
#
# Static dielectric constant tensor:
#      x y z
#    x 1.746690 0.000000 0.029120 
#    y 0.000000 1.823240 0.000000 
#    z 0.029120 0.000000 1.785820 
# 
# From -- ./inp_files/49354.got.cif
#   From: 2010.05.17/outbox.cif.g08.bks.cpg/sg11_25_cif.got.tgz:49354.got - 2010.06.03 12:22:45.
