data_PCOD9161803
_publ_section_title
;
Structure prediction by ZEFSAII (Michael W. Deem and Ramdas Pophale) SiO2 
 PCOD9161803
Probable space group: P 21/M
;
_chemical_formula_sum "Si O2"
_cell_formula_units_Z 28
_cell_length_a 12.097748
_cell_length_b 8.663526
_cell_length_c 15.879982
_cell_angle_alpha 90.000000
_cell_angle_beta 63.753912
_cell_angle_gamma 90.000000
_cell_volume 1492.776086
_symmetry_space_group_name_H-M "P 21/M"
_symmetry_group_IT_number 11
_symmetry_cell_setting 'monoclinic'
loop_
_space_group_symop_operation_xyz
x,y,z
-x,1/2+y,-z
-x,-y,-z
x,1/2-y,z
loop_
_atom_site_type_symbol
_atom_site_label
_atom_site_fract_x
_atom_site_fract_y
_atom_site_fract_z
Si Si1 0.018668 0.063883 0.125966
Si Si2 0.804205 0.065352 0.072012
Si Si3 0.429860 0.436210 0.766415
Si Si4 0.285571 0.935304 0.324794
Si Si5 0.615659 0.935929 0.409309
Si Si6 0.828629 0.935217 0.464476
Si Si7 0.064283 0.064888 0.301488
O O1 0.022815 0.250000 0.122660
O O2 0.026288 0.014471 0.220175
O O3 0.894437 0.015038 0.118802
O O4 0.131904 0.999726 0.033202
O O5 0.804152 0.250000 0.068931
O O6 0.668394 0.004035 0.135935
O O7 0.423147 0.250000 0.771267
O O8 0.571674 0.481222 0.733422
O O9 0.392295 0.487842 0.684591
O O10 0.279560 0.750000 0.328718
O O11 0.233040 0.999611 0.430522
O O12 0.196859 0.000196 0.282668
O O13 0.608131 0.750000 0.412285
O O14 0.739857 0.980203 0.416315
O O15 0.500000 0.000000 0.500000
O O16 0.834619 0.750000 0.467889
O O17 0.962977 0.002097 0.400756
O O18 0.065611 0.250000 0.304529
#
# Coordination Sequence:
#
# PCOD9161803 Si02
#       7
#     4   4   4   4   4   4   4
#     4   9  20  39  60  85 115 145 178 226 283 332
#     4  10  20  35  61  91 114 141 179 226 278 336
#     4  10  21  37  56  81 115 152 184 224 282 334
#     4  11  23  39  57  78 112 153 193 234 276 328
#     4  10  20  34  54  81 112 146 183 226 275 327
#     4  11  22  36  57  84 113 148 190 234 281 333
#     4  11  23  39  59  81 110 148 191 234 279 331
#
# _framework density 18.757000000000001
#
# number of rings (size 3 to 8) (size 9 to 14) (size 15 to 20)
#    0.000    1.714    1.429    3.000    0.000    4.000 
#    0.000    0.714    0.000    0.000    0.000    0.000 
#    0.000    0.000    0.000    0.000    0.000    0.000 
#
# Total GULP energy -156467.358539 kJ/mol
# GULP energy per Si atom -5588.119948 kJ/mol
# Density = 1.871431 g / cm^3
# Si number density = 18.757000 Si / 1000 Ang^3
#
#
#
# Elastic Constant Matrix: (Units=GPa)
#
#
# Indices 1 2 3 4 5 6 
#
# 1 87.3943 24.6780 45.0004 0.0000 -14.6891 0.0000
# 2 24.6780 25.2976 19.1177 0.0000 -3.8998 0.0000
# 3 45.0004 19.1177 96.5421 0.0000 -24.7600 0.0000
# 4 0.0000 0.0000 0.0000 29.4423 0.0000 -4.0172
# 5 -14.6891 -3.8998 -24.7600 0.0000 26.9598 0.0000
# 6 0.0000 0.0000 0.0000 -4.0172 0.0000 27.8603
#
#
#
# Elastic Compliance Matrix: (Units=1/GPa)
#
#
# Indices 1 2 3 4 5 6 
#
# 1 0.018474 -0.013703 -0.005003 0.000000 0.003489 0.000000
# 2 -0.013703 0.056756 -0.006097 0.000000 -0.004856 0.000000
# 3 -0.005003 -0.006097 0.016969 0.000000 0.011977 0.000000
# 4 0.000000 0.000000 0.000000 0.034646 0.000000 0.004996
# 5 0.003489 -0.004856 0.011977 0.000000 0.049290 0.000000
# 6 0.000000 0.000000 0.000000 0.004996 0.000000 0.036614
#
#
# Mechanical properties :
#
#
# Convention : Reuss Voigt Hill
#
# Bulk Modulus (GPa) = 23.47798 42.98068 33.22933
# Shear Modulus (GPa) = 18.07963 24.88168 21.48065
#
# Velocity S-wave (km/s) = 3.10802 3.64610 3.38776
# Velocity P-wave (km/s) = 5.04220 6.37884 5.74950
#
# Compressibility (1/GPa) = 0.04259310
#
# Stress axis : x y z
#
# Youngs Moduli (GPa) = 54.12920 17.61923 58.93026
#
# Poissons Ratio (x) = 0.24144 0.29482
# Poissons Ratio (y) = 0.74174 0.35931
# Poissons Ratio (z) = 0.27081 0.10743
#
# Static dielectric constant tensor:
#      x y z
#    x 1.656580 0.000000 0.018420 
#    y 0.000000 1.623670 0.000000 
#    z 0.018420 0.000000 1.618440 
# 
# From -- ./inp_files/37871.got.cif
#   From: 2010.05.17/outbox.cif.g08.bks.cpg/sg11_19_cif.got.tgz:37871.got - 2010.06.03 12:22:45.
