data_PCOD9161901
_publ_section_title
;
Structure prediction by ZEFSAII (Michael W. Deem and Ramdas Pophale) SiO2 
 PCOD9161901
Probable space group: P 21/M
;
_chemical_formula_sum "Si O2"
_cell_formula_units_Z 24
_cell_length_a 16.367507
_cell_length_b 8.689883
_cell_length_c 9.336509
_cell_angle_alpha 90.000000
_cell_angle_beta 73.439101
_cell_angle_gamma 90.000000
_cell_volume 1272.860906
_symmetry_space_group_name_H-M "P 21/M"
_symmetry_group_IT_number 11
_symmetry_cell_setting 'monoclinic'
loop_
_space_group_symop_operation_xyz
x,y,z
-x,1/2+y,-z
-x,-y,-z
x,1/2-y,z
loop_
_atom_site_type_symbol
_atom_site_label
_atom_site_fract_x
_atom_site_fract_y
_atom_site_fract_z
Si Si1 0.079113 0.433705 0.370853
Si Si2 0.247022 0.935326 0.789190
Si Si3 0.238797 0.936082 0.462933
Si Si4 0.402858 0.066095 0.885126
Si Si5 0.403259 0.935236 0.200123
Si Si6 0.079198 0.935379 0.050226
O O1 0.073706 0.250000 0.368474
O O2 0.165048 0.486933 0.406951
O O3 0.077490 0.500239 0.211421
O O4 0.000000 0.500000 0.500000
O O5 0.251333 0.750000 0.789054
O O6 0.233741 0.982861 0.631333
O O7 0.333978 0.999088 0.811420
O O8 0.166761 0.981667 0.926887
O O9 0.228705 0.750000 0.460070
O O10 0.330599 0.975683 0.349840
O O11 0.398729 0.250000 0.884382
O O12 0.500741 0.018413 0.804599
O O13 0.383875 0.007779 0.055302
O O14 0.402838 0.750000 0.183680
O O15 0.075318 0.750000 0.055571
O O16 0.000000 0.000000 0.000000
#
# Coordination Sequence:
#
# PCOD9161901 Si02
#       6
#     4   4   4   4   4   4
#     4  12  25  41  62  88 117 150 190 236 288 343
#     4  10  22  38  57  82 114 151 187 230 286 342
#     4  10  21  39  60  83 114 151 192 236 285 341
#     4  10  20  34  55  83 113 148 192 237 281 336
#     4   9  19  36  57  81 112 150 190 235 286 336
#     4  11  23  40  62  88 118 152 192 237 288 344
#
# _framework density 18.855163000000001
#
# number of rings (size 3 to 8) (size 9 to 14) (size 15 to 20)
#    0.000    1.667    0.000    4.500    0.000    9.333 
#    0.000    0.000    0.000    0.000    0.000    0.000 
#    0.000    0.000    0.000    0.000    0.000    0.000 
#
# Total GULP energy -134159.583469 kJ/mol
# GULP energy per Si atom -5589.982645 kJ/mol
# Density = 1.881225 g / cm^3
# Si number density = 18.855163 Si / 1000 Ang^3
#
#
#
# Elastic Constant Matrix: (Units=GPa)
#
#
# Indices 1 2 3 4 5 6 
#
# 1 144.3505 48.9548 108.9829 0.0000 15.0876 0.0000
# 2 48.9548 48.7026 56.4680 0.0000 0.1092 0.0000
# 3 108.9829 56.4680 190.1862 0.0000 1.1526 0.0000
# 4 0.0000 0.0000 0.0000 27.8584 0.0000 6.2045
# 5 15.0876 0.1092 1.1526 0.0000 38.8302 0.0000
# 6 0.0000 0.0000 0.0000 6.2045 0.0000 37.7620
#
#
#
# Elastic Compliance Matrix: (Units=1/GPa)
#
#
# Indices 1 2 3 4 5 6 
#
# 1 0.014744 -0.007703 -0.006129 0.000000 -0.005525 0.000000
# 2 -0.007703 0.035337 -0.006097 0.000000 0.003074 0.000000
# 3 -0.006129 -0.006097 0.010567 0.000000 0.002085 0.000000
# 4 0.000000 0.000000 0.000000 0.037259 0.000000 -0.006122
# 5 -0.005525 0.003074 0.002085 0.000000 0.027830 0.000000
# 6 0.000000 0.000000 0.000000 -0.006122 0.000000 0.027487
#
#
# Mechanical properties :
#
#
# Convention : Reuss Voigt Hill
#
# Bulk Modulus (GPa) = 48.09265 90.22788 69.16026
# Shear Modulus (GPa) = 24.99853 32.14570 28.57211
#
# Velocity S-wave (km/s) = 3.64513 4.13349 3.89697
# Velocity P-wave (km/s) = 6.57858 8.41059 7.55036
#
# Compressibility (1/GPa) = 0.02079320
#
# Stress axis : x y z
#
# Youngs Moduli (GPa) = 67.82281 28.29881 94.63088
#
# Poissons Ratio (x) = 0.21797 0.57995
# Poissons Ratio (y) = 0.52241 0.57694
# Poissons Ratio (z) = 0.41565 0.17253
#
# Static dielectric constant tensor:
#      x y z
#    x 1.632440 0.000000 -0.019130 
#    y 0.000000 1.616920 0.000000 
#    z -0.019130 0.000000 1.623840 
# 
# From -- ./inp_files/20359.got.cif
#   From: 2010.05.17/outbox.cif.g08.bks.cpg/sg11_11_cif.got.tgz:20359.got - 2010.06.03 12:22:45.
