data_PCOD9161968
_publ_section_title
;
Structure prediction by ZEFSAII (Michael W. Deem and Ramdas Pophale) SiO2 
 PCOD9161968
Probable space group: P 21/M
;
_chemical_formula_sum "Si O2"
_cell_formula_units_Z 32
_cell_length_a 8.829663
_cell_length_b 10.589770
_cell_length_c 21.111441
_cell_angle_alpha 90.000000
_cell_angle_beta 125.131143
_cell_angle_gamma 90.000000
_cell_volume 1614.415495
_symmetry_space_group_name_H-M "P 21/M"
_symmetry_group_IT_number 11
_symmetry_cell_setting 'monoclinic'
loop_
_space_group_symop_operation_xyz
x,y,z
-x,1/2+y,-z
-x,-y,-z
x,1/2-y,z
loop_
_atom_site_type_symbol
_atom_site_label
_atom_site_fract_x
_atom_site_fract_y
_atom_site_fract_z
Si Si1 0.210318 0.979089 0.817336
Si Si2 0.698174 0.053532 0.810709
Si Si3 0.650103 0.114176 0.280207
Si Si4 0.401074 0.609384 0.072641
Si Si5 0.657131 0.594784 0.567653
Si Si6 0.990400 0.611245 0.547156
Si Si7 0.061291 0.606282 0.912420
Si Si8 0.167983 0.609208 0.295354
O O1 0.404201 0.039265 0.885840
O O2 0.051962 0.079382 0.759041
O O3 0.261458 0.900163 0.767782
O O4 0.124722 0.902307 0.854763
O O5 0.651205 0.119086 0.865868
O O6 0.766830 0.114943 0.762076
O O7 0.505472 0.988121 0.746651
O O8 0.866027 0.961509 0.869830
O O9 0.556841 0.250000 0.263447
O O10 0.817988 0.106935 0.368833
O O11 0.425445 0.750000 0.051671
O O12 0.227981 0.548254 0.994173
O O13 0.500000 0.500000 0.500000
O O14 0.613864 0.750000 0.568813
O O15 0.823130 0.597414 0.556490
O O16 0.734026 0.510843 0.645917
O O17 0.972305 0.750000 0.512290
O O18 0.000000 0.500000 0.500000
O O19 0.039000 0.750000 0.927960
O O20 0.203822 0.750000 0.332363
#
# Coordination Sequence:
#
# PCOD9161968 Si02
#       8
#     4   4   4   4   4   4   4   4
#     4  10  20  36  58  85 115 154 201 253 305 360
#     4  10  22  36  56  85 119 159 201 250 302 358
#     4  10  20  38  60  85 119 155 200 250 303 360
#     4  10  20  36  55  80 116 156 200 250 305 362
#     4  11  25  45  68  95 127 161 199 246 299 358
#     4  10  23  43  64  92 123 160 197 245 297 357
#     4  10  20  34  56  84 115 154 200 251 307 363
#     4  11  23  40  62  90 123 162 207 252 301 358
#
# _framework density 19.821414000000001
#
# number of rings (size 3 to 8) (size 9 to 14) (size 15 to 20)
#    0.000    1.750    1.250    2.625    1.750    3.500 
#    0.000    0.625    0.000   12.000    0.000    0.000 
#    0.000    0.000    0.000    0.000    0.000    0.000 
#
# Total GULP energy -178256.320581 kJ/mol
# GULP energy per Si atom -5570.510018 kJ/mol
# Density = 1.977630 g / cm^3
# Si number density = 19.821414 Si / 1000 Ang^3
#
#
#
# Elastic Constant Matrix: (Units=GPa)
#
#
# Indices 1 2 3 4 5 6 
#
# 1 62.7042 22.0760 13.7194 0.0000 15.0286 0.0000
# 2 22.0760 107.9290 39.0002 0.0000 9.6517 0.0000
# 3 13.7194 39.0002 68.0603 0.0000 14.0254 0.0000
# 4 0.0000 0.0000 0.0000 11.1404 0.0000 1.4075
# 5 15.0286 9.6517 14.0254 0.0000 29.7059 0.0000
# 6 0.0000 0.0000 0.0000 1.4075 0.0000 -21.3131
#
#
#
# Elastic Compliance Matrix: (Units=1/GPa)
#
#
# Indices 1 2 3 4 5 6 
#
# 1 0.019135 -0.003017 -0.000371 0.000000 -0.008525 0.000000
# 2 -0.003017 0.012174 -0.006500 0.000000 0.000640 0.000000
# 3 -0.000371 -0.006500 0.019960 0.000000 -0.007124 0.000000
# 4 0.000000 0.000000 0.000000 0.089021 0.000000 0.005879
# 5 -0.008525 0.000640 -0.007124 0.000000 0.041132 0.000000
# 6 0.000000 0.000000 0.000000 0.005879 0.000000 -0.046531
#
#
# Mechanical properties :
#
#
# Convention : Reuss Voigt Hill
#
# Bulk Modulus (GPa) = 31.75383 43.14276 37.44829
# Shear Modulus (GPa) = 30.27285 14.83316 22.55300
#
# Velocity S-wave (km/s) = 3.91228 2.73855 3.37680
# Velocity P-wave (km/s) = 6.03843 5.64026 5.84274
#
# Compressibility (1/GPa) = 0.03149227
#
# Stress axis : x y z
#
# Youngs Moduli (GPa) = 52.26128 82.14275 50.09946
#
# Poissons Ratio (x) = 0.24785 0.01861
# Poissons Ratio (y) = 0.15769 0.32563
# Poissons Ratio (z) = 0.01941 0.53389
#
# Static dielectric constant tensor:
#      x y z
#    x 1.655360 0.000000 0.001570 
#    y 0.000000 1.688060 0.000000 
#    z 0.001570 0.000000 1.706580 
# 
# From -- ./inp_files/63660.got.cif
#   From: 2010.05.17/outbox.cif.g08.bks.cpg/sg11_32_cif.got.tgz:63660.got - 2010.06.03 12:22:45.
