data_PCOD9161965
_publ_section_title
;
Structure prediction by ZEFSAII (Michael W. Deem and Ramdas Pophale) SiO2 
 PCOD9161965
Probable space group: P 21/M
;
_chemical_formula_sum "Si O2"
_cell_formula_units_Z 32
_cell_length_a 11.976067
_cell_length_b 8.844604
_cell_length_c 32.656938
_cell_angle_alpha 90.000000
_cell_angle_beta 30.547140
_cell_angle_gamma 90.000000
_cell_volume 1758.097582
_symmetry_space_group_name_H-M "P 21/M"
_symmetry_group_IT_number 11
_symmetry_cell_setting 'monoclinic'
loop_
_space_group_symop_operation_xyz
x,y,z
-x,1/2+y,-z
-x,-y,-z
x,1/2-y,z
loop_
_atom_site_type_symbol
_atom_site_label
_atom_site_fract_x
_atom_site_fract_y
_atom_site_fract_z
Si Si1 0.174340 0.069258 0.476835
Si Si2 0.893561 0.930738 0.631692
Si Si3 0.965946 0.570666 0.170327
Si Si4 0.345246 0.075379 0.995996
Si Si5 0.199345 0.430454 0.169028
Si Si6 0.508079 0.070323 0.303999
Si Si7 0.711879 0.067186 0.770579
Si Si8 0.770775 0.922136 0.063446
O O1 0.146986 0.250000 0.487601
O O2 0.405454 0.038924 0.381480
O O3 0.000000 0.000000 0.500000
O O4 0.107388 0.995073 0.540815
O O5 0.909250 0.750000 0.630559
O O6 0.681816 0.963701 0.669335
O O7 0.850133 0.008290 0.688740
O O8 0.985992 0.750000 0.166617
O O9 0.155598 0.503020 0.081660
O O10 0.005724 0.495789 0.202150
O O11 0.729028 0.522206 0.228260
O O12 0.377745 0.250000 0.998724
O O13 0.271318 0.077001 0.971918
O O14 0.574449 0.986303 0.923923
O O15 0.192875 0.250000 0.172817
O O16 0.204298 0.500445 0.212902
O O17 0.553971 0.250000 0.286860
O O18 0.710952 0.250000 0.773326
O O19 0.456510 0.014594 0.846128
O O20 0.790068 0.750000 0.071754
O O21 0.000000 0.000000 0.000000
#
# Coordination Sequence:
#
# PCOD9161965 Si02
#       8
#     4   4   4   4   4   4   4   4
#     4   9  17  32  54  79 110 145 178 218 268 322
#     4  10  20  34  56  84 113 146 182 220 265 322
#     4  12  24  36  55  81 108 142 182 228 274 321
#     4  10  21  38  55  76 105 141 183 227 271 318
#     4  11  22  39  59  78 104 141 184 229 274 321
#     4   9  20  36  53  80 114 145 178 219 269 321
#     4  10  21  37  55  79 108 142 183 224 266 318
#     4   9  20  34  50  72 104 142 175 217 266 313
#
# _framework density 18.201492999999999
#
# number of rings (size 3 to 8) (size 9 to 14) (size 15 to 20)
#    0.000    2.000    0.000    5.625    1.750    6.000 
#    0.000    0.000    0.000    0.750    0.000    0.000 
#    0.000    0.000    0.000    0.000    0.000    0.000 
#
# Total GULP energy -178613.648516 kJ/mol
# GULP energy per Si atom -5581.676516 kJ/mol
# Density = 1.816007 g / cm^3
# Si number density = 18.201493 Si / 1000 Ang^3
#
#
#
# Elastic Constant Matrix: (Units=GPa)
#
#
# Indices 1 2 3 4 5 6 
#
# 1 17.8850 18.7207 13.1154 0.0000 3.0701 0.0000
# 2 18.7207 97.2802 34.8930 0.0000 7.7666 0.0000
# 3 13.1154 34.8930 77.1109 0.0000 28.4362 0.0000
# 4 0.0000 0.0000 0.0000 30.1228 0.0000 2.1365
# 5 3.0701 7.7666 28.4362 0.0000 22.5711 0.0000
# 6 0.0000 0.0000 0.0000 2.1365 0.0000 28.6746
#
#
#
# Elastic Compliance Matrix: (Units=1/GPa)
#
#
# Indices 1 2 3 4 5 6 
#
# 1 0.073698 -0.011185 -0.009706 0.000000 0.006052 0.000000
# 2 -0.011185 0.014302 -0.006193 0.000000 0.004402 0.000000
# 3 -0.009706 -0.006193 0.030162 0.000000 -0.034548 0.000000
# 4 0.000000 0.000000 0.000000 0.033374 0.000000 -0.002487
# 5 0.006052 0.004402 -0.034548 0.000000 0.085492 0.000000
# 6 0.000000 0.000000 0.000000 -0.002487 0.000000 0.035059
#
#
# Mechanical properties :
#
#
# Convention : Reuss Voigt Hill
#
# Bulk Modulus (GPa) = 15.62590 36.19270 25.90930
# Shear Modulus (GPa) = 14.38500 24.64349 19.51424
#
# Velocity S-wave (km/s) = 2.81431 3.68357 3.27788
# Velocity P-wave (km/s) = 4.37768 6.16597 5.34711
#
# Compressibility (1/GPa) = 0.06399633
#
# Stress axis : x y z
#
# Youngs Moduli (GPa) = 13.56881 69.92184 33.15480
#
# Poissons Ratio (x) = 0.78204 0.32179
# Poissons Ratio (y) = 0.15176 0.20531
# Poissons Ratio (z) = 0.13169 0.43299
#
# Static dielectric constant tensor:
#      x y z
#    x 1.609140 0.000000 0.002140 
#    y 0.000000 1.611030 0.000000 
#    z 0.002140 0.000000 1.623150 
# 
# From -- ./inp_files/73121.got.cif
#   From: 2010.05.17/outbox.cif.g08.bks.cpg/sg11_37_cif.got.tgz:73121.got - 2010.06.03 12:22:45.
