data_PCOD9161777
_publ_section_title
;
Structure prediction by ZEFSAII (Michael W. Deem and Ramdas Pophale) SiO2 
 PCOD9161777
Probable space group: P 21/M
;
_chemical_formula_sum "Si O2"
_cell_formula_units_Z 18
_cell_length_a 6.568933
_cell_length_b 18.918443
_cell_length_c 10.756102
_cell_angle_alpha 90.000000
_cell_angle_beta 143.175316
_cell_angle_gamma 90.000000
_cell_volume 801.178079
_symmetry_space_group_name_H-M "P 21/M"
_symmetry_group_IT_number 11
_symmetry_cell_setting 'monoclinic'
loop_
_space_group_symop_operation_xyz
x,y,z
-x,1/2+y,-z
-x,-y,-z
x,1/2-y,z
loop_
_atom_site_type_symbol
_atom_site_label
_atom_site_fract_x
_atom_site_fract_y
_atom_site_fract_z
Si Si1 0.269235 0.750000 0.866427
Si Si2 0.551999 0.098654 0.564139
Si Si3 0.707320 0.873993 0.007698
Si Si4 0.015532 0.750000 0.990663
Si Si5 0.378338 0.478739 0.229104
Si Si6 0.658718 0.750000 0.444088
O O1 0.065270 0.750000 0.635593
O O2 0.478788 0.822064 0.977069
O O3 0.978606 0.750000 0.827107
O O4 0.390189 0.069679 0.358567
O O5 0.454686 0.178215 0.544593
O O6 0.965497 0.095319 0.760568
O O7 0.452484 0.049917 0.634542
O O8 0.863592 0.819017 0.982306
O O9 0.500953 0.933513 0.830798
O O10 0.423766 0.750000 0.207738
O O11 0.000000 0.500000 0.000000
#
# Coordination Sequence:
#
# PCOD9161777 Si02
#       6
#     2   4   4   2   4   2
#     4  11  21  33  54  84 112 145 187 227 270 322
#     4   9  18  34  57  80 108 146 182 224 276 323
#     4   9  19  34  54  80 109 146 186 225 273 324
#     4   9  19  35  52  76 114 147 183 233 274 318
#     4   9  17  32  56  82 108 143 184 223 271 328
#     4  10  20  34  54  80 108 144 186 228 274 320
#
# _framework density 22.466915
#
# number of rings (size 3 to 8) (size 9 to 14) (size 15 to 20)
#    0.000    2.667    0.000    2.000    0.000    2.667 
#    0.000    3.333    0.000   54.667    0.000    0.000 
#    0.000    0.000    0.000    0.000    0.000    0.000 
#
# Total GULP energy -100303.219012 kJ/mol
# GULP energy per Si atom -5572.401056 kJ/mol
# Density = 2.241578 g / cm^3
# Si number density = 22.466915 Si / 1000 Ang^3
#
#
#
# Elastic Constant Matrix: (Units=GPa)
#
#
# Indices 1 2 3 4 5 6 
#
# 1 25.5781 3.0348 7.3260 0.0000 -7.4122 0.0000
# 2 3.0348 126.4306 48.6721 0.0000 -13.9126 0.0000
# 3 7.3260 48.6721 127.0506 0.0000 -8.3380 0.0000
# 4 0.0000 0.0000 0.0000 42.0785 0.0000 -14.3425
# 5 -7.4122 -13.9126 -8.3380 0.0000 20.7408 0.0000
# 6 0.0000 0.0000 0.0000 -14.3425 0.0000 -27.5759
#
#
#
# Elastic Compliance Matrix: (Units=1/GPa)
#
#
# Indices 1 2 3 4 5 6 
#
# 1 0.044131 0.001492 -0.002070 0.000000 0.015940 0.000000
# 2 0.001492 0.009845 -0.003481 0.000000 0.005738 0.000000
# 3 -0.002070 -0.003481 0.009369 0.000000 0.000692 0.000000
# 4 0.000000 0.000000 0.000000 0.020186 0.000000 -0.010499
# 5 0.015940 0.005738 0.000692 0.000000 0.058037 0.000000
# 6 0.000000 0.000000 0.000000 -0.010499 0.000000 -0.030803
#
#
# Mechanical properties :
#
#
# Convention : Reuss Voigt Hill
#
# Bulk Modulus (GPa) = 18.10728 44.12502 31.11615
# Shear Modulus (GPa) = 36.41817 21.71711 29.06764
#
# Velocity S-wave (km/s) = 4.03049 3.11243 3.60084
# Velocity P-wave (km/s) = 5.45315 5.70955 5.58282
#
# Compressibility (1/GPa) = 0.05522641
#
# Stress axis : x y z
#
# Youngs Moduli (GPa) = 22.65980 101.57277 106.73261
#
# Poissons Ratio (x) = -0.15151 0.22094
# Poissons Ratio (y) = -0.03380 0.37154
# Poissons Ratio (z) = 0.04691 0.35358
#
# Static dielectric constant tensor:
#      x y z
#    x 1.813570 0.000000 0.030390 
#    y 0.000000 1.861800 0.000000 
#    z 0.030390 0.000000 1.850680 
# 
# From -- ./inp_files/2238.got.cif
#   From: 2010.05.17/outbox.cif.g08.bks.cpg/sg11_2_cif.got.tgz:2238.got - 2010.06.03 12:22:45.
