data_PCOD9161229
_publ_section_title
;
Structure prediction by ZEFSAII (Michael W. Deem and Ramdas Pophale) SiO2 
 PCOD9161229
Probable space group: P 21/M
;
_chemical_formula_sum "Si O2"
_cell_formula_units_Z 32
_cell_length_a 21.754104
_cell_length_b 9.223818
_cell_length_c 7.114585
_cell_angle_alpha 90.000000
_cell_angle_beta 102.964966
_cell_angle_gamma 90.000000
_cell_volume 1391.190659
_symmetry_space_group_name_H-M "P 21/M"
_symmetry_group_IT_number 11
_symmetry_cell_setting 'monoclinic'
loop_
_space_group_symop_operation_xyz
x,y,z
-x,1/2+y,-z
-x,-y,-z
x,1/2-y,z
loop_
_atom_site_type_symbol
_atom_site_label
_atom_site_fract_x
_atom_site_fract_y
_atom_site_fract_z
Si Si1 0.698228 0.086103 0.353176
Si Si2 0.075625 0.417155 0.864932
Si Si3 0.537705 0.587203 0.758712
Si Si4 0.829787 0.074825 0.566184
Si Si5 0.423399 0.410502 0.782399
Si Si6 0.046392 0.082441 0.295487
Si Si7 0.334593 0.583443 0.225337
Si Si8 0.789224 0.574655 0.930978
O O1 0.689657 0.250000 0.279309
O O2 0.771458 0.044634 0.386561
O O3 0.685083 0.086807 0.569121
O O4 0.644038 0.984562 0.239128
O O5 0.067620 0.250000 0.802760
O O6 0.022952 0.515405 0.732650
O O7 0.060878 0.422690 0.079952
O O8 0.149290 0.457231 0.899554
O O9 0.534064 0.750000 0.679801
O O10 0.472053 0.502380 0.690573
O O11 0.599676 0.500572 0.740835
O O12 0.546948 0.600557 0.990525
O O13 0.832447 0.250000 0.595191
O O14 0.898272 0.010307 0.570021
O O15 0.809679 0.992381 0.743751
O O16 0.414862 0.250000 0.698834
O O17 0.048993 0.250000 0.353124
O O18 0.341432 0.750000 0.168232
O O19 0.277877 0.501400 0.077394
O O20 0.782387 0.750000 0.916042
#
# Coordination Sequence:
#
# PCOD9161229 Si02
#       8
#     4   4   4   4   4   4   4   4
#     4   9  19  33  49  71  98 128 160 195 237 284
#     4   8  14  22  32  49  76 112 151 188 228 275
#     4  10  21  37  55  74  97 125 157 194 236 282
#     4   9  16  26  39  57  85 119 154 191 232 279
#     4  10  21  36  55  76  96 123 158 195 237 282
#     4   9  15  21  32  51  76 111 153 192 231 274
#     4  10  20  33  50  73  99 128 161 195 236 284
#     4   9  16  26  40  59  85 118 154 192 235 278
#
# _framework density 23.00188
#
# number of rings (size 3 to 8) (size 9 to 14) (size 15 to 20)
#    0.000    2.750    0.000    3.750    0.000    8.500 
#    0.000    0.000    0.000    0.000    0.000    0.000 
#    0.000    1.000    0.000    3.250    0.000    8.750 
#
# Total GULP energy -178798.786701 kJ/mol
# GULP energy per Si atom -5587.462084 kJ/mol
# Density = 2.294953 g / cm^3
# Si number density = 23.001880 Si / 1000 Ang^3
#
#
#
# Elastic Constant Matrix: (Units=GPa)
#
#
# Indices 1 2 3 4 5 6 
#
# 1 154.1283 95.7481 45.4550 0.0000 33.1497 0.0000
# 2 95.7481 157.3386 44.3651 0.0000 58.5582 0.0000
# 3 45.4550 44.3651 75.3678 0.0000 27.1151 0.0000
# 4 0.0000 0.0000 0.0000 10.5973 0.0000 18.8942
# 5 33.1497 58.5582 27.1151 0.0000 52.7572 0.0000
# 6 0.0000 0.0000 0.0000 18.8942 0.0000 28.6334
#
#
#
# Elastic Compliance Matrix: (Units=1/GPa)
#
#
# Indices 1 2 3 4 5 6 
#
# 1 0.011190 -0.006580 -0.003648 0.000000 0.002148 0.000000
# 2 -0.006580 0.015102 -0.000464 0.000000 -0.012390 0.000000
# 3 -0.003648 -0.000464 0.018073 0.000000 -0.006482 0.000000
# 4 0.000000 0.000000 0.000000 -0.534670 0.000000 0.352810
# 5 0.002148 -0.012390 -0.006482 0.000000 0.034689 0.000000
# 6 0.000000 0.000000 0.000000 0.352810 0.000000 -0.197883
#
#
# Mechanical properties :
#
#
# Convention : Reuss Voigt Hill
#
# Bulk Modulus (GPa) = 43.51327 84.21902 63.86614
# Shear Modulus (GPa) = -8.00698 31.81535 11.90419
#
# Velocity S-wave (km/s) = -1.86777 3.72312 2.27740
# Velocity P-wave (km/s) = 3.78245 7.42803 5.89417
#
# Compressibility (1/GPa) = 0.02298150
#
# Stress axis : x y z
#
# Youngs Moduli (GPa) = 89.36709 66.21634 55.32995
#
# Poissons Ratio (x) = 0.43572 0.20184
# Poissons Ratio (y) = 0.58805 0.02566
# Poissons Ratio (z) = 0.32600 0.03071
#
# Static dielectric constant tensor:
#      x y z
#    x 1.865090 0.000000 -0.036960 
#    y 0.000000 1.843430 0.000000 
#    z -0.036960 0.000000 1.911920 
# 
# From -- ./inp_files/42510.got.cif
#   From: 2010.05.17/outbox.cif.g08.bks.cpg/sg11_22_cif.got.tgz:42510.got - 2010.06.03 12:22:45.
