data_PCOD9161193
_publ_section_title
;
Structure prediction by ZEFSAII (Michael W. Deem and Ramdas Pophale) SiO2 
 PCOD9161193
Probable space group: P 21/M
;
_chemical_formula_sum "Si O2"
_cell_formula_units_Z 32
_cell_length_a 14.803200
_cell_length_b 9.279852
_cell_length_c 11.476583
_cell_angle_alpha 90.000000
_cell_angle_beta 71.656216
_cell_angle_gamma 90.000000
_cell_volume 1496.443216
_symmetry_space_group_name_H-M "P 21/M"
_symmetry_group_IT_number 11
_symmetry_cell_setting 'monoclinic'
loop_
_space_group_symop_operation_xyz
x,y,z
-x,1/2+y,-z
-x,-y,-z
x,1/2-y,z
loop_
_atom_site_type_symbol
_atom_site_label
_atom_site_fract_x
_atom_site_fract_y
_atom_site_fract_z
Si Si1 0.833724 0.917910 0.602956
Si Si2 0.241867 0.579448 0.888610
Si Si3 0.891612 0.084561 0.363780
Si Si4 0.612655 0.581783 0.610735
Si Si5 0.761522 0.912965 0.876718
Si Si6 0.454267 0.412657 0.123706
Si Si7 0.060220 0.079678 0.876449
Si Si8 0.667311 0.412204 0.374939
O O1 0.860785 0.750000 0.579077
O O2 0.723759 0.929918 0.604196
O O3 0.830465 0.953223 0.741426
O O4 0.892347 0.017891 0.492126
O O5 0.214266 0.750000 0.890300
O O6 0.166032 0.465653 0.870287
O O7 0.330448 0.560727 0.764637
O O8 0.248391 0.531014 0.018876
O O9 0.923014 0.250000 0.348440
O O10 0.779820 0.083005 0.367614
O O11 0.949723 0.990186 0.247200
O O12 0.590274 0.750000 0.612826
O O13 0.550144 0.522195 0.743833
O O14 0.609847 0.512762 0.484932
O O15 0.788008 0.750000 0.907725
O O16 0.656539 0.900001 0.865522
O O17 0.495225 0.250000 0.111305
O O18 0.500000 0.500000 0.000000
O O19 0.044079 0.250000 0.882157
O O20 0.000000 0.000000 0.000000
O O21 0.634390 0.250000 0.407920
#
# Coordination Sequence:
#
# PCOD9161193 Si02
#       8
#     4   4   4   4   4   4   4   4
#     4   8  14  26  44  66  92 122 157 196 237 280
#     4  10  20  33  49  73 101 127 160 199 240 288
#     4   9  16  27  44  69  97 122 155 197 238 280
#     4   8  14  25  42  64  89 117 152 194 235 277
#     4   9  18  32  49  71  99 130 164 200 240 288
#     4   9  18  31  47  70  98 126 159 198 240 287
#     4  11  21  34  52  73  99 130 162 197 239 284
#     4   8  15  26  41  64  92 118 149 193 236 276
#
# _framework density 21.384038
#
# number of rings (size 3 to 8) (size 9 to 14) (size 15 to 20)
#    0.000    3.000    0.000    4.125    0.000    5.000 
#    0.000    2.500    0.000    1.500    0.000    0.000 
#    0.000    0.000    0.000    0.000    0.000    0.000 
#
# Total GULP energy -178344.249793 kJ/mol
# GULP energy per Si atom -5573.257806 kJ/mol
# Density = 2.133537 g / cm^3
# Si number density = 21.384038 Si / 1000 Ang^3
#
#
#
# Elastic Constant Matrix: (Units=GPa)
#
#
# Indices 1 2 3 4 5 6 
#
# 1 34.6195 6.3286 -2.3810 0.0000 -0.2077 0.0000
# 2 6.3286 128.0527 120.4528 0.0000 -6.9571 0.0000
# 3 -2.3810 120.4528 221.1932 0.0000 -1.3924 0.0000
# 4 0.0000 0.0000 0.0000 41.0272 0.0000 2.6591
# 5 -0.2077 -6.9571 -1.3924 0.0000 14.5804 0.0000
# 6 0.0000 0.0000 0.0000 2.6591 0.0000 9.7318
#
#
#
# Elastic Compliance Matrix: (Units=1/GPa)
#
#
# Indices 1 2 3 4 5 6 
#
# 1 0.029724 -0.003742 0.002350 0.000000 -0.001137 0.000000
# 2 -0.003742 0.017187 -0.009354 0.000000 0.007254 0.000000
# 3 0.002350 -0.009354 0.009618 0.000000 -0.003511 0.000000
# 4 0.000000 0.000000 0.000000 0.024813 0.000000 -0.006780
# 5 -0.001137 0.007254 -0.003511 0.000000 0.071695 0.000000
# 6 0.000000 0.000000 0.000000 -0.006780 0.000000 0.104608
#
#
# Mechanical properties :
#
#
# Convention : Reuss Voigt Hill
#
# Bulk Modulus (GPa) = 28.53992 70.29625 49.41809
# Shear Modulus (GPa) = 17.19298 30.36557 23.77928
#
# Velocity S-wave (km/s) = 2.83858 3.77239 3.33830
# Velocity P-wave (km/s) = 4.91108 7.20550 6.16595
#
# Compressibility (1/GPa) = 0.03503864
#
# Stress axis : x y z
#
# Youngs Moduli (GPa) = 33.64257 58.18264 103.97188
#
# Poissons Ratio (x) = 0.21770 -0.24437
# Poissons Ratio (y) = 0.12588 0.97256
# Poissons Ratio (z) = -0.07907 0.54425
#
# Static dielectric constant tensor:
#      x y z
#    x 1.911770 0.000000 -0.009130 
#    y 0.000000 1.739080 0.000000 
#    z -0.009130 0.000000 1.835500 
# 
# From -- ./inp_files/42420.got.cif
#   From: 2010.05.17/outbox.cif.g08.bks.cpg/sg11_22_cif.got.tgz:42420.got - 2010.06.03 12:22:45.
