data_PCOD9161886
_publ_section_title
;
Structure prediction by ZEFSAII (Michael W. Deem and Ramdas Pophale) SiO2 
 PCOD9161886
Probable space group: P 21/M
;
_chemical_formula_sum "Si O2"
_cell_formula_units_Z 28
_cell_length_a 30.020801
_cell_length_b 8.651953
_cell_length_c 9.466177
_cell_angle_alpha 90.000000
_cell_angle_beta 38.008809
_cell_angle_gamma 90.000000
_cell_volume 1514.043929
_symmetry_space_group_name_H-M "P 21/M"
_symmetry_group_IT_number 11
_symmetry_cell_setting 'monoclinic'
loop_
_space_group_symop_operation_xyz
x,y,z
-x,1/2+y,-z
-x,-y,-z
x,1/2-y,z
loop_
_atom_site_type_symbol
_atom_site_label
_atom_site_fract_x
_atom_site_fract_y
_atom_site_fract_z
Si Si1 0.863414 0.561996 0.681371
Si Si2 0.138195 0.064380 0.988603
Si Si3 0.996760 0.435798 0.849439
Si Si4 0.435083 0.065462 0.754020
Si Si5 0.435931 0.934807 0.065952
Si Si6 0.728014 0.064879 0.515672
Si Si7 0.272471 0.062898 0.165975
O O1 0.863019 0.750000 0.684177
O O2 0.790270 0.512986 0.784246
O O3 0.932809 0.514015 0.416318
O O4 0.867348 0.511655 0.834340
O O5 0.133115 0.250000 0.997756
O O6 0.213577 0.012230 0.731594
O O7 0.073912 0.994608 0.055514
O O8 0.996049 0.250000 0.857066
O O9 0.000000 0.500000 0.000000
O O10 0.438776 0.250000 0.743711
O O11 0.500000 0.000000 0.500000
O O12 0.353338 0.020608 0.912643
O O13 0.443072 0.003687 0.892267
O O14 0.440504 0.750000 0.048207
O O15 0.354637 0.975143 0.319621
O O16 0.500000 0.000000 0.000000
O O17 0.736007 0.250000 0.492314
O O18 0.738658 0.007163 0.650280
O O19 0.269564 0.250000 0.186393
#
# Coordination Sequence:
#
# PCOD9161886 Si02
#       7
#     4   4   4   4   4   4   4
#     4   9  20  37  57  81 109 141 182 228 273 322
#     4  11  22  37  57  82 113 149 184 223 272 327
#     4  11  22  38  60  85 112 144 183 228 275 329
#     4  10  20  34  55  82 113 148 188 234 284 336
#     4  10  21  37  57  81 112 147 187 235 287 342
#     4  10  21  37  56  82 112 144 184 231 278 328
#     4   9  18  36  59  81 106 143 188 231 276 332
#
# _framework density 18.49352
#
# number of rings (size 3 to 8) (size 9 to 14) (size 15 to 20)
#    0.000    2.000    0.000    3.429    0.000    4.571 
#    0.000    5.714    0.000    0.000    0.000    0.000 
#    0.000    0.000    0.000    0.000    0.000    0.000 
#
# Total GULP energy -156372.304495 kJ/mol
# GULP energy per Si atom -5584.725161 kJ/mol
# Density = 1.845143 g / cm^3
# Si number density = 18.493520 Si / 1000 Ang^3
#
#
#
# Elastic Constant Matrix: (Units=GPa)
#
#
# Indices 1 2 3 4 5 6 
#
# 1 169.0072 44.3405 105.3127 0.0000 -14.2126 0.0000
# 2 44.3405 49.8408 52.1004 0.0000 -5.2424 0.0000
# 3 105.3127 52.1004 196.2512 0.0000 -6.4733 0.0000
# 4 0.0000 0.0000 0.0000 29.4258 0.0000 0.5548
# 5 -14.2126 -5.2424 -6.4733 0.0000 25.0606 0.0000
# 6 0.0000 0.0000 0.0000 0.5548 0.0000 28.5076
#
#
#
# Elastic Compliance Matrix: (Units=1/GPa)
#
#
# Indices 1 2 3 4 5 6 
#
# 1 0.009839 -0.004117 -0.004066 0.000000 0.003669 0.000000
# 2 -0.004117 0.029884 -0.005643 0.000000 0.002459 0.000000
# 3 -0.004066 -0.005643 0.008735 0.000000 -0.001230 0.000000
# 4 0.000000 0.000000 0.000000 0.033996 0.000000 -0.000662
# 5 0.003669 0.002459 -0.001230 0.000000 0.042180 0.000000
# 6 0.000000 0.000000 0.000000 -0.000662 0.000000 0.035091
#
#
# Mechanical properties :
#
#
# Convention : Reuss Voigt Hill
#
# Bulk Modulus (GPa) = 48.06324 90.95626 69.50975
# Shear Modulus (GPa) = 25.73151 30.82183 28.27667
#
# Velocity S-wave (km/s) = 3.73417 4.08687 3.91449
# Velocity P-wave (km/s) = 6.68114 8.45928 7.62224
#
# Compressibility (1/GPa) = 0.02080592
#
# Stress axis : x y z
#
# Youngs Moduli (GPa) = 101.63478 33.46228 114.48344
#
# Poissons Ratio (x) = 0.13777 0.46547
# Poissons Ratio (y) = 0.41846 0.64604
# Poissons Ratio (z) = 0.41323 0.18883
#
# Static dielectric constant tensor:
#      x y z
#    x 1.612250 0.000000 -0.020090 
#    y 0.000000 3.093460 0.000000 
#    z -0.020090 0.000000 1.625050 
# 
# From -- ./inp_files/28457.got.cif
#   From: 2010.05.17/outbox.cif.g08.bks.cpg/sg11_15_cif.got.tgz:28457.got - 2010.06.03 12:22:45.
