data_PCOD9161930
_publ_section_title
;
Structure prediction by ZEFSAII (Michael W. Deem and Ramdas Pophale) SiO2 
 PCOD9161930
Probable space group: P 21/M
;
_chemical_formula_sum "Si O2"
_cell_formula_units_Z 20
_cell_length_a 10.284033
_cell_length_b 8.228147
_cell_length_c 24.250416
_cell_angle_alpha 90.000000
_cell_angle_beta 22.945470
_cell_angle_gamma 90.000000
_cell_volume 799.995737
_symmetry_space_group_name_H-M "P 21/M"
_symmetry_group_IT_number 11
_symmetry_cell_setting 'monoclinic'
loop_
_space_group_symop_operation_xyz
x,y,z
-x,1/2+y,-z
-x,-y,-z
x,1/2-y,z
loop_
_atom_site_type_symbol
_atom_site_label
_atom_site_fract_x
_atom_site_fract_y
_atom_site_fract_z
Si Si1 0.664913 0.440905 0.660318
Si Si2 0.306221 0.057333 0.145540
Si Si3 0.786239 0.441166 0.255676
Si Si4 0.657841 0.944773 0.104892
Si Si5 0.259436 0.943019 0.545754
O O1 0.702876 0.250000 0.650548
O O2 0.338046 0.476214 0.751476
O O3 0.603383 0.510142 0.745563
O O4 0.000000 0.500000 0.500000
O O5 0.340002 0.250000 0.124223
O O6 0.099146 0.995900 0.172304
O O7 0.073920 0.023942 0.289467
O O8 0.633154 0.991929 0.049194
O O9 0.843321 0.250000 0.225099
O O10 0.437965 0.462717 0.426542
O O11 0.634726 0.750000 0.114215
O O12 0.000000 0.000000 0.000000
O O13 0.275335 0.750000 0.527478
O O14 0.500000 0.000000 0.500000
#
# Coordination Sequence:
#
# PCOD9161930 Si02
#       5
#     4   4   4   4   4
#     4  11  24  41  63  94 128 163 204 253 307 367
#     4   9  19  35  56  83 116 155 201 249 299 358
#     4  10  20  34  55  86 121 158 200 250 305 361
#     4  11  25  43  64  89 120 161 208 253 305 369
#     4   9  16  27  47  78 116 155 193 241 296 351
#
# _framework density 25.000132000000001
#
# number of rings (size 3 to 8) (size 9 to 14) (size 15 to 20)
#    0.000    2.000    0.000    4.800    0.000   11.200 
#    0.000    1.000    0.000    0.000    0.000    0.000 
#    0.000    0.000    0.000    0.000    0.000    0.000 
#
# Total GULP energy -111362.805226 kJ/mol
# GULP energy per Si atom -5568.140261 kJ/mol
# Density = 2.494323 g / cm^3
# Si number density = 25.000132 Si / 1000 Ang^3
#
#
#
# Elastic Constant Matrix: (Units=GPa)
#
#
# Indices 1 2 3 4 5 6 
#
# 1 263.3467 -272.7499 47.1439 0.0000 -14.8605 0.0000
# 2 -272.7499 2613.9581 -98.5922 0.0000 -3.2307 0.0000
# 3 47.1439 -98.5922 87.2167 0.0000 -4.6541 0.0000
# 4 0.0000 0.0000 0.0000 23.6331 0.0000 -8.5832
# 5 -14.8605 -3.2307 -4.6541 0.0000 29.2597 0.0000
# 6 0.0000 0.0000 0.0000 -8.5832 0.0000 31.9014
#
#
#
# Elastic Compliance Matrix: (Units=1/GPa)
#
#
# Indices 1 2 3 4 5 6 
#
# 1 0.004701 0.000419 -0.001954 0.000000 0.002123 0.000000
# 2 0.000419 0.000437 0.000284 0.000000 0.000307 0.000000
# 3 -0.001954 0.000284 0.012901 0.000000 0.001091 0.000000
# 4 0.000000 0.000000 0.000000 0.046896 0.000000 0.012617
# 5 0.002123 0.000307 0.001091 0.000000 0.035462 0.000000
# 6 0.000000 0.000000 0.000000 0.012617 0.000000 0.034741
#
#
# Mechanical properties :
#
#
# Convention : Reuss Voigt Hill
#
# Bulk Modulus (GPa) = 64.35198 257.34724 160.84961
# Shear Modulus (GPa) = 35.00915 236.20682 135.60799
#
# Velocity S-wave (km/s) = 3.74620 9.73074 7.37297
# Velocity P-wave (km/s) = 6.67147 15.14634 11.70299
#
# Compressibility (1/GPa) = 0.01553954
#
# Stress axis : x y z
#
# Youngs Moduli (GPa) = 212.70675 2286.09964 77.51264
#
# Poissons Ratio (x) = -0.95899 0.15144
# Poissons Ratio (y) = -0.08923 -0.02202
# Poissons Ratio (z) = 0.41557 -0.64945
#
# Static dielectric constant tensor:
#      x y z
#    x 2.067810 0.000000 0.066690 
#    y 0.000000 1.875330 0.000000 
#    z 0.066690 0.000000 1.686190 
# 
# From -- ./inp_files/72944.got.cif
#   From: 2010.05.17/outbox.cif.g08.bks.cpg/sg11_37_cif.got.tgz:72944.got - 2010.06.03 12:22:45.
