data_PCOD9161478
_publ_section_title
;
Structure prediction by ZEFSAII (Michael W. Deem and Ramdas Pophale) SiO2 
 PCOD9161478
Probable space group: P 21/M
;
_chemical_formula_sum "Si O2"
_cell_formula_units_Z 24
_cell_length_a 5.471139
_cell_length_b 14.571903
_cell_length_c 14.035791
_cell_angle_alpha 90.000000
_cell_angle_beta 98.543679
_cell_angle_gamma 90.000000
_cell_volume 1106.584445
_symmetry_space_group_name_H-M "P 21/M"
_symmetry_group_IT_number 11
_symmetry_cell_setting 'monoclinic'
loop_
_space_group_symop_operation_xyz
x,y,z
-x,1/2+y,-z
-x,-y,-z
x,1/2-y,z
loop_
_atom_site_type_symbol
_atom_site_label
_atom_site_fract_x
_atom_site_fract_y
_atom_site_fract_z
Si Si1 0.400394 0.647376 0.995156
Si Si2 0.044978 0.400296 0.547130
Si Si3 0.696552 0.479573 0.303690
Si Si4 0.977633 0.351671 0.200791
Si Si5 0.514603 0.149559 0.449384
Si Si6 0.672637 0.987766 0.886315
O O1 0.469412 0.750000 0.029698
O O2 0.235330 0.656501 0.890987
O O3 0.620781 0.581839 0.971377
O O4 0.261332 0.585905 0.065611
O O5 0.154796 0.430668 0.655245
O O6 0.272283 0.356734 0.501721
O O7 0.000000 0.500000 0.500000
O O8 0.774967 0.355218 0.522930
O O9 0.870134 0.391386 0.292179
O O10 0.521203 0.437030 0.376608
O O11 0.559672 0.501063 0.197346
O O12 0.090395 0.250000 0.216621
O O13 0.145005 0.431883 0.169611
O O14 0.509923 0.250000 0.400906
#
# Coordination Sequence:
#
# PCOD9161478 Si02
#       6
#     4   4   4   4   4   4
#     4   9  19  37  54  81 116 153 198 239 296 367
#     4  10  22  40  62  86 121 165 201 245 313 377
#     4  10  22  36  57  85 118 150 199 250 314 360
#     4  10  20  33  56  87 117 149 196 250 303 361
#     4  11  23  40  63  90 121 162 209 257 309 369
#     4  10  20  34  59  84 113 157 191 249 303 361
#
# _framework density 21.688358999999998
#
# number of rings (size 3 to 8) (size 9 to 14) (size 15 to 20)
#    0.000    2.000    0.000    4.000    7.000    2.000 
#    0.000    1.667    0.000    0.000    0.000    0.000 
#    0.000    0.000    0.000    0.000    0.000    0.000 
#
# Total GULP energy -133744.719596 kJ/mol
# GULP energy per Si atom -5572.696650 kJ/mol
# Density = 2.163900 g / cm^3
# Si number density = 21.688359 Si / 1000 Ang^3
#
#
#
# Elastic Constant Matrix: (Units=GPa)
#
#
# Indices 1 2 3 4 5 6 
#
# 1 78.1905 22.2956 16.9551 0.0000 -8.0394 0.0000
# 2 22.2956 115.4902 28.8913 0.0000 -1.6919 0.0000
# 3 16.9551 28.8913 58.4396 0.0000 -1.7866 0.0000
# 4 0.0000 0.0000 0.0000 17.9724 0.0000 0.4557
# 5 -8.0394 -1.6919 -1.7866 0.0000 20.2329 0.0000
# 6 0.0000 0.0000 0.0000 0.4557 0.0000 -1.4135
#
#
#
# Elastic Compliance Matrix: (Units=1/GPa)
#
#
# Indices 1 2 3 4 5 6 
#
# 1 0.014569 -0.001960 -0.003094 0.000000 0.005352 0.000000
# 2 -0.001960 0.010148 -0.004458 0.000000 -0.000324 0.000000
# 3 -0.003094 -0.004458 0.020219 0.000000 0.000183 0.000000
# 4 0.000000 0.000000 0.000000 0.055190 0.000000 0.017791
# 5 0.005352 -0.000324 0.000183 0.000000 0.051540 0.000000
# 6 0.000000 0.000000 0.000000 0.017791 0.000000 -0.701718
#
#
# Mechanical properties :
#
#
# Convention : Reuss Voigt Hill
#
# Bulk Modulus (GPa) = 38.59354 43.15603 40.87478
# Shear Modulus (GPa) = -9.57140 19.62358 5.02609
#
# Velocity S-wave (km/s) = -2.10303 3.01125 1.52396
# Velocity P-wave (km/s) = 3.45489 5.65965 4.68870
#
# Compressibility (1/GPa) = 0.02591108
#
# Stress axis : x y z
#
# Youngs Moduli (GPa) = 68.63657 98.54523 49.45848
#
# Poissons Ratio (x) = 0.19317 0.15304
# Poissons Ratio (y) = 0.13454 0.22048
# Poissons Ratio (z) = 0.21239 0.43931
#
# Static dielectric constant tensor:
#      x y z
#    x 1.926470 0.000000 0.015990 
#    y 0.000000 1.842900 0.000000 
#    z 0.015990 0.000000 1.863260 
# 
# From -- ./inp_files/45744.got.cif
#   From: 2010.05.17/outbox.cif.g08.bks.cpg/sg11_23_cif.got.tgz:45744.got - 2010.06.03 12:22:45.
