data_PCOD9161454
_publ_section_title
;
Structure prediction by ZEFSAII (Michael W. Deem and Ramdas Pophale) SiO2 
 PCOD9161454
Probable space group: P 21/M
;
_chemical_formula_sum "Si O2"
_cell_formula_units_Z 30
_cell_length_a 15.416759
_cell_length_b 7.378835
_cell_length_c 9.800824
_cell_angle_alpha 90.000000
_cell_angle_beta 81.151258
_cell_angle_gamma 90.000000
_cell_volume 1101.649494
_symmetry_space_group_name_H-M "P 21/M"
_symmetry_group_IT_number 11
_symmetry_cell_setting 'monoclinic'
loop_
_space_group_symop_operation_xyz
x,y,z
-x,1/2+y,-z
-x,-y,-z
x,1/2-y,z
loop_
_atom_site_type_symbol
_atom_site_label
_atom_site_fract_x
_atom_site_fract_y
_atom_site_fract_z
Si Si1 0.891017 0.466038 0.778528
Si Si2 0.308396 0.969385 0.123886
Si Si3 0.455340 0.250000 0.621499
Si Si4 0.076224 0.533293 0.810965
Si Si5 0.141955 0.969396 0.502630
Si Si6 0.334673 0.540326 0.536776
Si Si7 0.510844 0.548151 0.835401
Si Si8 0.255858 0.962576 0.860428
O O1 0.885260 0.250000 0.776302
O O2 0.792383 0.525800 0.831981
O O3 0.906975 0.534370 0.620548
O O4 0.973475 0.502000 0.855225
O O5 0.315798 0.750000 0.138656
O O6 0.382892 0.048749 0.200243
O O7 0.319512 0.029571 0.962754
O O8 0.414539 0.405695 0.525559
O O9 0.477695 0.407253 0.732375
O O10 0.086199 0.750000 0.809024
O O11 0.100373 0.463814 0.653062
O O12 0.156751 0.461798 0.882106
O O13 0.137312 0.750000 0.508710
O O14 0.246991 0.005337 0.471623
O O15 0.363432 0.750000 0.502275
O O16 0.293802 0.525069 0.700341
O O17 0.473943 0.750000 0.821564
O O18 0.500000 0.500000 0.000000
O O19 0.246858 0.750000 0.894611
#
# Coordination Sequence:
#
# PCOD9161454 Si02
#       8
#     4   4   2   4   4   4   4   4
#     4  10  20  33  54  83 117 155 197 248 294 350
#     4  10  20  37  56  81 115 158 200 239 299 361
#     4  12  22  36  60  92 116 146 192 248 302 354
#     4   9  17  32  52  78 113 154 203 245 291 341
#     4   8  16  34  56  82 114 157 197 247 298 343
#     4   9  18  35  59  86 117 152 195 246 303 349
#     4  12  24  40  61  90 123 155 194 244 299 360
#     4   8  16  32  54  74 112 158 191 236 289 347
#
# _framework density 27.231891000000001
#
# number of rings (size 3 to 8) (size 9 to 14) (size 15 to 20)
#    0.000    2.400    1.333    3.200    0.000    2.133 
#    6.000    0.000    0.000    0.800    0.000    0.000 
#    0.000    0.000    0.000    0.000    0.000    0.000 
#
# Total GULP energy -167367.684287 kJ/mol
# GULP energy per Si atom -5578.922810 kJ/mol
# Density = 2.716991 g / cm^3
# Si number density = 27.231891 Si / 1000 Ang^3
#
#
#
# Elastic Constant Matrix: (Units=GPa)
#
#
# Indices 1 2 3 4 5 6 
#
# 1 132.5417 43.2157 38.1500 0.0000 43.5775 0.0000
# 2 43.2157 134.9377 6.4565 0.0000 -0.4147 0.0000
# 3 38.1500 6.4565 74.9728 0.0000 17.0078 0.0000
# 4 0.0000 0.0000 0.0000 4.2489 0.0000 12.3947
# 5 43.5775 -0.4147 17.0078 0.0000 50.2505 0.0000
# 6 0.0000 0.0000 0.0000 12.3947 0.0000 23.5680
#
#
#
# Elastic Compliance Matrix: (Units=1/GPa)
#
#
# Indices 1 2 3 4 5 6 
#
# 1 0.013493 -0.004154 -0.004166 0.000000 -0.010326 0.000000
# 2 -0.004154 0.008724 0.000573 0.000000 0.003480 0.000000
# 3 -0.004166 0.000573 0.015801 0.000000 -0.001731 0.000000
# 4 0.000000 0.000000 0.000000 -0.440596 0.000000 0.231715
# 5 -0.010326 0.003480 -0.001731 0.000000 0.029469 0.000000
# 6 0.000000 0.000000 0.000000 0.231715 0.000000 -0.079431
#
#
# Mechanical properties :
#
#
# Convention : Reuss Voigt Hill
#
# Bulk Modulus (GPa) = 44.39488 57.56630 50.98059
# Shear Modulus (GPa) = -11.64045 32.58881 10.47418
#
# Velocity S-wave (km/s) = -2.06974 3.46311 1.96332
# Velocity P-wave (km/s) = 3.25978 6.09721 4.88887
#
# Compressibility (1/GPa) = 0.02252512
#
# Stress axis : x y z
#
# Youngs Moduli (GPa) = 74.11195 114.62093 63.28606
#
# Poissons Ratio (x) = 0.47611 0.26364
# Poissons Ratio (y) = 0.30784 -0.03625
# Poissons Ratio (z) = 0.30874 -0.06565
#
# Static dielectric constant tensor:
#      x y z
#    x 2.233460 0.000000 -0.107620 
#    y 0.000000 2.095650 0.000000 
#    z -0.107620 0.000000 2.184990 
# 
# From -- ./inp_files/37622.got.cif
#   From: 2010.05.17/outbox.cif.g08.bks.cpg/sg11_19_cif.got.tgz:37622.got - 2010.06.03 12:22:45.
