data_PCOD9161300
_publ_section_title
;
Structure prediction by ZEFSAII (Michael W. Deem and Ramdas Pophale) SiO2 
 PCOD9161300
Probable space group: P 21/M
;
_chemical_formula_sum "Si O2"
_cell_formula_units_Z 20
_cell_length_a 17.941510
_cell_length_b 8.531549
_cell_length_c 16.915095
_cell_angle_alpha 90.000000
_cell_angle_beta 24.231745
_cell_angle_gamma 90.000000
_cell_volume 1062.670583
_symmetry_space_group_name_H-M "P 21/M"
_symmetry_group_IT_number 11
_symmetry_cell_setting 'monoclinic'
loop_
_space_group_symop_operation_xyz
x,y,z
-x,1/2+y,-z
-x,-y,-z
x,1/2-y,z
loop_
_atom_site_type_symbol
_atom_site_label
_atom_site_fract_x
_atom_site_fract_y
_atom_site_fract_z
Si Si1 0.246494 0.064252 0.178377
Si Si2 0.639265 0.560171 0.758807
Si Si3 0.051714 0.062058 0.651070
Si Si4 0.977501 0.439707 0.899598
Si Si5 0.702352 0.562478 0.289916
O O1 0.219404 0.250000 0.200395
O O2 0.252421 0.018754 0.265290
O O3 0.096963 0.981441 0.270149
O O4 0.444067 0.018327 0.954059
O O5 0.617281 0.750000 0.779805
O O6 0.755088 0.509853 0.571064
O O7 0.060627 0.250000 0.647783
O O8 0.000338 0.003496 0.787708
O O9 0.968040 0.250000 0.909248
O O10 0.155394 0.485854 0.778569
O O11 0.799160 0.502660 0.116340
O O12 0.500000 0.500000 0.500000
O O13 0.695838 0.750000 0.295070
#
# Coordination Sequence:
#
# PCOD9161300 Si02
#       5
#     4   4   4   4   4
#     4  10  20  33  51  77 107 138 176 221 265 309
#     4   9  19  35  53  74 103 142 182 216 258 313
#     4  10  20  35  55  76 102 138 177 217 261 310
#     4   9  20  37  55  78 105 135 175 216 256 311
#     4  10  20  36  58  81 107 138 171 210 259 313
#
# _framework density 18.820508
#
# number of rings (size 3 to 8) (size 9 to 14) (size 15 to 20)
#    0.000    2.400    0.000    1.800    0.000    4.800 
#    0.000    4.000    0.000    0.000    0.000    0.000 
#    0.000    0.000    0.000    0.000    0.000    0.000 
#
# Total GULP energy -111607.318907 kJ/mol
# GULP energy per Si atom -5580.365945 kJ/mol
# Density = 1.877767 g / cm^3
# Si number density = 18.820508 Si / 1000 Ang^3
#
#
#
# Elastic Constant Matrix: (Units=GPa)
#
#
# Indices 1 2 3 4 5 6 
#
# 1 39.1658 12.6011 50.3466 0.0000 23.8188 0.0000
# 2 12.6011 5.9148 17.4423 0.0000 9.9724 0.0000
# 3 50.3466 17.4423 135.3225 0.0000 26.3413 0.0000
# 4 0.0000 0.0000 0.0000 30.3952 0.0000 -2.1045
# 5 23.8188 9.9724 26.3413 0.0000 27.5127 0.0000
# 6 0.0000 0.0000 0.0000 -2.1045 0.0000 25.2994
#
#
#
# Elastic Compliance Matrix: (Units=1/GPa)
#
#
# Indices 1 2 3 4 5 6 
#
# 1 0.106778 -0.122708 -0.017912 0.000000 -0.030815 0.000000
# 2 -0.122708 0.717681 -0.020763 0.000000 -0.134021 0.000000
# 3 -0.017912 -0.020763 0.015052 0.000000 0.008622 0.000000
# 4 0.000000 0.000000 0.000000 0.033091 0.000000 0.002753
# 5 -0.030815 -0.134021 0.008622 0.000000 0.103348 0.000000
# 6 0.000000 0.000000 0.000000 0.002753 0.000000 0.039756
#
#
# Mechanical properties :
#
#
# Convention : Reuss Voigt Hill
#
# Bulk Modulus (GPa) = 1.93520 37.90921 19.92220
# Shear Modulus (GPa) = 3.30968 23.30900 13.30934
#
# Velocity S-wave (km/s) = 1.32754 3.52304 2.66216
# Velocity P-wave (km/s) = 1.83856 6.06096 4.47859
#
# Compressibility (1/GPa) = 0.51674369
#
# Stress axis : x y z
#
# Youngs Moduli (GPa) = 9.36524 1.39338 66.43721
#
# Poissons Ratio (x) = 0.17098 1.19002
# Poissons Ratio (y) = 1.14919 1.37946
# Poissons Ratio (z) = 0.16775 0.02893
#
# Static dielectric constant tensor:
#      x y z
#    x 1.653840 0.000000 0.017410 
#    y 0.000000 1.662270 0.000000 
#    z 0.017410 0.000000 1.637650 
# 
# From -- ./inp_files/7452.got.cif
#   From: 2010.05.17/outbox.cif.g08.bks.cpg/sg11_4_cif.got.tgz:7452.got - 2010.06.03 12:22:45.
