data_PCOD9161218
_publ_section_title
;
Structure prediction by ZEFSAII (Michael W. Deem and Ramdas Pophale) SiO2 
 PCOD9161218
Probable space group: P 21/M
;
_chemical_formula_sum "Si O2"
_cell_formula_units_Z 32
_cell_length_a 25.517475
_cell_length_b 7.400716
_cell_length_c 9.369896
_cell_angle_alpha 90.000000
_cell_angle_beta 123.421430
_cell_angle_gamma 90.000000
_cell_volume 1476.884036
_symmetry_space_group_name_H-M "P 21/M"
_symmetry_group_IT_number 11
_symmetry_cell_setting 'monoclinic'
loop_
_space_group_symop_operation_xyz
x,y,z
-x,1/2+y,-z
-x,-y,-z
x,1/2-y,z
loop_
_atom_site_type_symbol
_atom_site_label
_atom_site_fract_x
_atom_site_fract_y
_atom_site_fract_z
Si Si1 0.063224 0.966070 0.507032
Si Si2 0.063224 0.533930 0.182641
Si Si3 0.570572 0.034191 0.768641
Si Si4 0.691120 0.470867 0.450509
Si Si5 0.185059 0.970801 0.192076
Si Si6 0.185059 0.529199 0.863100
Si Si7 0.570571 0.034191 0.443073
Si Si8 0.691120 0.029133 0.122850
O O1 0.070251 0.750000 0.508158
O O2 0.059615 0.035703 0.339423
O O3 0.123959 0.032419 0.684373
O O4 0.000000 0.000000 0.500000
O O5 0.070251 0.750000 0.202594
O O6 0.123959 0.467581 0.187503
O O7 0.000000 0.500000 0.000000
O O8 0.577827 0.250000 0.771430
O O9 0.575049 0.963836 0.612573
O O10 0.500000 0.000001 0.715919
O O11 0.626674 0.967819 0.952049
O O12 0.690898 0.250000 0.449495
O O13 0.751335 0.526343 0.632994
O O14 0.626674 0.532180 0.427974
O O15 0.695910 0.528750 0.293865
O O16 0.184553 0.750000 0.190577
O O17 0.183425 0.028574 0.025138
O O18 0.184553 0.750000 0.863082
O O19 0.248664 0.473657 0.878987
O O20 0.577826 0.250000 0.462050
O O21 0.690898 0.250000 0.123198
#
# Coordination Sequence:
#
# PCOD9161218 Si02
#       8
#     4   4   4   4   4   4   4   4
#     4  10  20  33  50  73 100 129 161 197 238 284
#     4  10  20  33  50  73 100 129 161 197 238 284
#     4   9  17  29  45  65  89 117 148 182 222 268
#     4   9  16  26  42  65  91 117 148 188 230 270
#     4   9  16  27  45  68  93 121 154 193 235 276
#     4   9  16  27  45  68  93 121 154 193 235 276
#     4   9  17  29  45  65  89 117 148 182 222 268
#     4   9  16  26  42  65  91 117 148 188 230 270
#
# _framework density 21.667238000000001
#
# number of rings (size 3 to 8) (size 9 to 14) (size 15 to 20)
#    0.000    2.750    0.000    2.250    0.000    8.000 
#    0.000    0.000    0.000    1.500    0.000    3.500 
#    0.000    0.000    0.000    0.000    0.000    0.000 
#
# Total GULP energy -178794.637608 kJ/mol
# GULP energy per Si atom -5587.332425 kJ/mol
# Density = 2.161792 g / cm^3
# Si number density = 21.667238 Si / 1000 Ang^3
#
#
#
# Elastic Constant Matrix: (Units=GPa)
#
#
# Indices 1 2 3 4 5 6 
#
# 1 247.7245 2.6081 159.5767 0.0000 2.7774 0.0000
# 2 2.6081 73.3448 5.1320 0.0000 -3.2659 0.0000
# 3 159.5767 5.1320 241.0632 0.0000 5.8470 0.0000
# 4 0.0000 0.0000 0.0000 6.0408 0.0000 7.9306
# 5 2.7774 -3.2659 5.8470 0.0000 39.0290 0.0000
# 6 0.0000 0.0000 0.0000 7.9306 0.0000 12.1682
#
#
#
# Elastic Compliance Matrix: (Units=1/GPa)
#
#
# Indices 1 2 3 4 5 6 
#
# 1 0.007040 0.000085 -0.004667 0.000000 0.000205 0.000000
# 2 0.000085 0.013711 -0.000377 0.000000 0.001198 0.000000
# 3 -0.004667 -0.000377 0.007265 0.000000 -0.000788 0.000000
# 4 0.000000 0.000000 0.000000 1.146730 0.000000 -0.747382
# 5 0.000205 0.001198 -0.000788 0.000000 0.025826 0.000000
# 6 0.000000 0.000000 0.000000 -0.747382 0.000000 0.569288
#
#
# Mechanical properties :
#
#
# Convention : Reuss Voigt Hill
#
# Bulk Modulus (GPa) = 55.25625 99.64067 77.44846
# Shear Modulus (GPa) = 2.79985 37.76865 20.28425
#
# Velocity S-wave (km/s) = 1.13799 4.17960 3.06301
# Velocity P-wave (km/s) = 5.22343 8.32939 6.95208
#
# Compressibility (1/GPa) = 0.01809750
#
# Stress axis : x y z
#
# Youngs Moduli (GPa) = 142.04805 72.93449 137.64934
#
# Poissons Ratio (x) = -0.00623 0.64241
# Poissons Ratio (y) = -0.01213 0.05196
# Poissons Ratio (z) = 0.66294 0.02753
#
# Static dielectric constant tensor:
#      x y z
#    x 1.752480 0.000000 -0.027250 
#    y 0.000000 1.867830 0.000000 
#    z -0.027250 0.000000 1.773530 
# 
# From -- ./inp_files/26407.got.cif
#   From: 2010.05.17/outbox.cif.g08.bks.cpg/sg11_14_cif.got.tgz:26407.got - 2010.06.03 12:22:45.
