data_PCOD9161763
_publ_section_title
;
Structure prediction by ZEFSAII (Michael W. Deem and Ramdas Pophale) SiO2 
 PCOD9161763
Probable space group: P 21/M
;
_chemical_formula_sum "Si O2"
_cell_formula_units_Z 32
_cell_length_a 33.470554
_cell_length_b 9.124998
_cell_length_c 12.073156
_cell_angle_alpha 90.000000
_cell_angle_beta 25.159932
_cell_angle_gamma 90.000000
_cell_volume 1567.671355
_symmetry_space_group_name_H-M "P 21/M"
_symmetry_group_IT_number 11
_symmetry_cell_setting 'monoclinic'
loop_
_space_group_symop_operation_xyz
x,y,z
-x,1/2+y,-z
-x,-y,-z
x,1/2-y,z
loop_
_atom_site_type_symbol
_atom_site_label
_atom_site_fract_x
_atom_site_fract_y
_atom_site_fract_z
Si Si1 0.436478 0.417964 0.813921
Si Si2 0.061415 0.926955 0.249340
Si Si3 0.355514 0.920473 0.813560
Si Si4 0.007443 0.579373 0.801772
Si Si5 0.408749 0.579014 0.276042
Si Si6 0.142954 0.080268 0.619915
Si Si7 0.268932 0.928158 0.809990
Si Si8 0.676625 0.081273 0.741143
O O1 0.415236 0.250000 0.893782
O O2 0.542591 0.424370 0.502839
O O3 0.368823 0.479454 0.887019
O O4 0.417729 0.518921 0.966275
O O5 0.053283 0.750000 0.270927
O O6 0.027827 0.990679 0.216154
O O7 0.169835 0.966378 0.004289
O O8 0.000000 0.000000 0.500000
O O9 0.337690 0.750000 0.888956
O O10 0.281820 0.971703 0.905698
O O11 0.022244 0.750000 0.736105
O O12 0.099740 0.509863 0.626229
O O13 0.929399 0.571104 0.095002
O O14 0.432613 0.750000 0.235697
O O15 0.355949 0.519027 0.516559
O O16 0.333066 0.572531 0.366260
O O17 0.500000 0.500000 0.000000
O O18 0.152707 0.250000 0.564923
O O19 0.239267 0.013465 0.421924
O O20 0.274974 0.750000 0.795024
O O21 0.689727 0.250000 0.738980
#
# Coordination Sequence:
#
# PCOD9161763 Si02
#       8
#     4   4   4   4   4   4   4   4
#     4  10  20  34  54  79 110 145 184 235 285 335
#     4  11  23  40  61  84 115 155 200 248 295 347
#     4   9  18  35  57  78 104 143 190 235 284 340
#     4  10  21  39  61  85 114 146 184 232 291 353
#     4  10  21  37  58  86 118 153 191 231 282 342
#     4  10  21  37  60  87 113 145 186 234 286 342
#     4   9  19  37  60  82 109 150 193 233 283 343
#     4  11  22  35  54  82 116 150 186 228 279 341
#
# _framework density 20.412441000000001
#
# number of rings (size 3 to 8) (size 9 to 14) (size 15 to 20)
#    0.000    2.000    0.000    3.375    0.000    6.000 
#    0.000    6.875    0.000    0.000    0.000    0.000 
#    0.000    0.000    0.000    0.000    0.000    0.000 
#
# Total GULP energy -178791.818450 kJ/mol
# GULP energy per Si atom -5587.244327 kJ/mol
# Density = 2.036598 g / cm^3
# Si number density = 20.412441 Si / 1000 Ang^3
#
#
#
# Elastic Constant Matrix: (Units=GPa)
#
#
# Indices 1 2 3 4 5 6 
#
# 1 108.3123 35.4416 9.1567 0.0000 -9.3944 0.0000
# 2 35.4416 83.0619 22.3835 0.0000 -6.5309 0.0000
# 3 9.1567 22.3835 46.7731 0.0000 -11.3184 0.0000
# 4 0.0000 0.0000 0.0000 27.9456 0.0000 1.2020
# 5 -9.3944 -6.5309 -11.3184 0.0000 29.1744 0.0000
# 6 0.0000 0.0000 0.0000 1.2020 0.0000 29.9119
#
#
#
# Elastic Compliance Matrix: (Units=1/GPa)
#
#
# Indices 1 2 3 4 5 6 
#
# 1 0.010931 -0.004650 0.000756 0.000000 0.002772 0.000000
# 2 -0.004650 0.015809 -0.006799 0.000000 -0.000596 0.000000
# 3 0.000756 -0.006799 0.026681 0.000000 0.009072 0.000000
# 4 0.000000 0.000000 0.000000 0.035846 0.000000 -0.001440
# 5 0.002772 -0.000596 0.009072 0.000000 0.038556 0.000000
# 6 0.000000 0.000000 0.000000 -0.001440 0.000000 0.033489
#
#
# Mechanical properties :
#
#
# Convention : Reuss Voigt Hill
#
# Bulk Modulus (GPa) = 31.21645 41.34566 36.28106
# Shear Modulus (GPa) = 25.85653 28.81742 27.33698
#
# Velocity S-wave (km/s) = 3.56294 3.76141 3.66352
# Velocity P-wave (km/s) = 5.67909 6.25807 5.97560
#
# Compressibility (1/GPa) = 0.03203439
#
# Stress axis : x y z
#
# Youngs Moduli (GPa) = 91.48666 63.25675 37.47984
#
# Poissons Ratio (x) = 0.29413 -0.02834
# Poissons Ratio (y) = 0.42539 0.25484
# Poissons Ratio (z) = -0.06918 0.43010
#
# Static dielectric constant tensor:
#      x y z
#    x 1.735200 0.000000 0.000820 
#    y 0.000000 1.695190 0.000000 
#    z 0.000820 0.000000 1.742240 
# 
# From -- ./inp_files/45161.got.cif
#   From: 2010.05.17/outbox.cif.g08.bks.cpg/sg11_23_cif.got.tgz:45161.got - 2010.06.03 12:22:45.
