data_PCOD9161659
_publ_section_title
;
Structure prediction by ZEFSAII (Michael W. Deem and Ramdas Pophale) SiO2 
 PCOD9161659
Probable space group: P 21/M
;
_chemical_formula_sum "Si O2"
_cell_formula_units_Z 24
_cell_length_a 18.694709
_cell_length_b 9.408506
_cell_length_c 6.398534
_cell_angle_alpha 90.000000
_cell_angle_beta 89.513681
_cell_angle_gamma 90.000000
_cell_volume 1125.393010
_symmetry_space_group_name_H-M "P 21/M"
_symmetry_group_IT_number 11
_symmetry_cell_setting 'monoclinic'
loop_
_space_group_symop_operation_xyz
x,y,z
-x,1/2+y,-z
-x,-y,-z
x,1/2-y,z
loop_
_atom_site_type_symbol
_atom_site_label
_atom_site_fract_x
_atom_site_fract_y
_atom_site_fract_z
Si Si1 0.890805 0.911363 0.989941
Si Si2 0.555228 0.088105 0.638396
Si Si3 0.030009 0.910544 0.692459
Si Si4 0.774880 0.911767 0.660475
Si Si5 0.695517 0.088942 0.342990
Si Si6 0.636047 0.588501 0.957079
O O1 0.869668 0.750000 0.051104
O O2 0.832584 0.966602 0.826199
O O3 0.964521 0.901978 0.858353
O O4 0.906756 0.008286 0.188488
O O5 0.531063 0.250000 0.677545
O O6 0.628569 0.096802 0.503885
O O7 0.500000 0.000000 0.500000
O O8 0.574183 0.002949 0.848410
O O9 0.049335 0.750000 0.629855
O O10 0.000000 0.000000 0.500000
O O11 0.795815 0.750000 0.598768
O O12 0.700526 0.902334 0.788477
O O13 0.759430 0.011866 0.465082
O O14 0.713277 0.250000 0.277141
O O15 0.668261 0.993102 0.153664
O O16 0.614155 0.750000 0.008182
#
# Coordination Sequence:
#
# PCOD9161659 Si02
#       6
#     4   4   4   4   4   4
#     4   9  19  36  55  75 102 136 174 215 257 303
#     4  10  21  37  56  78 105 137 173 213 256 302
#     4  10  20  34  53  76 104 137 172 213 259 307
#     4   9  19  36  56  77 102 135 175 215 255 303
#     4  10  21  36  54  78 108 138 169 210 258 307
#     4  10  20  35  56  79 104 136 173 213 256 304
#
# _framework density 21.325882
#
# number of rings (size 3 to 8) (size 9 to 14) (size 15 to 20)
#    0.000    2.333    0.000    2.000    0.000    6.000 
#    0.000    6.667    0.000    0.000    0.000    0.000 
#    0.000    0.000    0.000    0.000    0.000    0.000 
#
# Total GULP energy -134065.080469 kJ/mol
# GULP energy per Si atom -5586.045020 kJ/mol
# Density = 2.127734 g / cm^3
# Si number density = 21.325882 Si / 1000 Ang^3
#
#
#
# Elastic Constant Matrix: (Units=GPa)
#
#
# Indices 1 2 3 4 5 6 
#
# 1 52.7878 23.4859 23.1468 0.0000 26.6055 0.0000
# 2 23.4859 209.4384 124.1112 0.0000 51.6099 0.0000
# 3 23.1468 124.1112 156.2242 0.0000 61.6611 0.0000
# 4 0.0000 0.0000 0.0000 34.0067 0.0000 11.7296
# 5 26.6055 51.6099 61.6611 0.0000 58.6072 0.0000
# 6 0.0000 0.0000 0.0000 11.7296 0.0000 20.1417
#
#
#
# Elastic Compliance Matrix: (Units=1/GPa)
#
#
# Indices 1 2 3 4 5 6 
#
# 1 0.024798 -0.000843 0.001959 0.000000 -0.012577 0.000000
# 2 -0.000843 0.009067 -0.006974 0.000000 -0.000265 0.000000
# 3 0.001959 -0.006974 0.016381 0.000000 -0.011982 0.000000
# 4 0.000000 0.000000 0.000000 0.036797 0.000000 -0.021429
# 5 -0.012577 -0.000265 -0.011982 0.000000 0.035612 0.000000
# 6 0.000000 0.000000 0.000000 -0.021429 0.000000 0.062127
#
#
# Mechanical properties :
#
#
# Convention : Reuss Voigt Hill
#
# Bulk Modulus (GPa) = 25.95298 84.43757 55.19527
# Shear Modulus (GPa) = 23.88448 39.06488 31.47468
#
# Velocity S-wave (km/s) = 3.35024 4.28460 3.84590
# Velocity P-wave (km/s) = 5.21168 8.00981 6.75717
#
# Compressibility (1/GPa) = 0.03853122
#
# Stress axis : x y z
#
# Youngs Moduli (GPa) = 40.32515 110.28887 61.04807
#
# Poissons Ratio (x) = 0.09294 -0.11961
# Poissons Ratio (y) = 0.03398 0.42575
# Poissons Ratio (z) = -0.07901 0.76915
#
# Static dielectric constant tensor:
#      x y z
#    x 1.791890 0.000000 -0.028240 
#    y 0.000000 1.772880 0.000000 
#    z -0.028240 0.000000 1.740030 
# 
# From -- ./inp_files/9259.got.cif
#   From: 2010.05.17/outbox.cif.g08.bks.cpg/sg11_5_cif.got.tgz:9259.got - 2010.06.03 12:22:45.
