data_PCOD9161252
_publ_section_title
;
Structure prediction by ZEFSAII (Michael W. Deem and Ramdas Pophale) SiO2 
 PCOD9161252
Probable space group: P 21/M
;
_chemical_formula_sum "Si O2"
_cell_formula_units_Z 20
_cell_length_a 17.500531
_cell_length_b 10.112747
_cell_length_c 5.296529
_cell_angle_alpha 90.000000
_cell_angle_beta 96.856694
_cell_angle_gamma 90.000000
_cell_volume 930.667242
_symmetry_space_group_name_H-M "P 21/M"
_symmetry_group_IT_number 11
_symmetry_cell_setting 'monoclinic'
loop_
_space_group_symop_operation_xyz
x,y,z
-x,1/2+y,-z
-x,-y,-z
x,1/2-y,z
loop_
_atom_site_type_symbol
_atom_site_label
_atom_site_fract_x
_atom_site_fract_y
_atom_site_fract_z
Si Si1 0.049627 0.108721 0.783789
Si Si2 0.574672 0.911050 0.579827
Si Si3 0.114447 0.900215 0.428153
Si Si4 0.333611 0.091880 0.877390
Si Si5 0.804466 0.897396 0.833308
O O1 0.061383 0.250000 0.642343
O O2 0.958562 0.105699 0.795643
O O3 0.076602 0.982668 0.638514
O O4 0.108724 0.118419 0.034823
O O5 0.561297 0.750000 0.560739
O O6 0.635819 0.949862 0.383918
O O7 0.500000 0.000000 0.500000
O O8 0.608174 0.941761 0.870643
O O9 0.134693 0.750000 0.498638
O O10 0.186278 0.985637 0.361235
O O11 0.332276 0.250000 0.860982
O O12 0.249859 0.058468 0.957134
O O13 0.778078 0.750000 0.733775
#
# Coordination Sequence:
#
# PCOD9161252 Si02
#       5
#     4   4   4   4   4
#     4   9  19  34  53  75 102 144 195 234 277 336
#     4  10  20  38  61  88 115 147 184 227 278 336
#     4  10  20  33  50  76 109 144 184 237 289 335
#     4   9  20  35  59  88 115 146 189 234 276 332
#     4  10  20  34  55  78 104 144 189 236 279 331
#
# _framework density 21.489958000000001
#
# number of rings (size 3 to 8) (size 9 to 14) (size 15 to 20)
#    0.000    2.400    0.000    1.800    2.800    1.600 
#    0.000    2.000    0.000    0.000    0.000    0.000 
#    0.000    0.000    0.000    0.000    0.000    0.000 
#
# Total GULP energy -111428.706876 kJ/mol
# GULP energy per Si atom -5571.435344 kJ/mol
# Density = 2.144105 g / cm^3
# Si number density = 21.489958 Si / 1000 Ang^3
#
#
#
# Elastic Constant Matrix: (Units=GPa)
#
#
# Indices 1 2 3 4 5 6 
#
# 1 58.2062 37.7408 12.3494 0.0000 -9.0146 0.0000
# 2 37.7408 130.4742 18.2822 0.0000 -17.3505 0.0000
# 3 12.3494 18.2822 51.7638 0.0000 -7.3460 0.0000
# 4 0.0000 0.0000 0.0000 20.8519 0.0000 -6.5623
# 5 -9.0146 -17.3505 -7.3460 0.0000 35.7125 0.0000
# 6 0.0000 0.0000 0.0000 -6.5623 0.0000 23.7388
#
#
#
# Elastic Compliance Matrix: (Units=1/GPa)
#
#
# Indices 1 2 3 4 5 6 
#
# 1 0.021764 -0.005599 -0.002906 0.000000 0.002176 0.000000
# 2 -0.005599 0.009934 -0.001739 0.000000 0.003055 0.000000
# 3 -0.002906 -0.001739 0.021016 0.000000 0.002744 0.000000
# 4 0.000000 0.000000 0.000000 0.052527 0.000000 0.014520
# 5 0.002176 0.003055 0.002744 0.000000 0.030599 0.000000
# 6 0.000000 0.000000 0.000000 0.014520 0.000000 0.046139
#
#
# Mechanical properties :
#
#
# Convention : Reuss Voigt Hill
#
# Bulk Modulus (GPa) = 31.03160 41.90990 36.47075
# Shear Modulus (GPa) = 23.45113 27.53209 25.49161
#
# Velocity S-wave (km/s) = 3.30701 3.58321 3.44788
# Velocity P-wave (km/s) = 5.39009 6.05505 5.73222
#
# Compressibility (1/GPa) = 0.03222521
#
# Stress axis : x y z
#
# Youngs Moduli (GPa) = 45.94699 100.66560 47.58388
#
# Poissons Ratio (x) = 0.56362 0.13828
# Poissons Ratio (y) = 0.25726 0.08276
# Poissons Ratio (z) = 0.13353 0.17507
#
# Static dielectric constant tensor:
#      x y z
#    x 1.816480 0.000000 0.029290 
#    y 0.000000 1.796260 0.000000 
#    z 0.029290 0.000000 1.856430 
# 
# From -- ./inp_files/7447.got.cif
#   From: 2010.05.17/outbox.cif.g08.bks.cpg/sg11_4_cif.got.tgz:7447.got - 2010.06.03 12:22:45.
