data_PCOD9161096
_publ_section_title
;
Structure prediction by ZEFSAII (Michael W. Deem and Ramdas Pophale) SiO2 
 PCOD9161096
Probable space group: P 21/M
;
_chemical_formula_sum "Si O2"
_cell_formula_units_Z 32
_cell_length_a 30.821089
_cell_length_b 7.399162
_cell_length_c 12.182387
_cell_angle_alpha 90.000000
_cell_angle_beta 151.862793
_cell_angle_gamma 90.000000
_cell_volume 1310.154586
_symmetry_space_group_name_H-M "P 21/M"
_symmetry_group_IT_number 11
_symmetry_cell_setting 'monoclinic'
loop_
_space_group_symop_operation_xyz
x,y,z
-x,1/2+y,-z
-x,-y,-z
x,1/2-y,z
loop_
_atom_site_type_symbol
_atom_site_label
_atom_site_fract_x
_atom_site_fract_y
_atom_site_fract_z
Si Si1 0.401427 0.034669 0.723354
Si Si2 0.125748 0.470217 0.327871
Si Si3 0.055588 0.047506 0.947435
Si Si4 0.324757 0.468290 0.773949
Si Si5 0.572119 0.043199 0.787036
Si Si6 0.252195 0.537903 0.950039
Si Si7 0.621157 0.531065 0.575859
Si Si8 0.043189 0.533074 0.478254
O O1 0.390486 0.250000 0.689991
O O2 0.333944 0.970739 0.669091
O O3 0.386263 0.964752 0.566395
O O4 0.500000 0.000000 0.000000
O O5 0.116245 0.250000 0.308132
O O6 0.043514 0.552325 0.212963
O O7 0.224669 0.518757 0.594742
O O8 0.117615 0.530338 0.182854
O O9 0.091749 0.250000 0.007014
O O10 0.028173 0.959887 0.771802
O O11 0.332074 0.250000 0.791783
O O12 0.401939 0.542156 0.026047
O O13 0.565587 0.250000 0.735728
O O14 0.661365 0.958933 0.926621
O O15 0.468958 0.966158 0.556467
O O16 0.247466 0.750000 0.911420
O O17 0.287452 0.520650 0.154172
O O18 0.148711 0.464835 0.703920
O O19 0.616663 0.750000 0.564531
O O20 0.047232 0.750000 0.470030
O O21 0.000000 0.500000 0.500000
#
# Coordination Sequence:
#
# PCOD9161096 Si02
#       8
#     4   4   4   4   4   4   4   4
#     4  10  20  35  53  76 107 141 178 217 258 311
#     4   9  18  32  52  81 110 137 175 220 266 319
#     4   9  18  35  57  78 105 140 175 217 273 324
#     4  10  20  32  51  80 111 143 178 218 265 317
#     4  10  20  36  57  81 111 145 183 226 268 321
#     4  10  22  38  56  81 111 142 183 231 276 322
#     4  10  21  36  56  82 111 146 188 225 265 320
#     4  10  22  39  58  80 107 144 185 226 276 330
#
# _framework density 24.424596999999999
#
# number of rings (size 3 to 8) (size 9 to 14) (size 15 to 20)
#    0.000    2.250    1.250    1.125    0.000    5.000 
#    0.000    2.500    0.000    0.000    0.000    0.000 
#    0.000    0.000    0.000    0.000    0.000    0.000 
#
# Total GULP energy -178700.155175 kJ/mol
# GULP energy per Si atom -5584.379849 kJ/mol
# Density = 2.436901 g / cm^3
# Si number density = 24.424597 Si / 1000 Ang^3
#
#
#
# Elastic Constant Matrix: (Units=GPa)
#
#
# Indices 1 2 3 4 5 6 
#
# 1 80.8955 1.3592 2.4811 0.0000 -24.3925 0.0000
# 2 1.3592 94.6154 -1.7672 0.0000 -1.3112 0.0000
# 3 2.4811 -1.7672 62.2403 0.0000 -11.9546 0.0000
# 4 0.0000 0.0000 0.0000 7.2762 0.0000 -3.4754
# 5 -24.3925 -1.3112 -11.9546 0.0000 46.6613 0.0000
# 6 0.0000 0.0000 0.0000 -3.4754 0.0000 12.9314
#
#
#
# Elastic Compliance Matrix: (Units=1/GPa)
#
#
# Indices 1 2 3 4 5 6 
#
# 1 0.014727 -0.000084 0.000935 0.000000 0.007936 0.000000
# 2 -0.000084 0.010582 0.000371 0.000000 0.000348 0.000000
# 3 0.000935 0.000371 0.016971 0.000000 0.004847 0.000000
# 4 0.000000 0.000000 0.000000 0.157675 0.000000 0.042377
# 5 0.007936 0.000348 0.004847 0.000000 0.026831 0.000000
# 6 0.000000 0.000000 0.000000 0.042377 0.000000 0.088721
#
#
# Mechanical properties :
#
#
# Convention : Reuss Voigt Hill
#
# Bulk Modulus (GPa) = 22.35977 26.87747 24.61862
# Shear Modulus (GPa) = 15.24519 29.08565 22.16542
#
# Velocity S-wave (km/s) = 2.50106 3.45459 3.01575
# Velocity P-wave (km/s) = 4.18508 5.19042 4.71462
#
# Compressibility (1/GPa) = 0.04472319
#
# Stress axis : x y z
#
# Youngs Moduli (GPa) = 67.90105 94.49952 58.92403
#
# Poissons Ratio (x) = 0.00795 -0.05508
# Poissons Ratio (y) = 0.00571 -0.02184
# Poissons Ratio (z) = -0.06347 -0.03503
#
# Static dielectric constant tensor:
#      x y z
#    x 1.968080 0.000000 -0.029680 
#    y 0.000000 1.933770 0.000000 
#    z -0.029680 0.000000 1.952850 
# 
# From -- ./inp_files/45244.got.cif
#   From: 2010.05.17/outbox.cif.g08.bks.cpg/sg11_23_cif.got.tgz:45244.got - 2010.06.03 12:22:45.
