data_PCOD9161675
_publ_section_title
;
Structure prediction by ZEFSAII (Michael W. Deem and Ramdas Pophale) SiO2 
 PCOD9161675
Probable space group: P 21/M
;
_chemical_formula_sum "Si O2"
_cell_formula_units_Z 28
_cell_length_a 25.168805
_cell_length_b 8.902341
_cell_length_c 19.895421
_cell_angle_alpha 90.000000
_cell_angle_beta 158.893237
_cell_angle_gamma 90.000000
_cell_volume 1605.282356
_symmetry_space_group_name_H-M "P 21/M"
_symmetry_group_IT_number 11
_symmetry_cell_setting 'monoclinic'
loop_
_space_group_symop_operation_xyz
x,y,z
-x,1/2+y,-z
-x,-y,-z
x,1/2-y,z
loop_
_atom_site_type_symbol
_atom_site_label
_atom_site_fract_x
_atom_site_fract_y
_atom_site_fract_z
Si Si1 0.192192 0.074072 0.791614
Si Si2 0.844050 0.069567 0.837881
Si Si3 0.629565 0.069046 0.698976
Si Si4 0.848302 0.425583 0.401239
Si Si5 0.444204 0.930011 0.590982
Si Si6 0.403749 0.071066 0.826429
Si Si7 0.527863 0.429286 0.826146
O O1 0.231324 0.250000 0.833367
O O2 0.023400 0.061680 0.615782
O O3 0.195000 0.000966 0.720820
O O4 0.304717 0.987831 0.971983
O O5 0.858385 0.250000 0.852856
O O6 0.780997 0.029484 0.838175
O O7 0.708645 0.028533 0.627683
O O8 0.000000 0.000000 0.000000
O O9 0.619154 0.250000 0.688040
O O10 0.500000 0.000000 0.500000
O O11 0.584940 0.002208 0.718341
O O12 0.808221 0.250000 0.351194
O O13 0.759373 0.508815 0.353971
O O14 0.456858 0.750000 0.603397
O O15 0.445671 0.990624 0.668146
O O16 0.408523 0.250000 0.838693
O O17 0.461754 0.030917 0.821183
O O18 0.500000 0.000000 0.000000
O O19 0.522481 0.250000 0.811691
#
# Coordination Sequence:
#
# PCOD9161675 Si02
#       7
#     4   4   4   4   4   4   4
#     4  10  20  34  54  77 103 138 176 221 275 328
#     4   9  19  34  56  86 115 145 181 220 264 318
#     4   9  17  32  54  81 110 142 181 220 260 312
#     4  10  20  34  53  78 104 133 177 227 275 328
#     4  10  21  37  56  81 111 145 185 227 275 329
#     4  11  22  35  54  79 107 143 187 233 283 336
#     4  11  23  37  55  80 109 143 185 231 281 336
#
# _framework density 17.442412999999998
#
# number of rings (size 3 to 8) (size 9 to 14) (size 15 to 20)
#    0.000    2.000    1.429    3.429    0.000    6.857 
#    0.000    1.429    0.000    3.429    0.000    0.000 
#    0.000    0.000    0.000    0.000    0.000    0.000 
#
# Total GULP energy -156159.413381 kJ/mol
# GULP energy per Si atom -5577.121906 kJ/mol
# Density = 1.740271 g / cm^3
# Si number density = 17.442413 Si / 1000 Ang^3
#
#
#
# Elastic Constant Matrix: (Units=GPa)
#
#
# Indices 1 2 3 4 5 6 
#
# 1 121.8644 59.5353 51.7246 0.0000 9.9998 0.0000
# 2 59.5353 63.9311 35.7216 0.0000 4.3808 0.0000
# 3 51.7246 35.7216 71.1473 0.0000 9.6873 0.0000
# 4 0.0000 0.0000 0.0000 30.6564 0.0000 2.5573
# 5 9.9998 4.3808 9.6873 0.0000 27.4337 0.0000
# 6 0.0000 0.0000 0.0000 2.5573 0.0000 32.9759
#
#
#
# Elastic Compliance Matrix: (Units=1/GPa)
#
#
# Indices 1 2 3 4 5 6 
#
# 1 0.016850 -0.012319 -0.005774 0.000000 -0.002136 0.000000
# 2 -0.012319 0.030751 -0.006751 0.000000 0.001964 0.000000
# 3 -0.005774 -0.006751 0.022281 0.000000 -0.004685 0.000000
# 4 0.000000 0.000000 0.000000 0.032832 0.000000 -0.002546
# 5 -0.002136 0.001964 -0.004685 0.000000 0.038571 0.000000
# 6 0.000000 0.000000 0.000000 -0.002546 0.000000 0.030523
#
#
# Mechanical properties :
#
#
# Convention : Reuss Voigt Hill
#
# Bulk Modulus (GPa) = 49.52030 61.21176 55.36603
# Shear Modulus (GPa) = 21.90798 25.54397 23.72597
#
# Velocity S-wave (km/s) = 3.54788 3.83100 3.69215
# Velocity P-wave (km/s) = 6.72574 7.39855 7.07015
#
# Compressibility (1/GPa) = 0.02019374
#
# Stress axis : x y z
#
# Youngs Moduli (GPa) = 59.34654 32.51900 44.88167
#
# Poissons Ratio (x) = 0.40060 0.25916
# Poissons Ratio (y) = 0.73108 0.30300
# Poissons Ratio (z) = 0.34269 0.21954
#
# Static dielectric constant tensor:
#      x y z
#    x 1.636790 0.000000 0.011440 
#    y 0.000000 1.583930 0.000000 
#    z 0.011440 0.000000 1.601130 
# 
# From -- ./inp_files/66896.got.cif
#   From: 2010.05.17/outbox.cif.g08.bks.cpg/sg11_34_cif.got.tgz:66896.got - 2010.06.03 12:22:45.
