data_PCOD9161160
_publ_section_title
;
Structure prediction by ZEFSAII (Michael W. Deem and Ramdas Pophale) SiO2 
 PCOD9161160
Probable space group: P 21/M
;
_chemical_formula_sum "Si O2"
_cell_formula_units_Z 28
_cell_length_a 18.257720
_cell_length_b 9.192371
_cell_length_c 19.240561
_cell_angle_alpha 90.000000
_cell_angle_beta 156.763127
_cell_angle_gamma 90.000000
_cell_volume 1274.017897
_symmetry_space_group_name_H-M "P 21/M"
_symmetry_group_IT_number 11
_symmetry_cell_setting 'monoclinic'
loop_
_space_group_symop_operation_xyz
x,y,z
-x,1/2+y,-z
-x,-y,-z
x,1/2-y,z
loop_
_atom_site_type_symbol
_atom_site_label
_atom_site_fract_x
_atom_site_fract_y
_atom_site_fract_z
Si Si1 0.556953 0.586864 0.871127
Si Si2 0.203070 0.573724 0.181711
Si Si3 0.222446 0.416703 0.336489
Si Si4 0.270925 0.925331 0.726514
Si Si5 0.795364 0.415133 0.540585
Si Si6 0.020748 0.921518 0.629154
Si Si7 0.227586 0.914663 0.052377
O O1 0.627829 0.750000 0.940837
O O2 0.472884 0.539075 0.871814
O O3 0.374001 0.588119 0.661842
O O4 0.701815 0.497106 0.953171
O O5 0.189558 0.750000 0.172791
O O6 0.284591 0.508238 0.323499
O O7 0.293273 0.532344 0.186082
O O8 0.000000 0.500000 0.000000
O O9 0.287992 0.250000 0.389254
O O10 0.266842 0.491991 0.447771
O O11 0.996131 0.415049 0.139443
O O12 0.240622 0.750000 0.686389
O O13 0.213005 0.947023 0.755830
O O14 0.131680 0.024596 0.559997
O O15 0.838674 0.250000 0.599166
O O16 0.968945 0.488170 0.652172
O O17 0.001716 0.750000 0.626960
O O18 0.293547 0.750000 0.103144
#
# Coordination Sequence:
#
# PCOD9161160 Si02
#       7
#     4   4   4   4   4   4   4
#     4   9  18  31  48  71  99 128 158 193 236 284
#     4   9  17  31  50  72  96 123 158 199 237 277
#     4  10  20  34  52  74  96 123 161 200 239 284
#     4   8  15  27  42  65  95 124 158 198 234 274
#     4  10  20  33  48  71 101 128 158 198 240 284
#     4   9  15  25  44  67  92 124 159 196 237 278
#     4   9  19  33  50  73  98 122 155 197 236 280
#
# _framework density 21.977713999999999
#
# number of rings (size 3 to 8) (size 9 to 14) (size 15 to 20)
#    0.000    2.857    0.000    3.429    0.000    6.857 
#    0.000    0.714    0.000    0.857    0.000    0.000 
#    0.000    0.000    0.000    0.000    0.000    0.000 
#
# Total GULP energy -156159.894206 kJ/mol
# GULP energy per Si atom -5577.139079 kJ/mol
# Density = 2.192769 g / cm^3
# Si number density = 21.977714 Si / 1000 Ang^3
#
#
#
# Elastic Constant Matrix: (Units=GPa)
#
#
# Indices 1 2 3 4 5 6 
#
# 1 14.6812 30.7607 72.9535 0.0000 31.9816 0.0000
# 2 30.7607 79.4526 36.8631 0.0000 8.1213 0.0000
# 3 72.9535 36.8631 23.3428 0.0000 -5.4884 0.0000
# 4 0.0000 0.0000 0.0000 11.2298 0.0000 1.3972
# 5 31.9816 8.1213 -5.4884 0.0000 25.4632 0.0000
# 6 0.0000 0.0000 0.0000 1.3972 0.0000 38.8396
#
#
#
# Elastic Compliance Matrix: (Units=1/GPa)
#
#
# Indices 1 2 3 4 5 6 
#
# 1 -0.000561 -0.006951 0.014135 0.000000 0.005969 0.000000
# 2 -0.006951 0.018359 -0.006946 0.000000 0.001377 0.000000
# 3 0.014135 -0.006946 0.006300 0.000000 -0.014179 0.000000
# 4 0.000000 0.000000 0.000000 0.089449 0.000000 -0.003218
# 5 0.005969 0.001377 -0.014179 0.000000 0.028280 0.000000
# 6 0.000000 0.000000 0.000000 -0.003218 0.000000 0.025863
#
#
# Mechanical properties :
#
#
# Convention : Reuss Voigt Hill
#
# Bulk Modulus (GPa) = 40.69401 44.29236 42.49319
# Shear Modulus (GPa) = 28.50537 13.56647 21.03592
#
# Velocity S-wave (km/s) = 3.60531 2.48721 3.09714
# Velocity P-wave (km/s) = 5.99060 5.33342 5.67154
#
# Compressibility (1/GPa) = 0.02457364
#
# Stress axis : x y z
#
# Youngs Moduli (GPa) = -1781.05701 54.46899 158.71953
#
# Poissons Ratio (x) = 0.37859 -2.24342
# Poissons Ratio (y) = -12.37943 1.10248
# Poissons Ratio (z) = 25.17438 0.37835
#
# Static dielectric constant tensor:
#      x y z
#    x 1.833950 0.000000 -0.004410 
#    y 0.000000 1.742260 0.000000 
#    z -0.004410 0.000000 1.906030 
# 
# From -- ./inp_files/28285.got.cif
#   From: 2010.05.17/outbox.cif.g08.bks.cpg/sg11_15_cif.got.tgz:28285.got - 2010.06.03 12:22:45.
