data_PCOD9161698
_publ_section_title
;
Structure prediction by ZEFSAII (Michael W. Deem and Ramdas Pophale) SiO2 
 PCOD9161698
Probable space group: P 21/M
;
_chemical_formula_sum "Si O2"
_cell_formula_units_Z 32
_cell_length_a 14.566445
_cell_length_b 8.936102
_cell_length_c 25.146487
_cell_angle_alpha 90.000000
_cell_angle_beta 149.516333
_cell_angle_gamma 90.000000
_cell_volume 1660.495277
_symmetry_space_group_name_H-M "P 21/M"
_symmetry_group_IT_number 11
_symmetry_cell_setting 'monoclinic'
loop_
_space_group_symop_operation_xyz
x,y,z
-x,1/2+y,-z
-x,-y,-z
x,1/2-y,z
loop_
_atom_site_type_symbol
_atom_site_label
_atom_site_fract_x
_atom_site_fract_y
_atom_site_fract_z
Si Si1 0.764331 0.929096 0.287425
Si Si2 0.345599 0.929309 0.063368
Si Si3 0.287390 0.078536 0.141731
Si Si4 0.994916 0.929501 0.684253
Si Si5 0.725220 0.421984 0.377444
Si Si6 0.261199 0.068606 0.245403
Si Si7 0.939256 0.432291 0.163082
Si Si8 0.651966 0.572597 0.449251
O O1 0.775474 0.750000 0.296441
O O2 0.556203 0.972266 0.169802
O O3 0.806605 0.999258 0.366201
O O4 0.888136 0.991293 0.302542
O O5 0.338092 0.750000 0.060515
O O6 0.253793 0.987073 0.071676
O O7 0.237982 0.982134 0.957724
O O8 0.229816 0.250000 0.105475
O O9 0.506299 0.077964 0.259306
O O10 0.213339 0.020037 0.161076
O O11 0.024625 0.750000 0.695648
O O12 0.044878 0.982205 0.768275
O O13 0.785096 0.955816 0.564956
O O14 0.784685 0.250000 0.411504
O O15 0.747641 0.508311 0.443909
O O16 0.272229 0.250000 0.249275
O O17 0.111637 0.024065 0.213495
O O18 0.457845 0.004816 0.357565
O O19 0.938155 0.250000 0.163858
O O20 0.627706 0.750000 0.430636
#
# Coordination Sequence:
#
# PCOD9161698 Si02
#       8
#     4   4   4   4   4   4   4   4
#     4  10  20  34  54  81 110 136 168 217 266 304
#     4   9  18  33  54  78 104 136 171 211 259 306
#     4   8  15  28  48  77 107 131 162 205 255 313
#     4  10  22  38  54  73 101 141 183 217 256 310
#     4   9  17  32  55  80 106 138 172 206 255 319
#     4   9  18  34  56  78 103 139 175 209 258 316
#     4   9  19  37  56  74 101 139 182 218 252 308
#     4  10  20  34  53  79 108 135 169 217 265 306
#
# _framework density 19.271360000000001
#
# number of rings (size 3 to 8) (size 9 to 14) (size 15 to 20)
#    0.000    2.750    0.000    1.875    0.000    6.500 
#    0.000    1.875    0.000    0.000    0.000    0.000 
#    0.000    0.000    0.000    0.000    0.000    0.000 
#
# Total GULP energy -178566.429198 kJ/mol
# GULP energy per Si atom -5580.200912 kJ/mol
# Density = 1.922750 g / cm^3
# Si number density = 19.271360 Si / 1000 Ang^3
#
#
#
# Elastic Constant Matrix: (Units=GPa)
#
#
# Indices 1 2 3 4 5 6 
#
# 1 83.0044 27.7774 31.1628 0.0000 -7.8015 0.0000
# 2 27.7774 47.2128 29.7968 0.0000 -4.4018 0.0000
# 3 31.1628 29.7968 86.5858 0.0000 -16.4330 0.0000
# 4 0.0000 0.0000 0.0000 -17.9417 0.0000 0.6214
# 5 -7.8015 -4.4018 -16.4330 0.0000 31.1293 0.0000
# 6 0.0000 0.0000 0.0000 0.6214 0.0000 21.4396
#
#
#
# Elastic Compliance Matrix: (Units=1/GPa)
#
#
# Indices 1 2 3 4 5 6 
#
# 1 0.015698 -0.007290 -0.002878 0.000000 0.001384 0.000000
# 2 -0.007290 0.030484 -0.008219 0.000000 -0.001855 0.000000
# 3 -0.002878 -0.008219 0.016732 0.000000 0.006949 0.000000
# 4 0.000000 0.000000 0.000000 -0.055680 0.000000 0.001614
# 5 0.001384 -0.001855 0.006949 0.000000 0.035877 0.000000
# 6 0.000000 0.000000 0.000000 0.001614 0.000000 0.046596
#
#
# Mechanical properties :
#
#
# Convention : Reuss Voigt Hill
#
# Bulk Modulus (GPa) = 38.25609 43.80856 41.03233
# Shear Modulus (GPa) = 36.98368 15.46317 26.22342
#
# Velocity S-wave (km/s) = 4.38551 2.83572 3.69283
# Velocity P-wave (km/s) = 6.74818 5.78823 6.28655
#
# Compressibility (1/GPa) = 0.02613963
#
# Stress axis : x y z
#
# Youngs Moduli (GPa) = 63.70268 32.80424 59.76419
#
# Poissons Ratio (x) = 0.23915 0.17202
# Poissons Ratio (y) = 0.46440 0.49119
# Poissons Ratio (z) = 0.18336 0.26961
#
# Static dielectric constant tensor:
#      x y z
#    x 1.653930 0.000000 0.008840 
#    y 0.000000 1.650620 0.000000 
#    z 0.008840 0.000000 1.709900 
# 
# From -- ./inp_files/56200.got.cif
#   From: 2010.05.17/outbox.cif.g08.bks.cpg/sg11_29_cif.got.tgz:56200.got - 2010.06.03 12:22:45.
