data_PCOD9161004
_publ_section_title
;
Structure prediction by ZEFSAII (Michael W. Deem and Ramdas Pophale) SiO2 
 PCOD9161004
Probable space group: P 21/M
;
_chemical_formula_sum "Si O2"
_cell_formula_units_Z 24
_cell_length_a 11.680802
_cell_length_b 7.535220
_cell_length_c 20.497079
_cell_angle_alpha 90.000000
_cell_angle_beta 44.375001
_cell_angle_gamma 90.000000
_cell_volume 1261.700017
_symmetry_space_group_name_H-M "P 21/M"
_symmetry_group_IT_number 11
_symmetry_cell_setting 'monoclinic'
loop_
_space_group_symop_operation_xyz
x,y,z
-x,1/2+y,-z
-x,-y,-z
x,1/2-y,z
loop_
_atom_site_type_symbol
_atom_site_label
_atom_site_fract_x
_atom_site_fract_y
_atom_site_fract_z
Si Si1 0.694628 0.465190 0.280650
Si Si2 0.607927 0.537643 0.520396
Si Si3 0.907930 0.960681 0.322207
Si Si4 0.738047 0.036804 0.857337
Si Si5 0.384861 0.962587 0.952541
Si Si6 0.188558 0.962955 0.907744
O O1 0.692659 0.250000 0.280933
O O2 0.510004 0.526930 0.373651
O O3 0.814892 0.516915 0.290884
O O4 0.758609 0.529971 0.184974
O O5 0.500000 0.500000 0.500000
O O6 0.622538 0.750000 0.522110
O O7 0.787177 0.467118 0.427921
O O8 0.921575 0.750000 0.328408
O O9 0.091044 0.032930 0.240407
O O10 0.752675 0.250000 0.856189
O O11 0.577600 0.998759 0.880125
O O12 0.699187 0.969341 0.946433
O O13 0.364163 0.750000 0.961321
O O14 0.299685 0.031394 0.921976
O O15 0.208573 0.750000 0.897435
O O16 0.000000 0.000000 0.000000
#
# Coordination Sequence:
#
# PCOD9161004 Si02
#       6
#     4   4   4   4   4   4
#     4   9  17  28  43  65  91 116 142 173 211 257
#     4   8  14  25  41  62  87 113 140 172 211 252
#     4   9  16  27  45  67  89 113 142 177 216 253
#     4   9  17  29  45  63  82 107 142 180 213 249
#     4   9  18  31  44  60  84 112 141 174 213 253
#     4  10  20  32  46  65  89 116 144 174 211 256
#
# _framework density 19.021954000000001
#
# number of rings (size 3 to 8) (size 9 to 14) (size 15 to 20)
#    0.000    3.000    0.000    1.000    0.000    3.333 
#    0.000    3.333    0.000    1.000    0.000    0.000 
#    0.000    0.000    0.000    0.000    0.000    0.000 
#
# Total GULP energy -133721.324938 kJ/mol
# GULP energy per Si atom -5571.721872 kJ/mol
# Density = 1.897866 g / cm^3
# Si number density = 19.021954 Si / 1000 Ang^3
#
#
#
# Elastic Constant Matrix: (Units=GPa)
#
#
# Indices 1 2 3 4 5 6 
#
# 1 75.6938 -9.3048 76.5572 0.0000 -11.5817 0.0000
# 2 -9.3048 47.3258 -0.7487 0.0000 0.0264 0.0000
# 3 76.5572 -0.7487 206.1826 0.0000 -22.2864 0.0000
# 4 0.0000 0.0000 0.0000 8.4738 0.0000 -0.6628
# 5 -11.5817 0.0264 -22.2864 0.0000 29.0679 0.0000
# 6 0.0000 0.0000 0.0000 -0.6628 0.0000 13.1545
#
#
#
# Elastic Compliance Matrix: (Units=1/GPa)
#
#
# Indices 1 2 3 4 5 6 
#
# 1 0.022157 0.004230 -0.007914 0.000000 0.002757 0.000000
# 2 0.004230 0.021939 -0.001429 0.000000 0.000569 0.000000
# 3 -0.007914 -0.001429 0.008115 0.000000 0.003070 0.000000
# 4 0.000000 0.000000 0.000000 0.118478 0.000000 0.005970
# 5 0.002757 0.000569 0.003070 0.000000 0.037854 0.000000
# 6 0.000000 0.000000 0.000000 0.005970 0.000000 0.076320
#
#
# Mechanical properties :
#
#
# Convention : Reuss Voigt Hill
#
# Bulk Modulus (GPa) = 23.81858 51.35663 37.58761
# Shear Modulus (GPa) = 16.17682 27.65247 21.91464
#
# Velocity S-wave (km/s) = 2.91938 3.81690 3.39790
# Velocity P-wave (km/s) = 4.89004 6.81778 5.93273
#
# Compressibility (1/GPa) = 0.04198403
#
# Stress axis : x y z
#
# Youngs Moduli (GPa) = 45.13292 45.58135 123.22667
#
# Poissons Ratio (x) = -0.19279 0.97517
# Poissons Ratio (y) = -0.19089 0.17612
# Poissons Ratio (z) = 0.35717 0.06515
#
# Static dielectric constant tensor:
#      x y z
#    x 1.619050 0.000000 -0.007980 
#    y 0.000000 1.712250 0.000000 
#    z -0.007980 0.000000 1.715770 
# 
# From -- ./inp_files/21007.got.cif
#   From: 2010.05.17/outbox.cif.g08.bks.cpg/sg11_11_cif.got.tgz:21007.got - 2010.06.03 12:22:45.
