data_PCOD9161117
_publ_section_title
;
Structure prediction by ZEFSAII (Michael W. Deem and Ramdas Pophale) SiO2 
 PCOD9161117
Probable space group: P 21/M
;
_chemical_formula_sum "Si O2"
_cell_formula_units_Z 32
_cell_length_a 11.269683
_cell_length_b 10.511553
_cell_length_c 15.520429
_cell_angle_alpha 90.000000
_cell_angle_beta 103.040332
_cell_angle_gamma 90.000000
_cell_volume 1791.164802
_symmetry_space_group_name_H-M "P 21/M"
_symmetry_group_IT_number 11
_symmetry_cell_setting 'monoclinic'
loop_
_space_group_symop_operation_xyz
x,y,z
-x,1/2+y,-z
-x,-y,-z
x,1/2-y,z
loop_
_atom_site_type_symbol
_atom_site_label
_atom_site_fract_x
_atom_site_fract_y
_atom_site_fract_z
Si Si1 0.329507 0.393688 0.002551
Si Si2 0.957156 0.897551 0.062934
Si Si3 0.328364 0.598855 0.384434
Si Si4 0.563493 0.597307 0.323980
Si Si5 0.068593 0.899632 0.269819
Si Si6 0.998605 0.387832 0.394184
Si Si7 0.789891 0.996188 0.462614
Si Si8 0.476701 0.897812 0.120473
O O1 0.345811 0.250000 0.041222
O O2 0.372890 0.504661 0.073492
O O3 0.189027 0.407462 0.953894
O O4 0.416542 0.402512 0.933352
O O5 0.985392 0.750000 0.043123
O O6 0.018539 0.920899 0.165910
O O7 0.000000 0.000000 0.000000
O O8 0.341088 0.750000 0.395311
O O9 0.454337 0.547388 0.367018
O O10 0.213812 0.577090 0.301782
O O11 0.288084 0.546029 0.469728
O O12 0.560299 0.750000 0.326940
O O13 0.694816 0.556108 0.378390
O O14 0.531623 0.562483 0.221068
O O15 0.047242 0.750000 0.288702
O O16 0.008649 0.995427 0.328927
O O17 0.003123 0.250000 0.351700
O O18 0.112301 0.400718 0.478477
O O19 0.876694 0.402278 0.430271
O O20 0.434486 0.750000 0.119034
#
# Coordination Sequence:
#
# PCOD9161117 Si02
#       8
#     4   4   4   4   4   4   4   4
#     4   9  19  37  56  79 114 145 178 224 278 324
#     4  10  22  37  58  85 114 148 185 225 274 331
#     4   9  18  34  53  77 109 143 183 226 270 322
#     4  10  20  32  55  83 105 139 188 230 264 322
#     4   9  20  37  58  82 110 147 184 225 276 327
#     4  10  21  36  56  82 112 147 186 229 275 327
#     4  10  20  34  54  77 113 148 181 225 278 327
#     4   9  19  35  58  83 107 141 184 227 269 322
#
# _framework density 17.865466999999999
#
# number of rings (size 3 to 8) (size 9 to 14) (size 15 to 20)
#    0.000    2.500    0.000    1.125    3.500    4.500 
#    0.000    1.250    0.000    1.500    0.000    0.000 
#    0.000    0.000    0.000    0.000    0.000    0.000 
#
# Total GULP energy -178365.231502 kJ/mol
# GULP energy per Si atom -5573.913484 kJ/mol
# Density = 1.782480 g / cm^3
# Si number density = 17.865467 Si / 1000 Ang^3
#
#
#
# Elastic Constant Matrix: (Units=GPa)
#
#
# Indices 1 2 3 4 5 6 
#
# 1 51.9939 25.1104 22.7561 0.0000 4.2321 0.0000
# 2 25.1104 73.4510 40.0810 0.0000 -1.4542 0.0000
# 3 22.7561 40.0810 91.8688 0.0000 10.1784 0.0000
# 4 0.0000 0.0000 0.0000 21.6475 0.0000 -5.8835
# 5 4.2321 -1.4542 10.1784 0.0000 14.7628 0.0000
# 6 0.0000 0.0000 0.0000 -5.8835 0.0000 5.9564
#
#
#
# Elastic Compliance Matrix: (Units=1/GPa)
#
#
# Indices 1 2 3 4 5 6 
#
# 1 0.024157 -0.007200 -0.002161 0.000000 -0.006144 0.000000
# 2 -0.007200 0.020867 -0.008420 0.000000 0.009925 0.000000
# 3 -0.002161 -0.008420 0.016368 0.000000 -0.011495 0.000000
# 4 0.000000 0.000000 0.000000 0.063147 0.000000 0.062375
# 5 -0.006144 0.009925 -0.011495 0.000000 0.078402 0.000000
# 6 0.000000 0.000000 0.000000 0.062375 0.000000 0.229499
#
#
# Mechanical properties :
#
#
# Convention : Reuss Voigt Hill
#
# Bulk Modulus (GPa) = 38.71865 43.68985 41.20425
# Shear Modulus (GPa) = 10.49067 17.09775 13.79421
#
# Velocity S-wave (km/s) = 2.42586 3.09694 2.78171
# Velocity P-wave (km/s) = 5.43744 6.10705 5.78195
#
# Compressibility (1/GPa) = 0.02582735
#
# Stress axis : x y z
#
# Youngs Moduli (GPa) = 41.39657 47.92164 61.09617
#
# Poissons Ratio (x) = 0.34506 0.13206
# Poissons Ratio (y) = 0.29808 0.51444
# Poissons Ratio (z) = 0.08948 0.40351
#
# Static dielectric constant tensor:
#      x y z
#    x 1.608890 0.000000 -0.004590 
#    y 0.000000 1.622270 0.000000 
#    z -0.004590 0.000000 1.589950 
# 
# From -- ./inp_files/49850.got.cif
#   From: 2010.05.17/outbox.cif.g08.bks.cpg/sg11_25_cif.got.tgz:49850.got - 2010.06.03 12:22:45.
