data_PCOD9161023
_publ_section_title
;
Structure prediction by ZEFSAII (Michael W. Deem and Ramdas Pophale) SiO2 
 PCOD9161023
Probable space group: P 21/M
;
_chemical_formula_sum "Si O2"
_cell_formula_units_Z 32
_cell_length_a 7.994777
_cell_length_b 14.367839
_cell_length_c 10.934827
_cell_angle_alpha 90.000000
_cell_angle_beta 63.978752
_cell_angle_gamma 90.000000
_cell_volume 1128.733256
_symmetry_space_group_name_H-M "P 21/M"
_symmetry_group_IT_number 11
_symmetry_cell_setting 'monoclinic'
loop_
_space_group_symop_operation_xyz
x,y,z
-x,1/2+y,-z
-x,-y,-z
x,1/2-y,z
loop_
_atom_site_type_symbol
_atom_site_label
_atom_site_fract_x
_atom_site_fract_y
_atom_site_fract_z
Si Si1 0.921492 0.356969 0.065682
Si Si2 0.325838 0.397938 0.127583
Si Si3 0.982248 0.612089 0.359979
Si Si4 0.996968 0.110158 0.383165
Si Si5 0.314432 0.882173 0.103311
Si Si6 0.253100 0.359451 0.811690
Si Si7 0.438773 0.640204 0.442856
Si Si8 0.441183 0.863814 0.703811
O O1 0.951454 0.250000 0.090352
O O2 0.800152 0.352457 0.979434
O O3 0.117520 0.401444 0.959742
O O4 0.771497 0.399945 0.206597
O O5 0.309702 0.506216 0.102693
O O6 0.435613 0.391623 0.221210
O O7 0.123938 0.357850 0.228494
O O8 0.470374 0.354566 0.983897
O O9 0.001033 0.501190 0.368811
O O10 0.855640 0.633937 0.283940
O O11 0.918093 0.643706 0.514258
O O12 0.189243 0.647743 0.257718
O O13 0.781711 0.134178 0.469940
O O14 0.264018 0.250000 0.837943
O O15 0.454355 0.400294 0.709473
O O16 0.482376 0.750000 0.424422
O O17 0.512290 0.602658 0.549698
O O18 0.432807 0.750000 0.704824
#
# Coordination Sequence:
#
# PCOD9161023 Si02
#       8
#     4   4   4   4   4   4   4   4
#     4   8  14  27  49  72  93 122 159 196 233 276
#     4   9  16  29  50  70  94 125 155 192 235 277
#     4   9  18  33  51  70  92 122 160 195 231 277
#     4  10  20  32  47  69  97 126 155 193 236 276
#     4   8  15  28  48  72  95 117 153 200 235 267
#     4   9  17  31  51  71  92 122 158 194 232 277
#     4  10  21  34  47  69 100 127 154 192 234 276
#     4   9  17  30  49  71  93 122 160 194 228 279
#
# _framework density 28.350366999999999
#
# number of rings (size 3 to 8) (size 9 to 14) (size 15 to 20)
#    0.000    3.000    0.000    0.750    0.000    1.500 
#    0.000    1.250    0.000   25.500    0.000    0.000 
#    0.000    0.000    0.000    0.000    0.000    0.000 
#
# Total GULP energy -179086.723156 kJ/mol
# GULP energy per Si atom -5596.460099 kJ/mol
# Density = 2.828584 g / cm^3
# Si number density = 28.350367 Si / 1000 Ang^3
#
#
#
# Elastic Constant Matrix: (Units=GPa)
#
#
# Indices 1 2 3 4 5 6 
#
# 1 120.7432 15.7716 39.3834 0.0000 -26.8581 0.0000
# 2 15.7716 122.3670 36.7675 0.0000 3.4911 0.0000
# 3 39.3834 36.7675 221.9384 0.0000 -43.8221 0.0000
# 4 0.0000 0.0000 0.0000 19.5106 0.0000 7.8030
# 5 -26.8581 3.4911 -43.8221 0.0000 62.5780 0.0000
# 6 0.0000 0.0000 0.0000 7.8030 0.0000 28.6535
#
#
#
# Elastic Compliance Matrix: (Units=1/GPa)
#
#
# Indices 1 2 3 4 5 6 
#
# 1 0.009478 -0.001084 -0.000797 0.000000 0.003570 0.000000
# 2 -0.001084 0.008886 -0.001705 0.000000 -0.002155 0.000000
# 3 -0.000797 -0.001705 0.005664 0.000000 0.003719 0.000000
# 4 0.000000 0.000000 0.000000 0.057519 0.000000 -0.015664
# 5 0.003570 -0.002155 0.003719 0.000000 0.020237 0.000000
# 6 0.000000 0.000000 0.000000 -0.015664 0.000000 0.039165
#
#
# Mechanical properties :
#
#
# Convention : Reuss Voigt Hill
#
# Bulk Modulus (GPa) = 59.33075 72.09929 65.71502
# Shear Modulus (GPa) = 32.52244 47.02348 39.77296
#
# Velocity S-wave (km/s) = 3.39065 4.07708 3.74960
# Velocity P-wave (km/s) = 6.02510 6.90291 6.47889
#
# Compressibility (1/GPa) = 0.01685467
#
# Stress axis : x y z
#
# Youngs Moduli (GPa) = 105.50983 112.54054 176.54874
#
# Poissons Ratio (x) = 0.12197 0.14078
# Poissons Ratio (y) = 0.11435 0.30106
# Poissons Ratio (z) = 0.08414 0.19191
#
# Static dielectric constant tensor:
#      x y z
#    x 2.315830 0.000000 -0.061390 
#    y 0.000000 2.107730 0.000000 
#    z -0.061390 0.000000 2.225470 
# 
# From -- ./inp_files/32642.got.cif
#   From: 2010.05.17/outbox.cif.g08.bks.cpg/sg11_17_cif.got.tgz:32642.got - 2010.06.03 12:22:45.
