data_PCOD9161016
_publ_section_title
;
Structure prediction by ZEFSAII (Michael W. Deem and Ramdas Pophale) SiO2 
 PCOD9161016
Probable space group: P 21/M
;
_chemical_formula_sum "Si O2"
_cell_formula_units_Z 32
_cell_length_a 14.693979
_cell_length_b 8.843433
_cell_length_c 21.643583
_cell_angle_alpha 90.000000
_cell_angle_beta 132.365823
_cell_angle_gamma 90.000000
_cell_volume 2078.021843
_symmetry_space_group_name_H-M "P 21/M"
_symmetry_group_IT_number 11
_symmetry_cell_setting 'monoclinic'
loop_
_space_group_symop_operation_xyz
x,y,z
-x,1/2+y,-z
-x,-y,-z
x,1/2-y,z
loop_
_atom_site_type_symbol
_atom_site_label
_atom_site_fract_x
_atom_site_fract_y
_atom_site_fract_z
Si Si1 0.790080 0.931468 0.179224
Si Si2 0.574466 0.569293 0.178047
Si Si3 0.404902 0.068906 0.006039
Si Si4 0.510104 0.067682 0.407229
Si Si5 0.692627 0.567980 0.591968
Si Si6 0.046423 0.431244 0.336724
Si Si7 0.372458 0.568398 0.664838
Si Si8 0.093963 0.568900 0.493524
O O1 0.805147 0.750000 0.189403
O O2 0.690670 0.973829 0.187114
O O3 0.727445 0.968378 0.084440
O O4 0.918948 0.010033 0.250700
O O5 0.565253 0.750000 0.171979
O O6 0.451404 0.498444 0.091692
O O7 0.598683 0.511242 0.257706
O O8 0.416376 0.250000 0.012189
O O9 0.500000 0.000000 0.000000
O O10 0.519905 0.250000 0.413508
O O11 0.380305 0.023829 0.379101
O O12 0.536830 0.021308 0.349371
O O13 0.615421 0.001568 0.500036
O O14 0.685851 0.750000 0.584035
O O15 0.834724 0.524342 0.649935
O O16 0.043183 0.250000 0.340205
O O17 0.066920 0.500342 0.414036
O O18 0.381246 0.750000 0.677182
O O19 0.233547 0.534851 0.578596
O O20 0.080045 0.750000 0.484660
O O21 0.000000 0.500000 0.500000
#
# Coordination Sequence:
#
# PCOD9161016 Si02
#       8
#     4   4   4   4   4   4   4   4
#     4   9  19  33  48  68  94 127 160 191 227 275
#     4  10  20  32  48  70  96 125 157 194 235 277
#     4   9  17  31  50  70  93 121 156 195 235 275
#     4   9  17  32  50  67  89 120 157 198 240 280
#     4   9  18  31  48  69  92 118 154 198 242 281
#     4  11  21  31  46  70  96 125 157 193 235 279
#     4  10  20  32  47  67  91 124 161 193 231 279
#     4  11  22  34  46  63  91 128 165 195 227 271
#
# _framework density 15.39926
#
# number of rings (size 3 to 8) (size 9 to 14) (size 15 to 20)
#    0.000    2.250    1.250    3.000    0.000    7.000 
#    0.000    0.000    0.000    0.000    0.000    0.875 
#    0.000    0.000    0.000    0.000    0.000    0.000 
#
# Total GULP energy -178408.688364 kJ/mol
# GULP energy per Si atom -5575.271511 kJ/mol
# Density = 1.536421 g / cm^3
# Si number density = 15.399260 Si / 1000 Ang^3
#
#
#
# Elastic Constant Matrix: (Units=GPa)
#
#
# Indices 1 2 3 4 5 6 
#
# 1 112.1847 37.9922 69.9450 0.0000 9.3101 0.0000
# 2 37.9922 35.0241 51.7806 0.0000 3.2828 0.0000
# 3 69.9450 51.7806 139.6716 0.0000 9.6766 0.0000
# 4 0.0000 0.0000 0.0000 28.2907 0.0000 -1.9601
# 5 9.3101 3.2828 9.6766 0.0000 6.8908 0.0000
# 6 0.0000 0.0000 0.0000 -1.9601 0.0000 17.9278
#
#
#
# Elastic Compliance Matrix: (Units=1/GPa)
#
#
# Indices 1 2 3 4 5 6 
#
# 1 0.015524 -0.012056 -0.002492 0.000000 -0.011731 0.000000
# 2 -0.012056 0.072603 -0.021725 0.000000 0.012207 0.000000
# 3 -0.002492 -0.021725 0.017183 0.000000 -0.010413 0.000000
# 4 0.000000 0.000000 0.000000 0.035617 0.000000 0.003894
# 5 -0.011731 0.012207 -0.010413 0.000000 0.169778 0.000000
# 6 0.000000 0.000000 0.000000 0.003894 0.000000 0.056205
#
#
# Mechanical properties :
#
#
# Convention : Reuss Voigt Hill
#
# Bulk Modulus (GPa) = 30.51990 67.36845 48.94418
# Shear Modulus (GPa) = 11.10181 19.09938 15.10059
#
# Velocity S-wave (km/s) = 2.68793 3.52558 3.13486
# Velocity P-wave (km/s) = 5.43097 7.77276 6.70489
#
# Compressibility (1/GPa) = 0.03276550
#
# Stress axis : x y z
#
# Youngs Moduli (GPa) = 64.41709 13.77346 58.19706
#
# Poissons Ratio (x) = 0.16605 0.14502
# Poissons Ratio (y) = 0.77660 1.26432
# Poissons Ratio (z) = 0.16052 0.29922
#
# Static dielectric constant tensor:
#      x y z
#    x 1.519740 0.000000 0.002170 
#    y 0.000000 1.515850 0.000000 
#    z 0.002170 0.000000 1.505030 
# 
# From -- ./inp_files/51346.got.cif
#   From: 2010.05.17/outbox.cif.g08.bks.cpg/sg11_26_cif.got.tgz:51346.got - 2010.06.03 12:22:45.
