data_PCOD9161550
_publ_section_title
;
Structure prediction by ZEFSAII (Michael W. Deem and Ramdas Pophale) SiO2 
 PCOD9161550
Probable space group: P 21/M
;
_chemical_formula_sum "Si O2"
_cell_formula_units_Z 28
_cell_length_a 30.286745
_cell_length_b 7.801713
_cell_length_c 9.440190
_cell_angle_alpha 90.000000
_cell_angle_beta 39.515435
_cell_angle_gamma 90.000000
_cell_volume 1419.304956
_symmetry_space_group_name_H-M "P 21/M"
_symmetry_group_IT_number 11
_symmetry_cell_setting 'monoclinic'
loop_
_space_group_symop_operation_xyz
x,y,z
-x,1/2+y,-z
-x,-y,-z
x,1/2-y,z
loop_
_atom_site_type_symbol
_atom_site_label
_atom_site_fract_x
_atom_site_fract_y
_atom_site_fract_z
Si Si1 0.432686 0.953835 0.577642
Si Si2 0.001705 0.043246 0.831130
Si Si3 0.284808 0.047088 0.926861
Si Si4 0.867259 0.042014 0.992772
Si Si5 0.865217 0.545104 0.666458
Si Si6 0.567844 0.456873 0.744089
Si Si7 0.716382 0.446996 0.393965
O O1 0.428156 0.750000 0.583172
O O2 0.439745 0.020406 0.398777
O O3 0.500000 0.000000 0.500000
O O4 0.358397 0.017888 0.819115
O O5 0.001514 0.250000 0.818236
O O6 0.071399 0.975491 0.582764
O O7 0.932768 0.981144 0.920778
O O8 0.000000 0.000000 0.000000
O O9 0.278407 0.250000 0.912917
O O10 0.287951 0.952531 0.767364
O O11 0.213313 0.988469 0.176749
O O12 0.864756 0.250000 0.003881
O O13 0.875243 0.993268 0.808204
O O14 0.792417 0.976568 0.234641
O O15 0.866396 0.750000 0.646099
O O16 0.573547 0.250000 0.725175
O O17 0.641802 0.522513 0.622591
O O18 0.500000 0.500000 0.000000
O O19 0.718236 0.250000 0.438445
#
# Coordination Sequence:
#
# PCOD9161550 Si02
#       7
#     4   4   4   4   4   4   4
#     4  10  20  34  51  73 100 130 164 203 244 288
#     4  10  21  35  49  70 101 134 163 197 243 295
#     4   9  16  28  48  72  97 126 159 199 244 289
#     4   9  17  31  53  75  94 121 162 205 243 286
#     4   9  18  32  51  75 100 124 158 203 247 289
#     4   9  18  31  48  70  97 126 157 194 238 285
#     4   8  15  29  47  69  96 123 156 203 246 282
#
# _framework density 19.727967
#
# number of rings (size 3 to 8) (size 9 to 14) (size 15 to 20)
#    0.000    2.857    0.000    2.143    0.000    4.571 
#    0.000    1.429    0.000    3.429    0.000    0.000 
#    0.000    0.000    0.000    0.000    0.000    0.000 
#
# Total GULP energy -155973.022284 kJ/mol
# GULP energy per Si atom -5570.465082 kJ/mol
# Density = 1.968307 g / cm^3
# Si number density = 19.727967 Si / 1000 Ang^3
#
#
#
# Elastic Constant Matrix: (Units=GPa)
#
#
# Indices 1 2 3 4 5 6 
#
# 1 122.5058 -0.8992 93.5297 0.0000 -45.5989 0.0000
# 2 -0.8992 29.4508 4.2528 0.0000 -6.4377 0.0000
# 3 93.5297 4.2528 179.2200 0.0000 -52.8418 0.0000
# 4 0.0000 0.0000 0.0000 19.0374 0.0000 2.4704
# 5 -45.5989 -6.4377 -52.8418 0.0000 36.9508 0.0000
# 6 0.0000 0.0000 0.0000 2.4704 0.0000 17.9293
#
#
#
# Elastic Compliance Matrix: (Units=1/GPa)
#
#
# Indices 1 2 3 4 5 6 
#
# 1 0.017699 0.004719 -0.004610 0.000000 0.016071 0.000000
# 2 0.004719 0.036855 0.000472 0.000000 0.012919 0.000000
# 3 -0.004610 0.000472 0.010930 0.000000 0.010023 0.000000
# 4 0.000000 0.000000 0.000000 0.053484 0.000000 -0.007369
# 5 0.016071 0.012919 0.010023 0.000000 0.063479 0.000000
# 6 0.000000 0.000000 0.000000 -0.007369 0.000000 0.056790
#
#
# Mechanical properties :
#
#
# Convention : Reuss Voigt Hill
#
# Bulk Modulus (GPa) = 15.00486 58.32701 36.66593
# Shear Modulus (GPa) = 19.20924 30.40306 24.80615
#
# Velocity S-wave (km/s) = 3.12381 3.92996 3.54985
# Velocity P-wave (km/s) = 4.54239 7.08679 5.95214
#
# Compressibility (1/GPa) = 0.06664506
#
# Stress axis : x y z
#
# Youngs Moduli (GPa) = 56.49985 27.13343 91.49323
#
# Poissons Ratio (x) = -0.12804 0.42181
# Poissons Ratio (y) = -0.26662 -0.04318
# Poissons Ratio (z) = 0.26048 -0.01280
#
# Static dielectric constant tensor:
#      x y z
#    x 1.703230 0.000000 -0.060350 
#    y 0.000000 1.765310 0.000000 
#    z -0.060350 0.000000 1.723070 
# 
# From -- ./inp_files/28984.got.cif
#   From: 2010.05.17/outbox.cif.g08.bks.cpg/sg11_15_cif.got.tgz:28984.got - 2010.06.03 12:22:45.
