data_PCOD9161687
_publ_section_title
;
Structure prediction by ZEFSAII (Michael W. Deem and Ramdas Pophale) SiO2 
 PCOD9161687
Probable space group: P 21/M
;
_chemical_formula_sum "Si O2"
_cell_formula_units_Z 28
_cell_length_a 12.934889
_cell_length_b 8.610216
_cell_length_c 15.450723
_cell_angle_alpha 90.000000
_cell_angle_beta 74.349294
_cell_angle_gamma 90.000000
_cell_volume 1656.981503
_symmetry_space_group_name_H-M "P 21/M"
_symmetry_group_IT_number 11
_symmetry_cell_setting 'monoclinic'
loop_
_space_group_symop_operation_xyz
x,y,z
-x,1/2+y,-z
-x,-y,-z
x,1/2-y,z
loop_
_atom_site_type_symbol
_atom_site_label
_atom_site_fract_x
_atom_site_fract_y
_atom_site_fract_z
Si Si1 0.630320 0.563363 0.612988
Si Si2 0.790598 0.436080 0.722991
Si Si3 0.747459 0.561001 0.409574
Si Si4 0.397697 0.436393 0.716013
Si Si5 0.585283 0.435820 0.099162
Si Si6 0.344501 0.435692 0.095277
Si Si7 0.015718 0.062358 0.593301
O O1 0.621675 0.750000 0.617550
O O2 0.713054 0.509760 0.668104
O O3 0.677785 0.515170 0.509208
O O4 0.514478 0.491320 0.657443
O O5 0.782506 0.250000 0.719274
O O6 0.747932 0.491607 0.825221
O O7 0.912546 0.482549 0.673456
O O8 0.748447 0.750000 0.408705
O O9 0.690037 0.510480 0.334511
O O10 0.869926 0.508725 0.395066
O O11 0.396606 0.250000 0.720391
O O12 0.379806 0.503062 0.815606
O O13 0.590959 0.250000 0.095314
O O14 0.460102 0.480644 0.111232
O O15 0.650857 0.505349 0.004031
O O16 0.337098 0.250000 0.098874
O O17 0.018285 0.250000 0.588557
O O18 0.000000 0.000000 0.500000
#
# Coordination Sequence:
#
# PCOD9161687 Si02
#       7
#     4   4   4   4   4   4   4
#     4  11  20  33  52  75 108 145 178 217 263 311
#     4  11  21  32  53  81 109 139 175 220 264 312
#     4   9  20  36  53  74 106 146 182 219 262 310
#     4  11  21  34  53  77 108 144 179 215 262 319
#     4  10  20  34  53  78 108 138 171 215 264 315
#     4  10  20  34  54  78 107 140 171 213 267 317
#     4  10  20  36  55  77 105 140 182 223 264 304
#
# _framework density 16.898195000000001
#
# number of rings (size 3 to 8) (size 9 to 14) (size 15 to 20)
#    0.000    1.714    2.857    2.571    0.000    1.714 
#    0.000    3.571    0.000    0.857    0.000    0.000 
#    0.000    0.000    0.000    0.000    0.000    0.000 
#
# Total GULP energy -156359.046092 kJ/mol
# GULP energy per Si atom -5584.251646 kJ/mol
# Density = 1.685973 g / cm^3
# Si number density = 16.898195 Si / 1000 Ang^3
#
#
#
# Elastic Constant Matrix: (Units=GPa)
#
#
# Indices 1 2 3 4 5 6 
#
# 1 98.3871 7.8315 66.4984 0.0000 12.4875 0.0000
# 2 7.8315 22.5893 19.3957 0.0000 -0.7089 0.0000
# 3 66.4984 19.3957 150.3629 0.0000 0.1154 0.0000
# 4 0.0000 0.0000 0.0000 29.1352 0.0000 4.0250
# 5 12.4875 -0.7089 0.1154 0.0000 23.4453 0.0000
# 6 0.0000 0.0000 0.0000 4.0250 0.0000 10.8991
#
#
#
# Elastic Compliance Matrix: (Units=1/GPa)
#
#
# Indices 1 2 3 4 5 6 
#
# 1 0.016032 0.000290 -0.007121 0.000000 -0.008495 0.000000
# 2 0.000290 0.049843 -0.006558 0.000000 0.001385 0.000000
# 3 -0.007121 -0.006558 0.010643 0.000000 0.003542 0.000000
# 4 0.000000 0.000000 0.000000 0.036168 0.000000 -0.013357
# 5 -0.008495 0.001385 0.003542 0.000000 0.047202 0.000000
# 6 0.000000 0.000000 0.000000 -0.013357 0.000000 0.096684
#
#
# Mechanical properties :
#
#
# Convention : Reuss Voigt Hill
#
# Bulk Modulus (GPa) = 20.10525 50.97671 35.54098
# Shear Modulus (GPa) = 16.67050 24.53684 20.60367
#
# Velocity S-wave (km/s) = 3.14431 3.81470 3.49561
# Velocity P-wave (km/s) = 5.01058 7.04521 6.11314
#
# Compressibility (1/GPa) = 0.04973824
#
# Stress axis : x y z
#
# Youngs Moduli (GPa) = 62.37450 20.06301 93.95682
#
# Poissons Ratio (x) = -0.00581 0.66908
# Poissons Ratio (y) = -0.01806 0.61621
# Poissons Ratio (z) = 0.44418 0.13158
#
# Static dielectric constant tensor:
#      x y z
#    x 1.557540 0.000000 -0.004000 
#    y 0.000000 1.571760 0.000000 
#    z -0.004000 0.000000 1.557390 
# 
# From -- ./inp_files/37481.got.cif
#   From: 2010.05.17/outbox.cif.g08.bks.cpg/sg11_19_cif.got.tgz:37481.got - 2010.06.03 12:22:45.
