data_PCOD9161418
_publ_section_title
;
Structure prediction by ZEFSAII (Michael W. Deem and Ramdas Pophale) SiO2 
 PCOD9161418
Probable space group: P 21/M
;
_chemical_formula_sum "Si O2"
_cell_formula_units_Z 28
_cell_length_a 16.454298
_cell_length_b 8.774070
_cell_length_c 11.468863
_cell_angle_alpha 90.000000
_cell_angle_beta 118.504010
_cell_angle_gamma 90.000000
_cell_volume 1455.066422
_symmetry_space_group_name_H-M "P 21/M"
_symmetry_group_IT_number 11
_symmetry_cell_setting 'monoclinic'
loop_
_space_group_symop_operation_xyz
x,y,z
-x,1/2+y,-z
-x,-y,-z
x,1/2-y,z
loop_
_atom_site_type_symbol
_atom_site_label
_atom_site_fract_x
_atom_site_fract_y
_atom_site_fract_z
Si Si1 0.186512 0.934264 0.129587
Si Si2 0.630388 0.931606 0.858529
Si Si3 0.087272 0.932050 0.825647
Si Si4 0.715997 0.066336 0.144751
Si Si5 0.532630 0.568512 0.399778
Si Si6 0.289208 0.566110 0.591002
Si Si7 0.110532 0.567032 0.330926
O O1 0.199016 0.750000 0.136295
O O2 0.148937 0.980214 0.229873
O O3 0.283504 0.010046 0.161151
O O4 0.114246 0.974029 0.977314
O O5 0.623795 0.750000 0.848138
O O6 0.537844 0.006786 0.746002
O O7 0.653418 0.985949 0.005161
O O8 0.078123 0.750000 0.814725
O O9 0.177393 0.973996 0.811820
O O10 0.991610 0.003963 0.721188
O O11 0.707685 0.250000 0.124704
O O12 0.694604 0.026531 0.263003
O O13 0.500000 0.500000 0.500000
O O14 0.529576 0.750000 0.402771
O O15 0.634459 0.510682 0.437460
O O16 0.296808 0.750000 0.584989
O O17 0.186745 0.521976 0.478416
O O18 0.105347 0.750000 0.326811
#
# Coordination Sequence:
#
# PCOD9161418 Si02
#       7
#     4   4   4   4   4   4   4
#     4   9  18  34  54  80 116 152 188 235 291 344
#     4  11  22  37  61  89 115 148 190 236 287 340
#     4   9  18  32  52  78 111 153 195 235 282 338
#     4   9  20  40  60  81 114 154 194 237 285 336
#     4  12  25  42  64  90 119 149 184 228 282 341
#     4  10  22  40  60  83 114 152 195 240 285 336
#     4  10  20  33  53  81 112 149 190 236 289 339
#
# _framework density 19.243106999999998
#
# number of rings (size 3 to 8) (size 9 to 14) (size 15 to 20)
#    0.000    2.000    0.000    4.714    0.000    6.286 
#    0.000    0.000    0.000    0.000    0.000    0.000 
#    0.000    0.000    0.000    0.000    0.000    0.000 
#
# Total GULP energy -156455.894330 kJ/mol
# GULP energy per Si atom -5587.710512 kJ/mol
# Density = 1.919931 g / cm^3
# Si number density = 19.243107 Si / 1000 Ang^3
#
#
#
# Elastic Constant Matrix: (Units=GPa)
#
#
# Indices 1 2 3 4 5 6 
#
# 1 24.8807 15.9738 26.1763 0.0000 -1.8151 0.0000
# 2 15.9738 44.0541 30.2009 0.0000 -1.0231 0.0000
# 3 26.1763 30.2009 76.4189 0.0000 6.6821 0.0000
# 4 0.0000 0.0000 0.0000 27.9714 0.0000 7.9504
# 5 -1.8151 -1.0231 6.6821 0.0000 38.2728 0.0000
# 6 0.0000 0.0000 0.0000 7.9504 0.0000 26.7641
#
#
#
# Elastic Compliance Matrix: (Units=1/GPa)
#
#
# Indices 1 2 3 4 5 6 
#
# 1 0.068463 -0.011273 -0.019552 0.000000 0.006359 0.000000
# 2 -0.011273 0.033340 -0.009491 0.000000 0.002014 0.000000
# 3 -0.019552 -0.009491 0.024004 0.000000 -0.005372 0.000000
# 4 0.000000 0.000000 0.000000 0.039048 0.000000 -0.011599
# 5 0.006359 0.002014 -0.005372 0.000000 0.027421 0.000000
# 6 0.000000 0.000000 0.000000 -0.011599 0.000000 0.040809
#
#
# Mechanical properties :
#
#
# Convention : Reuss Voigt Hill
#
# Bulk Modulus (GPa) = 22.13600 32.22841 27.18221
# Shear Modulus (GPa) = 15.20797 23.46853 19.33825
#
# Velocity S-wave (km/s) = 2.81429 3.49604 3.17352
# Velocity P-wave (km/s) = 4.69985 5.75159 5.25211
#
# Compressibility (1/GPa) = 0.04517527
#
# Stress axis : x y z
#
# Youngs Moduli (GPa) = 14.60635 29.99408 41.66045
#
# Poissons Ratio (x) = 0.33812 0.81455
# Poissons Ratio (y) = 0.16466 0.39539
# Poissons Ratio (z) = 0.28559 0.28467
#
# Static dielectric constant tensor:
#      x y z
#    x 1.650640 0.000000 -0.003810 
#    y 0.000000 1.645050 0.000000 
#    z -0.003810 0.000000 1.670000 
# 
# From -- ./inp_files/38460.got.cif
#   From: 2010.05.17/outbox.cif.g08.bks.cpg/sg11_20_cif.got.tgz:38460.got - 2010.06.03 12:22:45.
