data_PCOD9161515
_publ_section_title
;
Structure prediction by ZEFSAII (Michael W. Deem and Ramdas Pophale) SiO2 
 PCOD9161515
Probable space group: P 21/M
;
_chemical_formula_sum "Si O2"
_cell_formula_units_Z 28
_cell_length_a 15.900027
_cell_length_b 8.779160
_cell_length_c 20.220203
_cell_angle_alpha 90.000000
_cell_angle_beta 143.895061
_cell_angle_gamma 90.000000
_cell_volume 1663.212440
_symmetry_space_group_name_H-M "P 21/M"
_symmetry_group_IT_number 11
_symmetry_cell_setting 'monoclinic'
loop_
_space_group_symop_operation_xyz
x,y,z
-x,1/2+y,-z
-x,-y,-z
x,1/2-y,z
loop_
_atom_site_type_symbol
_atom_site_label
_atom_site_fract_x
_atom_site_fract_y
_atom_site_fract_z
Si Si1 0.053915 0.566373 0.228578
Si Si2 0.861426 0.432499 0.375331
Si Si3 0.299235 0.433571 0.611643
Si Si4 0.613703 0.066113 0.761958
Si Si5 0.979893 0.566861 0.650581
Si Si6 0.901335 0.932873 0.995855
Si Si7 0.636564 0.433376 0.622796
O O1 0.052096 0.750000 0.230215
O O2 0.005155 0.502379 0.267717
O O3 0.216746 0.516373 0.318155
O O4 0.962399 0.520351 0.106299
O O5 0.861439 0.250000 0.380444
O O6 0.732080 0.499480 0.335606
O O7 0.000000 0.500000 0.500000
O O8 0.891198 0.473142 0.317845
O O9 0.292474 0.250000 0.611121
O O10 0.454606 0.477426 0.683666
O O11 0.170036 0.481386 0.480050
O O12 0.625556 0.250000 0.774362
O O13 0.635723 0.023407 0.699297
O O14 0.740801 0.990554 0.883541
O O15 0.974868 0.750000 0.652352
O O16 0.908153 0.750000 0.996106
O O17 0.000000 0.000000 0.000000
O O18 0.500000 0.500000 0.500000
O O19 0.630742 0.250000 0.616351
#
# Coordination Sequence:
#
# PCOD9161515 Si02
#       7
#     4   4   4   4   4   4   4
#     4  10  21  35  51  72 101 133 168 214 256 296
#     4   9  17  30  49  74 106 138 171 209 251 305
#     4   9  18  32  52  78 108 138 168 207 258 308
#     4  10  20  36  54  74 105 137 169 215 259 303
#     4   9  18  32  51  77 105 136 169 204 253 308
#     4  11  22  38  56  74  98 133 179 220 258 303
#     4  10  20  34  49  71 104 135 164 202 252 303
#
# _framework density 16.834890000000001
#
# number of rings (size 3 to 8) (size 9 to 14) (size 15 to 20)
#    0.000    2.286    1.429    2.571    0.000    6.857 
#    0.000    0.000    0.000    0.857    0.000    0.000 
#    0.000    0.000    0.000    0.000    0.000    0.000 
#
# Total GULP energy -156138.083109 kJ/mol
# GULP energy per Si atom -5576.360111 kJ/mol
# Density = 1.679657 g / cm^3
# Si number density = 16.834890 Si / 1000 Ang^3
#
#
#
# Elastic Constant Matrix: (Units=GPa)
#
#
# Indices 1 2 3 4 5 6 
#
# 1 106.0869 21.2280 27.6509 0.0000 -35.3146 0.0000
# 2 21.2280 12.1209 17.1319 0.0000 -8.8961 0.0000
# 3 27.6509 17.1319 86.9247 0.0000 -26.1730 0.0000
# 4 0.0000 0.0000 0.0000 27.8742 0.0000 -1.4252
# 5 -35.3146 -8.8961 -26.1730 0.0000 22.9690 0.0000
# 6 0.0000 0.0000 0.0000 -1.4252 0.0000 29.4094
#
#
#
# Elastic Compliance Matrix: (Units=1/GPa)
#
#
# Indices 1 2 3 4 5 6 
#
# 1 0.026014 -0.030253 0.009442 0.000000 0.039037 0.000000
# 2 -0.030253 0.163086 -0.026649 0.000000 -0.013715 0.000000
# 3 0.009442 -0.026649 0.022859 0.000000 0.030243 0.000000
# 4 0.000000 0.000000 0.000000 0.035965 0.000000 0.001743
# 5 0.039037 -0.013715 0.030243 0.000000 0.132706 0.000000
# 6 0.000000 0.000000 0.000000 0.001743 0.000000 0.034087
#
#
# Mechanical properties :
#
#
# Convention : Reuss Voigt Hill
#
# Bulk Modulus (GPa) = 8.54418 37.46156 23.00287
# Shear Modulus (GPa) = 9.11328 25.32531 17.21930
#
# Velocity S-wave (km/s) = 2.32918 3.88278 3.20165
# Velocity P-wave (km/s) = 3.50995 6.51168 5.23076
#
# Compressibility (1/GPa) = 0.11703877
#
# Stress axis : x y z
#
# Youngs Moduli (GPa) = 38.44098 6.13173 43.74630
#
# Poissons Ratio (x) = 0.18551 -0.41304
# Poissons Ratio (y) = 1.16297 1.16577
# Poissons Ratio (z) = -0.36295 0.16340
#
# Static dielectric constant tensor:
#      x y z
#    x 1.670530 0.000000 0.109720 
#    y 0.000000 1.568880 0.000000 
#    z 0.109720 0.000000 1.688110 
# 
# From -- ./inp_files/42388.got.cif
#   From: 2010.05.17/outbox.cif.g08.bks.cpg/sg11_22_cif.got.tgz:42388.got - 2010.06.03 12:22:45.
