data_PCOD9161829
_publ_section_title
;
Structure prediction by ZEFSAII (Michael W. Deem and Ramdas Pophale) SiO2 
 PCOD9161829
Probable space group: P 21/M
;
_chemical_formula_sum "Si O2"
_cell_formula_units_Z 28
_cell_length_a 24.225746
_cell_length_b 13.340108
_cell_length_c 5.043696
_cell_angle_alpha 90.000000
_cell_angle_beta 108.471758
_cell_angle_gamma 90.000000
_cell_volume 1546.014489
_symmetry_space_group_name_H-M "P 21/M"
_symmetry_group_IT_number 11
_symmetry_cell_setting 'monoclinic'
loop_
_space_group_symop_operation_xyz
x,y,z
-x,1/2+y,-z
-x,-y,-z
x,1/2-y,z
loop_
_atom_site_type_symbol
_atom_site_label
_atom_site_fract_x
_atom_site_fract_y
_atom_site_fract_z
Si Si1 0.454574 0.750000 0.527463
Si Si2 0.923971 0.994023 0.615394
Si Si3 0.434144 0.038218 0.959146
Si Si4 0.737851 0.366881 0.971533
Si Si5 0.962157 0.871691 0.187699
Si Si6 0.184415 0.867298 0.410227
Si Si7 0.468499 0.250000 0.851798
Si Si8 0.382297 0.949977 0.382459
O O1 0.509397 0.750000 0.414439
O O2 0.416700 0.846334 0.406865
O O3 0.475945 0.750000 0.863463
O O4 0.922668 0.925929 0.350390
O O5 0.865824 0.054595 0.596120
O O6 0.942186 0.917415 0.876467
O O7 0.973866 0.080008 0.664245
O O8 0.390375 0.979858 0.699610
O O9 0.433265 0.152067 0.869656
O O10 0.416399 0.023722 0.235574
O O11 0.500000 0.000000 0.000000
O O12 0.719886 0.250000 0.916398
O O13 0.790657 0.382101 0.846047
O O14 0.683483 0.434664 0.809608
O O15 0.762535 0.381174 0.302942
O O16 0.961910 0.750000 0.195982
O O17 0.165285 0.750000 0.406908
#
# Coordination Sequence:
#
# PCOD9161829 Si02
#       8
#     2   4   4   4   4   4   2   4
#     4  12  20  34  58  78 116 134 168 220 257 324
#     4  10  20  34  55  83 116 149 182 223 276 322
#     4  12  23  37  55  82 109 140 175 210 272 325
#     4  10  21  35  55  83 110 140 178 220 272 326
#     4  10  20  34  54  84 116 149 187 223 267 324
#     4  10  20  35  55  83 114 142 177 223 274 323
#     4  12  24  36  54  82 108 140 174 214 253 336
#     4  12  22  37  56  83 109 140 173 218 272 321
#
# _framework density 18.111084999999999
#
# number of rings (size 3 to 8) (size 9 to 14) (size 15 to 20)
#    0.000    1.143    3.571    3.857    0.000    0.000 
#    0.000    4.286    0.000    0.000   37.143    0.000 
#    0.000    0.000    0.000    0.000    0.000    0.000 
#
# Total GULP energy -156360.471055 kJ/mol
# GULP energy per Si atom -5584.302538 kJ/mol
# Density = 1.806986 g / cm^3
# Si number density = 18.111085 Si / 1000 Ang^3
#
#
#
# Elastic Constant Matrix: (Units=GPa)
#
#
# Indices 1 2 3 4 5 6 
#
# 1 36.9931 14.8283 -10.6526 0.0000 3.5908 0.0000
# 2 14.8283 108.1314 -2.1326 0.0000 2.6266 0.0000
# 3 -10.6526 -2.1326 31.8603 0.0000 -12.8846 0.0000
# 4 0.0000 0.0000 0.0000 28.9298 0.0000 -1.4005
# 5 3.5908 2.6266 -12.8846 0.0000 26.3436 0.0000
# 6 0.0000 0.0000 0.0000 -1.4005 0.0000 24.8610
#
#
#
# Elastic Compliance Matrix: (Units=1/GPa)
#
#
# Indices 1 2 3 4 5 6 
#
# 1 0.031702 -0.004167 0.010897 0.000000 0.001424 0.000000
# 2 -0.004167 0.009821 -0.001125 0.000000 -0.000961 0.000000
# 3 0.010897 -0.001125 0.042882 0.000000 0.019600 0.000000
# 4 0.000000 0.000000 0.000000 0.034661 0.000000 0.001953
# 5 0.001424 -0.000961 0.019600 0.000000 0.047448 0.000000
# 6 0.000000 0.000000 0.000000 0.001953 0.000000 0.040334
#
#
# Mechanical properties :
#
#
# Convention : Reuss Voigt Hill
#
# Bulk Modulus (GPa) = 10.45873 20.11901 15.28887
# Shear Modulus (GPa) = 21.97720 27.68965 24.83343
#
# Velocity S-wave (km/s) = 3.48726 3.91433 3.70695
# Velocity P-wave (km/s) = 4.69063 5.61801 5.17514
#
# Compressibility (1/GPa) = 0.09561387
#
# Stress axis : x y z
#
# Youngs Moduli (GPa) = 31.54376 101.82660 23.32003
#
# Poissons Ratio (x) = 0.42432 -0.25411
# Poissons Ratio (y) = 0.13144 0.02623
# Poissons Ratio (z) = -0.34372 0.11452
#
# Static dielectric constant tensor:
#      x y z
#    x 1.613050 0.000000 -0.007710 
#    y 0.000000 1.605220 0.000000 
#    z -0.007710 0.000000 1.625920 
# 
# From -- ./inp_files/8860.got.cif
#   From: 2010.05.17/outbox.cif.g08.bks.cpg/sg11_5_cif.got.tgz:8860.got - 2010.06.03 12:22:45.
