data_PCOD9161131
_publ_section_title
;
Structure prediction by ZEFSAII (Michael W. Deem and Ramdas Pophale) SiO2 
 PCOD9161131
Probable space group: P 21/M
;
_chemical_formula_sum "Si O2"
_cell_formula_units_Z 32
_cell_length_a 13.226269
_cell_length_b 8.392378
_cell_length_c 16.076945
_cell_angle_alpha 90.000000
_cell_angle_beta 105.399422
_cell_angle_gamma 90.000000
_cell_volume 1720.470115
_symmetry_space_group_name_H-M "P 21/M"
_symmetry_group_IT_number 11
_symmetry_cell_setting 'monoclinic'
loop_
_space_group_symop_operation_xyz
x,y,z
-x,1/2+y,-z
-x,-y,-z
x,1/2-y,z
loop_
_atom_site_type_symbol
_atom_site_label
_atom_site_fract_x
_atom_site_fract_y
_atom_site_fract_z
Si Si1 0.871930 0.057662 0.058158
Si Si2 0.378799 0.561058 0.482506
Si Si3 0.492430 0.567612 0.907413
Si Si4 0.441385 0.569473 0.238632
Si Si5 0.666456 0.055510 0.342483
Si Si6 0.738234 0.568287 0.702345
Si Si7 0.247227 0.566339 0.805051
Si Si8 0.882447 0.941897 0.880224
O O1 0.862448 0.250000 0.054585
O O2 0.812506 0.995664 0.127920
O O3 0.994748 0.014574 0.093461
O O4 0.836652 0.998386 0.959129
O O5 0.500000 0.500000 0.500000
O O6 0.389215 0.750000 0.484386
O O7 0.324506 0.515114 0.558338
O O8 0.302342 0.511229 0.390937
O O9 0.529078 0.750000 0.909285
O O10 0.556126 0.456588 0.858921
O O11 0.370129 0.566151 0.855332
O O12 0.500000 0.500000 0.000000
O O13 0.412685 0.750000 0.255260
O O14 0.557300 0.527236 0.294537
O O15 0.364513 0.443695 0.262684
O O16 0.656718 0.250000 0.333224
O O17 0.750735 0.004257 0.290118
O O18 0.766805 0.750000 0.689546
O O19 0.826042 0.497525 0.783834
O O20 0.210268 0.750000 0.791525
O O21 0.874275 0.750000 0.877100
#
# Coordination Sequence:
#
# PCOD9161131 Si02
#       8
#     4   4   4   4   4   4   4   4
#     4   9  17  34  58  79 100 130 171 216 259 313
#     4  11  21  33  53  77 103 138 176 214 261 310
#     4  10  20  33  46  68 102 137 171 210 254 305
#     4  11  21  32  48  70  98 135 177 212 252 304
#     4   9  18  34  52  72 102 133 166 210 257 306
#     4  11  22  35  50  72 105 141 173 215 262 311
#     4   8  16  31  52  74  95 127 168 207 252 306
#     4   9  20  35  52  77 105 134 169 213 266 310
#
# _framework density 18.599568000000001
#
# number of rings (size 3 to 8) (size 9 to 14) (size 15 to 20)
#    0.000    2.250    1.250    3.000    1.750    1.500 
#    0.000    2.500    0.000    0.750    0.000    0.000 
#    0.000    0.000    0.000    0.000    0.000    0.250 
#
# Total GULP energy -178186.807003 kJ/mol
# GULP energy per Si atom -5568.337719 kJ/mol
# Density = 1.855723 g / cm^3
# Si number density = 18.599568 Si / 1000 Ang^3
#
#
#
# Elastic Constant Matrix: (Units=GPa)
#
#
# Indices 1 2 3 4 5 6 
#
# 1 37.5050 9.5571 35.3675 0.0000 -16.1512 0.0000
# 2 9.5571 21.1712 17.2196 0.0000 0.3247 0.0000
# 3 35.3675 17.2196 163.9739 0.0000 -20.9106 0.0000
# 4 0.0000 0.0000 0.0000 26.0554 0.0000 -2.0331
# 5 -16.1512 0.3247 -20.9106 0.0000 30.7152 0.0000
# 6 0.0000 0.0000 0.0000 -2.0331 0.0000 12.0651
#
#
#
# Elastic Compliance Matrix: (Units=1/GPa)
#
#
# Indices 1 2 3 4 5 6 
#
# 1 0.044316 -0.015954 -0.005355 0.000000 0.019826 0.000000
# 2 -0.015954 0.058000 -0.004159 0.000000 -0.011833 0.000000
# 3 -0.005355 -0.004159 0.008034 0.000000 0.002698 0.000000
# 4 0.000000 0.000000 0.000000 0.038891 0.000000 0.006554
# 5 0.019826 -0.011833 0.002698 0.000000 0.044944 0.000000
# 6 0.000000 0.000000 0.000000 0.006554 0.000000 0.083988
#
#
# Mechanical properties :
#
#
# Convention : Reuss Voigt Hill
#
# Bulk Modulus (GPa) = 16.83069 38.54871 27.68970
# Shear Modulus (GPa) = 14.33021 24.46754 19.39888
#
# Velocity S-wave (km/s) = 2.77873 3.63090 3.23302
# Velocity P-wave (km/s) = 4.40042 6.19262 5.37179
#
# Compressibility (1/GPa) = 0.05941529
#
# Stress axis : x y z
#
# Youngs Moduli (GPa) = 22.56520 17.24145 124.46659
#
# Poissons Ratio (x) = 0.27507 0.66650
# Poissons Ratio (y) = 0.36000 0.51763
# Poissons Ratio (z) = 0.12083 0.07170
#
# Static dielectric constant tensor:
#      x y z
#    x 1.644010 0.000000 -0.023570 
#    y 0.000000 1.665540 0.000000 
#    z -0.023570 0.000000 1.699280 
# 
# From -- ./inp_files/51753.got.cif
#   From: 2010.05.17/outbox.cif.g08.bks.cpg/sg11_26_cif.got.tgz:51753.got - 2010.06.03 12:22:45.
