data_PCOD9161133
_publ_section_title
;
Structure prediction by ZEFSAII (Michael W. Deem and Ramdas Pophale) SiO2 
 PCOD9161133
Probable space group: P 21/M
;
_chemical_formula_sum "Si O2"
_cell_formula_units_Z 32
_cell_length_a 24.632078
_cell_length_b 8.758107
_cell_length_c 36.019396
_cell_angle_alpha 90.000000
_cell_angle_beta 164.089142
_cell_angle_gamma 90.000000
_cell_volume 2130.210216
_symmetry_space_group_name_H-M "P 21/M"
_symmetry_group_IT_number 11
_symmetry_cell_setting 'monoclinic'
loop_
_space_group_symop_operation_xyz
x,y,z
-x,1/2+y,-z
-x,-y,-z
x,1/2-y,z
loop_
_atom_site_type_symbol
_atom_site_label
_atom_site_fract_x
_atom_site_fract_y
_atom_site_fract_z
Si Si1 0.024619 0.433925 0.684636
Si Si2 0.601728 0.066373 0.426291
Si Si3 0.224746 0.066485 0.895728
Si Si4 0.406122 0.066734 0.497619
Si Si5 0.152093 0.433740 0.129674
Si Si6 0.022469 0.067399 0.200077
Si Si7 0.860884 0.432537 0.797158
Si Si8 0.392436 0.567588 0.892983
O O1 0.036851 0.250000 0.690669
O O2 0.106405 0.476333 0.779836
O O3 0.171655 0.502938 0.750747
O O4 0.795679 0.483054 0.531071
O O5 0.601927 0.250000 0.426281
O O6 0.379183 0.017071 0.269582
O O7 0.635627 0.009914 0.490408
O O8 0.206231 0.250000 0.887223
O O9 0.455884 0.028370 0.040376
O O10 0.133355 0.987998 0.871609
O O11 0.395871 0.250000 0.494936
O O12 0.237084 0.019812 0.357842
O O13 0.632096 0.027053 0.636642
O O14 0.145201 0.250000 0.125191
O O15 0.104362 0.494581 0.139607
O O16 0.000000 0.500000 0.000000
O O17 0.017569 0.250000 0.193845
O O18 0.004865 0.994700 0.147845
O O19 0.876591 0.250000 0.810190
O O20 0.387289 0.750000 0.892393
O O21 0.500000 0.500000 0.000000
#
# Coordination Sequence:
#
# PCOD9161133 Si02
#       8
#     4   4   4   4   4   4   4   4
#     4   9  16  27  42  61  85 114 151 188 222 260
#     4   9  17  29  46  66  88 117 150 184 223 267
#     4   9  17  28  40  56  83 120 155 183 219 260
#     4   9  18  29  41  61  87 116 150 186 220 257
#     4  10  20  35  53  70  90 115 145 184 229 273
#     4  11  20  28  41  63  89 117 152 188 220 258
#     4  10  20  33  47  63  86 116 149 184 224 266
#     4   9  17  27  39  56  81 115 153 188 222 259
#
# _framework density 15.021991
#
# number of rings (size 3 to 8) (size 9 to 14) (size 15 to 20)
#    0.000    2.500    1.250    2.625    0.000    4.500 
#    0.000    0.000    0.000    0.000    0.000    0.000 
#    0.000    1.000    0.000    3.000    0.000    4.625 
#
# Total GULP energy -178239.509114 kJ/mol
# GULP energy per Si atom -5569.984660 kJ/mol
# Density = 1.498780 g / cm^3
# Si number density = 15.021991 Si / 1000 Ang^3
#
#
#
# Elastic Constant Matrix: (Units=GPa)
#
#
# Indices 1 2 3 4 5 6 
#
# 1 103.4210 39.5943 63.2255 0.0000 17.0592 0.0000
# 2 39.5943 24.2244 27.4692 0.0000 6.3122 0.0000
# 3 63.2255 27.4692 82.0881 0.0000 7.2735 0.0000
# 4 0.0000 0.0000 0.0000 18.1916 0.0000 3.3872
# 5 17.0592 6.3122 7.2735 0.0000 15.5666 0.0000
# 6 0.0000 0.0000 0.0000 3.3872 0.0000 25.6288
#
#
#
# Elastic Compliance Matrix: (Units=1/GPa)
#
#
# Indices 1 2 3 4 5 6 
#
# 1 0.034619 -0.038162 -0.012418 0.000000 -0.016662 0.000000
# 2 -0.038162 0.113371 -0.008530 0.000000 -0.000165 0.000000
# 3 -0.012418 -0.008530 0.024086 0.000000 0.005813 0.000000
# 4 0.000000 0.000000 0.000000 0.056357 0.000000 -0.007448
# 5 -0.016662 -0.000165 0.005813 0.000000 0.079850 0.000000
# 6 0.000000 0.000000 0.000000 -0.007448 0.000000 0.040003
#
#
# Mechanical properties :
#
#
# Convention : Reuss Voigt Hill
#
# Bulk Modulus (GPa) = 18.56778 52.25684 35.41231
# Shear Modulus (GPa) = 10.32082 17.17370 13.74726
#
# Velocity S-wave (km/s) = 2.62400 3.38485 3.02841
# Velocity P-wave (km/s) = 4.64411 7.08087 5.98775
#
# Compressibility (1/GPa) = 0.05385675
#
# Stress axis : x y z
#
# Youngs Moduli (GPa) = 28.88586 8.82060 41.51837
#
# Poissons Ratio (x) = 0.33661 0.51556
# Poissons Ratio (y) = 1.10233 0.35416
# Poissons Ratio (z) = 0.35870 0.07524
#
# Static dielectric constant tensor:
#      x y z
#    x 1.502790 0.000000 0.059510 
#    y 0.000000 1.498770 0.000000 
#    z 0.059510 0.000000 1.534170 
# 
# From -- ./inp_files/40608.got.cif
#   From: 2010.05.17/outbox.cif.g08.bks.cpg/sg11_21_cif.got.tgz:40608.got - 2010.06.03 12:22:45.
