data_PCOD9161452
_publ_section_title
;
Structure prediction by ZEFSAII (Michael W. Deem and Ramdas Pophale) SiO2 
 PCOD9161452
Probable space group: P 21/M
;
_chemical_formula_sum "Si O2"
_cell_formula_units_Z 24
_cell_length_a 21.833896
_cell_length_b 7.785258
_cell_length_c 10.977797
_cell_angle_alpha 90.000000
_cell_angle_beta 33.760331
_cell_angle_gamma 90.000000
_cell_volume 1036.992424
_symmetry_space_group_name_H-M "P 21/M"
_symmetry_group_IT_number 11
_symmetry_cell_setting 'monoclinic'
loop_
_space_group_symop_operation_xyz
x,y,z
-x,1/2+y,-z
-x,-y,-z
x,1/2-y,z
loop_
_atom_site_type_symbol
_atom_site_label
_atom_site_fract_x
_atom_site_fract_y
_atom_site_fract_z
Si Si1 0.375787 0.057522 0.688536
Si Si2 0.841352 0.543636 0.341572
Si Si3 0.164836 0.462563 0.919295
Si Si4 0.376964 0.452849 0.165853
Si Si5 0.253075 0.549248 0.128662
Si Si6 0.960463 0.051832 0.389467
O O1 0.385874 0.250000 0.626141
O O2 0.287790 0.972641 0.743307
O O3 0.500000 0.000000 0.500000
O O4 0.312926 0.048034 0.921250
O O5 0.858672 0.750000 0.322728
O O6 0.870957 0.486531 0.156961
O O7 0.712062 0.510103 0.581264
O O8 0.905429 0.456082 0.346053
O O9 0.163094 0.250000 0.924960
O O10 0.080526 0.523490 0.163413
O O11 0.372540 0.250000 0.149745
O O12 0.330034 0.539253 0.121398
O O13 0.500000 0.500000 0.000000
O O14 0.243238 0.750000 0.111920
O O15 0.132526 0.477475 0.367252
O O16 0.973687 0.250000 0.403869
#
# Coordination Sequence:
#
# PCOD9161452 Si02
#       6
#     4   4   4   4   4   4
#     4  11  24  41  60  82 112 152 195 239 285 340
#     4   9  18  33  54  83 116 148 181 227 286 342
#     4   9  19  36  58  83 114 151 186 228 288 342
#     4  10  20  33  54  83 113 150 193 236 286 340
#     4  10  21  38  58  81 114 149 188 239 286 335
#     4   9  18  35  59  86 114 147 185 229 283 341
#
# _framework density 23.143851000000002
#
# number of rings (size 3 to 8) (size 9 to 14) (size 15 to 20)
#    0.000    2.333    0.000    2.000    2.333    2.000 
#    0.000    3.333    0.000    0.000    0.000    0.000 
#    0.000    0.000    0.000    0.000    0.000    0.000 
#
# Total GULP energy -134021.570626 kJ/mol
# GULP energy per Si atom -5584.232109 kJ/mol
# Density = 2.309117 g / cm^3
# Si number density = 23.143851 Si / 1000 Ang^3
#
#
#
# Elastic Constant Matrix: (Units=GPa)
#
#
# Indices 1 2 3 4 5 6 
#
# 1 62.5945 -3.6410 22.5775 0.0000 -2.3509 0.0000
# 2 -3.6410 36.6583 2.9739 0.0000 -8.8808 0.0000
# 3 22.5775 2.9739 103.5681 0.0000 -19.4548 0.0000
# 4 0.0000 0.0000 0.0000 10.5690 0.0000 2.6002
# 5 -2.3509 -8.8808 -19.4548 0.0000 43.1399 0.0000
# 6 0.0000 0.0000 0.0000 2.6002 0.0000 18.3453
#
#
#
# Elastic Compliance Matrix: (Units=1/GPa)
#
#
# Indices 1 2 3 4 5 6 
#
# 1 0.017499 0.001955 -0.003951 0.000000 -0.000426 0.000000
# 2 0.001955 0.028939 -0.000129 0.000000 0.006006 0.000000
# 3 -0.003951 -0.000129 0.011444 0.000000 0.004919 0.000000
# 4 0.000000 0.000000 0.000000 0.098034 0.000000 -0.013895
# 5 -0.000426 0.006006 0.004919 0.000000 0.026612 0.000000
# 6 0.000000 0.000000 0.000000 -0.013895 0.000000 0.056479
#
#
# Mechanical properties :
#
#
# Convention : Reuss Voigt Hill
#
# Bulk Modulus (GPa) = 18.64527 27.40462 23.02495
# Shear Modulus (GPa) = 19.14728 26.47156 22.80942
#
# Velocity S-wave (km/s) = 2.87943 3.38566 3.14275
# Velocity P-wave (km/s) = 4.37362 5.21059 4.81034
#
# Compressibility (1/GPa) = 0.05363291
#
# Stress axis : x y z
#
# Youngs Moduli (GPa) = 57.14745 34.55595 87.37830
#
# Poissons Ratio (x) = -0.06757 0.34521
# Poissons Ratio (y) = -0.11175 0.01128
# Poissons Ratio (z) = 0.22577 0.00446
#
# Static dielectric constant tensor:
#      x y z
#    x 1.880030 0.000000 -0.028130 
#    y 0.000000 1.893350 0.000000 
#    z -0.028130 0.000000 1.893590 
# 
# From -- ./inp_files/33788.got.cif
#   From: 2010.05.17/outbox.cif.g08.bks.cpg/sg11_17_cif.got.tgz:33788.got - 2010.06.03 12:22:45.
