data_PCOD9161715
_publ_section_title
;
Structure prediction by ZEFSAII (Michael W. Deem and Ramdas Pophale) SiO2 
 PCOD9161715
Probable space group: P 21/M
;
_chemical_formula_sum "Si O2"
_cell_formula_units_Z 28
_cell_length_a 23.406031
_cell_length_b 8.816987
_cell_length_c 15.855178
_cell_angle_alpha 90.000000
_cell_angle_beta 154.374307
_cell_angle_gamma 90.000000
_cell_volume 1415.126556
_symmetry_space_group_name_H-M "P 21/M"
_symmetry_group_IT_number 11
_symmetry_cell_setting 'monoclinic'
loop_
_space_group_symop_operation_xyz
x,y,z
-x,1/2+y,-z
-x,-y,-z
x,1/2-y,z
loop_
_atom_site_type_symbol
_atom_site_label
_atom_site_fract_x
_atom_site_fract_y
_atom_site_fract_z
Si Si1 0.853007 0.068700 0.465504
Si Si2 0.409747 0.069776 0.952886
Si Si3 0.585701 0.068835 0.862846
Si Si4 0.855793 0.068301 0.951841
Si Si5 0.136841 0.931855 0.323877
Si Si6 0.345549 0.566815 0.458543
Si Si7 0.133187 0.568065 0.836676
O O1 0.839249 0.250000 0.439413
O O2 0.837658 0.025976 0.544461
O O3 0.738819 0.986817 0.261931
O O4 0.999049 0.016362 0.633275
O O5 0.418555 0.250000 0.962407
O O6 0.500000 0.000000 0.000000
O O7 0.453782 0.008750 0.102199
O O8 0.577764 0.250000 0.859488
O O9 0.485999 0.010750 0.658722
O O10 0.736829 0.027984 0.042528
O O11 0.865994 0.250000 0.958331
O O12 0.734548 0.020802 0.731652
O O13 0.839057 0.030609 0.028058
O O14 0.995442 0.998958 0.109854
O O15 0.127512 0.750000 0.308754
O O16 0.251857 0.977136 0.412943
O O17 0.360555 0.750000 0.478957
O O18 0.112453 0.750000 0.803285
#
# Coordination Sequence:
#
# PCOD9161715 Si02
#       7
#     4   4   4   4   4   4   4
#     4  10  20  36  60  87 115 150 191 234 283 338
#     4  12  25  42  64  89 117 147 182 227 281 341
#     4  11  24  40  58  81 112 151 194 239 285 337
#     4   9  18  33  55  81 111 149 190 234 283 337
#     4   9  18  32  52  81 114 145 181 229 281 338
#     4  10  20  34  53  80 115 152 189 235 291 340
#     4   9  20  39  58  81 114 151 195 241 284 334
#
# _framework density 19.786217000000001
#
# number of rings (size 3 to 8) (size 9 to 14) (size 15 to 20)
#    0.000    2.000    0.000    3.429    0.000    5.143 
#    0.000    0.000    0.000    0.000    0.000    0.000 
#    0.000    0.000    0.000    0.000    0.000    0.000 
#
# Total GULP energy -156484.778811 kJ/mol
# GULP energy per Si atom -5588.742100 kJ/mol
# Density = 1.974118 g / cm^3
# Si number density = 19.786217 Si / 1000 Ang^3
#
#
#
# Elastic Constant Matrix: (Units=GPa)
#
#
# Indices 1 2 3 4 5 6 
#
# 1 39.4092 15.6568 9.0532 0.0000 12.6971 0.0000
# 2 15.6568 42.2570 29.4676 0.0000 3.4697 0.0000
# 3 9.0532 29.4676 105.0455 0.0000 -3.9611 0.0000
# 4 0.0000 0.0000 0.0000 38.8358 0.0000 2.1909
# 5 12.6971 3.4697 -3.9611 0.0000 25.3506 0.0000
# 6 0.0000 0.0000 0.0000 2.1909 0.0000 21.1078
#
#
#
# Elastic Compliance Matrix: (Units=1/GPa)
#
#
# Indices 1 2 3 4 5 6 
#
# 1 0.035211 -0.011413 -0.000442 0.000000 -0.016143 0.000000
# 2 -0.011413 0.033858 -0.008524 0.000000 -0.000250 0.000000
# 3 -0.000442 -0.008524 0.012072 0.000000 0.003274 0.000000
# 4 0.000000 0.000000 0.000000 0.025901 0.000000 -0.002688
# 5 -0.016143 -0.000250 0.003274 0.000000 0.048078 0.000000
# 6 0.000000 0.000000 0.000000 -0.002688 0.000000 0.047655
#
#
# Mechanical properties :
#
#
# Convention : Reuss Voigt Hill
#
# Bulk Modulus (GPa) = 24.76168 32.78522 28.77345
# Shear Modulus (GPa) = 19.45573 25.89445 22.67509
#
# Velocity S-wave (km/s) = 3.13916 3.62154 3.38894
# Velocity P-wave (km/s) = 5.06763 5.83893 5.46690
#
# Compressibility (1/GPa) = 0.04038498
#
# Stress axis : x y z
#
# Youngs Moduli (GPa) = 28.39986 29.53534 82.83413
#
# Poissons Ratio (x) = 0.33708 0.03660
# Poissons Ratio (y) = 0.32412 0.70605
# Poissons Ratio (z) = 0.01255 0.25175
#
# Static dielectric constant tensor:
#      x y z
#    x 1.702330 0.000000 -0.012230 
#    y 0.000000 1.659820 0.000000 
#    z -0.012230 0.000000 1.686610 
# 
# From -- ./inp_files/54604.got.cif
#   From: 2010.05.17/outbox.cif.g08.bks.cpg/sg11_28_cif.got.tgz:54604.got - 2010.06.03 12:22:45.
