data_PCOD9161027
_publ_section_title
;
Structure prediction by ZEFSAII (Michael W. Deem and Ramdas Pophale) SiO2 
 PCOD9161027
Probable space group: P 21/M
;
_chemical_formula_sum "Si O2"
_cell_formula_units_Z 32
_cell_length_a 7.012596
_cell_length_b 9.492591
_cell_length_c 22.077275
_cell_angle_alpha 90.000000
_cell_angle_beta 109.466494
_cell_angle_gamma 90.000000
_cell_volume 1385.624201
_symmetry_space_group_name_H-M "P 21/M"
_symmetry_group_IT_number 11
_symmetry_cell_setting 'monoclinic'
loop_
_space_group_symop_operation_xyz
x,y,z
-x,1/2+y,-z
-x,-y,-z
x,1/2-y,z
loop_
_atom_site_type_symbol
_atom_site_label
_atom_site_fract_x
_atom_site_fract_y
_atom_site_fract_z
Si Si1 0.299332 0.091201 0.657160
Si Si2 0.273208 0.589386 0.541246
Si Si3 0.397121 0.413779 0.077969
Si Si4 0.355517 0.588825 0.781914
Si Si5 0.946820 0.911141 0.818153
Si Si6 0.775326 0.407418 0.696506
Si Si7 0.188297 0.585691 0.957379
Si Si8 0.764668 0.588917 0.581522
O O1 0.213375 0.250000 0.646785
O O2 0.535275 0.105445 0.663769
O O3 0.215305 0.983989 0.598220
O O4 0.310607 0.019218 0.723862
O O5 0.200026 0.750000 0.527872
O O6 0.519299 0.595947 0.563926
O O7 0.207472 0.491776 0.478586
O O8 0.340709 0.250000 0.073342
O O9 0.462667 0.453913 0.153166
O O10 0.604957 0.424296 0.060680
O O11 0.233439 0.499486 0.022539
O O12 0.390150 0.750000 0.763324
O O13 0.156758 0.594135 0.802694
O O14 0.870693 0.750000 0.812277
O O15 0.011449 0.958360 0.892167
O O16 0.812622 0.012195 0.763204
O O17 0.862665 0.250000 0.707040
O O18 0.848026 0.500207 0.647322
O O19 0.158605 0.750000 0.968289
O O20 0.837681 0.750000 0.589713
#
# Coordination Sequence:
#
# PCOD9161027 Si02
#       8
#     4   4   4   4   4   4   4   4
#     4  10  20  32  47  70  98 126 158 195 233 276
#     4   9  16  27  45  68  93 121 154 193 234 274
#     4   8  14  25  42  65  91 117 148 188 231 274
#     4   9  18  32  49  70  96 125 157 193 234 281
#     4   9  18  32  49  70  96 125 157 193 234 281
#     4  10  20  32  47  70  98 126 158 195 233 276
#     4   8  14  25  42  65  91 117 148 188 231 274
#     4   9  16  27  45  68  93 121 154 193 234 274
#
# _framework density 23.094287000000001
#
# number of rings (size 3 to 8) (size 9 to 14) (size 15 to 20)
#    0.000    3.000    0.000    3.000    0.000    6.000 
#    0.000    2.500    0.000    1.500    0.000    0.000 
#    0.000    0.000    0.000    0.000    0.000    0.000 
#
# Total GULP energy -178930.597638 kJ/mol
# GULP energy per Si atom -5591.581176 kJ/mol
# Density = 2.304172 g / cm^3
# Si number density = 23.094287 Si / 1000 Ang^3
#
#
#
# Elastic Constant Matrix: (Units=GPa)
#
#
# Indices 1 2 3 4 5 6 
#
# 1 61.2913 7.0627 14.8018 0.0000 -1.4256 0.0000
# 2 7.0627 167.7997 118.7945 0.0000 -6.6037 0.0000
# 3 14.8018 118.7945 182.0205 0.0000 -14.4003 0.0000
# 4 0.0000 0.0000 0.0000 38.9803 0.0000 -0.1026
# 5 -1.4256 -6.6037 -14.4003 0.0000 43.7816 0.0000
# 6 0.0000 0.0000 0.0000 -0.1026 0.0000 13.5511
#
#
#
# Elastic Compliance Matrix: (Units=1/GPa)
#
#
# Indices 1 2 3 4 5 6 
#
# 1 0.016663 0.000477 -0.001661 0.000000 0.000068 0.000000
# 2 0.000477 0.011114 -0.007350 0.000000 -0.000726 0.000000
# 3 -0.001661 -0.007350 0.010610 0.000000 0.002327 0.000000
# 4 0.000000 0.000000 0.000000 0.025655 0.000000 0.000194
# 5 0.000068 -0.000726 0.002327 0.000000 0.023499 0.000000
# 6 0.000000 0.000000 0.000000 0.000194 0.000000 0.073796
#
#
# Mechanical properties :
#
#
# Convention : Reuss Voigt Hill
#
# Bulk Modulus (GPa) = 46.90417 76.93662 61.92040
# Shear Modulus (GPa) = 26.95263 37.29277 32.12270
#
# Velocity S-wave (km/s) = 3.41995 4.02282 3.73357
# Velocity P-wave (km/s) = 5.99572 7.41377 6.74213
#
# Compressibility (1/GPa) = 0.02132007
#
# Stress axis : x y z
#
# Youngs Moduli (GPa) = 60.01216 89.97527 94.25178
#
# Poissons Ratio (x) = -0.04295 0.15657
# Poissons Ratio (y) = -0.02865 0.69273
# Poissons Ratio (z) = 0.09969 0.66130
#
# Static dielectric constant tensor:
#      x y z
#    x 1.990710 0.000000 -0.000270 
#    y 0.000000 1.795720 0.000000 
#    z -0.000270 0.000000 1.815330 
# 
# From -- ./inp_files/64260.got.cif
#   From: 2010.05.17/outbox.cif.g08.bks.cpg/sg11_33_cif.got.tgz:64260.got - 2010.06.03 12:22:45.
