data_PCOD9161940
_publ_section_title
;
Structure prediction by ZEFSAII (Michael W. Deem and Ramdas Pophale) SiO2 
 PCOD9161940
Probable space group: P 21/M
;
_chemical_formula_sum "Si O2"
_cell_formula_units_Z 32
_cell_length_a 22.277838
_cell_length_b 8.841021
_cell_length_c 25.556978
_cell_angle_alpha 90.000000
_cell_angle_beta 23.095056
_cell_angle_gamma 90.000000
_cell_volume 1974.497052
_symmetry_space_group_name_H-M "P 21/M"
_symmetry_group_IT_number 11
_symmetry_cell_setting 'monoclinic'
loop_
_space_group_symop_operation_xyz
x,y,z
-x,1/2+y,-z
-x,-y,-z
x,1/2-y,z
loop_
_atom_site_type_symbol
_atom_site_label
_atom_site_fract_x
_atom_site_fract_y
_atom_site_fract_z
Si Si1 0.223134 0.071370 0.179601
Si Si2 0.292812 0.568518 0.622471
Si Si3 0.882818 0.431672 0.051677
Si Si4 0.483875 0.928882 0.115689
Si Si5 0.398912 0.930721 0.652838
Si Si6 0.237744 0.570263 0.059924
Si Si7 0.854777 0.067882 0.647136
Si Si8 0.948932 0.932039 0.885528
O O1 0.191114 0.250000 0.207320
O O2 0.165116 0.999372 0.171532
O O3 0.158993 0.991530 0.282326
O O4 0.407659 0.053053 0.022924
O O5 0.297735 0.750000 0.618135
O O6 0.435709 0.504676 0.476341
O O7 0.320500 0.519374 0.660743
O O8 0.126733 0.522302 0.735573
O O9 0.902475 0.250000 0.033388
O O10 0.714762 0.465392 0.209074
O O11 0.905328 0.506102 0.977489
O O12 0.000000 0.500000 0.000000
O O13 0.486586 0.750000 0.125946
O O14 0.309416 0.975913 0.247064
O O15 0.584249 0.018847 0.077711
O O16 0.416360 0.750000 0.635727
O O17 0.226815 0.750000 0.069080
O O18 0.156696 0.500965 0.074629
O O19 0.864046 0.250000 0.639464
O O20 0.000000 0.000000 0.500000
O O21 0.939195 0.750000 0.892755
#
# Coordination Sequence:
#
# PCOD9161940 Si02
#       8
#     4   4   4   4   4   4   4   4
#     4   9  18  35  56  79 107 142 179 220 264 310
#     4   9  18  32  51  74 100 133 169 207 257 314
#     4  11  21  34  52  78 107 136 172 219 271 321
#     4   8  18  35  55  78 107 143 179 215 261 311
#     4   9  18  33  49  73 104 132 164 209 262 314
#     4  10  20  34  56  81 104 137 182 225 266 313
#     4  11  21  33  53  85 118 147 179 218 265 316
#     4  11  21  36  55  78 106 136 176 221 265 322
#
# _framework density 16.206658999999998
#
# number of rings (size 3 to 8) (size 9 to 14) (size 15 to 20)
#    0.750    1.500    1.250    2.625    0.000    3.000 
#    0.000    0.000    2.750    0.000    0.000    0.000 
#    0.000    0.000    0.000    0.000    0.000    0.000 
#
# Total GULP energy -178205.290961 kJ/mol
# GULP energy per Si atom -5568.915343 kJ/mol
# Density = 1.616977 g / cm^3
# Si number density = 16.206659 Si / 1000 Ang^3
#
#
#
# Elastic Constant Matrix: (Units=GPa)
#
#
# Indices 1 2 3 4 5 6 
#
# 1 133.6653 58.9802 70.8378 0.0000 -6.4795 0.0000
# 2 58.9802 68.1382 54.1779 0.0000 -2.1717 0.0000
# 3 70.8378 54.1779 119.6928 0.0000 1.1780 0.0000
# 4 0.0000 0.0000 0.0000 28.8637 0.0000 1.9618
# 5 -6.4795 -2.1717 1.1780 0.0000 8.0845 0.0000
# 6 0.0000 0.0000 0.0000 1.9618 0.0000 25.2245
#
#
#
# Elastic Compliance Matrix: (Units=1/GPa)
#
#
# Indices 1 2 3 4 5 6 
#
# 1 0.014026 -0.008050 -0.004754 0.000000 0.009772 0.000000
# 2 -0.008050 0.028035 -0.007947 0.000000 0.002237 0.000000
# 3 -0.004754 -0.007947 0.014845 0.000000 -0.008108 0.000000
# 4 0.000000 0.000000 0.000000 0.034830 0.000000 -0.002709
# 5 0.009772 0.002237 -0.008108 0.000000 0.133308 0.000000
# 6 0.000000 0.000000 0.000000 -0.002709 0.000000 0.039855
#
#
# Mechanical properties :
#
#
# Convention : Reuss Voigt Hill
#
# Bulk Modulus (GPa) = 64.91805 76.60977 70.76391
# Shear Modulus (GPa) = 16.04954 21.60123 18.82538
#
# Velocity S-wave (km/s) = 3.15033 3.65480 3.41190
# Velocity P-wave (km/s) = 7.30590 8.07361 7.69933
#
# Compressibility (1/GPa) = 0.01540404
#
# Stress axis : x y z
#
# Youngs Moduli (GPa) = 71.29369 35.67027 67.36201
#
# Poissons Ratio (x) = 0.28715 0.32022
# Poissons Ratio (y) = 0.57392 0.53535
# Poissons Ratio (z) = 0.33891 0.28348
#
# Static dielectric constant tensor:
#      x y z
#    x 1.527890 0.000000 -0.007590 
#    y 0.000000 1.537240 0.000000 
#    z -0.007590 0.000000 1.544090 
# 
# From -- ./inp_files/72281.got.cif
#   From: 2010.05.17/outbox.cif.g08.bks.cpg/sg11_37_cif.got.tgz:72281.got - 2010.06.03 12:22:45.
