data_PCOD9161340
_publ_section_title
;
Structure prediction by ZEFSAII (Michael W. Deem and Ramdas Pophale) SiO2 
 PCOD9161340
Probable space group: P 21/M
;
_chemical_formula_sum "Si O2"
_cell_formula_units_Z 28
_cell_length_a 6.508363
_cell_length_b 14.119259
_cell_length_c 14.711724
_cell_angle_alpha 90.000000
_cell_angle_beta 104.036405
_cell_angle_gamma 90.000000
_cell_volume 1311.542794
_symmetry_space_group_name_H-M "P 21/M"
_symmetry_group_IT_number 11
_symmetry_cell_setting 'monoclinic'
loop_
_space_group_symop_operation_xyz
x,y,z
-x,1/2+y,-z
-x,-y,-z
x,1/2-y,z
loop_
_atom_site_type_symbol
_atom_site_label
_atom_site_fract_x
_atom_site_fract_y
_atom_site_fract_z
Si Si1 0.067813 0.481171 0.794705
Si Si2 0.855884 0.857603 0.855621
Si Si3 0.529882 0.490723 0.894645
Si Si4 0.099800 0.856594 0.067616
Si Si5 0.083398 0.641769 0.535906
Si Si6 0.344111 0.465746 0.564383
Si Si7 0.740898 0.143081 0.650543
O O1 0.960330 0.584102 0.785252
O O2 0.035627 0.431677 0.890244
O O3 0.930375 0.415801 0.715183
O O4 0.316388 0.486879 0.814704
O O5 0.798574 0.750000 0.828335
O O6 0.663771 0.920045 0.873012
O O7 0.028182 0.857673 0.955481
O O8 0.664336 0.395127 0.895917
O O9 0.500000 0.500000 0.000000
O O10 0.068313 0.750000 0.097281
O O11 0.082329 0.750000 0.572889
O O12 0.223948 0.556841 0.595370
O O13 0.194166 0.647688 0.448555
O O14 0.845663 0.600592 0.495059
O O15 0.500000 0.500000 0.500000
O O16 0.513447 0.406563 0.641110
O O17 0.732467 0.250000 0.684225
#
# Coordination Sequence:
#
# PCOD9161340 Si02
#       7
#     4   4   4   4   4   4   4
#     4  11  21  36  53  77 112 145 184 231 281 334
#     4  10  21  36  54  74 100 140 190 239 285 333
#     4  11  19  34  52  75 102 135 184 238 284 330
#     4  10  20  33  52  78 104 135 181 235 286 334
#     4   9  18  34  59  90 117 146 188 224 264 323
#     4   9  18  35  59  85 116 150 183 219 266 322
#     4  10  21  35  55  84 118 151 177 218 281 335
#
# _framework density 21.348901000000001
#
# number of rings (size 3 to 8) (size 9 to 14) (size 15 to 20)
#    0.000    2.000    2.857    1.714    0.000    5.143 
#    0.000    2.143    0.000    4.286    0.000    0.000 
#    0.000    0.000    0.000    0.000    0.000    0.000 
#
# Total GULP energy -156250.912553 kJ/mol
# GULP energy per Si atom -5580.389734 kJ/mol
# Density = 2.130031 g / cm^3
# Si number density = 21.348901 Si / 1000 Ang^3
#
#
#
# Elastic Constant Matrix: (Units=GPa)
#
#
# Indices 1 2 3 4 5 6 
#
# 1 109.3142 50.7852 23.7937 0.0000 43.8172 0.0000
# 2 50.7852 169.2119 29.0488 0.0000 35.4862 0.0000
# 3 23.7937 29.0488 55.0874 0.0000 29.5843 0.0000
# 4 0.0000 0.0000 0.0000 23.5262 0.0000 -0.7757
# 5 43.8172 35.4862 29.5843 0.0000 39.3362 0.0000
# 6 0.0000 0.0000 0.0000 -0.7757 0.0000 16.1643
#
#
#
# Elastic Compliance Matrix: (Units=1/GPa)
#
#
# Indices 1 2 3 4 5 6 
#
# 1 0.017570 -0.001528 0.005011 0.000000 -0.021963 0.000000
# 2 -0.001528 0.007431 -0.000960 0.000000 -0.004279 0.000000
# 3 0.005011 -0.000960 0.031920 0.000000 -0.028723 0.000000
# 4 0.000000 0.000000 0.000000 0.042573 0.000000 0.002043
# 5 -0.021963 -0.004279 -0.028723 0.000000 0.075349 0.000000
# 6 0.000000 0.000000 0.000000 0.002043 0.000000 0.061963
#
#
# Mechanical properties :
#
#
# Convention : Reuss Voigt Hill
#
# Bulk Modulus (GPa) = 16.13741 60.09652 38.11697
# Shear Modulus (GPa) = 19.80866 31.13774 25.47320
#
# Velocity S-wave (km/s) = 3.04937 3.82320 3.45800
# Velocity P-wave (km/s) = 4.46918 6.90651 5.81694
#
# Compressibility (1/GPa) = 0.06196780
#
# Stress axis : x y z
#
# Youngs Moduli (GPa) = 56.91402 134.57947 31.32824
#
# Poissons Ratio (x) = 0.20561 -0.15700
# Poissons Ratio (y) = 0.08695 0.03008
# Poissons Ratio (z) = -0.28522 0.12923
#
# Static dielectric constant tensor:
#      x y z
#    x 1.740730 0.000000 -0.059550 
#    y 0.000000 1.794050 0.000000 
#    z -0.059550 0.000000 1.799360 
# 
# From -- ./inp_files/7946.got.cif
#   From: 2010.05.17/outbox.cif.g08.bks.cpg/sg11_4_cif.got.tgz:7946.got - 2010.06.03 12:22:45.
