data_PCOD9161618
_publ_section_title
;
Structure prediction by ZEFSAII (Michael W. Deem and Ramdas Pophale) SiO2 
 PCOD9161618
Probable space group: P 21/M
;
_chemical_formula_sum "Si O2"
_cell_formula_units_Z 32
_cell_length_a 14.458886
_cell_length_b 8.838159
_cell_length_c 16.155328
_cell_angle_alpha 90.000000
_cell_angle_beta 63.416973
_cell_angle_gamma 90.000000
_cell_volume 1846.244708
_symmetry_space_group_name_H-M "P 21/M"
_symmetry_group_IT_number 11
_symmetry_cell_setting 'monoclinic'
loop_
_space_group_symop_operation_xyz
x,y,z
-x,1/2+y,-z
-x,-y,-z
x,1/2-y,z
loop_
_atom_site_type_symbol
_atom_site_label
_atom_site_fract_x
_atom_site_fract_y
_atom_site_fract_z
Si Si1 0.168571 0.927474 0.441400
Si Si2 0.144740 0.430403 0.269992
Si Si3 0.712589 0.930515 0.358323
Si Si4 0.341260 0.930892 0.101051
Si Si5 0.390028 0.572527 0.441401
Si Si6 0.585267 0.430403 0.269994
Si Si7 0.557688 0.569108 0.101052
Si Si8 0.929088 0.569484 0.358323
O O1 0.142214 0.750000 0.443741
O O2 0.286422 0.938011 0.427156
O O3 0.158487 0.009102 0.358087
O O4 0.098587 0.003672 0.540044
O O5 0.146276 0.250000 0.268300
O O6 0.238083 0.496492 0.178612
O O7 0.033775 0.492959 0.285606
O O8 0.699641 0.750000 0.358756
O O9 0.829489 0.963117 0.341022
O O10 0.638632 0.996329 0.459955
O O11 0.680618 0.007040 0.285607
O O12 0.330438 0.750000 0.099208
O O13 0.438374 0.962375 0.123251
O O14 0.373303 1.000000 0.999999
O O15 0.414045 0.750000 0.443741
O O16 0.483426 0.490898 0.358088
O O17 0.585424 0.250000 0.268301
O O18 0.583302 0.496492 0.178614
O O19 0.570353 0.750000 0.099209
O O20 0.941604 0.750000 0.358755
#
# Coordination Sequence:
#
# PCOD9161618 Si02
#       8
#     4   4   4   4   4   4   4   4
#     4  10  20  34  52  76 108 143 179 220 264 312
#     4  12  23  34  53  79 108 142 179 218 261 314
#     4  10  21  37  55  75 103 140 181 224 267 312
#     4  10  21  38  59  83 111 140 172 213 261 313
#     4  10  20  34  52  76 108 143 179 220 264 312
#     4  12  23  34  53  79 108 142 179 218 261 314
#     4  10  21  38  59  83 111 140 172 213 261 313
#     4  10  21  37  55  75 103 140 181 224 267 312
#
# _framework density 17.33248
#
# number of rings (size 3 to 8) (size 9 to 14) (size 15 to 20)
#    0.000    1.500    0.000    6.000    0.000    7.500 
#    0.000    0.000    0.000    0.750    0.000    0.000 
#    0.000    0.000    0.000    0.000    0.000    0.000 
#
# Total GULP energy -178936.639366 kJ/mol
# GULP energy per Si atom -5591.769980 kJ/mol
# Density = 1.729303 g / cm^3
# Si number density = 17.332480 Si / 1000 Ang^3
#
#
#
# Elastic Constant Matrix: (Units=GPa)
#
#
# Indices 1 2 3 4 5 6 
#
# 1 103.1490 78.2499 94.2200 0.0000 0.0001 0.0000
# 2 78.2499 142.0850 83.6827 0.0000 0.0005 0.0000
# 3 94.2200 83.6827 126.8532 0.0000 0.0002 0.0000
# 4 0.0000 0.0000 0.0000 34.3221 0.0000 -0.0001
# 5 0.0001 0.0005 0.0002 0.0000 33.0312 0.0000
# 6 0.0000 0.0000 0.0000 -0.0001 0.0000 27.8993
#
#
#
# Elastic Compliance Matrix: (Units=1/GPa)
#
#
# Indices 1 2 3 4 5 6 
#
# 1 0.033128 -0.006137 -0.020557 0.000000 0.000000 0.000000
# 2 -0.006137 0.012647 -0.003785 0.000000 0.000000 0.000000
# 3 -0.020557 -0.003785 0.025649 0.000000 0.000000 0.000000
# 4 0.000000 0.000000 0.000000 0.029136 0.000000 0.000000
# 5 0.000000 0.000000 0.000000 0.000000 0.030274 0.000000
# 6 0.000000 0.000000 0.000000 0.000000 0.000000 0.035843
#
#
# Mechanical properties :
#
#
# Convention : Reuss Voigt Hill
#
# Bulk Modulus (GPa) = 95.55059 98.26584 96.90822
# Shear Modulus (GPa) = 21.63341 26.77950 24.20645
#
# Velocity S-wave (km/s) = 3.53674 3.93497 3.74116
# Velocity P-wave (km/s) = 8.48091 8.80131 8.64259
#
# Compressibility (1/GPa) = 0.01046566
#
# Stress axis : x y z
#
# Youngs Moduli (GPa) = 30.18575 79.07094 38.98816
#
# Poissons Ratio (x) = 0.48526 0.80150
# Poissons Ratio (y) = 0.18525 0.14756
# Poissons Ratio (z) = 0.62054 0.29926
#
# Static dielectric constant tensor:
#      x y z
#    x 1.606610 0.000000 0.000000 
#    y 0.000000 1.571630 0.000000 
#    z 0.000000 0.000000 1.546640 
# 
# From -- ./inp_files/51666.got.cif
#   From: 2010.05.17/outbox.cif.g08.bks.cpg/sg11_26_cif.got.tgz:51666.got - 2010.06.03 12:22:45.
