data_PCOD9161653
_publ_section_title
;
Structure prediction by ZEFSAII (Michael W. Deem and Ramdas Pophale) SiO2 
 PCOD9161653
Probable space group: P 21/M
;
_chemical_formula_sum "Si O2"
_cell_formula_units_Z 24
_cell_length_a 7.717086
_cell_length_b 16.830314
_cell_length_c 10.058338
_cell_angle_alpha 90.000000
_cell_angle_beta 126.987743
_cell_angle_gamma 90.000000
_cell_volume 1043.495055
_symmetry_space_group_name_H-M "P 21/M"
_symmetry_group_IT_number 11
_symmetry_cell_setting 'monoclinic'
loop_
_space_group_symop_operation_xyz
x,y,z
-x,1/2+y,-z
-x,-y,-z
x,1/2-y,z
loop_
_atom_site_type_symbol
_atom_site_label
_atom_site_fract_x
_atom_site_fract_y
_atom_site_fract_z
Si Si1 0.735312 0.836434 0.018080
Si Si2 0.810606 0.663781 0.531458
Si Si3 0.706888 0.165248 0.356077
Si Si4 0.974635 0.163432 0.110153
Si Si5 0.589727 0.500482 0.392775
Si Si6 0.788706 0.002903 0.997351
O O1 0.756558 0.750000 0.099607
O O2 0.500448 0.835935 0.838049
O O3 0.920015 0.836499 0.987645
O O4 0.768409 0.927024 0.086696
O O5 0.711951 0.750000 0.449461
O O6 0.712705 0.583573 0.430294
O O7 0.063278 0.667257 0.610977
O O8 0.819923 0.656880 0.695929
O O9 0.688793 0.250000 0.423711
O O10 0.712180 0.083170 0.437662
O O11 0.871589 0.250000 0.082779
O O12 0.815606 0.090696 0.068534
O O13 0.500000 0.500000 0.500000
O O14 0.407734 0.499131 0.195645
O O15 0.000000 0.000000 0.000000
#
# Coordination Sequence:
#
# PCOD9161653 Si02
#       6
#     4   4   4   4   4   4
#     4   8  14  27  47  68  91 124 165 205 246 296
#     4  10  20  34  53  76 102 135 173 212 259 313
#     4   9  18  33  52  74 102 135 171 211 258 312
#     4   9  17  31  51  72  97 131 170 210 255 310
#     4  11  21  33  53  79 106 136 174 218 259 305
#     4   9  17  30  48  73 100 129 166 210 256 300
#
# _framework density 22.99963
#
# number of rings (size 3 to 8) (size 9 to 14) (size 15 to 20)
#    0.000    2.667    0.000    3.500    0.000    2.667 
#    0.000    3.333    0.000    5.000    0.000   11.667 
#    0.000    0.000    0.000    0.000    0.000    0.000 
#
# Total GULP energy -133713.607674 kJ/mol
# GULP energy per Si atom -5571.400320 kJ/mol
# Density = 2.294728 g / cm^3
# Si number density = 22.999630 Si / 1000 Ang^3
#
#
#
# Elastic Constant Matrix: (Units=GPa)
#
#
# Indices 1 2 3 4 5 6 
#
# 1 38.1554 37.4968 2.8729 0.0000 4.3034 0.0000
# 2 37.4968 276.5383 40.8601 0.0000 20.1663 0.0000
# 3 2.8729 40.8601 21.1014 0.0000 3.8676 0.0000
# 4 0.0000 0.0000 0.0000 31.8972 0.0000 6.7970
# 5 4.3034 20.1663 3.8676 0.0000 16.6487 0.0000
# 6 0.0000 0.0000 0.0000 6.7970 0.0000 9.3438
#
#
#
# Elastic Compliance Matrix: (Units=1/GPa)
#
#
# Indices 1 2 3 4 5 6 
#
# 1 0.030863 -0.004766 0.005673 0.000000 -0.003522 0.000000
# 2 -0.004766 0.006074 -0.010434 0.000000 -0.003701 0.000000
# 3 0.005673 -0.010434 0.067655 0.000000 -0.004544 0.000000
# 4 0.000000 0.000000 0.000000 0.037102 0.000000 -0.026989
# 5 -0.003522 -0.003701 -0.004544 0.000000 0.066514 0.000000
# 6 0.000000 0.000000 0.000000 -0.026989 0.000000 0.126655
#
#
# Mechanical properties :
#
#
# Convention : Reuss Voigt Hill
#
# Bulk Modulus (GPa) = 11.69089 55.36164 33.52626
# Shear Modulus (GPa) = 13.07426 28.54896 20.81161
#
# Velocity S-wave (km/s) = 2.38682 3.52700 3.01136
# Velocity P-wave (km/s) = 3.56230 6.38038 5.16717
#
# Compressibility (1/GPa) = 0.08553670
#
# Stress axis : x y z
#
# Youngs Moduli (GPa) = 32.40172 164.63506 14.78077
#
# Poissons Ratio (x) = 0.78467 -0.08385
# Poissons Ratio (y) = 0.15443 0.15423
# Poissons Ratio (z) = -0.18381 1.71785
#
# Static dielectric constant tensor:
#      x y z
#    x 1.886570 0.000000 -0.032460 
#    y 0.000000 2.038750 0.000000 
#    z -0.032460 0.000000 1.847620 
# 
# From -- ./inp_files/26995.got.cif
#   From: 2010.05.17/outbox.cif.g08.bks.cpg/sg11_14_cif.got.tgz:26995.got - 2010.06.03 12:22:45.
