data_PCOD9161039
_publ_section_title
;
Structure prediction by ZEFSAII (Michael W. Deem and Ramdas Pophale) SiO2 
 PCOD9161039
Probable space group: P 21/M
;
_chemical_formula_sum "Si O2"
_cell_formula_units_Z 32
_cell_length_a 12.806473
_cell_length_b 7.729410
_cell_length_c 18.404978
_cell_angle_alpha 90.000000
_cell_angle_beta 102.175122
_cell_angle_gamma 90.000000
_cell_volume 1780.866279
_symmetry_space_group_name_H-M "P 21/M"
_symmetry_group_IT_number 11
_symmetry_cell_setting 'monoclinic'
loop_
_space_group_symop_operation_xyz
x,y,z
-x,1/2+y,-z
-x,-y,-z
x,1/2-y,z
loop_
_atom_site_type_symbol
_atom_site_label
_atom_site_fract_x
_atom_site_fract_y
_atom_site_fract_z
Si Si1 0.772662 0.046871 0.435949
Si Si2 0.088429 0.961797 0.678060
Si Si3 0.150048 0.449997 0.396314
Si Si4 0.825002 0.459810 0.839504
Si Si5 0.675666 0.049425 0.691596
Si Si6 0.929492 0.457794 0.163282
Si Si7 0.471271 0.042570 0.579047
Si Si8 0.122607 0.542232 0.998265
O O1 0.797597 0.250000 0.446044
O O2 0.827199 0.981366 0.370102
O O3 0.821392 0.961441 0.514980
O O4 0.645621 0.024273 0.418483
O O5 0.090224 0.750000 0.679237
O O6 0.106462 0.022147 0.763198
O O7 0.969121 0.014853 0.636730
O O8 0.154023 0.250000 0.373659
O O9 0.239314 0.543850 0.361758
O O10 0.821070 0.250000 0.838879
O O11 0.736176 0.526309 0.770440
O O12 0.944039 0.506056 0.829047
O O13 0.813594 0.520796 0.921438
O O14 0.653610 0.250000 0.705654
O O15 0.565496 0.973347 0.644967
O O16 0.918366 0.250000 0.161894
O O17 0.866687 0.524154 0.082646
O O18 0.468877 0.250000 0.584054
O O19 0.500000 0.000000 0.500000
O O20 0.135265 0.750000 0.997944
O O21 0.000000 0.500000 0.000000
#
# Coordination Sequence:
#
# PCOD9161039 Si02
#       8
#     4   4   4   4   4   4   4   4
#     4  11  22  36  50  66  92 124 158 198 238 274
#     4   9  19  32  47  69  96 125 157 192 229 273
#     4  11  20  32  50  70  93 122 158 192 228 280
#     4   9  16  27  42  67  95 120 149 184 226 275
#     4  10  20  32  48  68  94 123 152 190 237 277
#     4   9  15  27  44  65  93 125 152 180 220 270
#     4  11  22  36  52  69  89 119 158 200 240 279
#     4   8  14  23  40  63  91 121 149 178 216 269
#
# _framework density 17.968782000000001
#
# number of rings (size 3 to 8) (size 9 to 14) (size 15 to 20)
#    0.000    2.250    2.500    1.500    0.000    0.500 
#    0.000    3.125    0.000    0.000    0.000    0.875 
#    0.000    0.000    0.000    0.000    0.000    0.000 
#
# Total GULP energy -178407.132212 kJ/mol
# GULP energy per Si atom -5575.222882 kJ/mol
# Density = 1.792788 g / cm^3
# Si number density = 17.968782 Si / 1000 Ang^3
#
#
#
# Elastic Constant Matrix: (Units=GPa)
#
#
# Indices 1 2 3 4 5 6 
#
# 1 57.8016 -7.3345 59.1746 0.0000 -6.6324 0.0000
# 2 -7.3345 31.8942 -5.6490 0.0000 1.7757 0.0000
# 3 59.1746 -5.6490 184.2891 0.0000 13.8740 0.0000
# 4 0.0000 0.0000 0.0000 1.9817 0.0000 2.1770
# 5 -6.6324 1.7757 13.8740 0.0000 18.6135 0.0000
# 6 0.0000 0.0000 0.0000 2.1770 0.0000 14.0571
#
#
#
# Elastic Compliance Matrix: (Units=1/GPa)
#
#
# Indices 1 2 3 4 5 6 
#
# 1 0.031989 0.004203 -0.011623 0.000000 0.019661 0.000000
# 2 0.004203 0.032354 -0.000252 0.000000 -0.001401 0.000000
# 3 -0.011623 -0.000252 0.010023 0.000000 -0.011588 0.000000
# 4 0.000000 0.000000 0.000000 0.608065 0.000000 -0.094171
# 5 0.019661 -0.001401 -0.011588 0.000000 0.069501 0.000000
# 6 0.000000 0.000000 0.000000 -0.094171 0.000000 0.085723
#
#
# Mechanical properties :
#
#
# Convention : Reuss Voigt Hill
#
# Bulk Modulus (GPa) = 16.94313 40.70745 28.82529
# Shear Modulus (GPa) = 5.72953 22.11669 13.92311
#
# Velocity S-wave (km/s) = 1.78760 3.51214 2.78663
# Velocity P-wave (km/s) = 3.70275 6.25704 5.14106
#
# Compressibility (1/GPa) = 0.05902097
#
# Stress axis : x y z
#
# Youngs Moduli (GPa) = 31.26104 30.90853 99.77101
#
# Poissons Ratio (x) = -0.12991 1.15961
# Poissons Ratio (y) = -0.13139 0.02518
# Poissons Ratio (z) = 0.36334 0.00780
#
# Static dielectric constant tensor:
#      x y z
#    x 1.568250 0.000000 0.021150 
#    y 0.000000 1.658250 0.000000 
#    z 0.021150 0.000000 1.668530 
# 
# From -- ./inp_files/40622.got.cif
#   From: 2010.05.17/outbox.cif.g08.bks.cpg/sg11_21_cif.got.tgz:40622.got - 2010.06.03 12:22:45.
