data_PCOD9161431
_publ_section_title
;
Structure prediction by ZEFSAII (Michael W. Deem and Ramdas Pophale) SiO2 
 PCOD9161431
Probable space group: P 21/M
;
_chemical_formula_sum "Si O2"
_cell_formula_units_Z 24
_cell_length_a 11.786766
_cell_length_b 8.303376
_cell_length_c 17.834506
_cell_angle_alpha 90.000000
_cell_angle_beta 47.617214
_cell_angle_gamma 90.000000
_cell_volume 1289.299442
_symmetry_space_group_name_H-M "P 21/M"
_symmetry_group_IT_number 11
_symmetry_cell_setting 'monoclinic'
loop_
_space_group_symop_operation_xyz
x,y,z
-x,1/2+y,-z
-x,-y,-z
x,1/2-y,z
loop_
_atom_site_type_symbol
_atom_site_label
_atom_site_fract_x
_atom_site_fract_y
_atom_site_fract_z
Si Si1 0.971387 0.058663 0.397630
Si Si2 0.632319 0.935452 0.888429
Si Si3 0.053283 0.934814 0.204836
Si Si4 0.255191 0.440979 0.377599
Si Si5 0.874226 0.444285 0.996437
Si Si6 0.529982 0.562052 0.179957
O O1 0.964486 0.250000 0.410930
O O2 0.132938 0.007209 0.366180
O O3 0.836393 0.978403 0.505393
O O4 0.963490 0.020437 0.312666
O O5 0.676139 0.750000 0.883668
O O6 0.774496 0.049716 0.840471
O O7 0.559988 0.952622 0.839481
O O8 0.500000 0.000000 0.000000
O O9 0.002554 0.750000 0.222990
O O10 0.070689 0.998460 0.111709
O O11 0.278671 0.250000 0.360664
O O12 0.419823 0.529876 0.300186
O O13 0.862243 0.250000 0.999204
O O14 0.708038 0.512422 0.095610
O O15 0.000000 0.500000 0.000000
O O16 0.520304 0.750000 0.164040
#
# Coordination Sequence:
#
# PCOD9161431 Si02
#       6
#     4   4   4   4   4   4
#     4  10  20  33  53  82 119 157 193 231 279 339
#     4  12  22  33  51  81 116 151 188 229 284 345
#     4  11  22  36  57  83 116 153 189 234 286 344
#     4  10  20  34  53  81 120 157 193 232 278 338
#     4  11  25  43  62  84 113 149 196 243 292 344
#     4  12  23  36  58  84 117 154 191 235 288 344
#
# _framework density 18.61476
#
# number of rings (size 3 to 8) (size 9 to 14) (size 15 to 20)
#    0.000    1.000    3.333    5.000    0.000    3.333 
#    0.000    0.000    0.000    1.000    0.000    0.000 
#    0.000    0.000    0.000    0.000    0.000    0.000 
#
# Total GULP energy -133842.584477 kJ/mol
# GULP energy per Si atom -5576.774353 kJ/mol
# Density = 1.857239 g / cm^3
# Si number density = 18.614760 Si / 1000 Ang^3
#
#
#
# Elastic Constant Matrix: (Units=GPa)
#
#
# Indices 1 2 3 4 5 6 
#
# 1 72.8752 3.4833 46.5457 0.0000 8.9848 0.0000
# 2 3.4833 67.6021 24.5480 0.0000 2.7203 0.0000
# 3 46.5457 24.5480 141.1048 0.0000 6.3687 0.0000
# 4 0.0000 0.0000 0.0000 29.8378 0.0000 -2.3090
# 5 8.9848 2.7203 6.3687 0.0000 11.3379 0.0000
# 6 0.0000 0.0000 0.0000 -2.3090 0.0000 21.3093
#
#
#
# Elastic Compliance Matrix: (Units=1/GPa)
#
#
# Indices 1 2 3 4 5 6 
#
# 1 0.018964 0.001689 -0.006005 0.000000 -0.012060 0.000000
# 2 0.001689 0.015999 -0.003188 0.000000 -0.003386 0.000000
# 3 -0.006005 -0.003188 0.009617 0.000000 0.000121 0.000000
# 4 0.000000 0.000000 0.000000 0.033798 0.000000 0.003662
# 5 -0.012060 -0.003386 0.000121 0.000000 0.098501 0.000000
# 6 0.000000 0.000000 0.000000 0.003662 0.000000 0.047325
#
#
# Mechanical properties :
#
#
# Convention : Reuss Voigt Hill
#
# Bulk Modulus (GPa) = 33.81575 47.85956 40.83765
# Shear Modulus (GPa) = 20.07482 26.29734 23.18608
#
# Velocity S-wave (km/s) = 3.28752 3.76269 3.53310
# Velocity P-wave (km/s) = 5.71103 6.68157 6.21528
#
# Compressibility (1/GPa) = 0.02957202
#
# Stress axis : x y z
#
# Youngs Moduli (GPa) = 52.73253 62.50317 103.98449
#
# Poissons Ratio (x) = -0.10555 0.62442
# Poissons Ratio (y) = -0.08905 0.33146
# Poissons Ratio (z) = 0.31665 0.19923
#
# Static dielectric constant tensor:
#      x y z
#    x 1.614570 0.000000 0.023530 
#    y 0.000000 1.645000 0.000000 
#    z 0.023530 0.000000 1.742240 
# 
# From -- ./inp_files/58607.got.cif
#   From: 2010.05.17/outbox.cif.g08.bks.cpg/sg11_30_cif.got.tgz:58607.got - 2010.06.03 12:22:45.
