data_PCOD9161093
_publ_section_title
;
Structure prediction by ZEFSAII (Michael W. Deem and Ramdas Pophale) SiO2 
 PCOD9161093
Probable space group: P 21/M
;
_chemical_formula_sum "Si O2"
_cell_formula_units_Z 32
_cell_length_a 13.586035
_cell_length_b 14.151473
_cell_length_c 16.741737
_cell_angle_alpha 90.000000
_cell_angle_beta 147.960024
_cell_angle_gamma 90.000000
_cell_volume 1707.611791
_symmetry_space_group_name_H-M "P 21/M"
_symmetry_group_IT_number 11
_symmetry_cell_setting 'monoclinic'
loop_
_space_group_symop_operation_xyz
x,y,z
-x,1/2+y,-z
-x,-y,-z
x,1/2-y,z
loop_
_atom_site_type_symbol
_atom_site_label
_atom_site_fract_x
_atom_site_fract_y
_atom_site_fract_z
Si Si1 0.129815 0.358100 0.895945
Si Si2 0.877562 0.361229 0.875713
Si Si3 0.506501 0.637096 0.768096
Si Si4 0.081158 0.638403 0.912215
Si Si5 0.182667 0.494596 0.573512
Si Si6 0.135549 0.010675 0.356130
Si Si7 0.452805 0.515379 0.333803
Si Si8 0.500763 0.638303 0.209935
O O1 0.120983 0.250000 0.862775
O O2 0.038501 0.363921 0.921443
O O3 0.999391 0.422115 0.752043
O O4 0.344473 0.383263 0.059173
O O5 0.813200 0.250000 0.834636
O O6 0.721599 0.437354 0.743205
O O7 0.938132 0.388076 0.007430
O O8 0.499033 0.750000 0.750918
O O9 0.307644 0.589864 0.650989
O O10 0.577853 0.579777 0.738962
O O11 0.055824 0.750000 0.891017
O O12 0.943645 0.588599 0.757774
O O13 0.295033 0.616953 0.035578
O O14 0.127647 0.466717 0.444974
O O15 0.327531 0.417963 0.708387
O O16 0.000000 0.500000 0.500000
O O17 0.354316 0.997886 0.488828
O O18 0.491113 0.596768 0.293153
O O19 0.527382 0.750000 0.227589
#
# Coordination Sequence:
#
# PCOD9161093 Si02
#       8
#     4   4   4   4   4   4   4   4
#     4  10  20  35  55  77 105 145 184 215 252 299
#     4   9  18  33  53  77 107 146 187 216 244 296
#     4   9  19  36  55  75 104 141 175 210 260 320
#     4   9  17  31  52  78 106 134 168 211 255 301
#     4  10  22  38  56  76  98 131 172 213 265 326
#     4  10  20  32  51  77 105 133 166 219 271 307
#     4   9  18  30  50  77 108 143 174 211 257 300
#     4   8  15  31  53  74 100 133 165 204 261 317
#
# _framework density 18.739622000000001
#
# number of rings (size 3 to 8) (size 9 to 14) (size 15 to 20)
#    0.000    3.000    0.000    3.375    0.000    7.500 
#    0.000    3.750    0.000    9.000    0.000    0.000 
#    0.000    0.000    0.000    0.000    0.000    0.000 
#
# Total GULP energy -178244.932783 kJ/mol
# GULP energy per Si atom -5570.154149 kJ/mol
# Density = 1.869697 g / cm^3
# Si number density = 18.739622 Si / 1000 Ang^3
#
#
#
# Elastic Constant Matrix: (Units=GPa)
#
#
# Indices 1 2 3 4 5 6 
#
# 1 34.9682 -0.0623 4.8697 0.0000 5.2985 0.0000
# 2 -0.0623 80.7132 28.2706 0.0000 -0.6087 0.0000
# 3 4.8697 28.2706 112.0337 0.0000 -7.1766 0.0000
# 4 0.0000 0.0000 0.0000 2.0917 0.0000 11.1646
# 5 5.2985 -0.6087 -7.1766 0.0000 21.1421 0.0000
# 6 0.0000 0.0000 0.0000 11.1646 0.0000 6.5926
#
#
#
# Elastic Compliance Matrix: (Units=1/GPa)
#
#
# Indices 1 2 3 4 5 6 
#
# 1 0.030121 0.000663 -0.002002 0.000000 -0.008210 0.000000
# 2 0.000663 0.013618 -0.003527 0.000000 -0.000971 0.000000
# 3 -0.002002 -0.003527 0.010149 0.000000 0.003845 0.000000
# 4 0.000000 0.000000 0.000000 -0.059468 0.000000 0.100710
# 5 -0.008210 -0.000971 0.003845 0.000000 0.050634 0.000000
# 6 0.000000 0.000000 0.000000 0.100710 0.000000 -0.018868
#
#
# Mechanical properties :
#
#
# Convention : Reuss Voigt Hill
#
# Bulk Modulus (GPa) = 22.64762 32.65233 27.64997
# Shear Modulus (GPa) = 98.73863 18.94109 58.83986
#
# Velocity S-wave (km/s) = 7.26665 3.18268 5.60953
# Velocity P-wave (km/s) = 9.08390 5.56489 7.53277
#
# Compressibility (1/GPa) = 0.04415475
#
# Stress axis : x y z
#
# Youngs Moduli (GPa) = 33.19900 73.43081 98.52825
#
# Poissons Ratio (x) = -0.04866 0.19729
# Poissons Ratio (y) = -0.02200 0.34755
# Poissons Ratio (z) = 0.06648 0.25902
#
# Static dielectric constant tensor:
#      x y z
#    x 1.677200 0.000000 0.030140 
#    y 0.000000 1.686800 0.000000 
#    z 0.030140 0.000000 1.675800 
# 
# From -- ./inp_files/60499.got.cif
#   From: 2010.05.17/outbox.cif.g08.bks.cpg/sg11_31_cif.got.tgz:60499.got - 2010.06.03 12:22:45.
