data_PCOD9161336
_publ_section_title
;
Structure prediction by ZEFSAII (Michael W. Deem and Ramdas Pophale) SiO2 
 PCOD9161336
Probable space group: P 21/M
;
_chemical_formula_sum "Si O2"
_cell_formula_units_Z 28
_cell_length_a 11.186874
_cell_length_b 9.889803
_cell_length_c 14.458487
_cell_angle_alpha 90.000000
_cell_angle_beta 122.773411
_cell_angle_gamma 90.000000
_cell_volume 1344.996597
_symmetry_space_group_name_H-M "P 21/M"
_symmetry_group_IT_number 11
_symmetry_cell_setting 'monoclinic'
loop_
_space_group_symop_operation_xyz
x,y,z
-x,1/2+y,-z
-x,-y,-z
x,1/2-y,z
loop_
_atom_site_type_symbol
_atom_site_label
_atom_site_fract_x
_atom_site_fract_y
_atom_site_fract_z
Si Si1 0.381218 0.591518 0.568756
Si Si2 0.123585 0.590356 0.597693
Si Si3 0.588851 0.405072 0.913231
Si Si4 0.671763 0.094994 0.164678
Si Si5 0.020171 0.398608 0.147541
Si Si6 0.679547 0.906520 0.631345
Si Si7 0.829111 0.900030 0.985322
O O1 0.363356 0.750000 0.540754
O O2 0.270542 0.562567 0.603690
O O3 0.340515 0.503526 0.463304
O O4 0.550950 0.568862 0.650380
O O5 0.086792 0.750000 0.573225
O O6 0.173184 0.567022 0.725148
O O7 0.000000 0.500000 0.500000
O O8 0.581027 0.250000 0.878693
O O9 0.439662 0.482558 0.848065
O O10 0.645789 0.404763 0.043596
O O11 0.703377 0.497008 0.909410
O O12 0.636388 0.250000 0.181104
O O13 0.957530 0.250000 0.146346
O O14 0.163478 0.421513 0.263554
O O15 0.917980 0.526931 0.103231
O O16 0.072414 0.386634 0.063169
O O17 0.664805 0.750000 0.595707
O O18 0.777134 0.750000 0.989106
#
# Coordination Sequence:
#
# PCOD9161336 Si02
#       7
#     4   4   4   4   4   4   4
#     4   9  19  35  55  80 107 138 178 224 271 322
#     4  10  22  39  59  81 111 148 187 229 275 331
#     4  10  20  35  56  83 111 140 180 227 271 322
#     4   9  20  38  58  79 106 144 184 224 272 325
#     4   9  19  34  52  75 105 142 180 218 260 316
#     4   9  18  34  56  79 105 140 180 223 271 321
#     4  10  20  33  52  77 108 144 177 215 264 319
#
# _framework density 20.817896000000001
#
# number of rings (size 3 to 8) (size 9 to 14) (size 15 to 20)
#    0.000    2.571    0.000    0.857    2.000    4.000 
#    0.000    4.286    0.000    0.000    0.000    0.000 
#    0.000    0.000    0.000    0.000    0.000    0.000 
#
# Total GULP energy -156083.013945 kJ/mol
# GULP energy per Si atom -5574.393355 kJ/mol
# Density = 2.077051 g / cm^3
# Si number density = 20.817896 Si / 1000 Ang^3
#
#
#
# Elastic Constant Matrix: (Units=GPa)
#
#
# Indices 1 2 3 4 5 6 
#
# 1 31.8643 35.7525 8.9652 0.0000 6.5581 0.0000
# 2 35.7525 118.9570 46.8074 0.0000 19.3110 0.0000
# 3 8.9652 46.8074 102.3901 0.0000 17.9391 0.0000
# 4 0.0000 0.0000 0.0000 22.8073 0.0000 2.9168
# 5 6.5581 19.3110 17.9391 0.0000 23.0548 0.0000
# 6 0.0000 0.0000 0.0000 2.9168 0.0000 25.6644
#
#
#
# Elastic Compliance Matrix: (Units=1/GPa)
#
#
# Indices 1 2 3 4 5 6 
#
# 1 0.048294 -0.015262 0.003376 0.000000 -0.003581 0.000000
# 2 -0.015262 0.015769 -0.005001 0.000000 -0.004976 0.000000
# 3 0.003376 -0.005001 0.012958 0.000000 -0.006854 0.000000
# 4 0.000000 0.000000 0.000000 0.044492 0.000000 -0.005057
# 5 -0.003581 -0.004976 -0.006854 0.000000 0.053895 0.000000
# 6 0.000000 0.000000 0.000000 -0.005057 0.000000 0.039539
#
#
# Mechanical properties :
#
#
# Convention : Reuss Voigt Hill
#
# Bulk Modulus (GPa) = 23.12269 48.47353 35.79811
# Shear Modulus (GPa) = 19.00155 25.08440 22.04298
#
# Velocity S-wave (km/s) = 3.02445 3.47500 3.25752
# Velocity P-wave (km/s) = 4.82987 6.27980 5.60194
#
# Compressibility (1/GPa) = 0.04324756
#
# Stress axis : x y z
#
# Youngs Moduli (GPa) = 20.70633 63.41666 77.17304
#
# Poissons Ratio (x) = 0.96786 -0.26051
# Poissons Ratio (y) = 0.31602 0.38591
# Poissons Ratio (z) = -0.06990 0.31712
#
# Static dielectric constant tensor:
#      x y z
#    x 1.820050 0.000000 -0.022660 
#    y 0.000000 1.746730 0.000000 
#    z -0.022660 0.000000 1.757270 
# 
# From -- ./inp_files/49493.got.cif
#   From: 2010.05.17/outbox.cif.g08.bks.cpg/sg11_25_cif.got.tgz:49493.got - 2010.06.03 12:22:45.
