data_PCOD9161333
_publ_section_title
;
Structure prediction by ZEFSAII (Michael W. Deem and Ramdas Pophale) SiO2 
 PCOD9161333
Probable space group: P 21/M
;
_chemical_formula_sum "Si O2"
_cell_formula_units_Z 32
_cell_length_a 19.732202
_cell_length_b 8.387832
_cell_length_c 12.636427
_cell_angle_alpha 90.000000
_cell_angle_beta 64.829936
_cell_angle_gamma 90.000000
_cell_volume 1892.874625
_symmetry_space_group_name_H-M "P 21/M"
_symmetry_group_IT_number 11
_symmetry_cell_setting 'monoclinic'
loop_
_space_group_symop_operation_xyz
x,y,z
-x,1/2+y,-z
-x,-y,-z
x,1/2-y,z
loop_
_atom_site_type_symbol
_atom_site_label
_atom_site_fract_x
_atom_site_fract_y
_atom_site_fract_z
Si Si1 0.336677 0.942941 0.230247
Si Si2 0.096363 0.062744 0.272869
Si Si3 0.819890 0.061826 0.579468
Si Si4 0.180082 0.442599 0.999068
Si Si5 0.064560 0.064730 0.662447
Si Si6 0.499961 0.557638 0.121407
Si Si7 0.663169 0.557206 0.012723
Si Si8 0.074105 0.561660 0.891147
O O1 0.335225 0.750000 0.229527
O O2 0.264902 0.996536 0.344345
O O3 0.418716 0.995162 0.217688
O O4 0.328711 0.999580 0.113941
O O5 0.111792 0.250000 0.279386
O O6 0.135804 0.967578 0.340503
O O7 0.130962 0.017770 0.135943
O O8 0.007893 0.032738 0.328499
O O9 0.818478 0.250000 0.557252
O O10 0.864894 0.974924 0.457474
O O11 0.177594 0.250000 0.988643
O O12 0.264999 0.493506 0.967730
O O13 0.143183 0.520972 0.921605
O O14 0.045337 0.250000 0.666477
O O15 0.079872 0.020733 0.773678
O O16 0.499914 0.750000 0.123858
O O17 0.581290 0.504948 0.109576
O O18 0.500000 0.500000 0.000000
O O19 0.664352 0.750000 0.009096
O O20 0.067203 0.750000 0.879600
O O21 0.000000 0.500000 0.000000
#
# Coordination Sequence:
#
# PCOD9161333 Si02
#       8
#     4   4   4   4   4   4   4   4
#     4   9  17  28  45  70 102 136 168 202 244 295
#     4  11  21  35  54  75 104 136 172 210 251 301
#     4  11  22  35  51  74 106 139 174 211 252 301
#     4  10  20  33  52  77 104 136 171 208 250 297
#     4  12  25  40  56  73  97 131 174 216 258 302
#     4   8  14  25  42  67  98 133 166 198 240 290
#     4   9  16  28  47  71 102 134 167 204 243 292
#     4  12  24  39  58  77  99 129 167 211 258 303
#
# _framework density 16.905505000000002
#
# number of rings (size 3 to 8) (size 9 to 14) (size 15 to 20)
#    0.000    1.750    2.500    3.375    0.000    1.500 
#    0.000    0.000    0.000    0.000    0.000    0.875 
#    0.000    0.000    0.000    0.000    0.000    0.000 
#
# Total GULP energy -178541.637750 kJ/mol
# GULP energy per Si atom -5579.426180 kJ/mol
# Density = 1.686703 g / cm^3
# Si number density = 16.905505 Si / 1000 Ang^3
#
#
#
# Elastic Constant Matrix: (Units=GPa)
#
#
# Indices 1 2 3 4 5 6 
#
# 1 104.2379 -6.2194 31.4347 0.0000 -34.6822 0.0000
# 2 -6.2194 14.7210 -3.5157 0.0000 1.2281 0.0000
# 3 31.4347 -3.5157 62.7572 0.0000 -16.2411 0.0000
# 4 0.0000 0.0000 0.0000 20.6380 0.0000 2.6531
# 5 -34.6822 1.2281 -16.2411 0.0000 22.9687 0.0000
# 6 0.0000 0.0000 0.0000 2.6531 0.0000 13.4244
#
#
#
# Elastic Compliance Matrix: (Units=1/GPa)
#
#
# Indices 1 2 3 4 5 6 
#
# 1 0.020068 0.005540 -0.002419 0.000000 0.028296 0.000000
# 2 0.005540 0.070406 0.002888 0.000000 0.006643 0.000000
# 3 -0.002419 0.002888 0.019979 0.000000 0.010320 0.000000
# 4 0.000000 0.000000 0.000000 0.049718 0.000000 -0.009826
# 5 0.028296 0.006643 0.010320 0.000000 0.093205 0.000000
# 6 0.000000 0.000000 0.000000 -0.009826 0.000000 0.076433
#
#
# Mechanical properties :
#
#
# Convention : Reuss Voigt Hill
#
# Bulk Modulus (GPa) = 8.16511 25.01281 16.58896
# Shear Modulus (GPa) = 13.94260 22.07399 18.00829
#
# Velocity S-wave (km/s) = 2.87494 3.61741 3.26733
# Velocity P-wave (km/s) = 3.98255 5.68113 4.90591
#
# Compressibility (1/GPa) = 0.12247226
#
# Stress axis : x y z
#
# Youngs Moduli (GPa) = 49.83056 14.20325 50.05368
#
# Poissons Ratio (x) = -0.07869 0.12108
# Poissons Ratio (y) = -0.27607 -0.14458
# Poissons Ratio (z) = 0.12054 -0.04102
#
# Static dielectric constant tensor:
#      x y z
#    x 1.622230 0.000000 -0.037310 
#    y 0.000000 1.566560 0.000000 
#    z -0.037310 0.000000 1.545940 
# 
# From -- ./inp_files/42492.got.cif
#   From: 2010.05.17/outbox.cif.g08.bks.cpg/sg11_22_cif.got.tgz:42492.got - 2010.06.03 12:22:45.
