data_PCOD9161042
_publ_section_title
;
Structure prediction by ZEFSAII (Michael W. Deem and Ramdas Pophale) SiO2 
 PCOD9161042
Probable space group: P 21/M
;
_chemical_formula_sum "Si O2"
_cell_formula_units_Z 32
_cell_length_a 21.853110
_cell_length_b 8.854797
_cell_length_c 31.318498
_cell_angle_alpha 90.000000
_cell_angle_beta 160.534236
_cell_angle_gamma 90.000000
_cell_volume 2019.549623
_symmetry_space_group_name_H-M "P 21/M"
_symmetry_group_IT_number 11
_symmetry_cell_setting 'monoclinic'
loop_
_space_group_symop_operation_xyz
x,y,z
-x,1/2+y,-z
-x,-y,-z
x,1/2-y,z
loop_
_atom_site_type_symbol
_atom_site_label
_atom_site_fract_x
_atom_site_fract_y
_atom_site_fract_z
Si Si1 0.435673 0.568725 0.777174
Si Si2 0.479666 0.068416 0.553014
Si Si3 0.796704 0.068906 0.460282
Si Si4 0.205545 0.070198 0.296863
Si Si5 0.151523 0.430971 0.973960
Si Si6 0.121760 0.069067 0.618383
Si Si7 0.847573 0.431804 0.931167
Si Si8 0.550325 0.568624 0.368651
O O1 0.419749 0.750000 0.770308
O O2 0.334271 0.524811 0.666012
O O3 0.323695 0.494369 0.742295
O O4 0.648443 0.527770 0.912963
O O5 0.510818 0.250000 0.572530
O O6 0.308833 0.035814 0.409332
O O7 0.446425 0.021670 0.579778
O O8 0.656221 0.987903 0.648929
O O9 0.786988 0.250000 0.457368
O O10 0.004921 0.028174 0.583699
O O11 0.714075 0.996906 0.448108
O O12 0.182845 0.250000 0.278576
O O13 0.012655 0.988814 0.163590
O O14 0.144391 0.250000 0.973725
O O15 0.129269 0.504733 0.005975
O O16 0.122536 0.250000 0.615457
O O17 0.000000 0.000000 0.500000
O O18 0.861023 0.250000 0.940176
O O19 0.645121 0.475160 0.780767
O O20 0.000000 0.500000 0.000000
O O21 0.560511 0.750000 0.374176
#
# Coordination Sequence:
#
# PCOD9161042 Si02
#       8
#     4   4   4   4   4   4   4   4
#     4   9  18  31  46  67  95 129 162 195 238 284
#     4   9  19  36  53  71  97 125 160 207 252 291
#     4   9  17  30  45  67  97 127 158 191 234 284
#     4  10  20  34  53  74  94 123 165 208 250 293
#     4  11  21  34  50  69  99 132 163 202 245 288
#     4   9  17  28  44  66  94 127 160 194 234 281
#     4  11  22  33  47  70  98 130 166 197 238 294
#     4  10  20  32  48  70  95 126 160 196 238 286
#
# _framework density 15.845117
#
# number of rings (size 3 to 8) (size 9 to 14) (size 15 to 20)
#    0.000    2.250    1.250    3.000    0.000    6.000 
#    0.000    0.000    0.000    0.000    0.000    0.875 
#    0.000    0.000    0.000    0.000    0.000    0.000 
#
# Total GULP energy -178458.947902 kJ/mol
# GULP energy per Si atom -5576.842122 kJ/mol
# Density = 1.580905 g / cm^3
# Si number density = 15.845117 Si / 1000 Ang^3
#
#
#
# Elastic Constant Matrix: (Units=GPa)
#
#
# Indices 1 2 3 4 5 6 
#
# 1 65.2300 20.6482 36.4749 0.0000 16.7477 0.0000
# 2 20.6482 28.9388 29.6942 0.0000 9.1832 0.0000
# 3 36.4749 29.6942 80.3159 0.0000 19.1324 0.0000
# 4 0.0000 0.0000 0.0000 23.3479 0.0000 6.8900
# 5 16.7477 9.1832 19.1324 0.0000 24.9892 0.0000
# 6 0.0000 0.0000 0.0000 6.8900 0.0000 26.7914
#
#
#
# Elastic Compliance Matrix: (Units=1/GPa)
#
#
# Indices 1 2 3 4 5 6 
#
# 1 0.023133 -0.008254 -0.005484 0.000000 -0.008272 0.000000
# 2 -0.008254 0.059307 -0.017495 0.000000 -0.002868 0.000000
# 3 -0.005484 -0.017495 0.023241 0.000000 -0.007690 0.000000
# 4 0.000000 0.000000 0.000000 0.046348 0.000000 -0.011919
# 5 -0.008272 -0.002868 -0.007690 0.000000 0.052503 0.000000
# 6 0.000000 0.000000 0.000000 -0.011919 0.000000 0.040391
#
#
# Mechanical properties :
#
#
# Convention : Reuss Voigt Hill
#
# Bulk Modulus (GPa) = 23.13960 38.67991 30.90976
# Shear Modulus (GPa) = 15.53791 20.87019 18.20405
#
# Velocity S-wave (km/s) = 3.13487 3.63318 3.39318
# Velocity P-wave (km/s) = 5.26674 6.48569 5.90774
#
# Compressibility (1/GPa) = 0.04321595
#
# Stress axis : x y z
#
# Youngs Moduli (GPa) = 43.22766 16.86145 43.02715
#
# Poissons Ratio (x) = 0.13918 0.23594
# Poissons Ratio (y) = 0.35681 0.75276
# Poissons Ratio (z) = 0.23704 0.29499
#
# Static dielectric constant tensor:
#      x y z
#    x 1.521060 0.000000 0.013760 
#    y 0.000000 1.529260 0.000000 
#    z 0.013760 0.000000 1.532440 
# 
# From -- ./inp_files/67398.got.cif
#   From: 2010.05.17/outbox.cif.g08.bks.cpg/sg11_34_cif.got.tgz:67398.got - 2010.06.03 12:22:45.
