data_PCOD9161309
_publ_section_title
;
Structure prediction by ZEFSAII (Michael W. Deem and Ramdas Pophale) SiO2 
 PCOD9161309
Probable space group: P 21/M
;
_chemical_formula_sum "Si O2"
_cell_formula_units_Z 32
_cell_length_a 22.902618
_cell_length_b 7.475068
_cell_length_c 11.352537
_cell_angle_alpha 90.000000
_cell_angle_beta 134.220001
_cell_angle_gamma 90.000000
_cell_volume 1392.870462
_symmetry_space_group_name_H-M "P 21/M"
_symmetry_group_IT_number 11
_symmetry_cell_setting 'monoclinic'
loop_
_space_group_symop_operation_xyz
x,y,z
-x,1/2+y,-z
-x,-y,-z
x,1/2-y,z
loop_
_atom_site_type_symbol
_atom_site_label
_atom_site_fract_x
_atom_site_fract_y
_atom_site_fract_z
Si Si1 0.487293 0.535984 0.120377
Si Si2 0.851236 0.548301 0.326282
Si Si3 0.905791 0.530637 0.160241
Si Si4 0.795464 0.954131 0.489113
Si Si5 0.657425 0.969886 0.460204
Si Si6 0.731068 0.965345 0.812806
Si Si7 0.323370 0.960745 0.012550
Si Si8 0.045534 0.961732 0.184457
O O1 0.485127 0.750000 0.131252
O O2 0.565720 0.472304 0.304067
O O3 0.402146 0.469606 0.054246
O O4 0.500000 0.500000 0.000000
O O5 0.882537 0.750000 0.388986
O O6 0.901905 0.467235 0.289929
O O7 0.837526 0.460352 0.433795
O O8 0.759605 0.553386 0.145078
O O9 0.904653 0.750000 0.160727
O O10 0.985995 0.473624 0.204464
O O11 0.823080 0.474230 0.975476
O O12 0.775220 0.750000 0.426235
O O13 0.715080 0.032133 0.433957
O O14 0.865861 0.952593 0.685573
O O15 0.659528 0.750000 0.462589
O O16 0.695423 0.027928 0.638083
O O17 0.734111 0.750000 0.812350
O O18 0.674075 0.016834 0.842942
O O19 0.313723 0.750000 0.972983
O O20 0.056543 0.750000 0.211475
O O21 0.000000 0.000000 0.000000
#
# Coordination Sequence:
#
# PCOD9161309 Si02
#       8
#     4   4   4   4   4   4   4   4
#     4  10  21  36  54  77 105 138 175 215 260 309
#     4   9  18  35  58  78 100 138 181 209 245 314
#     4   8  16  32  53  76 101 132 170 210 250 299
#     4  10  20  35  56  79 102 131 173 220 259 303
#     4   9  18  34  55  76 101 137 177 214 254 307
#     4   9  17  33  56  75  97 136 179 208 243 307
#     4  10  20  33  51  79 112 136 164 216 268 301
#     4  11  22  36  54  76 106 139 173 215 261 308
#
# _framework density 22.974142000000001
#
# number of rings (size 3 to 8) (size 9 to 14) (size 15 to 20)
#    0.000    2.500    0.000    3.000    0.000    5.500 
#    0.000    9.375    0.000    0.000    0.000    0.000 
#    0.000    0.000    0.000    0.000    0.000    0.000 
#
# Total GULP energy -178756.961898 kJ/mol
# GULP energy per Si atom -5586.155059 kJ/mol
# Density = 2.292185 g / cm^3
# Si number density = 22.974142 Si / 1000 Ang^3
#
#
#
# Elastic Constant Matrix: (Units=GPa)
#
#
# Indices 1 2 3 4 5 6 
#
# 1 102.8470 -0.6602 0.3183 0.0000 5.9366 0.0000
# 2 -0.6602 78.2790 -4.1974 0.0000 0.3845 0.0000
# 3 0.3183 -4.1974 52.3210 0.0000 -8.9360 0.0000
# 4 0.0000 0.0000 0.0000 12.0528 0.0000 -1.2289
# 5 5.9366 0.3845 -8.9360 0.0000 35.8843 0.0000
# 6 0.0000 0.0000 0.0000 -1.2289 0.0000 8.5775
#
#
#
# Elastic Compliance Matrix: (Units=1/GPa)
#
#
# Indices 1 2 3 4 5 6 
#
# 1 0.009824 0.000073 -0.000346 0.000000 -0.001712 0.000000
# 2 0.000073 0.012831 0.001048 0.000000 0.000111 0.000000
# 3 -0.000346 0.001048 0.020060 0.000000 0.005041 0.000000
# 4 0.000000 0.000000 0.000000 0.084198 0.000000 0.012063
# 5 -0.001712 0.000111 0.005041 0.000000 0.029405 0.000000
# 6 0.000000 0.000000 0.000000 0.012063 0.000000 0.118312
#
#
# Mechanical properties :
#
#
# Convention : Reuss Voigt Hill
#
# Bulk Modulus (GPa) = 22.59217 24.92986 23.76101
# Shear Modulus (GPa) = 17.37100 27.16868 22.26984
#
# Velocity S-wave (km/s) = 2.75273 3.44259 3.11681
# Velocity P-wave (km/s) = 4.46749 5.16495 4.82883
#
# Compressibility (1/GPa) = 0.04426313
#
# Stress axis : x y z
#
# Youngs Moduli (GPa) = 101.79619 77.93582 49.85044
#
# Poissons Ratio (x) = -0.00566 0.01727
# Poissons Ratio (y) = -0.00740 -0.05224
# Poissons Ratio (z) = 0.03526 -0.08167
#
# Static dielectric constant tensor:
#      x y z
#    x 1.863120 0.000000 -0.032930 
#    y 0.000000 1.864170 0.000000 
#    z -0.032930 0.000000 1.841850 
# 
# From -- ./inp_files/42946.got.cif
#   From: 2010.05.17/outbox.cif.g08.bks.cpg/sg11_22_cif.got.tgz:42946.got - 2010.06.03 12:22:45.
