data_PCOD9161356
_publ_section_title
;
Structure prediction by ZEFSAII (Michael W. Deem and Ramdas Pophale) SiO2 
 PCOD9161356
Probable space group: P 21/M
;
_chemical_formula_sum "Si O2"
_cell_formula_units_Z 24
_cell_length_a 15.982549
_cell_length_b 8.784158
_cell_length_c 15.945249
_cell_angle_alpha 90.000000
_cell_angle_beta 37.975879
_cell_angle_gamma 90.000000
_cell_volume 1377.480150
_symmetry_space_group_name_H-M "P 21/M"
_symmetry_group_IT_number 11
_symmetry_cell_setting 'monoclinic'
loop_
_space_group_symop_operation_xyz
x,y,z
-x,1/2+y,-z
-x,-y,-z
x,1/2-y,z
loop_
_atom_site_type_symbol
_atom_site_label
_atom_site_fract_x
_atom_site_fract_y
_atom_site_fract_z
Si Si1 0.911135 0.431764 0.191026
Si Si2 0.141382 0.067168 0.420307
Si Si3 0.811961 0.066571 0.086334
Si Si4 0.576288 0.067948 0.859513
Si Si5 0.525023 0.066001 0.233789
Si Si6 0.235887 0.068278 0.532933
O O1 0.919302 0.250000 0.184853
O O2 0.835029 0.479791 0.164995
O O3 0.832933 0.487900 0.334494
O O4 0.062457 0.499478 0.064909
O O5 0.143993 0.250000 0.409345
O O6 0.164190 0.031249 0.500864
O O7 0.270474 0.996659 0.269990
O O8 0.000000 0.000000 0.500000
O O9 0.819345 0.250000 0.077089
O O10 0.666400 0.021074 0.164623
O O11 0.579384 0.250000 0.861139
O O12 0.499638 0.012378 0.835972
O O13 0.500000 0.000000 0.000000
O O14 0.523633 0.250000 0.222652
O O15 0.394542 0.028786 0.394414
O O16 0.226250 0.250000 0.552383
#
# Coordination Sequence:
#
# PCOD9161356 Si02
#       6
#     4   4   4   4   4   4
#     4  10  20  33  52  79 107 137 176 217 257 310
#     4  10  21  38  58  81 109 142 180 220 266 318
#     4   9  19  36  55  75 104 140 175 216 265 311
#     4  11  22  37  57  81 109 141 178 221 269 319
#     4   9  19  37  57  77 104 138 177 219 265 316
#     4   9  19  35  54  76 105 139 171 211 264 315
#
# _framework density 17.423117999999999
#
# number of rings (size 3 to 8) (size 9 to 14) (size 15 to 20)
#    0.000    2.333    0.000    3.500    0.000    6.667 
#    0.000    1.667    0.000    0.000    0.000    0.000 
#    0.000    0.000    0.000    0.000    0.000    0.000 
#
# Total GULP energy -133954.143462 kJ/mol
# GULP energy per Si atom -5581.422644 kJ/mol
# Density = 1.738346 g / cm^3
# Si number density = 17.423118 Si / 1000 Ang^3
#
#
#
# Elastic Constant Matrix: (Units=GPa)
#
#
# Indices 1 2 3 4 5 6 
#
# 1 133.3411 54.8104 113.7454 0.0000 -33.1666 0.0000
# 2 54.8104 57.5902 65.9377 0.0000 -4.1422 0.0000
# 3 113.7454 65.9377 181.6268 0.0000 -0.0925 0.0000
# 4 0.0000 0.0000 0.0000 33.7201 0.0000 2.5906
# 5 -33.1666 -4.1422 -0.0925 0.0000 28.8368 0.0000
# 6 0.0000 0.0000 0.0000 2.5906 0.0000 29.1565
#
#
#
# Elastic Compliance Matrix: (Units=1/GPa)
#
#
# Indices 1 2 3 4 5 6 
#
# 1 0.045973 -0.012233 -0.024324 0.000000 0.051040 0.000000
# 2 -0.012233 0.033497 -0.004504 0.000000 -0.009273 0.000000
# 3 -0.024324 -0.004504 0.022359 0.000000 -0.028551 0.000000
# 4 0.000000 0.000000 0.000000 0.029860 0.000000 -0.002653
# 5 0.051040 -0.009273 -0.028551 0.000000 0.091958 0.000000
# 6 0.000000 0.000000 0.000000 -0.002653 0.000000 0.034533
#
#
# Mechanical properties :
#
#
# Convention : Reuss Voigt Hill
#
# Bulk Modulus (GPa) = 50.74426 93.50504 72.12465
# Shear Modulus (GPa) = 14.41458 27.54699 20.98078
#
# Velocity S-wave (km/s) = 2.87945 3.98057 3.47391
# Velocity P-wave (km/s) = 6.34372 8.65507 7.58792
#
# Compressibility (1/GPa) = 0.01970666
#
# Stress axis : x y z
#
# Youngs Moduli (GPa) = 21.75211 29.85340 44.72409
#
# Poissons Ratio (x) = 0.36521 1.08785
# Poissons Ratio (y) = 0.26610 0.20145
# Poissons Ratio (z) = 0.52909 0.13447
#
# Static dielectric constant tensor:
#      x y z
#    x 1.581120 0.000000 -0.003430 
#    y 0.000000 1.585600 0.000000 
#    z -0.003430 0.000000 1.559930 
# 
# From -- ./inp_files/20622.got.cif
#   From: 2010.05.17/outbox.cif.g08.bks.cpg/sg11_11_cif.got.tgz:20622.got - 2010.06.03 12:22:45.
