data_PCOD9161281
_publ_section_title
;
Structure prediction by ZEFSAII (Michael W. Deem and Ramdas Pophale) SiO2 
 PCOD9161281
Probable space group: P 21/M
;
_chemical_formula_sum "Si O2"
_cell_formula_units_Z 24
_cell_length_a 19.220348
_cell_length_b 8.916720
_cell_length_c 25.240543
_cell_angle_alpha 90.000000
_cell_angle_beta 19.034887
_cell_angle_gamma 90.000000
_cell_volume 1410.828470
_symmetry_space_group_name_H-M "P 21/M"
_symmetry_group_IT_number 11
_symmetry_cell_setting 'monoclinic'
loop_
_space_group_symop_operation_xyz
x,y,z
-x,1/2+y,-z
-x,-y,-z
x,1/2-y,z
loop_
_atom_site_type_symbol
_atom_site_label
_atom_site_fract_x
_atom_site_fract_y
_atom_site_fract_z
Si Si1 0.730656 0.929929 0.346982
Si Si2 0.665128 0.428976 0.501343
Si Si3 0.017089 0.428588 0.651892
Si Si4 0.557558 0.070387 0.015440
Si Si5 0.853835 0.070166 0.650580
Si Si6 0.172802 0.429811 0.837208
O O1 0.716347 0.750000 0.360864
O O2 0.865072 0.968043 0.197608
O O3 0.500000 0.000000 0.500000
O O4 0.785618 0.997684 0.364256
O O5 0.672681 0.250000 0.491121
O O6 0.782057 0.484002 0.469843
O O7 0.415648 0.475291 0.677631
O O8 0.055472 0.250000 0.626504
O O9 0.953322 0.465522 0.637169
O O10 0.809555 0.461062 0.838107
O O11 0.530632 0.250000 0.033618
O O12 0.385240 0.997865 0.178536
O O13 0.500000 0.000000 0.000000
O O14 0.843842 0.250000 0.653417
O O15 0.000000 0.000000 0.500000
O O16 0.164361 0.250000 0.847474
O O17 0.000000 0.500000 0.000000
#
# Coordination Sequence:
#
# PCOD9161281 Si02
#       6
#     4   4   4   4   4   4
#     4   9  17  31  50  72  97 126 163 202 242 293
#     4  10  20  33  51  76 101 128 167 211 253 298
#     4   9  19  34  52  75 101 131 167 208 255 303
#     4   9  17  31  51  74  99 128 166 207 247 299
#     4  10  20  34  53  77 104 136 173 210 254 307
#     4   9  19  33  50  74 100 129 165 202 244 296
#
# _framework density 17.011282000000001
#
# number of rings (size 3 to 8) (size 9 to 14) (size 15 to 20)
#    0.000    2.667    0.000    4.000    0.000    8.000 
#    0.000    1.667    0.000    2.000    0.000    0.000 
#    0.000    0.000    0.000    0.000    0.000    0.000 
#
# Total GULP energy -133649.876837 kJ/mol
# GULP energy per Si atom -5568.744868 kJ/mol
# Density = 1.697256 g / cm^3
# Si number density = 17.011282 Si / 1000 Ang^3
#
#
#
# Elastic Constant Matrix: (Units=GPa)
#
#
# Indices 1 2 3 4 5 6 
#
# 1 72.5965 37.0870 49.0271 0.0000 6.9616 0.0000
# 2 37.0870 50.0035 43.7075 0.0000 5.3538 0.0000
# 3 49.0271 43.7075 112.8980 0.0000 23.7552 0.0000
# 4 0.0000 0.0000 0.0000 32.2793 0.0000 2.9044
# 5 6.9616 5.3538 23.7552 0.0000 29.9409 0.0000
# 6 0.0000 0.0000 0.0000 2.9044 0.0000 29.8539
#
#
#
# Elastic Compliance Matrix: (Units=1/GPa)
#
#
# Indices 1 2 3 4 5 6 
#
# 1 0.024194 -0.013098 -0.005696 0.000000 0.001236 0.000000
# 2 -0.013098 0.037869 -0.009830 0.000000 0.004073 0.000000
# 3 -0.005696 -0.009830 0.017391 0.000000 -0.010716 0.000000
# 4 0.000000 0.000000 0.000000 0.031253 0.000000 -0.003041
# 5 0.001236 0.004073 -0.010716 0.000000 0.040886 0.000000
# 6 0.000000 0.000000 0.000000 -0.003041 0.000000 0.033792
#
#
# Mechanical properties :
#
#
# Convention : Reuss Voigt Hill
#
# Bulk Modulus (GPa) = 45.02989 55.01569 50.02279
# Shear Modulus (GPa) = 19.99709 25.45993 22.72851
#
# Velocity S-wave (km/s) = 3.43230 3.87285 3.65921
# Velocity P-wave (km/s) = 6.49890 7.23945 6.87914
#
# Compressibility (1/GPa) = 0.02220747
#
# Stress axis : x y z
#
# Youngs Moduli (GPa) = 41.33216 26.40648 57.49994
#
# Poissons Ratio (x) = 0.34588 0.32750
# Poissons Ratio (y) = 0.54138 0.56521
# Poissons Ratio (z) = 0.23541 0.25957
#
# Static dielectric constant tensor:
#      x y z
#    x 1.645630 0.000000 -0.020190 
#    y 0.000000 1.564050 0.000000 
#    z -0.020190 0.000000 1.583090 
# 
# From -- ./inp_files/23731.got.cif
#   From: 2010.05.17/outbox.cif.g08.bks.cpg/sg11_12_cif.got.tgz:23731.got - 2010.06.03 12:22:45.
