data_PCOD9161975
_publ_section_title
;
Structure prediction by ZEFSAII (Michael W. Deem and Ramdas Pophale) SiO2 
 PCOD9161975
Probable space group: P 21/M
;
_chemical_formula_sum "Si O2"
_cell_formula_units_Z 32
_cell_length_a 18.120080
_cell_length_b 15.528245
_cell_length_c 12.416951
_cell_angle_alpha 90.000000
_cell_angle_beta 150.975089
_cell_angle_gamma 90.000000
_cell_volume 1695.153971
_symmetry_space_group_name_H-M "P 21/M"
_symmetry_group_IT_number 11
_symmetry_cell_setting 'monoclinic'
loop_
_space_group_symop_operation_xyz
x,y,z
-x,1/2+y,-z
-x,-y,-z
x,1/2-y,z
loop_
_atom_site_type_symbol
_atom_site_label
_atom_site_fract_x
_atom_site_fract_y
_atom_site_fract_z
Si Si1 0.297763 0.647500 0.721341
Si Si2 0.181318 0.991454 0.742932
Si Si3 0.118167 0.074247 0.116872
Si Si4 0.166079 0.650671 0.329999
Si Si5 0.398949 0.549243 0.206190
Si Si6 0.331857 0.351817 0.568391
Si Si7 0.351937 0.562950 0.376511
Si Si8 0.661881 0.850497 0.174613
O O1 0.264133 0.750000 0.696150
O O2 0.239497 0.587585 0.742955
O O3 0.221778 0.613116 0.514147
O O4 0.479115 0.640468 0.937487
O O5 0.258296 0.079722 0.798716
O O6 0.000000 0.000000 0.500000
O O7 0.248304 0.972693 0.947386
O O8 0.193344 0.119158 0.315743
O O9 0.255215 0.024968 0.234122
O O10 0.013451 0.136982 0.914566
O O11 0.000000 0.000000 0.000000
O O12 0.203836 0.750000 0.384428
O O13 0.256066 0.614628 0.341923
O O14 0.518196 0.598258 0.280878
O O15 0.371325 0.601324 0.282386
O O16 0.492057 0.465715 0.367574
O O17 0.358438 0.250000 0.592017
O O18 0.296873 0.369477 0.648328
O O19 0.699105 0.750000 0.198077
#
# Coordination Sequence:
#
# PCOD9161975 Si02
#       8
#     4   4   4   4   4   4   4   4
#     4  10  22  40  64  91 122 161 209 253 300 367
#     4  12  26  37  62  91 126 163 200 250 325 374
#     4   9  19  32  55  81 112 147 186 239 291 353
#     4  10  20  34  56  85 114 149 190 238 299 358
#     4  10  21  38  55  84 114 154 198 242 295 363
#     4  10  20  36  60  86 113 152 205 254 298 353
#     4   9  20  36  57  79 113 149 194 242 285 348
#     4  10  22  41  64  89 116 159 213 260 298 366
#
# _framework density 18.877341000000001
#
# number of rings (size 3 to 8) (size 9 to 14) (size 15 to 20)
#    0.000    2.000    1.250    1.500    7.000    2.000 
#    0.000    0.000    0.000    0.750    0.000    0.000 
#    0.000    0.000    0.000    0.000    0.000    0.000 
#
# Total GULP energy -178434.642563 kJ/mol
# GULP energy per Si atom -5576.082580 kJ/mol
# Density = 1.883438 g / cm^3
# Si number density = 18.877341 Si / 1000 Ang^3
#
#
#
# Elastic Constant Matrix: (Units=GPa)
#
#
# Indices 1 2 3 4 5 6 
#
# 1 48.8113 23.1174 30.5104 0.0000 -11.3299 0.0000
# 2 23.1174 52.5986 18.9725 0.0000 -4.1068 0.0000
# 3 30.5104 18.9725 132.0710 0.0000 -8.6595 0.0000
# 4 0.0000 0.0000 0.0000 21.3885 0.0000 -2.8371
# 5 -11.3299 -4.1068 -8.6595 0.0000 29.9422 0.0000
# 6 0.0000 0.0000 0.0000 -2.8371 0.0000 8.3461
#
#
#
# Elastic Compliance Matrix: (Units=1/GPa)
#
#
# Indices 1 2 3 4 5 6 
#
# 1 0.030871 -0.011096 -0.004966 0.000000 0.008723 0.000000
# 2 -0.011096 0.024152 -0.000983 0.000000 -0.001170 0.000000
# 3 -0.004966 -0.000983 0.008897 0.000000 0.000559 0.000000
# 4 0.000000 0.000000 0.000000 0.048962 0.000000 0.016643
# 5 0.008723 -0.001170 0.000559 0.000000 0.036700 0.000000
# 6 0.000000 0.000000 0.000000 0.016643 0.000000 0.125474
#
#
# Mechanical properties :
#
#
# Convention : Reuss Voigt Hill
#
# Bulk Modulus (GPa) = 33.52267 42.07571 37.79919
# Shear Modulus (GPa) = 15.66974 22.66074 19.16524
#
# Velocity S-wave (km/s) = 2.88424 3.46847 3.18976
# Velocity P-wave (km/s) = 5.37480 6.19498 5.79941
#
# Compressibility (1/GPa) = 0.02983056
#
# Stress axis : x y z
#
# Youngs Moduli (GPa) = 32.39309 41.40493 112.40107
#
# Poissons Ratio (x) = 0.45941 0.55815
# Poissons Ratio (y) = 0.35942 0.11048
# Poissons Ratio (z) = 0.16086 0.04070
#
# Static dielectric constant tensor:
#      x y z
#    x 1.396290 0.000000 0.116590 
#    y 0.000000 1.672720 0.000000 
#    z 0.116590 0.000000 1.618300 
# 
# From -- ./inp_files/41721.got.cif
#   From: 2010.05.17/outbox.cif.g08.bks.cpg/sg11_21_cif.got.tgz:41721.got - 2010.06.03 12:22:45.
