data_PCOD9161398
_publ_section_title
;
Structure prediction by ZEFSAII (Michael W. Deem and Ramdas Pophale) SiO2 
 PCOD9161398
Probable space group: P 21/M
;
_chemical_formula_sum "Si O2"
_cell_formula_units_Z 32
_cell_length_a 5.641480
_cell_length_b 9.718834
_cell_length_c 27.417626
_cell_angle_alpha 90.000000
_cell_angle_beta 82.131662
_cell_angle_gamma 90.000000
_cell_volume 1489.117367
_symmetry_space_group_name_H-M "P 21/M"
_symmetry_group_IT_number 11
_symmetry_cell_setting 'monoclinic'
loop_
_space_group_symop_operation_xyz
x,y,z
-x,1/2+y,-z
-x,-y,-z
x,1/2-y,z
loop_
_atom_site_type_symbol
_atom_site_label
_atom_site_fract_x
_atom_site_fract_y
_atom_site_fract_z
Si Si1 0.673844 0.584401 0.169973
Si Si2 0.176892 0.402786 0.024400
Si Si3 0.855654 0.085580 0.785669
Si Si4 0.319833 0.592586 0.536953
Si Si5 0.200825 0.402109 0.690212
Si Si6 0.964135 0.095812 0.593837
Si Si7 0.456139 0.403922 0.361081
Si Si8 0.538891 0.098198 0.925682
O O1 0.680795 0.750000 0.177141
O O2 0.923708 0.533140 0.186217
O O3 0.640339 0.562417 0.113056
O O4 0.416269 0.533863 0.198932
O O5 0.080496 0.250000 0.036516
O O6 0.395738 0.388481 0.980092
O O7 0.267263 0.481289 0.069836
O O8 0.000000 0.500000 0.000000
O O9 0.838139 0.250000 0.794745
O O10 0.965115 0.069472 0.728527
O O11 0.500000 0.500000 0.500000
O O12 0.292677 0.750000 0.519749
O O13 0.080274 0.503095 0.550478
O O14 0.414791 0.606683 0.589839
O O15 0.295044 0.250000 0.703557
O O16 0.140129 0.390010 0.634984
O O17 0.378771 0.530554 0.685626
O O18 0.909970 0.250000 0.578174
O O19 0.742615 0.016695 0.622681
O O20 0.368907 0.250000 0.351449
O O21 0.645679 0.250000 0.911728
#
# Coordination Sequence:
#
# PCOD9161398 Si02
#       8
#     4   4   4   4   4   4   4   4
#     4   9  18  31  52  82 114 146 184 236 292 345
#     4  10  20  33  53  79 108 146 188 236 286 342
#     4   9  18  31  52  83 114 144 184 235 292 342
#     4  10  21  37  55  77 108 142 182 226 276 336
#     4   9  19  34  55  81 108 137 177 228 274 325
#     4  10  20  34  55  81 108 142 181 227 278 329
#     4  10  21  36  55  79 107 143 180 222 273 331
#     4   9  19  34  53  78 108 143 188 236 286 342
#
# _framework density 21.489242000000001
#
# number of rings (size 3 to 8) (size 9 to 14) (size 15 to 20)
#    0.000    2.500    0.000    1.500    3.500    3.000 
#    0.000    0.000    0.000    1.500    0.000    0.000 
#    0.000    0.000    0.000    0.000    0.000    0.000 
#
# Total GULP energy -178277.275797 kJ/mol
# GULP energy per Si atom -5571.164869 kJ/mol
# Density = 2.144033 g / cm^3
# Si number density = 21.489242 Si / 1000 Ang^3
#
#
#
# Elastic Constant Matrix: (Units=GPa)
#
#
# Indices 1 2 3 4 5 6 
#
# 1 47.0958 21.7039 -2.0677 0.0000 -4.1218 0.0000
# 2 21.7039 134.4510 6.1407 0.0000 -0.2547 0.0000
# 3 -2.0677 6.1407 67.9840 0.0000 2.7837 0.0000
# 4 0.0000 0.0000 0.0000 10.4035 0.0000 -0.4871
# 5 -4.1218 -0.2547 2.7837 0.0000 42.0959 0.0000
# 6 0.0000 0.0000 0.0000 -0.4871 0.0000 21.6591
#
#
#
# Elastic Compliance Matrix: (Units=1/GPa)
#
#
# Indices 1 2 3 4 5 6 
#
# 1 0.023212 -0.003787 0.000958 0.000000 0.002186 0.000000
# 2 -0.003787 0.008087 -0.000835 0.000000 -0.000267 0.000000
# 3 0.000958 -0.000835 0.014850 0.000000 -0.000893 0.000000
# 4 0.000000 0.000000 0.000000 0.096223 0.000000 0.002164
# 5 0.002186 -0.000267 -0.000893 0.000000 0.024027 0.000000
# 6 0.000000 0.000000 0.000000 0.002164 0.000000 0.046219
#
#
# Mechanical properties :
#
#
# Convention : Reuss Voigt Hill
#
# Bulk Modulus (GPa) = 25.75780 33.45385 29.60582
# Shear Modulus (GPa) = 21.46991 29.74862 25.60926
#
# Velocity S-wave (km/s) = 3.16428 3.72472 3.45588
# Velocity P-wave (km/s) = 5.03613 5.83948 5.45262
#
# Compressibility (1/GPa) = 0.03882319
#
# Stress axis : x y z
#
# Youngs Moduli (GPa) = 43.08146 123.66243 67.33795
#
# Poissons Ratio (x) = 0.46826 -0.06454
# Poissons Ratio (y) = 0.16313 0.05621
# Poissons Ratio (z) = -0.04129 0.10322
#
# Static dielectric constant tensor:
#      x y z
#    x 1.859450 0.000000 0.016790 
#    y 0.000000 1.864910 0.000000 
#    z 0.016790 0.000000 1.808330 
# 
# From -- ./inp_files/72586.got.cif
#   From: 2010.05.17/outbox.cif.g08.bks.cpg/sg11_37_cif.got.tgz:72586.got - 2010.06.03 12:22:45.
