data_PCOD9161849
_publ_section_title
;
Structure prediction by ZEFSAII (Michael W. Deem and Ramdas Pophale) SiO2 
 PCOD9161849
Probable space group: P 21/M
;
_chemical_formula_sum "Si O2"
_cell_formula_units_Z 28
_cell_length_a 19.436520
_cell_length_b 9.066882
_cell_length_c 15.129016
_cell_angle_alpha 90.000000
_cell_angle_beta 37.704374
_cell_angle_gamma 90.000000
_cell_volume 1630.593527
_symmetry_space_group_name_H-M "P 21/M"
_symmetry_group_IT_number 11
_symmetry_cell_setting 'monoclinic'
loop_
_space_group_symop_operation_xyz
x,y,z
-x,1/2+y,-z
-x,-y,-z
x,1/2-y,z
loop_
_atom_site_type_symbol
_atom_site_label
_atom_site_fract_x
_atom_site_fract_y
_atom_site_fract_z
Si Si1 0.037530 0.575362 0.552084
Si Si2 0.875241 0.924216 0.883206
Si Si3 0.588286 0.929164 0.596498
Si Si4 0.668790 0.426982 0.165485
Si Si5 0.780163 0.919783 0.522918
Si Si6 0.946755 0.580464 0.182902
Si Si7 0.743928 0.571313 0.272130
O O1 0.045205 0.750000 0.532606
O O2 0.154896 0.512206 0.469891
O O3 0.000000 0.500000 0.500000
O O4 0.946051 0.546064 0.722458
O O5 0.856364 0.750000 0.910400
O O6 0.951793 0.979728 0.887454
O O7 0.758870 0.011355 0.004577
O O8 0.591707 0.750000 0.595667
O O9 0.458957 0.974442 0.725060
O O10 0.661722 0.978735 0.606078
O O11 0.654723 0.970619 0.439592
O O12 0.672540 0.250000 0.165053
O O13 0.707230 0.494330 0.219917
O O14 0.768297 0.750000 0.564421
O O15 0.859969 0.917363 0.354456
O O16 0.984240 0.750000 0.130842
O O17 0.868637 0.530857 0.180895
O O18 0.742465 0.750000 0.264708
#
# Coordination Sequence:
#
# PCOD9161849 Si02
#       7
#     4   4   4   4   4   4   4
#     4  10  20  34  55  81 102 120 148 189 238 292
#     4  10  21  35  49  69  98 128 158 194 240 290
#     4   8  16  31  50  71  96 130 169 204 239 279
#     4  11  21  31  46  69  98 133 170 203 237 281
#     4   8  14  29  52  74  97 124 155 194 239 283
#     4   8  15  29  49  69  91 124 162 200 243 288
#     4   9  17  31  49  69  95 127 167 211 248 280
#
# _framework density 17.171662999999999
#
# number of rings (size 3 to 8) (size 9 to 14) (size 15 to 20)
#    0.000    2.857    0.000    3.429    0.000    2.857 
#    0.000    4.286    0.000    0.857    0.000    0.000 
#    0.000    0.000    0.000    0.000    0.000    0.000 
#
# Total GULP energy -156123.443876 kJ/mol
# GULP energy per Si atom -5575.837281 kJ/mol
# Density = 1.713258 g / cm^3
# Si number density = 17.171663 Si / 1000 Ang^3
#
#
#
# Elastic Constant Matrix: (Units=GPa)
#
#
# Indices 1 2 3 4 5 6 
#
# 1 142.2544 54.3732 55.3421 0.0000 -5.5931 0.0000
# 2 54.3732 47.9552 40.5356 0.0000 -1.1469 0.0000
# 3 55.3421 40.5356 64.2529 0.0000 -19.0905 0.0000
# 4 0.0000 0.0000 0.0000 21.0384 0.0000 1.5204
# 5 -5.5931 -1.1469 -19.0905 0.0000 20.9920 0.0000
# 6 0.0000 0.0000 0.0000 1.5204 0.0000 26.0131
#
#
#
# Elastic Compliance Matrix: (Units=1/GPa)
#
#
# Indices 1 2 3 4 5 6 
#
# 1 0.012907 -0.010358 -0.005109 0.000000 -0.001774 0.000000
# 2 -0.010358 0.076657 -0.053461 0.000000 -0.047190 0.000000
# 3 -0.005109 -0.053461 0.071827 0.000000 0.061039 0.000000
# 4 0.000000 0.000000 0.000000 0.047734 0.000000 -0.002790
# 5 -0.001774 -0.047190 0.061039 0.000000 0.100096 0.000000
# 6 0.000000 0.000000 0.000000 -0.002790 0.000000 0.038605
#
#
# Mechanical properties :
#
#
# Convention : Reuss Voigt Hill
#
# Bulk Modulus (GPa) = 42.48938 61.66269 52.07604
# Shear Modulus (GPa) = 10.13116 20.55614 15.34365
#
# Velocity S-wave (km/s) = 2.43161 3.46366 2.99246
# Velocity P-wave (km/s) = 5.71675 7.20996 6.50633
#
# Compressibility (1/GPa) = 0.02353529
#
# Stress axis : x y z
#
# Youngs Moduli (GPa) = 77.48024 13.04504 13.92235
#
# Poissons Ratio (x) = 0.13511 0.07113
# Poissons Ratio (y) = 0.80250 0.74430
# Poissons Ratio (z) = 0.39587 0.69740
#
# Static dielectric constant tensor:
#      x y z
#    x 1.579610 0.000000 -0.014270 
#    y 0.000000 1.572300 0.000000 
#    z -0.014270 0.000000 1.596330 
# 
# From -- ./inp_files/42579.got.cif
#   From: 2010.05.17/outbox.cif.g08.bks.cpg/sg11_22_cif.got.tgz:42579.got - 2010.06.03 12:22:45.
