data_PCOD9161080
_publ_section_title
;
Structure prediction by ZEFSAII (Michael W. Deem and Ramdas Pophale) SiO2 
 PCOD9161080
Probable space group: P 21/M
;
_chemical_formula_sum "Si O2"
_cell_formula_units_Z 30
_cell_length_a 15.176013
_cell_length_b 9.500553
_cell_length_c 11.976780
_cell_angle_alpha 90.000000
_cell_angle_beta 115.592099
_cell_angle_gamma 90.000000
_cell_volume 1557.403803
_symmetry_space_group_name_H-M "P 21/M"
_symmetry_group_IT_number 11
_symmetry_cell_setting 'monoclinic'
loop_
_space_group_symop_operation_xyz
x,y,z
-x,1/2+y,-z
-x,-y,-z
x,1/2-y,z
loop_
_atom_site_type_symbol
_atom_site_label
_atom_site_fract_x
_atom_site_fract_y
_atom_site_fract_z
Si Si1 0.071595 0.917381 0.687274
Si Si2 0.457052 0.250000 0.957873
Si Si3 0.246864 0.911937 0.940029
Si Si4 0.550805 0.411474 0.378219
Si Si5 0.291172 0.083083 0.419661
Si Si6 0.331156 0.416169 0.192120
Si Si7 0.408929 0.541241 0.839828
Si Si8 0.126092 0.582759 0.463527
O O1 0.046881 0.750000 0.681386
O O2 0.144632 0.954070 0.827861
O O3 0.125881 0.936392 0.597830
O O4 0.976183 0.013964 0.632233
O O5 0.425189 0.375354 0.854598
O O6 0.496511 0.127859 0.067118
O O7 0.240816 0.750000 0.972936
O O8 0.325938 0.919600 0.883662
O O9 0.284018 0.003700 0.062993
O O10 0.544884 0.250000 0.416625
O O11 0.604408 0.515742 0.491301
O O12 0.443098 0.457784 0.279686
O O13 0.613190 0.413146 0.297712
O O14 0.290262 0.250000 0.441512
O O15 0.275318 0.062506 0.278545
O O16 0.211047 0.000800 0.447450
O O17 0.331670 0.250000 0.166602
O O18 0.130633 0.750000 0.443440
#
# Coordination Sequence:
#
# PCOD9161080 Si02
#       8
#     4   2   4   4   4   4   4   4
#     4   9  20  39  62  95 123 149 185 239 299 353
#     4  10  20  32  50  74 120 154 196 226 282 346
#     4  11  22  36  58  87 123 158 197 240 296 361
#     4  11  22  38  60  83 118 157 203 253 297 347
#     4  11  24  41  60  86 115 155 205 250 295 351
#     4  10  24  41  58  81 118 162 203 250 294 339
#     4  11  21  34  54  86 115 159 192 242 291 348
#     4  10  20  39  68  92 121 152 187 239 299 357
#
# _framework density 19.262827000000001
#
# number of rings (size 3 to 8) (size 9 to 14) (size 15 to 20)
#    0.000    1.600    1.333    3.600    3.733    3.733 
#    0.000    0.667    0.000    0.000    0.000    0.000 
#    0.000    0.000    0.000    0.000    0.000    0.000 
#
# Total GULP energy -167081.930255 kJ/mol
# GULP energy per Si atom -5569.397675 kJ/mol
# Density = 1.921898 g / cm^3
# Si number density = 19.262827 Si / 1000 Ang^3
#
#
#
# Elastic Constant Matrix: (Units=GPa)
#
#
# Indices 1 2 3 4 5 6 
#
# 1 79.5886 49.8173 46.5882 0.0000 6.6181 0.0000
# 2 49.8173 124.1532 69.8227 0.0000 8.9460 0.0000
# 3 46.5882 69.8227 130.7249 0.0000 12.2647 0.0000
# 4 0.0000 0.0000 0.0000 29.8175 0.0000 9.0718
# 5 6.6181 8.9460 12.2647 0.0000 18.4588 0.0000
# 6 0.0000 0.0000 0.0000 9.0718 0.0000 14.2774
#
#
#
# Elastic Compliance Matrix: (Units=1/GPa)
#
#
# Indices 1 2 3 4 5 6 
#
# 1 0.017958 -0.005110 -0.003518 0.000000 -0.001624 0.000000
# 2 -0.005110 0.013011 -0.005022 0.000000 -0.001137 0.000000
# 3 -0.003518 -0.005022 0.011986 0.000000 -0.004269 0.000000
# 4 0.000000 0.000000 0.000000 0.041574 0.000000 -0.026416
# 5 -0.001624 -0.001137 -0.004269 0.000000 0.058144 0.000000
# 6 0.000000 0.000000 0.000000 -0.026416 0.000000 0.086825
#
#
# Mechanical properties :
#
#
# Convention : Reuss Voigt Hill
#
# Bulk Modulus (GPa) = 63.87611 74.10257 68.98934
# Shear Modulus (GPa) = 19.08279 23.72666 21.40472
#
# Velocity S-wave (km/s) = 3.15088 3.51341 3.33707
# Velocity P-wave (km/s) = 6.81687 7.41697 7.12324
#
# Compressibility (1/GPa) = 0.01565531
#
# Stress axis : x y z
#
# Youngs Moduli (GPa) = 55.68689 76.85763 83.43014
#
# Poissons Ratio (x) = 0.39275 0.29351
# Poissons Ratio (y) = 0.28456 0.41896
# Poissons Ratio (z) = 0.19591 0.38595
#
# Static dielectric constant tensor:
#      x y z
#    x 1.726890 0.000000 -0.012170 
#    y 0.000000 1.662800 0.000000 
#    z -0.012170 0.000000 1.681560 
# 
# From -- ./inp_files/38345.got.cif
#   From: 2010.05.17/outbox.cif.g08.bks.cpg/sg11_20_cif.got.tgz:38345.got - 2010.06.03 12:22:45.
