data_PCOD9161118
_publ_section_title
;
Structure prediction by ZEFSAII (Michael W. Deem and Ramdas Pophale) SiO2 
 PCOD9161118
Probable space group: P 21/M
;
_chemical_formula_sum "Si O2"
_cell_formula_units_Z 20
_cell_length_a 11.704753
_cell_length_b 16.457638
_cell_length_c 14.325225
_cell_angle_alpha 90.000000
_cell_angle_beta 161.155652
_cell_angle_gamma 90.000000
_cell_volume 891.315539
_symmetry_space_group_name_H-M "P 21/M"
_symmetry_group_IT_number 11
_symmetry_cell_setting 'monoclinic'
loop_
_space_group_symop_operation_xyz
x,y,z
-x,1/2+y,-z
-x,-y,-z
x,1/2-y,z
loop_
_atom_site_type_symbol
_atom_site_label
_atom_site_fract_x
_atom_site_fract_y
_atom_site_fract_z
Si Si1 0.515321 0.250000 0.121886
Si Si2 0.883103 0.877897 0.926165
Si Si3 0.292574 0.750000 0.522751
Si Si4 0.439367 0.066769 0.033220
Si Si5 0.381820 0.415715 0.461042
Si Si6 0.333064 0.982062 0.586517
O O1 0.745417 0.250000 0.394292
O O2 0.566659 0.160229 0.115871
O O3 0.093895 0.250000 0.821206
O O4 0.556660 0.822258 0.701643
O O5 0.898028 0.878485 0.825973
O O6 0.721865 0.959679 0.847047
O O7 0.264681 0.861904 0.262320
O O8 0.011943 0.069482 0.711009
O O9 0.617207 0.031014 0.264986
O O10 0.500000 0.000000 0.000000
O O11 0.500000 0.500000 0.500000
O O12 0.260940 0.435326 0.472494
#
# Coordination Sequence:
#
# PCOD9161118 Si02
#       6
#     2   4   2   4   4   4
#     4  12  22  42  58  87 124 151 198 274 314 356
#     4  11  19  34  54  89 117 159 191 238 303 365
#     4  12  22  34  62  85 128 159 194 256 320 344
#     4  12  24  39  63  89 116 160 210 258 315 363
#     4  10  20  32  55  83 121 154 188 231 291 370
#     4  11  20  38  57  86 118 153 200 249 294 366
#
# _framework density 22.438742999999999
#
# number of rings (size 3 to 8) (size 9 to 14) (size 15 to 20)
#    0.000    0.800    4.000    7.800    0.000    0.000 
#    0.000    0.000    0.000    7.200    0.000    0.000 
#    0.000    0.000    0.000    0.000    0.000    0.000 
#
# Total GULP energy -111367.020313 kJ/mol
# GULP energy per Si atom -5568.351016 kJ/mol
# Density = 2.238767 g / cm^3
# Si number density = 22.438743 Si / 1000 Ang^3
#
#
#
# Elastic Constant Matrix: (Units=GPa)
#
#
# Indices 1 2 3 4 5 6 
#
# 1 81.1410 48.6279 15.7523 0.0000 -30.4230 0.0000
# 2 48.6279 72.7878 0.3125 0.0000 -0.9328 0.0000
# 3 15.7523 0.3125 86.2978 0.0000 -21.3864 0.0000
# 4 0.0000 0.0000 0.0000 33.0014 0.0000 10.5759
# 5 -30.4230 -0.9328 -21.3864 0.0000 37.6416 0.0000
# 6 0.0000 0.0000 0.0000 10.5759 0.0000 28.5483
#
#
#
# Elastic Compliance Matrix: (Units=1/GPa)
#
#
# Indices 1 2 3 4 5 6 
#
# 1 0.039954 -0.026285 0.000749 0.000000 0.032066 0.000000
# 2 -0.026285 0.031035 -0.000452 0.000000 -0.020732 0.000000
# 3 0.000749 -0.000452 0.013501 0.000000 0.008265 0.000000
# 4 0.000000 0.000000 0.000000 0.034384 0.000000 -0.012738
# 5 0.032066 -0.020732 0.008265 0.000000 0.056665 0.000000
# 6 0.000000 0.000000 0.000000 -0.012738 0.000000 0.039747
#
#
# Mechanical properties :
#
#
# Convention : Reuss Voigt Hill
#
# Bulk Modulus (GPa) = 30.75631 41.06801 35.91216
# Shear Modulus (GPa) = 17.97906 31.54052 24.75979
#
# Velocity S-wave (km/s) = 2.83371 3.75324 3.32541
# Velocity P-wave (km/s) = 4.94399 6.09298 5.54831
#
# Compressibility (1/GPa) = 0.03251365
#
# Stress axis : x y z
#
# Youngs Moduli (GPa) = 25.02853 32.22146 74.06924
#
# Poissons Ratio (x) = 0.84694 -0.05547
# Poissons Ratio (y) = 0.65787 0.03351
# Poissons Ratio (z) = -0.01874 0.01458
#
# Static dielectric constant tensor:
#      x y z
#    x 1.897060 0.000000 -0.010490 
#    y 0.000000 1.695570 0.000000 
#    z -0.010490 0.000000 1.821820 
# 
# From -- ./inp_files/39933.got.cif
#   From: 2010.05.17/outbox.cif.g08.bks.cpg/sg11_20_cif.got.tgz:39933.got - 2010.06.03 12:22:45.
