data_PCOD9161455
_publ_section_title
;
Structure prediction by ZEFSAII (Michael W. Deem and Ramdas Pophale) SiO2 
 PCOD9161455
Probable space group: P 21/M
;
_chemical_formula_sum "Si O2"
_cell_formula_units_Z 32
_cell_length_a 20.555690
_cell_length_b 15.350342
_cell_length_c 5.253072
_cell_angle_alpha 90.000000
_cell_angle_beta 115.288160
_cell_angle_gamma 90.000000
_cell_volume 1498.697444
_symmetry_space_group_name_H-M "P 21/M"
_symmetry_group_IT_number 11
_symmetry_cell_setting 'monoclinic'
loop_
_space_group_symop_operation_xyz
x,y,z
-x,1/2+y,-z
-x,-y,-z
x,1/2-y,z
loop_
_atom_site_type_symbol
_atom_site_label
_atom_site_fract_x
_atom_site_fract_y
_atom_site_fract_z
Si Si1 0.562113 0.022775 0.805794
Si Si2 0.251532 0.911558 0.539904
Si Si3 0.157178 0.057562 0.474138
Si Si4 0.893527 0.649717 0.095286
Si Si5 0.520321 0.649327 0.944837
Si Si6 0.374229 0.652571 0.416933
Si Si7 0.042386 0.572305 0.415511
Si Si8 0.825871 0.348345 0.090800
O O1 0.628298 0.072647 0.784726
O O2 0.500000 0.000000 0.500000
O O3 0.576262 0.927540 0.955905
O O4 0.523901 0.096351 0.914631
O O5 0.329395 0.877632 0.588033
O O6 0.219568 0.858077 0.724055
O O7 0.234196 0.010497 0.591138
O O8 0.208897 0.899984 0.200272
O O9 0.138039 0.094923 0.719719
O O10 0.097095 0.980848 0.327309
O O11 0.146459 0.125135 0.231175
O O12 0.885038 0.750000 0.145250
O O13 0.978732 0.630026 0.195102
O O14 0.543480 0.750000 0.044806
O O15 0.458137 0.659859 0.628312
O O16 0.350040 0.750000 0.296319
O O17 0.094511 0.623097 0.694686
O O18 0.000000 0.500000 0.500000
O O19 0.827041 0.250000 0.004113
#
# Coordination Sequence:
#
# PCOD9161455 Si02
#       8
#     4   4   4   4   4   4   4   4
#     4   9  18  33  53  83 116 149 183 228 281 324
#     4  11  23  38  56  79 113 156 187 223 281 341
#     4  10  21  38  54  79 112 147 181 232 291 351
#     4  11  21  36  59  83 103 138 190 245 293 343
#     4   9  18  33  55  84 118 150 186 231 279 327
#     4  10  20  33  54  85 114 148 189 229 272 336
#     4   9  19  35  54  77 108 139 179 226 287 349
#     4  11  22  36  52  78 112 146 182 225 278 338
#
# _framework density 21.351875
#
# number of rings (size 3 to 8) (size 9 to 14) (size 15 to 20)
#    0.000    2.000    0.000    4.875    1.750    3.500 
#    0.000    6.250    0.000    1.500    0.000    0.000 
#    0.000    0.000    0.000    0.000    0.000    0.000 
#
# Total GULP energy -178310.696496 kJ/mol
# GULP energy per Si atom -5572.209265 kJ/mol
# Density = 2.130328 g / cm^3
# Si number density = 21.351875 Si / 1000 Ang^3
#
#
#
# Elastic Constant Matrix: (Units=GPa)
#
#
# Indices 1 2 3 4 5 6 
#
# 1 77.8135 39.9828 4.0191 0.0000 -12.6232 0.0000
# 2 39.9828 134.2546 4.7504 0.0000 -11.3158 0.0000
# 3 4.0191 4.7504 46.2434 0.0000 -8.8278 0.0000
# 4 0.0000 0.0000 0.0000 24.3008 0.0000 -4.7905
# 5 -12.6232 -11.3158 -8.8278 0.0000 28.5433 0.0000
# 6 0.0000 0.0000 0.0000 -4.7905 0.0000 12.7517
#
#
#
# Elastic Compliance Matrix: (Units=1/GPa)
#
#
# Indices 1 2 3 4 5 6 
#
# 1 0.015923 -0.004293 0.000081 0.000000 0.005365 0.000000
# 2 -0.004293 0.008865 -0.000243 0.000000 0.001541 0.000000
# 3 0.000081 -0.000243 0.022988 0.000000 0.007049 0.000000
# 4 0.000000 0.000000 0.000000 0.044442 0.000000 0.016696
# 5 0.005365 0.001541 0.007049 0.000000 0.040198 0.000000
# 6 0.000000 0.000000 0.000000 0.016696 0.000000 0.084693
#
#
# Mechanical properties :
#
#
# Convention : Reuss Voigt Hill
#
# Bulk Modulus (GPa) = 25.72873 39.53514 32.63194
# Shear Modulus (GPa) = 20.92258 27.08976 24.00617
#
# Velocity S-wave (km/s) = 3.13372 3.56579 3.35671
# Velocity P-wave (km/s) = 5.01694 5.95897 5.50813
#
# Compressibility (1/GPa) = 0.03886705
#
# Stress axis : x y z
#
# Youngs Moduli (GPa) = 62.80155 112.79708 43.50032
#
# Poissons Ratio (x) = 0.48422 -0.00354
# Poissons Ratio (y) = 0.26959 0.01059
# Poissons Ratio (z) = -0.00511 0.02746
#
# Static dielectric constant tensor:
#      x y z
#    x 1.781230 0.000000 0.051080 
#    y 0.000000 1.831630 0.000000 
#    z 0.051080 0.000000 1.799400 
# 
# From -- ./inp_files/9032.got.cif
#   From: 2010.05.17/outbox.cif.g08.bks.cpg/sg11_5_cif.got.tgz:9032.got - 2010.06.03 12:22:45.
