data_PCOD9161460
_publ_section_title
;
Structure prediction by ZEFSAII (Michael W. Deem and Ramdas Pophale) SiO2 
 PCOD9161460
Probable space group: P 21/M
;
_chemical_formula_sum "Si O2"
_cell_formula_units_Z 28
_cell_length_a 21.181863
_cell_length_b 8.456486
_cell_length_c 15.064270
_cell_angle_alpha 90.000000
_cell_angle_beta 151.372113
_cell_angle_gamma 90.000000
_cell_volume 1292.842720
_symmetry_space_group_name_H-M "P 21/M"
_symmetry_group_IT_number 11
_symmetry_cell_setting 'monoclinic'
loop_
_space_group_symop_operation_xyz
x,y,z
-x,1/2+y,-z
-x,-y,-z
x,1/2-y,z
loop_
_atom_site_type_symbol
_atom_site_label
_atom_site_fract_x
_atom_site_fract_y
_atom_site_fract_z
Si Si1 0.511461 0.438794 0.375547
Si Si2 0.366889 0.927365 0.801107
Si Si3 0.999696 0.441890 0.167563
Si Si4 0.707661 0.562971 0.476224
Si Si5 0.022711 0.063741 0.660812
Si Si6 0.198937 0.425580 0.727734
Si Si7 0.708002 0.059692 0.774890
O O1 0.502303 0.250000 0.366605
O O2 0.582736 0.488470 0.372503
O O3 0.369851 0.504662 0.232539
O O4 0.616885 0.494814 0.580725
O O5 0.381023 0.750000 0.786330
O O6 0.304226 0.025225 0.643176
O O7 0.281761 0.938953 0.785017
O O8 0.500000 0.000000 0.000000
O O9 0.002549 0.250000 0.173529
O O10 0.985308 0.509743 0.248850
O O11 0.144912 0.493264 0.312273
O O12 0.860401 0.491384 0.951879
O O13 0.701343 0.750000 0.482279
O O14 0.982327 0.250000 0.603700
O O15 0.164179 0.056096 0.787489
O O16 0.934768 0.943773 0.494367
O O17 0.255500 0.250000 0.782781
O O18 0.707949 0.250000 0.775323
#
# Coordination Sequence:
#
# PCOD9161460 Si02
#       7
#     4   4   4   4   4   4   4
#     4  10  21  39  63  90 122 160 203 250 301 362
#     4  12  25  41  61  85 116 156 201 247 299 356
#     4  10  21  37  60  88 122 159 200 250 304 359
#     4  11  23  40  62  89 122 160 200 248 306 365
#     4  10  20  33  55  83 112 148 190 238 290 346
#     4  10  20  36  55  79 112 150 193 240 290 344
#     4   9  20  40  63  89 121 160 203 250 303 361
#
# _framework density 21.657700999999999
#
# number of rings (size 3 to 8) (size 9 to 14) (size 15 to 20)
#    0.000    1.714    1.429    3.000    0.000    5.143 
#    0.000    2.857    0.000    0.000    0.000    0.000 
#    0.000    0.000    0.000    0.000    0.000    0.000 
#
# Total GULP energy -156121.915579 kJ/mol
# GULP energy per Si atom -5575.782699 kJ/mol
# Density = 2.160841 g / cm^3
# Si number density = 21.657701 Si / 1000 Ang^3
#
#
#
# Elastic Constant Matrix: (Units=GPa)
#
#
# Indices 1 2 3 4 5 6 
#
# 1 41.2443 0.1454 -9.2452 0.0000 10.1882 0.0000
# 2 0.1454 26.2654 -1.3023 0.0000 4.6975 0.0000
# 3 -9.2452 -1.3023 54.5995 0.0000 19.5627 0.0000
# 4 0.0000 0.0000 0.0000 17.3164 0.0000 0.2902
# 5 10.1882 4.6975 19.5627 0.0000 23.1734 0.0000
# 6 0.0000 0.0000 0.0000 0.2902 0.0000 29.0624
#
#
#
# Elastic Compliance Matrix: (Units=1/GPa)
#
#
# Indices 1 2 3 4 5 6 
#
# 1 0.036206 0.006463 0.017860 0.000000 -0.032305 0.000000
# 2 0.006463 0.041830 0.008814 0.000000 -0.018762 0.000000
# 3 0.017860 0.008814 0.035845 0.000000 -0.039899 0.000000
# 4 0.000000 0.000000 0.000000 0.057758 0.000000 -0.000577
# 5 -0.032305 -0.018762 -0.039899 0.000000 0.094841 0.000000
# 6 0.000000 0.000000 0.000000 -0.000577 0.000000 0.034414
#
#
# Mechanical properties :
#
#
# Convention : Reuss Voigt Hill
#
# Bulk Modulus (GPa) = 5.55078 11.25610 8.40344
# Shear Modulus (GPa) = 16.96794 22.74452 19.85623
#
# Velocity S-wave (km/s) = 2.80207 3.24417 3.03119
# Velocity P-wave (km/s) = 3.61072 4.38650 4.01738
#
# Compressibility (1/GPa) = 0.18015493
#
# Stress axis : x y z
#
# Youngs Moduli (GPa) = 27.61941 23.90644 27.89787
#
# Poissons Ratio (x) = -0.15450 -0.49825
# Poissons Ratio (y) = -0.17850 -0.24590
# Poissons Ratio (z) = -0.49327 -0.21072
#
# Static dielectric constant tensor:
#      x y z
#    x 1.758130 0.000000 -0.029530 
#    y 0.000000 1.737030 0.000000 
#    z -0.029530 0.000000 1.742020 
# 
# From -- ./inp_files/54526.got.cif
#   From: 2010.05.17/outbox.cif.g08.bks.cpg/sg11_28_cif.got.tgz:54526.got - 2010.06.03 12:22:45.
