data_PCOD9161197
_publ_section_title
;
Structure prediction by ZEFSAII (Michael W. Deem and Ramdas Pophale) SiO2 
 PCOD9161197
Probable space group: P 21/M
;
_chemical_formula_sum "Si O2"
_cell_formula_units_Z 32
_cell_length_a 16.135079
_cell_length_b 8.626857
_cell_length_c 14.981656
_cell_angle_alpha 90.000000
_cell_angle_beta 62.282597
_cell_angle_gamma 90.000000
_cell_volume 1846.080462
_symmetry_space_group_name_H-M "P 21/M"
_symmetry_group_IT_number 11
_symmetry_cell_setting 'monoclinic'
loop_
_space_group_symop_operation_xyz
x,y,z
-x,1/2+y,-z
-x,-y,-z
x,1/2-y,z
loop_
_atom_site_type_symbol
_atom_site_label
_atom_site_fract_x
_atom_site_fract_y
_atom_site_fract_z
Si Si1 0.654503 0.564360 0.273100
Si Si2 0.105971 0.435395 0.549729
Si Si3 0.441576 0.562364 0.383891
Si Si4 0.899095 0.564507 0.652428
Si Si5 0.267824 0.937232 0.146302
Si Si6 0.349423 0.935326 0.920750
Si Si7 0.444908 0.563141 0.177052
Si Si8 0.269465 0.564235 0.590077
O O1 0.655342 0.750000 0.275178
O O2 0.547805 0.509461 0.348566
O O3 0.674253 0.509822 0.162625
O O4 0.722791 0.497827 0.313535
O O5 0.110315 0.250000 0.553343
O O6 0.127897 0.481580 0.435872
O O7 0.179565 0.507866 0.580863
O O8 0.000430 0.491464 0.620599
O O9 0.442353 0.750000 0.388744
O O10 0.419288 0.522498 0.292266
O O11 0.361973 0.505708 0.490494
O O12 0.907241 0.750000 0.650366
O O13 0.821203 0.508508 0.760346
O O14 0.261355 0.750000 0.154280
O O15 0.361835 0.982913 0.152942
O O16 0.282487 0.981856 0.035919
O O17 0.347345 0.750000 0.913372
O O18 0.455204 0.986552 0.892191
O O19 0.456374 0.750000 0.167026
O O20 0.270932 0.750000 0.590273
#
# Coordination Sequence:
#
# PCOD9161197 Si02
#       8
#     4   4   4   4   4   4   4   4
#     4  10  20  35  51  70 101 140 178 215 257 301
#     4  10  21  37  55  78 108 137 165 203 253 306
#     4   8  16  29  47  72 102 135 169 206 249 298
#     4  10  21  36  56  81 106 134 169 207 249 302
#     4  10  20  33  52  76 104 137 172 213 259 306
#     4  10  20  33  49  73 103 137 177 217 257 299
#     4   9  17  31  49  72 104 140 173 206 252 305
#     4  11  20  32  53  78 103 134 173 214 255 303
#
# _framework density 17.334022999999998
#
# number of rings (size 3 to 8) (size 9 to 14) (size 15 to 20)
#    0.000    2.250    0.000    4.125    0.000    4.000 
#    0.000    6.875    0.000    0.750    0.000    0.000 
#    0.000    0.000    0.000    0.000    0.000    0.000 
#
# Total GULP energy -178628.255573 kJ/mol
# GULP energy per Si atom -5582.132987 kJ/mol
# Density = 1.729457 g / cm^3
# Si number density = 17.334023 Si / 1000 Ang^3
#
#
#
# Elastic Constant Matrix: (Units=GPa)
#
#
# Indices 1 2 3 4 5 6 
#
# 1 119.3683 40.0824 77.3300 0.0000 21.3791 0.0000
# 2 40.0824 45.5712 40.2070 0.0000 5.0248 0.0000
# 3 77.3300 40.2070 130.9442 0.0000 0.1450 0.0000
# 4 0.0000 0.0000 0.0000 24.1289 0.0000 -1.1343
# 5 21.3791 5.0248 0.1450 0.0000 15.9128 0.0000
# 6 0.0000 0.0000 0.0000 -1.1343 0.0000 25.5587
#
#
#
# Elastic Compliance Matrix: (Units=1/GPa)
#
#
# Indices 1 2 3 4 5 6 
#
# 1 0.023668 -0.007230 -0.011725 0.000000 -0.029408 0.000000
# 2 -0.007230 0.033788 -0.006104 0.000000 -0.000900 0.000000
# 3 -0.011725 -0.006104 0.016416 0.000000 0.017530 0.000000
# 4 0.000000 0.000000 0.000000 0.041531 0.000000 0.001843
# 5 -0.029408 -0.000900 0.017530 0.000000 0.102477 0.000000
# 6 0.000000 0.000000 0.000000 0.001843 0.000000 0.039207
#
#
# Mechanical properties :
#
#
# Convention : Reuss Voigt Hill
#
# Bulk Modulus (GPa) = 42.09813 67.90252 55.00033
# Shear Modulus (GPa) = 15.86692 22.33771 19.10231
#
# Velocity S-wave (km/s) = 3.02878 3.59369 3.32326
# Velocity P-wave (km/s) = 6.04735 7.51515 6.82085
#
# Compressibility (1/GPa) = 0.02375402
#
# Stress axis : x y z
#
# Youngs Moduli (GPa) = 42.25165 29.59672 60.91732
#
# Poissons Ratio (x) = 0.21398 0.71423
# Poissons Ratio (y) = 0.30548 0.37183
# Poissons Ratio (z) = 0.49538 0.18066
#
# Static dielectric constant tensor:
#      x y z
#    x 1.565610 0.000000 0.010740 
#    y 0.000000 1.581460 0.000000 
#    z 0.010740 0.000000 1.587780 
# 
# From -- ./inp_files/51663.got.cif
#   From: 2010.05.17/outbox.cif.g08.bks.cpg/sg11_26_cif.got.tgz:51663.got - 2010.06.03 12:22:45.
