data_PCOD9161307
_publ_section_title
;
Structure prediction by ZEFSAII (Michael W. Deem and Ramdas Pophale) SiO2 
 PCOD9161307
Probable space group: P 21/M
;
_chemical_formula_sum "Si O2"
_cell_formula_units_Z 24
_cell_length_a 10.372865
_cell_length_b 8.601314
_cell_length_c 21.741680
_cell_angle_alpha 90.000000
_cell_angle_beta 135.431835
_cell_angle_gamma 90.000000
_cell_volume 1361.267832
_symmetry_space_group_name_H-M "P 21/M"
_symmetry_group_IT_number 11
_symmetry_cell_setting 'monoclinic'
loop_
_space_group_symop_operation_xyz
x,y,z
-x,1/2+y,-z
-x,-y,-z
x,1/2-y,z
loop_
_atom_site_type_symbol
_atom_site_label
_atom_site_fract_x
_atom_site_fract_y
_atom_site_fract_z
Si Si1 0.705438 0.435504 0.566063
Si Si2 0.009144 0.436587 0.239430
Si Si3 0.011497 0.436916 0.435158
Si Si4 0.710487 0.938147 0.900748
Si Si5 0.012084 0.936002 0.103346
Si Si6 0.291776 0.561403 0.766248
O O1 0.500000 0.500000 0.500000
O O2 0.702751 0.250000 0.563152
O O3 0.822965 0.492502 0.664714
O O4 0.814181 0.499563 0.543459
O O5 0.022771 0.250000 0.247241
O O6 0.007904 0.491148 0.169162
O O7 0.823791 0.485106 0.212795
O O8 0.019692 0.250000 0.438412
O O9 0.000000 0.500000 0.500000
O O10 0.831850 0.484548 0.334342
O O11 0.712269 0.750000 0.896734
O O12 0.500960 0.993109 0.835120
O O13 0.813529 0.006280 0.876581
O O14 0.833895 0.980684 0.001923
O O15 0.016384 0.750000 0.109666
O O16 0.297979 0.750000 0.768449
#
# Coordination Sequence:
#
# PCOD9161307 Si02
#       6
#     4   4   4   4   4   4
#     4  11  22  38  58  81 109 141 179 222 269 321
#     4  10  20  36  56  78 106 139 175 217 267 321
#     4  10  20  36  56  80 110 143 181 225 273 323
#     4   9  18  35  55  74 102 140 180 222 267 315
#     4  10  20  33  51  78 108 138 176 221 267 317
#     4   8  17  34  55  76 100 135 178 220 262 312
#
# _framework density 17.630624000000001
#
# number of rings (size 3 to 8) (size 9 to 14) (size 15 to 20)
#    0.000    2.333    0.000    4.000    0.000    2.667 
#    0.000   10.000    0.000    0.000    0.000    0.000 
#    0.000    0.000    0.000    0.000    0.000    0.000 
#
# Total GULP energy -133942.031663 kJ/mol
# GULP energy per Si atom -5580.917986 kJ/mol
# Density = 1.759050 g / cm^3
# Si number density = 17.630624 Si / 1000 Ang^3
#
#
#
# Elastic Constant Matrix: (Units=GPa)
#
#
# Indices 1 2 3 4 5 6 
#
# 1 175.4671 57.1982 138.7581 0.0000 3.2773 0.0000
# 2 57.1982 74.0664 49.2011 0.0000 -2.6386 0.0000
# 3 138.7581 49.2011 128.5301 0.0000 2.3846 0.0000
# 4 0.0000 0.0000 0.0000 25.9808 0.0000 -3.3905
# 5 3.2773 -2.6386 2.3846 0.0000 45.2405 0.0000
# 6 0.0000 0.0000 0.0000 -3.3905 0.0000 28.8671
#
#
#
# Elastic Compliance Matrix: (Units=1/GPa)
#
#
# Indices 1 2 3 4 5 6 
#
# 1 0.039456 -0.002970 -0.041443 0.000000 -0.000847 0.000000
# 2 -0.002970 0.018421 -0.003872 0.000000 0.001494 0.000000
# 3 -0.041443 -0.003872 0.054005 0.000000 -0.000070 0.000000
# 4 0.000000 0.000000 0.000000 0.039089 0.000000 0.004591
# 5 -0.000847 0.001494 -0.000070 0.000000 0.022256 0.000000
# 6 0.000000 0.000000 0.000000 0.004591 0.000000 0.035181
#
#
# Mechanical properties :
#
#
# Convention : Reuss Voigt Hill
#
# Bulk Modulus (GPa) = 65.31641 96.48650 80.90146
# Shear Modulus (GPa) = 16.12473 28.87811 22.50142
#
# Velocity S-wave (km/s) = 3.02749 4.05155 3.57637
# Velocity P-wave (km/s) = 7.02485 8.75969 7.93980
#
# Compressibility (1/GPa) = 0.01531009
#
# Stress axis : x y z
#
# Youngs Moduli (GPa) = 25.34470 54.28618 18.51687
#
# Poissons Ratio (x) = 0.16125 0.76739
# Poissons Ratio (y) = 0.07528 0.07171
# Poissons Ratio (z) = 1.05036 0.21022
#
# Static dielectric constant tensor:
#      x y z
#    x 1.574520 0.000000 0.011650 
#    y 0.000000 1.596200 0.000000 
#    z 0.011650 0.000000 1.585320 
# 
# From -- ./inp_files/25726.got.cif
#   From: 2010.05.17/outbox.cif.g08.bks.cpg/sg11_13_cif.got.tgz:25726.got - 2010.06.03 12:22:45.
