data_PCOD9161899
_publ_section_title
;
Structure prediction by ZEFSAII (Michael W. Deem and Ramdas Pophale) SiO2 
 PCOD9161899
Probable space group: P 21/M
;
_chemical_formula_sum "Si O2"
_cell_formula_units_Z 28
_cell_length_a 19.540122
_cell_length_b 8.799815
_cell_length_c 14.348042
_cell_angle_alpha 90.000000
_cell_angle_beta 144.617145
_cell_angle_gamma 90.000000
_cell_volume 1428.564786
_symmetry_space_group_name_H-M "P 21/M"
_symmetry_group_IT_number 11
_symmetry_cell_setting 'monoclinic'
loop_
_space_group_symop_operation_xyz
x,y,z
-x,1/2+y,-z
-x,-y,-z
x,1/2-y,z
loop_
_atom_site_type_symbol
_atom_site_label
_atom_site_fract_x
_atom_site_fract_y
_atom_site_fract_z
Si Si1 0.041967 0.432800 0.759084
Si Si2 0.478595 0.932006 0.374307
Si Si3 0.609679 0.931657 0.065961
Si Si4 0.207187 0.931657 0.594776
Si Si5 0.700149 0.569855 0.491466
Si Si6 0.957200 0.929114 0.856633
Si Si7 0.690973 0.933436 0.957716
O O1 0.037950 0.250000 0.756910
O O2 0.928902 0.481717 0.572262
O O3 0.020142 0.494278 0.838446
O O4 0.172873 0.478253 0.873685
O O5 0.475011 0.750000 0.376592
O O6 0.586727 0.975162 0.425500
O O7 0.500000 0.000000 0.500000
O O8 0.361788 0.994267 0.193979
O O9 0.602932 0.750000 0.061621
O O10 0.728210 0.987029 0.248677
O O11 0.615344 0.979686 0.964303
O O12 0.500000 0.000000 0.000000
O O13 0.211794 0.750000 0.611374
O O14 0.277296 0.978057 0.578297
O O15 0.691393 0.750000 0.458578
O O16 0.817276 0.548930 0.684221
O O17 0.980938 0.750000 0.882355
O O18 0.000000 0.000000 0.000000
O O19 0.686349 0.750000 0.944446
#
# Coordination Sequence:
#
# PCOD9161899 Si02
#       7
#     4   4   4   4   4   4   4
#     4   9  20  39  59  82 117 156 194 240 293 347
#     4  11  24  40  59  84 114 153 195 240 294 351
#     4  11  23  39  62  90 120 157 197 242 293 348
#     4  10  20  36  61  90 118 151 192 240 292 347
#     4   9  20  38  57  79 112 151 191 236 288 345
#     4  10  20  34  55  83 112 148 192 239 290 346
#     4  10  23  42  61  84 118 157 197 243 294 348
#
# _framework density 19.600092
#
# number of rings (size 3 to 8) (size 9 to 14) (size 15 to 20)
#    0.000    2.000    0.000    2.571    2.000    6.857 
#    0.000    0.000    0.000    0.000    0.000    0.000 
#    0.000    0.000    0.000    0.000    0.000    0.000 
#
# Total GULP energy -156434.360042 kJ/mol
# GULP energy per Si atom -5586.941430 kJ/mol
# Density = 1.955548 g / cm^3
# Si number density = 19.600092 Si / 1000 Ang^3
#
#
#
# Elastic Constant Matrix: (Units=GPa)
#
#
# Indices 1 2 3 4 5 6 
#
# 1 71.1291 19.9124 54.7054 0.0000 6.6653 0.0000
# 2 19.9124 22.0303 28.5432 0.0000 -0.9136 0.0000
# 3 54.7054 28.5432 102.3978 0.0000 -14.0651 0.0000
# 4 0.0000 0.0000 0.0000 35.1480 0.0000 -1.9349
# 5 6.6653 -0.9136 -14.0651 0.0000 35.9738 0.0000
# 6 0.0000 0.0000 0.0000 -1.9349 0.0000 26.0284
#
#
#
# Elastic Compliance Matrix: (Units=1/GPa)
#
#
# Indices 1 2 3 4 5 6 
#
# 1 0.028446 -0.007026 -0.014781 0.000000 -0.011228 0.000000
# 2 -0.007026 0.074156 -0.017415 0.000000 -0.003624 0.000000
# 3 -0.014781 -0.017415 0.024128 0.000000 0.011730 0.000000
# 4 0.000000 0.000000 0.000000 0.028568 0.000000 0.002124
# 5 -0.011228 -0.003624 0.011730 0.000000 0.034372 0.000000
# 6 0.000000 0.000000 0.000000 0.002124 0.000000 0.038577
#
#
# Mechanical properties :
#
#
# Convention : Reuss Voigt Hill
#
# Bulk Modulus (GPa) = 20.71002 44.65326 32.68164
# Shear Modulus (GPa) = 15.49012 25.58979 20.53995
#
# Velocity S-wave (km/s) = 2.81429 3.61722 3.24072
# Velocity P-wave (km/s) = 4.59886 6.34644 5.54197
#
# Compressibility (1/GPa) = 0.04828581
#
# Stress axis : x y z
#
# Youngs Moduli (GPa) = 35.15435 13.48514 41.44589
#
# Poissons Ratio (x) = 0.09475 0.61260
# Poissons Ratio (y) = 0.24701 0.72177
# Poissons Ratio (z) = 0.51961 0.23484
#
# Static dielectric constant tensor:
#      x y z
#    x 1.666760 0.000000 0.028030 
#    y 0.000000 1.677440 0.000000 
#    z 0.028030 0.000000 1.695250 
# 
# From -- ./inp_files/54515.got.cif
#   From: 2010.05.17/outbox.cif.g08.bks.cpg/sg11_28_cif.got.tgz:54515.got - 2010.06.03 12:22:45.
