data_PCOD9161571
_publ_section_title
;
Structure prediction by ZEFSAII (Michael W. Deem and Ramdas Pophale) SiO2 
 PCOD9161571
Probable space group: P 21/M
;
_chemical_formula_sum "Si O2"
_cell_formula_units_Z 32
_cell_length_a 12.050142
_cell_length_b 13.768551
_cell_length_c 11.325352
_cell_angle_alpha 90.000000
_cell_angle_beta 107.384131
_cell_angle_gamma 90.000000
_cell_volume 1793.195148
_symmetry_space_group_name_H-M "P 21/M"
_symmetry_group_IT_number 11
_symmetry_cell_setting 'monoclinic'
loop_
_space_group_symop_operation_xyz
x,y,z
-x,1/2+y,-z
-x,-y,-z
x,1/2-y,z
loop_
_atom_site_type_symbol
_atom_site_label
_atom_site_fract_x
_atom_site_fract_y
_atom_site_fract_z
Si Si1 0.850578 0.502200 0.703838
Si Si2 0.514324 0.638366 0.363629
Si Si3 0.798443 0.362836 0.467505
Si Si4 0.731560 0.363020 0.821990
Si Si5 0.374511 0.135453 0.346346
Si Si6 0.424278 0.551927 0.738424
Si Si7 0.682417 0.364267 0.071361
Si Si8 0.933902 0.138983 0.269252
O O1 0.831456 0.434130 0.583579
O O2 0.834092 0.431535 0.810697
O O3 0.745845 0.579273 0.679226
O O4 0.969896 0.560626 0.732632
O O5 0.543261 0.750000 0.343227
O O6 0.375611 0.627921 0.303797
O O7 0.553320 0.619156 0.509603
O O8 0.575043 0.560600 0.298303
O O9 0.790864 0.250000 0.503192
O O10 0.676438 0.393997 0.369178
O O11 0.893000 0.369876 0.392401
O O12 0.766283 0.250000 0.839393
O O13 0.679977 0.390178 0.933195
O O14 0.356739 0.250000 0.327153
O O15 0.453086 0.094609 0.265655
O O16 0.395771 0.573513 0.865000
O O17 0.650834 0.250000 0.074619
O O18 0.815839 0.373549 0.156808
O O19 0.975723 0.250000 0.264335
#
# Coordination Sequence:
#
# PCOD9161571 Si02
#       8
#     4   4   4   4   4   4   4   4
#     4  12  20  33  54  79 111 142 170 217 271 325
#     4  10  20  34  51  78 114 141 170 214 266 322
#     4  10  20  34  55  81 106 138 179 221 260 314
#     4  10  21  36  54  79 106 140 183 224 268 309
#     4  11  21  32  50  81 113 141 171 212 269 326
#     4  11  18  35  56  77 106 143 181 217 260 315
#     4   9  20  38  58  77 101 140 188 229 259 303
#     4   9  20  37  55  77 104 137 180 222 262 314
#
# _framework density 17.845241999999999
#
# number of rings (size 3 to 8) (size 9 to 14) (size 15 to 20)
#    0.000    1.750    2.500    4.125    0.000    2.000 
#    0.000    0.000    0.000    3.750    0.000    0.000 
#    0.000    0.000    0.000    0.000    0.000    0.000 
#
# Total GULP energy -178700.575269 kJ/mol
# GULP energy per Si atom -5584.392977 kJ/mol
# Density = 1.780463 g / cm^3
# Si number density = 17.845242 Si / 1000 Ang^3
#
#
#
# Elastic Constant Matrix: (Units=GPa)
#
#
# Indices 1 2 3 4 5 6 
#
# 1 77.8911 45.5347 13.2496 0.0000 -12.6389 0.0000
# 2 45.5347 98.2497 13.0169 0.0000 -12.1403 0.0000
# 3 13.2496 13.0169 36.1441 0.0000 -11.2858 0.0000
# 4 0.0000 0.0000 0.0000 21.8778 0.0000 -7.4372
# 5 -12.6389 -12.1403 -11.2858 0.0000 15.2157 0.0000
# 6 0.0000 0.0000 0.0000 -7.4372 0.0000 37.0245
#
#
#
# Elastic Compliance Matrix: (Units=1/GPa)
#
#
# Indices 1 2 3 4 5 6 
#
# 1 0.018862 -0.007480 -0.001551 0.000000 0.008549 0.000000
# 2 -0.007480 0.014332 -0.001027 0.000000 0.004460 0.000000
# 3 -0.001551 -0.001027 0.036371 0.000000 0.024869 0.000000
# 4 0.000000 0.000000 0.000000 0.049058 0.000000 0.009854
# 5 0.008549 0.004460 0.024869 0.000000 0.094827 0.000000
# 6 0.000000 0.000000 0.000000 0.009854 0.000000 0.028989
#
#
# Mechanical properties :
#
#
# Convention : Reuss Voigt Hill
#
# Bulk Modulus (GPa) = 20.22287 39.54301 29.88294
# Shear Modulus (GPa) = 17.91870 24.18919 21.05394
#
# Velocity S-wave (km/s) = 3.17222 3.68570 3.43856
# Velocity P-wave (km/s) = 4.97737 6.34976 5.70499
#
# Compressibility (1/GPa) = 0.04944896
#
# Stress axis : x y z
#
# Youngs Moduli (GPa) = 53.01586 69.77391 27.49470
#
# Poissons Ratio (x) = 0.52191 0.04265
# Poissons Ratio (y) = 0.39656 0.02823
# Poissons Ratio (z) = 0.08224 0.07164
#
# Static dielectric constant tensor:
#      x y z
#    x 1.592670 0.000000 -0.008720 
#    y 0.000000 1.621350 0.000000 
#    z -0.008720 0.000000 1.617970 
# 
# From -- ./inp_files/35123.got.cif
#   From: 2010.05.17/outbox.cif.g08.bks.cpg/sg11_18_cif.got.tgz:35123.got - 2010.06.03 12:22:45.
