data_PCOD9161939
_publ_section_title
;
Structure prediction by ZEFSAII (Michael W. Deem and Ramdas Pophale) SiO2 
 PCOD9161939
Probable space group: P 21/M
;
_chemical_formula_sum "Si O2"
_cell_formula_units_Z 16
_cell_length_a 7.087526
_cell_length_b 14.650563
_cell_length_c 8.643871
_cell_angle_alpha 90.000000
_cell_angle_beta 127.919772
_cell_angle_gamma 90.000000
_cell_volume 708.049840
_symmetry_space_group_name_H-M "P 21/M"
_symmetry_group_IT_number 11
_symmetry_cell_setting 'monoclinic'
loop_
_space_group_symop_operation_xyz
x,y,z
-x,1/2+y,-z
-x,-y,-z
x,1/2-y,z
loop_
_atom_site_type_symbol
_atom_site_label
_atom_site_fract_x
_atom_site_fract_y
_atom_site_fract_z
Si Si1 0.280235 0.481025 0.773201
Si Si2 0.395215 0.644701 0.650334
Si Si3 0.088961 0.357004 0.929023
Si Si4 0.426280 0.643341 0.300019
O O1 0.227502 0.576858 0.663783
O O2 0.100592 0.424702 0.789397
O O3 0.383444 0.417391 0.690353
O O4 0.500000 0.500000 0.000000
O O5 0.324679 0.750000 0.637388
O O6 0.412854 0.626497 0.476715
O O7 0.667020 0.633634 0.851926
O O8 0.074674 0.250000 0.872158
O O9 0.843716 0.375881 0.896760
O O10 0.478445 0.750000 0.300982
#
# Coordination Sequence:
#
# PCOD9161939 Si02
#       4
#     4   4   4   4
#     4  10  20  34  56  80 106 139 175 216 261 311
#     4   9  19  35  53  77 108 139 176 218 257 307
#     4   9  19  36  56  79 107 138 174 216 260 309
#     4  10  20  36  57  78 105 140 174 214 264 311
#
# _framework density 22.597276000000001
#
# number of rings (size 3 to 8) (size 9 to 14) (size 15 to 20)
#    0.000    2.500    0.000    1.500    0.000    6.000 
#    0.000    5.000    0.000   22.500    0.000    0.000 
#    0.000    0.000    0.000    0.000    0.000    0.000 
#
# Total GULP energy -89415.213660 kJ/mol
# GULP energy per Si atom -5588.450854 kJ/mol
# Density = 2.254584 g / cm^3
# Si number density = 22.597276 Si / 1000 Ang^3
#
#
#
# Elastic Constant Matrix: (Units=GPa)
#
#
# Indices 1 2 3 4 5 6 
#
# 1 55.0174 45.1695 6.8150 0.0000 -1.2782 0.0000
# 2 45.1695 77.4728 22.0580 0.0000 -14.0580 0.0000
# 3 6.8150 22.0580 61.7730 0.0000 7.1321 0.0000
# 4 0.0000 0.0000 0.0000 26.7963 0.0000 -10.9122
# 5 -1.2782 -14.0580 7.1321 0.0000 22.2438 0.0000
# 6 0.0000 0.0000 0.0000 -10.9122 0.0000 9.9164
#
#
#
# Elastic Compliance Matrix: (Units=1/GPa)
#
#
# Indices 1 2 3 4 5 6 
#
# 1 0.041260 -0.029921 0.008351 0.000000 -0.019216 0.000000
# 2 -0.029921 0.039327 -0.013929 0.000000 0.027601 0.000000
# 3 0.008351 -0.013929 0.022017 0.000000 -0.015382 0.000000
# 4 0.000000 0.000000 0.000000 0.067621 0.000000 0.074412
# 5 -0.019216 0.027601 -0.015382 0.000000 0.066228 0.000000
# 6 0.000000 0.000000 0.000000 0.074412 0.000000 0.182727
#
#
# Mechanical properties :
#
#
# Convention : Reuss Voigt Hill
#
# Bulk Modulus (GPa) = 31.63901 38.03867 34.83884
# Shear Modulus (GPa) = 9.98577 19.80601 14.89589
#
# Velocity S-wave (km/s) = 2.10443 2.96375 2.57025
# Velocity P-wave (km/s) = 4.46503 5.34617 4.92534
#
# Compressibility (1/GPa) = 0.03160655
#
# Stress axis : x y z
#
# Youngs Moduli (GPa) = 24.23639 25.42795 45.42018
#
# Poissons Ratio (x) = 0.76083 -0.37930
# Poissons Ratio (y) = 0.72517 0.63264
# Poissons Ratio (z) = -0.20239 0.35418
#
# Static dielectric constant tensor:
#      x y z
#    x 1.795300 0.000000 0.053750 
#    y 0.000000 1.862840 0.000000 
#    z 0.053750 0.000000 1.870020 
# 
# From -- ./inp_files/1483.got.cif
#   From: 2010.05.17/outbox.cif.g08.bks.cpg/sg11_1_cif.got.tgz:1483.got - 2010.06.03 12:22:45.
