data_PCOD9161731
_publ_section_title
;
Structure prediction by ZEFSAII (Michael W. Deem and Ramdas Pophale) SiO2 
 PCOD9161731
Probable space group: P 21/M
;
_chemical_formula_sum "Si O2"
_cell_formula_units_Z 20
_cell_length_a 10.716517
_cell_length_b 11.118493
_cell_length_c 7.366253
_cell_angle_alpha 90.000000
_cell_angle_beta 117.739540
_cell_angle_gamma 90.000000
_cell_volume 776.828453
_symmetry_space_group_name_H-M "P 21/M"
_symmetry_group_IT_number 11
_symmetry_cell_setting 'monoclinic'
loop_
_space_group_symop_operation_xyz
x,y,z
-x,1/2+y,-z
-x,-y,-z
x,1/2-y,z
loop_
_atom_site_type_symbol
_atom_site_label
_atom_site_fract_x
_atom_site_fract_y
_atom_site_fract_z
Si Si1 0.340987 0.484011 0.632156
Si Si2 0.880509 0.489605 0.234898
Si Si3 0.653849 0.250000 0.850554
Si Si4 0.590346 0.750000 0.085282
Si Si5 0.018889 0.750000 0.834446
Si Si6 0.878497 0.750000 0.125614
Si Si7 0.642271 0.509302 0.763738
O O1 0.209218 0.542170 0.646160
O O2 0.364188 0.366539 0.769556
O O3 0.491794 0.555288 0.738695
O O4 0.315588 0.448152 0.406256
O O5 0.987536 0.379866 0.269398
O O6 0.932471 0.628287 0.261318
O O7 0.766673 0.500185 0.992654
O O8 0.577669 0.250000 0.996636
O O9 0.608987 0.367351 0.712072
O O10 0.819257 0.250000 0.988426
O O11 0.705338 0.750000 0.003111
O O12 0.926324 0.750000 0.951153
#
# Coordination Sequence:
#
# PCOD9161731 Si02
#       7
#     4   4   2   2   2   2   4
#     4   9  17  30  50  77 107 138 173 215 262 310
#     4  10  20  34  54  76 105 138 177 216 259 310
#     4   8  16  31  50  74 105 137 172 215 261 310
#     4   8  16  31  50  74 105 137 172 215 261 310
#     4  10  20  35  56  78 105 141 176 215 263 312
#     4  10  20  35  56  78 105 141 176 215 263 312
#     4   9  17  30  50  77 107 138 173 215 262 310
#
# _framework density 25.745712000000001
#
# number of rings (size 3 to 8) (size 9 to 14) (size 15 to 20)
#    0.000    2.800    0.000    1.200    0.000    3.200 
#    0.000    2.000    0.000   39.600    0.000    0.000 
#    0.000    0.000    0.000    0.000    0.000    0.000 
#
# Total GULP energy -111582.056997 kJ/mol
# GULP energy per Si atom -5579.102850 kJ/mol
# Density = 2.568711 g / cm^3
# Si number density = 25.745712 Si / 1000 Ang^3
#
#
#
# Elastic Constant Matrix: (Units=GPa)
#
#
# Indices 1 2 3 4 5 6 
#
# 1 179.2289 45.1945 58.3787 0.0000 -43.9562 0.0000
# 2 45.1945 111.7968 0.2119 0.0000 -8.2153 0.0000
# 3 58.3787 0.2119 118.8567 0.0000 -11.5093 0.0000
# 4 0.0000 0.0000 0.0000 -68.2777 0.0000 109.8845
# 5 -43.9562 -8.2153 -11.5093 0.0000 43.2867 0.0000
# 6 0.0000 0.0000 0.0000 109.8845 0.0000 -166.3147
#
#
#
# Elastic Compliance Matrix: (Units=1/GPa)
#
#
# Indices 1 2 3 4 5 6 
#
# 1 0.009718 -0.003320 -0.003975 0.000000 0.008181 0.000000
# 2 -0.003320 0.010208 0.001512 0.000000 -0.001032 0.000000
# 3 -0.003975 0.001512 0.010264 0.000000 -0.001020 0.000000
# 4 0.000000 0.000000 0.000000 0.231304 0.000000 0.152823
# 5 0.008181 -0.001032 -0.001020 0.000000 0.030942 0.000000
# 6 0.000000 0.000000 0.000000 0.152823 0.000000 0.094958
#
#
# Mechanical properties :
#
#
# Convention : Reuss Voigt Hill
#
# Bulk Modulus (GPa) = 53.68884 68.60587 61.14735
# Shear Modulus (GPa) = 12.34057 -17.85465 -2.75704
#
# Velocity S-wave (km/s) = 2.19172 -2.63630 -1.03595
# Velocity P-wave (km/s) = 5.22529 4.17596 4.72981
#
# Compressibility (1/GPa) = 0.01862584
#
# Stress axis : x y z
#
# Youngs Moduli (GPa) = 102.90500 97.96096 97.42451
#
# Poissons Ratio (x) = 0.32520 0.38725
# Poissons Ratio (y) = 0.34162 -0.14735
# Poissons Ratio (z) = 0.40904 -0.14816
#
# Static dielectric constant tensor:
#      x y z
#    x 2.105640 0.000000 -0.011350 
#    y 0.000000 2.181380 0.000000 
#    z -0.011350 0.000000 2.024650 
# 
# From -- ./inp_files/11785.got.cif
#   From: 2010.05.17/outbox.cif.g08.bks.cpg/sg11_6_cif.got.tgz:11785.got - 2010.06.03 12:22:45.
