data_PCOD9161082
_publ_section_title
;
Structure prediction by ZEFSAII (Michael W. Deem and Ramdas Pophale) SiO2 
 PCOD9161082
Probable space group: P 21/M
;
_chemical_formula_sum "Si O2"
_cell_formula_units_Z 32
_cell_length_a 7.661801
_cell_length_b 14.209968
_cell_length_c 24.655304
_cell_angle_alpha 90.000000
_cell_angle_beta 143.208549
_cell_angle_gamma 90.000000
_cell_volume 1607.650454
_symmetry_space_group_name_H-M "P 21/M"
_symmetry_group_IT_number 11
_symmetry_cell_setting 'monoclinic'
loop_
_space_group_symop_operation_xyz
x,y,z
-x,1/2+y,-z
-x,-y,-z
x,1/2-y,z
loop_
_atom_site_type_symbol
_atom_site_label
_atom_site_fract_x
_atom_site_fract_y
_atom_site_fract_z
Si Si1 0.227241 0.468035 0.837168
Si Si2 0.558213 0.644864 0.947302
Si Si3 0.213593 0.048622 0.476684
Si Si4 0.041131 0.640693 0.487719
Si Si5 0.387087 0.146527 0.711363
Si Si6 0.250495 0.644196 0.990453
Si Si7 0.127402 0.567251 0.356256
Si Si8 0.076033 0.966528 0.120259
O O1 0.379352 0.569129 0.868671
O O2 0.993203 0.449011 0.733205
O O3 0.070205 0.466063 0.856393
O O4 0.495101 0.394286 0.906850
O O5 0.552476 0.750000 0.924792
O O6 0.404359 0.644389 0.968906
O O7 0.884113 0.606532 0.037616
O O8 0.005133 0.111420 0.461656
O O9 0.534027 0.092163 0.557072
O O10 0.105057 0.025048 0.389474
O O11 0.230121 0.943574 0.508370
O O12 0.131449 0.750000 0.503792
O O13 0.728389 0.630345 0.378600
O O14 0.524824 0.250000 0.748721
O O15 0.599175 0.069037 0.789191
O O16 0.086716 0.142355 0.669821
O O17 0.162494 0.750000 0.981679
O O18 0.990991 0.568454 0.921899
#
# Coordination Sequence:
#
# PCOD9161082 Si02
#       8
#     4   4   4   4   4   4   4   4
#     4   9  17  29  49  74  97 130 174 217 257 305
#     4   8  14  27  46  69  97 130 171 214 255 296
#     4   9  19  36  56  76 104 136 164 210 263 308
#     4   9  18  35  59  81  99 129 176 218 253 300
#     4  10  20  32  50  78 107 135 171 214 257 303
#     4   8  15  28  48  74 102 134 174 218 255 293
#     4  10  20  34  50  73 108 139 163 201 263 319
#     4   9  16  29  51  74 101 136 175 216 254 295
#
# _framework density 19.904826
#
# number of rings (size 3 to 8) (size 9 to 14) (size 15 to 20)
#    0.000    3.000    0.000    2.625    0.000    1.500 
#    0.000    5.625    0.000   17.250    0.000    0.000 
#    0.000    0.000    0.000    0.000    0.000    0.000 
#
# Total GULP energy -178365.107810 kJ/mol
# GULP energy per Si atom -5573.909619 kJ/mol
# Density = 1.985952 g / cm^3
# Si number density = 19.904826 Si / 1000 Ang^3
#
#
#
# Elastic Constant Matrix: (Units=GPa)
#
#
# Indices 1 2 3 4 5 6 
#
# 1 30.8830 2.5401 3.6605 0.0000 4.7965 0.0000
# 2 2.5401 99.9666 14.7810 0.0000 11.0127 0.0000
# 3 3.6605 14.7810 61.8558 0.0000 -1.9259 0.0000
# 4 0.0000 0.0000 0.0000 9.4608 0.0000 4.8639
# 5 4.7965 11.0127 -1.9259 0.0000 27.9176 0.0000
# 6 0.0000 0.0000 0.0000 4.8639 0.0000 8.9230
#
#
#
# Elastic Compliance Matrix: (Units=1/GPa)
#
#
# Indices 1 2 3 4 5 6 
#
# 1 0.033558 0.000131 -0.002203 0.000000 -0.005969 0.000000
# 2 0.000131 0.010904 -0.002754 0.000000 -0.004514 0.000000
# 3 -0.002203 -0.002754 0.017037 0.000000 0.002640 0.000000
# 4 0.000000 0.000000 0.000000 0.146855 0.000000 -0.080050
# 5 -0.005969 -0.004514 0.002640 0.000000 0.038808 0.000000
# 6 0.000000 0.000000 0.000000 -0.080050 0.000000 0.155706
#
#
# Mechanical properties :
#
#
# Convention : Reuss Voigt Hill
#
# Bulk Modulus (GPa) = 19.28759 26.07429 22.68094
# Shear Modulus (GPa) = 11.63324 20.70852 16.17088
#
# Velocity S-wave (km/s) = 2.42015 3.22899 2.85337
# Velocity P-wave (km/s) = 4.18574 5.19901 4.71965
#
# Compressibility (1/GPa) = 0.05184680
#
# Stress axis : x y z
#
# Youngs Moduli (GPa) = 29.79945 91.70534 58.69477
#
# Poissons Ratio (x) = -0.01198 0.12930
# Poissons Ratio (y) = -0.00389 0.16165
# Poissons Ratio (z) = 0.06565 0.25256
#
# Static dielectric constant tensor:
#      x y z
#    x 1.774190 0.000000 -0.013350 
#    y 0.000000 1.696960 0.000000 
#    z -0.013350 0.000000 1.676060 
# 
# From -- ./inp_files/71117.got.cif
#   From: 2010.05.17/outbox.cif.g08.bks.cpg/sg11_36_cif.got.tgz:71117.got - 2010.06.03 12:22:45.
