data_PCOD9161425
_publ_section_title
;
Structure prediction by ZEFSAII (Michael W. Deem and Ramdas Pophale) SiO2 
 PCOD9161425
Probable space group: P 21/M
;
_chemical_formula_sum "Si O2"
_cell_formula_units_Z 28
_cell_length_a 15.684920
_cell_length_b 9.454275
_cell_length_c 12.335380
_cell_angle_alpha 90.000000
_cell_angle_beta 51.387239
_cell_angle_gamma 90.000000
_cell_volume 1429.309226
_symmetry_space_group_name_H-M "P 21/M"
_symmetry_group_IT_number 11
_symmetry_cell_setting 'monoclinic'
loop_
_space_group_symop_operation_xyz
x,y,z
-x,1/2+y,-z
-x,-y,-z
x,1/2-y,z
loop_
_atom_site_type_symbol
_atom_site_label
_atom_site_fract_x
_atom_site_fract_y
_atom_site_fract_z
Si Si1 0.521547 0.416124 0.306943
Si Si2 0.069703 0.906278 0.026767
Si Si3 0.987826 0.413474 0.400738
Si Si4 0.865027 0.593304 0.340175
Si Si5 0.661791 0.914774 0.362841
Si Si6 0.199522 0.412019 0.077824
Si Si7 0.449095 0.420083 0.936859
O O1 0.541197 0.250000 0.267987
O O2 0.417003 0.425837 0.469522
O O3 0.616248 0.485987 0.305134
O O4 0.508729 0.506138 0.207412
O O5 0.096091 0.750000 0.962719
O O6 0.982782 0.890393 0.192709
O O7 0.170728 0.986338 0.000658
O O8 0.000000 0.000000 0.000000
O O9 0.968260 0.250000 0.438769
O O10 0.100778 0.423275 0.242570
O O11 0.000000 0.500000 0.500000
O O12 0.886539 0.479432 0.414983
O O13 0.829800 0.750000 0.407928
O O14 0.780792 0.549391 0.313869
O O15 0.660329 0.750000 0.328232
O O16 0.199271 0.250000 0.037738
O O17 0.317393 0.439869 0.036071
O O18 0.470117 0.250000 0.922468
O O19 0.500000 0.500000 0.000000
#
# Coordination Sequence:
#
# PCOD9161425 Si02
#       7
#     4   4   4   4   4   4   4
#     4  10  21  37  58  85 115 148 192 242 291 343
#     4  10  20  33  53  82 114 145 180 222 272 331
#     4  10  20  36  57  81 110 144 183 227 277 332
#     4   9  19  35  54  78 108 144 183 221 269 332
#     4   9  19  37  59  83 115 153 190 233 288 348
#     4   9  21  40  58  78 109 149 188 228 276 335
#     4  11  24  42  62  83 113 153 199 245 294 351
#
# _framework density 19.589883
#
# number of rings (size 3 to 8) (size 9 to 14) (size 15 to 20)
#    0.000    2.286    0.000    1.714    2.000    4.571 
#    0.000    5.714    0.000    0.000    0.000    0.000 
#    0.000    0.000    0.000    0.000    0.000    0.000 
#
# Total GULP energy -156205.280835 kJ/mol
# GULP energy per Si atom -5578.760030 kJ/mol
# Density = 1.954530 g / cm^3
# Si number density = 19.589883 Si / 1000 Ang^3
#
#
#
# Elastic Constant Matrix: (Units=GPa)
#
#
# Indices 1 2 3 4 5 6 
#
# 1 127.9763 86.4352 30.1714 0.0000 14.4532 0.0000
# 2 86.4352 158.3217 45.0634 0.0000 32.1491 0.0000
# 3 30.1714 45.0634 50.0569 0.0000 13.5792 0.0000
# 4 0.0000 0.0000 0.0000 25.8362 0.0000 7.6546
# 5 14.4532 32.1491 13.5792 0.0000 34.7951 0.0000
# 6 0.0000 0.0000 0.0000 7.6546 0.0000 39.2552
#
#
#
# Elastic Compliance Matrix: (Units=1/GPa)
#
#
# Indices 1 2 3 4 5 6 
#
# 1 0.012587 -0.006625 -0.002086 0.000000 0.001707 0.000000
# 2 -0.006625 0.013011 -0.005822 0.000000 -0.006998 0.000000
# 3 -0.002086 -0.005822 0.027715 0.000000 -0.004571 0.000000
# 4 0.000000 0.000000 0.000000 0.041079 0.000000 -0.008010
# 5 0.001707 -0.006998 -0.004571 0.000000 0.036280 0.000000
# 6 0.000000 0.000000 0.000000 -0.008010 0.000000 0.027036
#
#
# Mechanical properties :
#
#
# Convention : Reuss Voigt Hill
#
# Bulk Modulus (GPa) = 41.23896 73.29945 57.26920
# Shear Modulus (GPa) = 25.65980 31.62296 28.64138
#
# Velocity S-wave (km/s) = 3.62311 4.02213 3.82782
# Velocity P-wave (km/s) = 6.21284 7.68559 6.98812
#
# Compressibility (1/GPa) = 0.02424892
#
# Stress axis : x y z
#
# Youngs Moduli (GPa) = 79.44432 76.85711 36.08096
#
# Poissons Ratio (x) = 0.50917 0.07526
# Poissons Ratio (y) = 0.52631 0.21006
# Poissons Ratio (z) = 0.16571 0.44744
#
# Static dielectric constant tensor:
#      x y z
#    x 1.673460 0.000000 -0.027300 
#    y 0.000000 1.711440 0.000000 
#    z -0.027300 0.000000 1.724910 
# 
# From -- ./inp_files/37837.got.cif
#   From: 2010.05.17/outbox.cif.g08.bks.cpg/sg11_19_cif.got.tgz:37837.got - 2010.06.03 12:22:45.
