data_PCOD9161060
_publ_section_title
;
Structure prediction by ZEFSAII (Michael W. Deem and Ramdas Pophale) SiO2 
 PCOD9161060
Probable space group: P 21/M
;
_chemical_formula_sum "Si O2"
_cell_formula_units_Z 30
_cell_length_a 10.884119
_cell_length_b 9.381108
_cell_length_c 15.386947
_cell_angle_alpha 90.000000
_cell_angle_beta 112.276945
_cell_angle_gamma 90.000000
_cell_volume 1453.823524
_symmetry_space_group_name_H-M "P 21/M"
_symmetry_group_IT_number 11
_symmetry_cell_setting 'monoclinic'
loop_
_space_group_symop_operation_xyz
x,y,z
-x,1/2+y,-z
-x,-y,-z
x,1/2-y,z
loop_
_atom_site_type_symbol
_atom_site_label
_atom_site_fract_x
_atom_site_fract_y
_atom_site_fract_z
Si Si1 0.278008 0.080020 0.190891
Si Si2 0.328365 0.916388 0.034813
Si Si3 0.504159 0.493914 0.626273
Si Si4 0.877714 0.581560 0.679797
Si Si5 0.166960 0.582713 0.690715
Si Si6 0.798031 0.915482 0.467555
Si Si7 0.352183 0.083639 0.865522
Si Si8 0.561409 0.250000 0.524040
O O1 0.265088 0.250000 0.172227
O O2 0.181162 0.034298 0.244197
O O3 0.259785 0.991840 0.098188
O O4 0.424788 0.046161 0.267912
O O5 0.291930 0.750000 0.015771
O O6 0.487925 0.922806 0.093175
O O7 0.305261 0.003759 0.940327
O O8 0.359361 0.422082 0.593658
O O9 0.592369 0.374832 0.603859
O O10 0.485246 0.627470 0.558418
O O11 0.843291 0.750000 0.667822
O O12 0.822006 0.528192 0.571755
O O13 0.035518 0.566399 0.713831
O O14 0.197032 0.750000 0.688998
O O15 0.138916 0.514390 0.589081
O O16 0.285298 0.498200 0.767837
O O17 0.842486 0.750000 0.474028
O O18 0.314047 0.250000 0.854749
#
# Coordination Sequence:
#
# PCOD9161060 Si02
#       8
#     4   4   4   4   4   4   4   2
#     4  11  22  38  59  84 122 162 198 237 296 360
#     4  10  22  39  63  98 122 146 187 240 294 350
#     4  11  21  33  55  82 114 155 197 240 295 345
#     4   9  21  40  58  79 116 163 203 245 290 337
#     4  11  23  39  61  87 113 152 205 252 290 344
#     4  11  22  38  59  81 118 159 203 249 297 349
#     4  10  21  41  68  89 122 154 184 236 299 356
#     4  10  20  32  48  76 114 150 194 232 282 350
#
# _framework density 20.635241000000001
#
# number of rings (size 3 to 8) (size 9 to 14) (size 15 to 20)
#    0.000    1.600    1.333    4.000    3.733    3.733 
#    0.000    2.667    0.000    0.000    0.000    0.000 
#    0.000    0.000    0.000    0.000    0.000    0.000 
#
# Total GULP energy -167029.672317 kJ/mol
# GULP energy per Si atom -5567.655744 kJ/mol
# Density = 2.058827 g / cm^3
# Si number density = 20.635241 Si / 1000 Ang^3
#
#
#
# Elastic Constant Matrix: (Units=GPa)
#
#
# Indices 1 2 3 4 5 6 
#
# 1 42.9304 26.1568 26.0778 0.0000 -21.9953 0.0000
# 2 26.1568 147.5199 56.4848 0.0000 -24.4725 0.0000
# 3 26.0778 56.4848 82.4065 0.0000 -28.4271 0.0000
# 4 0.0000 0.0000 0.0000 28.6471 0.0000 -7.4107
# 5 -21.9953 -24.4725 -28.4271 0.0000 34.5805 0.0000
# 6 0.0000 0.0000 0.0000 -7.4107 0.0000 17.7255
#
#
#
# Elastic Compliance Matrix: (Units=1/GPa)
#
#
# Indices 1 2 3 4 5 6 
#
# 1 0.036285 -0.001907 -0.003740 0.000000 0.018656 0.000000
# 2 -0.001907 0.009377 -0.005518 0.000000 0.000887 0.000000
# 3 -0.003740 -0.005518 0.020844 0.000000 0.010851 0.000000
# 4 0.000000 0.000000 0.000000 0.039141 0.000000 0.016364
# 5 0.018656 0.000887 0.010851 0.000000 0.050332 0.000000
# 6 0.000000 0.000000 0.000000 0.016364 0.000000 0.063257
#
#
# Mechanical properties :
#
#
# Convention : Reuss Voigt Hill
#
# Bulk Modulus (GPa) = 22.63647 54.47729 38.55688
# Shear Modulus (GPa) = 19.50907 27.13312 23.32110
#
# Velocity S-wave (km/s) = 3.07811 3.63008 3.36543
# Velocity P-wave (km/s) = 4.86073 6.63531 5.81610
#
# Compressibility (1/GPa) = 0.04417649
#
# Stress axis : x y z
#
# Youngs Moduli (GPa) = 27.55925 106.64685 47.97592
#
# Poissons Ratio (x) = 0.20336 0.17944
# Poissons Ratio (y) = 0.05255 0.26472
# Poissons Ratio (z) = 0.10307 0.58845
#
# Static dielectric constant tensor:
#      x y z
#    x 1.823360 0.000000 -0.008830 
#    y 0.000000 1.707280 0.000000 
#    z -0.008830 0.000000 1.728450 
# 
# From -- ./inp_files/49423.got.cif
#   From: 2010.05.17/outbox.cif.g08.bks.cpg/sg11_25_cif.got.tgz:49423.got - 2010.06.03 12:22:45.
