data_PCOD9161846
_publ_section_title
;
Structure prediction by ZEFSAII (Michael W. Deem and Ramdas Pophale) SiO2 
 PCOD9161846
Probable space group: P 21/M
;
_chemical_formula_sum "Si O2"
_cell_formula_units_Z 32
_cell_length_a 16.004705
_cell_length_b 13.941319
_cell_length_c 22.966864
_cell_angle_alpha 90.000000
_cell_angle_beta 160.546012
_cell_angle_gamma 90.000000
_cell_volume 1706.720296
_symmetry_space_group_name_H-M "P 21/M"
_symmetry_group_IT_number 11
_symmetry_cell_setting 'monoclinic'
loop_
_space_group_symop_operation_xyz
x,y,z
-x,1/2+y,-z
-x,-y,-z
x,1/2-y,z
loop_
_atom_site_type_symbol
_atom_site_label
_atom_site_fract_x
_atom_site_fract_y
_atom_site_fract_z
Si Si1 0.791745 0.525623 0.563905
Si Si2 0.444481 0.636638 0.671198
Si Si3 0.888052 0.638573 0.888028
Si Si4 0.662963 0.028040 0.662954
Si Si5 0.119560 0.025598 0.891705
Si Si6 0.648636 0.136642 0.875381
Si Si7 0.386503 0.634951 0.767981
Si Si8 0.912274 0.865046 0.530812
O O1 0.705287 0.430064 0.472122
O O2 0.538027 0.573141 0.424629
O O3 0.919960 0.591996 0.600278
O O4 0.973876 0.500028 0.736919
O O5 0.391283 0.750000 0.627727
O O6 0.741592 0.621793 0.852014
O O7 0.383221 0.611351 0.697147
O O8 0.844557 0.750000 0.844532
O O9 0.755472 0.568512 0.755479
O O10 0.183328 0.621758 0.072870
O O11 0.915612 0.073116 0.802188
O O12 0.500000 0.000000 0.500000
O O13 0.358778 0.091931 0.039063
O O14 0.227240 0.930011 0.994082
O O15 0.662915 0.250000 0.899389
O O16 0.361105 0.111270 0.675065
O O17 0.393797 0.750000 0.776587
O O18 0.140266 0.600497 0.640268
O O19 0.924783 0.750000 0.542001
#
# Coordination Sequence:
#
# PCOD9161846 Si02
#       8
#     4   4   4   4   4   4   4   4
#     4  10  20  34  55  80 108 139 171 210 257 309
#     4   9  18  33  54  78 104 136 172 211 257 310
#     4   8  14  27  49  75 100 128 167 211 252 299
#     4   8  16  31  47  73 109 138 164 199 251 311
#     4  10  20  34  55  80 108 139 171 210 257 309
#     4   9  18  33  54  78 104 136 172 211 257 310
#     4  10  22  39  55  73 101 137 177 220 262 304
#     4  10  22  39  55  73 101 137 177 220 262 304
#
# _framework density 18.749410999999998
#
# number of rings (size 3 to 8) (size 9 to 14) (size 15 to 20)
#    0.000    2.750    0.000    0.750    0.000    4.500 
#    0.000    9.375    0.000    3.000    0.000    0.000 
#    0.000    0.000    0.000    0.000    0.000    0.000 
#
# Total GULP energy -178289.447191 kJ/mol
# GULP energy per Si atom -5571.545225 kJ/mol
# Density = 1.870674 g / cm^3
# Si number density = 18.749411 Si / 1000 Ang^3
#
#
#
# Elastic Constant Matrix: (Units=GPa)
#
#
# Indices 1 2 3 4 5 6 
#
# 1 164.5166 29.1955 81.4615 0.0000 26.6877 0.0000
# 2 29.1955 41.1369 22.7576 0.0000 8.2052 0.0000
# 3 81.4615 22.7576 128.6238 0.0000 18.7835 0.0000
# 4 0.0000 0.0000 0.0000 8.2796 0.0000 1.4512
# 5 26.6877 8.2052 18.7835 0.0000 41.0137 0.0000
# 6 0.0000 0.0000 0.0000 1.4512 0.0000 9.4107
#
#
#
# Elastic Compliance Matrix: (Units=1/GPa)
#
#
# Indices 1 2 3 4 5 6 
#
# 1 0.009742 -0.003443 -0.005075 0.000000 -0.003326 0.000000
# 2 -0.003443 0.028623 -0.002545 0.000000 -0.002320 0.000000
# 3 -0.005075 -0.002545 0.011662 0.000000 -0.001530 0.000000
# 4 0.000000 0.000000 0.000000 0.124134 0.000000 -0.019143
# 5 -0.003326 -0.002320 -0.001530 0.000000 0.027711 0.000000
# 6 0.000000 0.000000 0.000000 -0.019143 0.000000 0.109214
#
#
# Mechanical properties :
#
#
# Convention : Reuss Voigt Hill
#
# Bulk Modulus (GPa) = 35.83993 66.78962 51.31477
# Shear Modulus (GPa) = 14.59797 25.13165 19.86481
#
# Velocity S-wave (km/s) = 2.79334 3.66511 3.25851
# Velocity P-wave (km/s) = 5.43694 7.32191 6.44867
#
# Compressibility (1/GPa) = 0.02790184
#
# Stress axis : x y z
#
# Youngs Moduli (GPa) = 102.64992 34.93652 85.74565
#
# Poissons Ratio (x) = 0.12029 0.43515
# Poissons Ratio (y) = 0.35342 0.21822
# Poissons Ratio (z) = 0.52094 0.08891
#
# Static dielectric constant tensor:
#      x y z
#    x 1.678860 0.000000 0.040920 
#    y 0.000000 1.666400 0.000000 
#    z 0.040920 0.000000 1.646100 
# 
# From -- ./inp_files/18032.got.cif
#   From: 2010.05.17/outbox.cif.g08.bks.cpg/sg11_10_cif.got.tgz:18032.got - 2010.06.03 12:22:45.
