data_PCOD9161445
_publ_section_title
;
Structure prediction by ZEFSAII (Michael W. Deem and Ramdas Pophale) SiO2 
 PCOD9161445
Probable space group: P 21/M
;
_chemical_formula_sum "Si O2"
_cell_formula_units_Z 28
_cell_length_a 21.834119
_cell_length_b 9.327763
_cell_length_c 16.435589
_cell_angle_alpha 90.000000
_cell_angle_beta 153.859697
_cell_angle_gamma 90.000000
_cell_volume 1474.735417
_symmetry_space_group_name_H-M "P 21/M"
_symmetry_group_IT_number 11
_symmetry_cell_setting 'monoclinic'
loop_
_space_group_symop_operation_xyz
x,y,z
-x,1/2+y,-z
-x,-y,-z
x,1/2-y,z
loop_
_atom_site_type_symbol
_atom_site_label
_atom_site_fract_x
_atom_site_fract_y
_atom_site_fract_z
Si Si1 0.811868 0.582011 0.724321
Si Si2 0.475920 0.419869 0.700924
Si Si3 0.938127 0.920508 0.051635
Si Si4 0.684589 0.910091 0.187492
Si Si5 0.789270 0.420796 0.021625
Si Si6 0.121540 0.919664 0.691896
Si Si7 0.615405 0.089392 0.247627
O O1 0.843830 0.750000 0.747548
O O2 0.649444 0.561390 0.512585
O O3 0.909900 0.488165 0.782846
O O4 0.853736 0.550238 0.867149
O O5 0.482128 0.250000 0.731135
O O6 0.627318 0.458171 0.846098
O O7 0.431576 0.514222 0.725383
O O8 0.947820 0.750000 0.074171
O O9 0.858548 0.993109 0.031280
O O10 0.747221 0.750000 0.259195
O O11 0.742651 0.015331 0.188313
O O12 0.707715 0.983510 0.302595
O O13 0.523144 0.894036 0.972382
O O14 0.794569 0.250000 0.011308
O O15 0.870788 0.448303 0.203073
O O16 0.115347 0.750000 0.672259
O O17 0.000000 0.000000 0.500000
O O18 0.673095 0.250000 0.329075
#
# Coordination Sequence:
#
# PCOD9161445 Si02
#       7
#     4   4   4   4   4   4   4
#     4   9  20  39  62  87 116 152 191 235 286 343
#     4  10  20  37  60  86 118 153 193 239 290 346
#     4  10  21  38  61  88 118 152 192 235 283 342
#     4  10  20  35  55  78 107 145 188 232 281 334
#     4  10  22  39  60  85 116 154 191 234 292 350
#     4  11  23  39  58  81 112 150 194 237 286 343
#     4  10  20  33  54  82 111 143 183 232 284 334
#
# _framework density 18.986457000000001
#
# number of rings (size 3 to 8) (size 9 to 14) (size 15 to 20)
#    0.000    2.000    1.429    1.714    0.000    5.714 
#    0.000    1.429    0.000    0.000    0.000    0.000 
#    0.000    0.000    0.000    0.000    0.000    0.000 
#
# Total GULP energy -156224.748122 kJ/mol
# GULP energy per Si atom -5579.455290 kJ/mol
# Density = 1.894324 g / cm^3
# Si number density = 18.986457 Si / 1000 Ang^3
#
#
#
# Elastic Constant Matrix: (Units=GPa)
#
#
# Indices 1 2 3 4 5 6 
#
# 1 127.2521 78.2446 27.9649 0.0000 -15.6960 0.0000
# 2 78.2446 97.7477 46.1473 0.0000 -13.4518 0.0000
# 3 27.9649 46.1473 71.7387 0.0000 -1.8299 0.0000
# 4 0.0000 0.0000 0.0000 22.5210 0.0000 -2.1575
# 5 -15.6960 -13.4518 -1.8299 0.0000 6.0780 0.0000
# 6 0.0000 0.0000 0.0000 -2.1575 0.0000 34.8142
#
#
#
# Elastic Compliance Matrix: (Units=1/GPa)
#
#
# Indices 1 2 3 4 5 6 
#
# 1 0.017074 -0.011796 0.001402 0.000000 0.018408 0.000000
# 2 -0.011796 0.031361 -0.014695 0.000000 0.034522 0.000000
# 3 0.001402 -0.014695 0.022280 0.000000 -0.022195 0.000000
# 4 0.000000 0.000000 0.000000 0.044668 0.000000 0.002768
# 5 0.018408 0.034522 -0.022195 0.000000 0.281784 0.000000
# 6 0.000000 0.000000 0.000000 0.002768 0.000000 0.028895
#
#
# Mechanical properties :
#
#
# Convention : Reuss Voigt Hill
#
# Bulk Modulus (GPa) = 48.69312 66.82800 57.76056
# Shear Modulus (GPa) = 10.35014 22.30810 16.32912
#
# Velocity S-wave (km/s) = 2.33734 3.43147 2.93583
# Velocity P-wave (km/s) = 5.74336 7.13962 6.47921
#
# Compressibility (1/GPa) = 0.02053678
#
# Stress axis : x y z
#
# Youngs Moduli (GPa) = 58.56919 31.88685 44.88401
#
# Poissons Ratio (x) = 0.37613 -0.06291
# Poissons Ratio (y) = 0.69086 0.65956
# Poissons Ratio (z) = -0.08210 0.46857
#
# Static dielectric constant tensor:
#      x y z
#    x 1.656870 0.000000 0.056320 
#    y 0.000000 1.688440 0.000000 
#    z 0.056320 0.000000 1.762020 
# 
# From -- ./inp_files/54598.got.cif
#   From: 2010.05.17/outbox.cif.g08.bks.cpg/sg11_28_cif.got.tgz:54598.got - 2010.06.03 12:22:45.
