data_PCOD9161392
_publ_section_title
;
Structure prediction by ZEFSAII (Michael W. Deem and Ramdas Pophale) SiO2 
 PCOD9161392
Probable space group: P 21/M
;
_chemical_formula_sum "Si O2"
_cell_formula_units_Z 32
_cell_length_a 5.389350
_cell_length_b 9.193293
_cell_length_c 29.631167
_cell_angle_alpha 90.000000
_cell_angle_beta 76.207598
_cell_angle_gamma 90.000000
_cell_volume 1425.770659
_symmetry_space_group_name_H-M "P 21/M"
_symmetry_group_IT_number 11
_symmetry_cell_setting 'monoclinic'
loop_
_space_group_symop_operation_xyz
x,y,z
-x,1/2+y,-z
-x,-y,-z
x,1/2-y,z
loop_
_atom_site_type_symbol
_atom_site_label
_atom_site_fract_x
_atom_site_fract_y
_atom_site_fract_z
Si Si1 0.117126 0.927805 0.648202
Si Si2 0.804976 0.575972 0.847766
Si Si3 0.340478 0.090486 0.471785
Si Si4 0.039990 0.909617 0.927874
Si Si5 0.017791 0.911611 0.429865
Si Si6 0.613074 0.426558 0.207288
Si Si7 0.334170 0.405670 0.974238
Si Si8 0.444065 0.928258 0.307521
O O1 0.112951 0.750000 0.651711
O O2 0.338994 0.999926 0.669200
O O3 0.147659 0.986588 0.595516
O O4 0.837363 0.999287 0.671906
O O5 0.774044 0.750000 0.850579
O O6 0.086654 0.545558 0.814901
O O7 0.844440 0.534151 0.898627
O O8 0.572088 0.527547 0.826258
O O9 0.441865 0.250000 0.456507
O O10 0.096494 0.112007 0.515448
O O11 0.500000 0.000000 0.500000
O O12 0.270829 0.001401 0.430408
O O13 0.138598 0.750000 0.908708
O O14 0.909388 0.887370 0.981982
O O15 0.259245 0.021213 0.930714
O O16 0.053529 0.750000 0.408793
O O17 0.584784 0.250000 0.215696
O O18 0.524768 0.516820 0.254395
O O19 0.455768 0.250000 0.961481
O O20 0.500000 0.500000 0.000000
O O21 0.441051 0.750000 0.310947
#
# Coordination Sequence:
#
# PCOD9161392 Si02
#       8
#     4   4   4   4   4   4   4   4
#     4  12  26  45  71 101 133 174 225 274 323 392
#     4   9  19  34  61  91 118 155 205 257 303 364
#     4  10  21  37  60  87 124 169 214 263 319 380
#     4   9  19  35  54  80 112 152 200 247 297 356
#     4  10  22  40  60  89 126 167 214 266 325 382
#     4  10  20  38  63  92 122 158 206 256 310 378
#     4  10  20  33  53  78 112 153 197 247 301 356
#     4  12  26  46  70  99 136 173 212 267 337 398
#
# _framework density 22.444001
#
# number of rings (size 3 to 8) (size 9 to 14) (size 15 to 20)
#    0.000    1.750    0.000    4.125    3.500    3.000 
#    0.000    1.250    0.000    0.000    0.000    0.000 
#    0.000    0.000    0.000    0.000    0.000    0.000 
#
# Total GULP energy -178323.846522 kJ/mol
# GULP energy per Si atom -5572.620204 kJ/mol
# Density = 2.239292 g / cm^3
# Si number density = 22.444001 Si / 1000 Ang^3
#
#
#
# Elastic Constant Matrix: (Units=GPa)
#
#
# Indices 1 2 3 4 5 6 
#
# 1 120.8165 60.1917 39.4337 0.0000 29.7110 0.0000
# 2 60.1917 184.5883 37.4495 0.0000 24.6793 0.0000
# 3 39.4337 37.4495 98.1725 0.0000 23.2880 0.0000
# 4 0.0000 0.0000 0.0000 28.1876 0.0000 7.3059
# 5 29.7110 24.6793 23.2880 0.0000 45.8998 0.0000
# 6 0.0000 0.0000 0.0000 7.3059 0.0000 24.6904
#
#
#
# Elastic Compliance Matrix: (Units=1/GPa)
#
#
# Indices 1 2 3 4 5 6 
#
# 1 0.011589 -0.002626 -0.002511 0.000000 -0.004816 0.000000
# 2 -0.002626 0.006688 -0.001190 0.000000 -0.001293 0.000000
# 3 -0.002511 -0.001190 0.012632 0.000000 -0.004144 0.000000
# 4 0.000000 0.000000 0.000000 0.038423 0.000000 -0.011369
# 5 -0.004816 -0.001293 -0.004144 0.000000 0.027701 0.000000
# 6 0.000000 0.000000 0.000000 -0.011369 0.000000 0.043866
#
#
# Mechanical properties :
#
#
# Convention : Reuss Voigt Hill
#
# Bulk Modulus (GPa) = 54.77878 75.30302 65.04090
# Shear Modulus (GPa) = 31.32100 37.52240 34.42170
#
# Velocity S-wave (km/s) = 3.73972 4.09323 3.92046
# Velocity P-wave (km/s) = 6.56560 7.48089 7.03814
#
# Compressibility (1/GPa) = 0.01825524
#
# Stress axis : x y z
#
# Youngs Moduli (GPa) = 86.28836 149.52387 79.16630
#
# Poissons Ratio (x) = 0.39261 0.19879
# Poissons Ratio (y) = 0.22657 0.09420
# Poissons Ratio (z) = 0.21668 0.17792
#
# Static dielectric constant tensor:
#      x y z
#    x 1.931640 0.000000 -0.126350 
#    y 0.000000 2.768950 0.000000 
#    z -0.126350 0.000000 1.878650 
# 
# From -- ./inp_files/72603.got.cif
#   From: 2010.05.17/outbox.cif.g08.bks.cpg/sg11_37_cif.got.tgz:72603.got - 2010.06.03 12:22:45.
