data_PCOD9161231
_publ_section_title
;
Structure prediction by ZEFSAII (Michael W. Deem and Ramdas Pophale) SiO2 
 PCOD9161231
Probable space group: P 21/M
;
_chemical_formula_sum "Si O2"
_cell_formula_units_Z 28
_cell_length_a 8.306272
_cell_length_b 14.182642
_cell_length_c 13.590314
_cell_angle_alpha 90.000000
_cell_angle_beta 82.043361
_cell_angle_gamma 90.000000
_cell_volume 1585.592637
_symmetry_space_group_name_H-M "P 21/M"
_symmetry_group_IT_number 11
_symmetry_cell_setting 'monoclinic'
loop_
_space_group_symop_operation_xyz
x,y,z
-x,1/2+y,-z
-x,-y,-z
x,1/2-y,z
loop_
_atom_site_type_symbol
_atom_site_label
_atom_site_fract_x
_atom_site_fract_y
_atom_site_fract_z
Si Si1 0.676731 0.857414 0.753228
Si Si2 0.774862 0.358201 0.868304
Si Si3 0.692729 0.525638 0.373655
Si Si4 0.527954 0.644108 0.548160
Si Si5 0.535514 0.969728 0.171375
Si Si6 0.994862 0.975695 0.759415
Si Si7 0.159700 0.548149 0.941616
O O1 0.672666 0.750000 0.790507
O O2 0.619226 0.857024 0.645024
O O3 0.854566 0.903213 0.742928
O O4 0.556245 0.928907 0.819959
O O5 0.804763 0.250000 0.839678
O O6 0.597876 0.393348 0.847843
O O7 0.903829 0.431147 0.809229
O O8 0.789115 0.373152 0.984829
O O9 0.646897 0.608003 0.452635
O O10 0.616544 0.430980 0.427241
O O11 0.604089 0.544734 0.276107
O O12 0.881042 0.508279 0.334895
O O13 0.470545 0.750000 0.533516
O O14 0.688444 0.977580 0.085420
O O15 0.105206 0.927613 0.835565
O O16 0.000000 0.500000 0.000000
#
# Coordination Sequence:
#
# PCOD9161231 Si02
#       7
#     4   4   4   4   4   4   4
#     4   9  18  32  50  72  98 128 164 205 247 291
#     4  10  20  33  50  74 102 131 164 203 247 294
#     4   9  18  33  53  73  98 133 165 202 248 290
#     4   9  18  32  50  74 101 129 165 205 245 293
#     4   9  18  34  52  71  98 131 166 201 243 295
#     4   9  19  34  52  73 100 131 166 205 245 293
#     4   9  18  34  51  69  96 129 163 204 243 282
#
# _framework density 17.659011
#
# number of rings (size 3 to 8) (size 9 to 14) (size 15 to 20)
#    0.000    2.857    0.000    0.429    0.000    3.429 
#    0.000    8.571    0.000    0.000    0.000    0.000 
#    0.000    0.000    0.000    0.000    0.000    0.000 
#
# Total GULP energy -155962.233520 kJ/mol
# GULP energy per Si atom -5570.079769 kJ/mol
# Density = 1.761882 g / cm^3
# Si number density = 17.659011 Si / 1000 Ang^3
#
#
#
# Elastic Constant Matrix: (Units=GPa)
#
#
# Indices 1 2 3 4 5 6 
#
# 1 65.9847 12.2169 11.7254 0.0000 -14.2711 0.0000
# 2 12.2169 88.6581 15.9456 0.0000 7.4887 0.0000
# 3 11.7254 15.9456 51.8295 0.0000 -22.6400 0.0000
# 4 0.0000 0.0000 0.0000 16.0600 0.0000 4.3346
# 5 -14.2711 7.4887 -22.6400 0.0000 19.0432 0.0000
# 6 0.0000 0.0000 0.0000 4.3346 0.0000 10.4291
#
#
#
# Elastic Compliance Matrix: (Units=1/GPa)
#
#
# Indices 1 2 3 4 5 6 
#
# 1 0.021996 -0.008324 0.012930 0.000000 0.035129 0.000000
# 2 -0.008324 0.019562 -0.021263 0.000000 -0.039209 0.000000
# 3 0.012930 -0.021263 0.064066 0.000000 0.094217 0.000000
# 4 0.000000 0.000000 0.000000 0.070134 0.000000 -0.029149
# 5 0.035129 -0.039209 0.094217 0.000000 0.206269 0.000000
# 6 0.000000 0.000000 0.000000 -0.029149 0.000000 0.108001
#
#
# Mechanical properties :
#
#
# Convention : Reuss Voigt Hill
#
# Bulk Modulus (GPa) = 13.82911 31.80536 22.81724
# Shear Modulus (GPa) = 9.13332 20.21209 14.67270
#
# Velocity S-wave (km/s) = 2.27668 3.38683 2.88564
# Velocity P-wave (km/s) = 3.84177 5.77443 4.90425
#
# Compressibility (1/GPa) = 0.07231123
#
# Stress axis : x y z
#
# Youngs Moduli (GPa) = 45.46225 51.11869 15.60888
#
# Poissons Ratio (x) = 0.42550 -0.20182
# Poissons Ratio (y) = 0.37841 0.33188
# Poissons Ratio (z) = -0.58780 1.08691
#
# Static dielectric constant tensor:
#      x y z
#    x 1.604470 0.000000 0.009210 
#    y 0.000000 1.586230 0.000000 
#    z 0.009210 0.000000 1.624970 
# 
# From -- ./inp_files/21145.got.cif
#   From: 2010.05.17/outbox.cif.g08.bks.cpg/sg11_11_cif.got.tgz:21145.got - 2010.06.03 12:22:45.
