data_PCOD9161671
_publ_section_title
;
Structure prediction by ZEFSAII (Michael W. Deem and Ramdas Pophale) SiO2 
 PCOD9161671
Probable space group: P 21/M
;
_chemical_formula_sum "Si O2"
_cell_formula_units_Z 28
_cell_length_a 30.179810
_cell_length_b 9.402747
_cell_length_c 7.898795
_cell_angle_alpha 90.000000
_cell_angle_beta 140.838613
_cell_angle_gamma 90.000000
_cell_volume 1415.501059
_symmetry_space_group_name_H-M "P 21/M"
_symmetry_group_IT_number 11
_symmetry_cell_setting 'monoclinic'
loop_
_space_group_symop_operation_xyz
x,y,z
-x,1/2+y,-z
-x,-y,-z
x,1/2-y,z
loop_
_atom_site_type_symbol
_atom_site_label
_atom_site_fract_x
_atom_site_fract_y
_atom_site_fract_z
Si Si1 0.062241 0.095837 0.615743
Si Si2 0.644151 0.919543 0.565392
Si Si3 0.808868 0.420325 0.545819
Si Si4 0.802590 0.919145 0.167235
Si Si5 0.664719 0.080421 0.282002
Si Si6 0.428192 0.579413 0.333663
Si Si7 0.037578 0.600634 0.986793
O O1 0.070173 0.250000 0.727850
O O2 0.137775 0.033741 0.790378
O O3 0.000000 0.000000 0.500000
O O4 0.023983 0.120575 0.325925
O O5 0.626908 0.750000 0.512266
O O6 0.635810 0.991226 0.355608
O O7 0.602409 0.003874 0.588660
O O8 0.725802 0.934457 0.860278
O O9 0.798685 0.250000 0.493701
O O10 0.807108 0.496870 0.357913
O O11 0.744432 0.465958 0.473277
O O12 0.886267 0.447781 0.853535
O O13 0.814775 0.750000 0.233528
O O14 0.663410 0.250000 0.319188
O O15 0.622333 0.061239 0.980312
O O16 0.500000 0.500000 0.500000
O O17 0.436686 0.750000 0.385003
O O18 0.053838 0.750000 0.123170
O O19 0.000000 0.500000 0.000000
#
# Coordination Sequence:
#
# PCOD9161671 Si02
#       7
#     4   4   4   4   4   4   4
#     4  10  22  37  51  76 114 155 201 254 308 361
#     4  11  24  41  65  97 130 169 214 258 310 372
#     4  10  20  36  59  86 113 152 206 256 308 371
#     4  10  21  38  58  83 119 161 205 257 313 366
#     4  10  23  42  65  94 128 166 208 254 309 370
#     4  11  24  45  72 100 131 167 205 253 310 371
#     4  10  20  34  53  77 106 145 195 249 304 359
#
# _framework density 19.780981000000001
#
# number of rings (size 3 to 8) (size 9 to 14) (size 15 to 20)
#    0.000    1.714    2.857    0.857    2.000    4.000 
#    0.000    0.000    0.000    0.000    0.000    0.000 
#    0.000    0.000    0.000    0.000    0.000    0.000 
#
# Total GULP energy -155885.695411 kJ/mol
# GULP energy per Si atom -5567.346265 kJ/mol
# Density = 1.973596 g / cm^3
# Si number density = 19.780981 Si / 1000 Ang^3
#
#
#
# Elastic Constant Matrix: (Units=GPa)
#
#
# Indices 1 2 3 4 5 6 
#
# 1 165.6164 77.5177 29.4844 0.0000 21.3628 0.0000
# 2 77.5177 78.6141 15.3131 0.0000 10.3137 0.0000
# 3 29.4844 15.3131 39.5593 0.0000 22.9477 0.0000
# 4 0.0000 0.0000 0.0000 23.5684 0.0000 5.0146
# 5 21.3628 10.3137 22.9477 0.0000 32.4799 0.0000
# 6 0.0000 0.0000 0.0000 5.0146 0.0000 25.1377
#
#
#
# Elastic Compliance Matrix: (Units=1/GPa)
#
#
# Indices 1 2 3 4 5 6 
#
# 1 0.012039 -0.010912 -0.003669 0.000000 -0.001861 0.000000
# 2 -0.010912 0.023669 -0.001411 0.000000 0.000658 0.000000
# 3 -0.003669 -0.001411 0.045580 0.000000 -0.029342 0.000000
# 4 0.000000 0.000000 0.000000 0.044310 0.000000 -0.008839
# 5 -0.001861 0.000658 -0.029342 0.000000 0.052534 0.000000
# 6 0.000000 0.000000 0.000000 -0.008839 0.000000 0.041544
#
#
# Mechanical properties :
#
#
# Convention : Reuss Voigt Hill
#
# Bulk Modulus (GPa) = 20.28257 58.71337 39.49797
# Shear Modulus (GPa) = 18.65010 27.00217 22.82613
#
# Velocity S-wave (km/s) = 3.07388 3.69868 3.40066
# Velocity P-wave (km/s) = 4.78270 6.92722 5.95234
#
# Compressibility (1/GPa) = 0.04930340
#
# Stress axis : x y z
#
# Youngs Moduli (GPa) = 83.06538 42.25009 21.93922
#
# Poissons Ratio (x) = 0.46103 0.08051
# Poissons Ratio (y) = 0.90640 0.03095
# Poissons Ratio (z) = 0.30481 0.05961
#
# Static dielectric constant tensor:
#      x y z
#    x 1.692300 0.000000 0.015820 
#    y 0.000000 1.724810 0.000000 
#    z 0.015820 0.000000 1.725340 
# 
# From -- ./inp_files/29111.got.cif
#   From: 2010.05.17/outbox.cif.g08.bks.cpg/sg11_15_cif.got.tgz:29111.got - 2010.06.03 12:22:45.
