data_PCOD9161689
_publ_section_title
;
Structure prediction by ZEFSAII (Michael W. Deem and Ramdas Pophale) SiO2 
 PCOD9161689
Probable space group: P 21/M
;
_chemical_formula_sum "Si O2"
_cell_formula_units_Z 32
_cell_length_a 16.292052
_cell_length_b 8.672885
_cell_length_c 26.240590
_cell_angle_alpha 90.000000
_cell_angle_beta 150.364041
_cell_angle_gamma 90.000000
_cell_volume 1833.446575
_symmetry_space_group_name_H-M "P 21/M"
_symmetry_group_IT_number 11
_symmetry_cell_setting 'monoclinic'
loop_
_space_group_symop_operation_xyz
x,y,z
-x,1/2+y,-z
-x,-y,-z
x,1/2-y,z
loop_
_atom_site_type_symbol
_atom_site_label
_atom_site_fract_x
_atom_site_fract_y
_atom_site_fract_z
Si Si1 0.347212 0.066229 0.449493
Si Si2 0.588385 0.936683 0.194660
Si Si3 0.988562 0.563453 0.233627
Si Si4 0.149206 0.934765 0.047204
Si Si5 0.475793 0.064823 0.724385
Si Si6 0.094103 0.063026 0.697473
Si Si7 0.279746 0.934660 0.523173
Si Si8 0.228918 0.064958 0.980941
O O1 0.351048 0.250000 0.450755
O O2 0.500000 0.000000 0.500000
O O3 0.172537 0.006271 0.332604
O O4 0.351552 0.007248 0.510143
O O5 0.579292 0.750000 0.187374
O O6 0.595702 0.978096 0.258502
O O7 0.748575 0.991398 0.249852
O O8 0.416672 0.002662 0.080310
O O9 0.003790 0.750000 0.241877
O O10 0.905856 0.517998 0.243013
O O11 0.878054 0.517432 0.125861
O O12 0.140104 0.750000 0.039793
O O13 0.150232 0.001100 0.990625
O O14 0.328814 0.975527 0.168150
O O15 0.000000 0.000000 0.000000
O O16 0.462850 0.250000 0.712096
O O17 0.380251 0.986441 0.626738
O O18 0.099130 0.250000 0.698690
O O19 0.914258 0.016809 0.578582
O O20 0.284001 0.750000 0.520292
O O21 0.232156 0.250000 0.984750
#
# Coordination Sequence:
#
# PCOD9161689 Si02
#       8
#     4   4   4   4   4   4   4   4
#     4  11  22  37  57  79 105 136 172 214 258 308
#     4   9  18  34  54  75 105 142 177 216 260 307
#     4   9  19  36  55  77 108 141 173 213 260 307
#     4  10  21  37  56  77 104 137 173 216 262 311
#     4   9  19  34  51  75 106 138 173 215 262 306
#     4   8  16  33  54  75 103 140 176 212 259 308
#     4  10  20  35  55  78 105 138 175 214 259 311
#     4  10  20  34  53  78 108 139 173 216 261 307
#
# _framework density 17.453467
#
# number of rings (size 3 to 8) (size 9 to 14) (size 15 to 20)
#    0.000    2.500    0.000    3.750    0.000    5.500 
#    0.000    4.375    0.000    0.000    0.000    0.000 
#    0.000    0.000    0.000    0.000    0.000    0.000 
#
# Total GULP energy -178537.091641 kJ/mol
# GULP energy per Si atom -5579.284114 kJ/mol
# Density = 1.741374 g / cm^3
# Si number density = 17.453467 Si / 1000 Ang^3
#
#
#
# Elastic Constant Matrix: (Units=GPa)
#
#
# Indices 1 2 3 4 5 6 
#
# 1 176.9744 50.4029 127.9893 0.0000 19.6220 0.0000
# 2 50.4029 47.7111 52.4872 0.0000 -3.1381 0.0000
# 3 127.9893 52.4872 159.5538 0.0000 -18.6472 0.0000
# 4 0.0000 0.0000 0.0000 32.7776 0.0000 -1.1151
# 5 19.6220 -3.1381 -18.6472 0.0000 29.8746 0.0000
# 6 0.0000 0.0000 0.0000 -1.1151 0.0000 24.8440
#
#
#
# Elastic Compliance Matrix: (Units=1/GPa)
#
#
# Indices 1 2 3 4 5 6 
#
# 1 0.032853 -0.004972 -0.029450 0.000000 -0.040483 0.000000
# 2 -0.004972 0.033952 -0.006885 0.000000 0.002535 0.000000
# 3 -0.029450 -0.006885 0.037034 0.000000 0.041736 0.000000
# 4 0.000000 0.000000 0.000000 0.030555 0.000000 0.001371
# 5 -0.040483 0.002535 0.041736 0.000000 0.086380 0.000000
# 6 0.000000 0.000000 0.000000 0.001371 0.000000 0.040313
#
#
# Mechanical properties :
#
#
# Convention : Reuss Voigt Hill
#
# Bulk Modulus (GPa) = 47.10966 93.99978 70.55472
# Shear Modulus (GPa) = 14.25417 27.72323 20.98870
#
# Velocity S-wave (km/s) = 2.86089 3.98981 3.47155
# Velocity P-wave (km/s) = 6.16142 8.67174 7.52204
#
# Compressibility (1/GPa) = 0.02122707
#
# Stress axis : x y z
#
# Youngs Moduli (GPa) = 30.43837 29.45317 27.00249
#
# Poissons Ratio (x) = 0.14643 0.79521
# Poissons Ratio (y) = 0.15133 0.18590
# Poissons Ratio (z) = 0.89640 0.20277
#
# Static dielectric constant tensor:
#      x y z
#    x 1.577690 0.000000 0.002470 
#    y 0.000000 1.589290 0.000000 
#    z 0.002470 0.000000 1.570580 
# 
# From -- ./inp_files/68985.got.cif
#   From: 2010.05.17/outbox.cif.g08.bks.cpg/sg11_35_cif.got.tgz:68985.got - 2010.06.03 12:22:45.
