data_PCOD9161641
_publ_section_title
;
Structure prediction by ZEFSAII (Michael W. Deem and Ramdas Pophale) SiO2 
 PCOD9161641
Probable space group: P 21/M
;
_chemical_formula_sum "Si O2"
_cell_formula_units_Z 24
_cell_length_a 7.264875
_cell_length_b 13.508603
_cell_length_c 12.048844
_cell_angle_alpha 90.000000
_cell_angle_beta 123.721009
_cell_angle_gamma 90.000000
_cell_volume 983.506192
_symmetry_space_group_name_H-M "P 21/M"
_symmetry_group_IT_number 11
_symmetry_cell_setting 'monoclinic'
loop_
_space_group_symop_operation_xyz
x,y,z
-x,1/2+y,-z
-x,-y,-z
x,1/2-y,z
loop_
_atom_site_type_symbol
_atom_site_label
_atom_site_fract_x
_atom_site_fract_y
_atom_site_fract_z
Si Si1 0.223458 0.572436 0.002552
Si Si2 0.700785 0.636364 0.083257
Si Si3 0.559087 0.016447 0.713409
Si Si4 0.229573 0.863411 0.663196
Si Si5 0.148513 0.134823 0.612763
Si Si6 0.859644 0.638539 0.727657
O O1 0.221141 0.458197 0.960731
O O2 0.000031 0.624141 0.887866
O O3 0.436587 0.623430 0.015837
O O4 0.274426 0.574510 0.150407
O O5 0.742651 0.750000 0.059530
O O6 0.809715 0.623616 0.242460
O O7 0.684223 0.950100 0.666230
O O8 0.435828 0.933796 0.748432
O O9 0.354591 0.086763 0.617117
O O10 0.300005 0.750000 0.679257
O O11 0.094504 0.896515 0.508217
O O12 0.046881 0.872705 0.697058
O O13 0.154590 0.250000 0.587472
O O14 0.767559 0.750000 0.689876
#
# Coordination Sequence:
#
# PCOD9161641 Si02
#       6
#     4   4   4   4   4   4
#     4  10  20  34  52  81 116 143 182 231 274 326
#     4   9  17  32  57  83 109 147 186 223 275 331
#     4  11  22  37  59  84 111 147 187 226 273 330
#     4  10  21  38  59  84 113 144 183 230 275 325
#     4   9  19  36  57  82 113 147 184 228 276 324
#     4  11  23  38  57  82 112 146 184 229 279 328
#
# _framework density 24.402488999999999
#
# number of rings (size 3 to 8) (size 9 to 14) (size 15 to 20)
#    0.000    2.000    0.000    5.000    0.000    4.000 
#    0.000    0.833    0.000    5.000    0.000    0.000 
#    0.000    0.000    0.000    0.000    0.000    0.000 
#
# Total GULP energy -134249.014045 kJ/mol
# GULP energy per Si atom -5593.708919 kJ/mol
# Density = 2.434695 g / cm^3
# Si number density = 24.402489 Si / 1000 Ang^3
#
#
#
# Elastic Constant Matrix: (Units=GPa)
#
#
# Indices 1 2 3 4 5 6 
#
# 1 41.3601 -11.7815 -3.7257 0.0000 2.8784 0.0000
# 2 -11.7815 89.4803 3.2339 0.0000 -0.7299 0.0000
# 3 -3.7257 3.2339 89.5211 0.0000 4.4508 0.0000
# 4 0.0000 0.0000 0.0000 18.3411 0.0000 4.0277
# 5 2.8784 -0.7299 4.4508 0.0000 22.2131 0.0000
# 6 0.0000 0.0000 0.0000 4.0277 0.0000 31.2493
#
#
#
# Elastic Compliance Matrix: (Units=1/GPa)
#
#
# Indices 1 2 3 4 5 6 
#
# 1 0.025451 0.003283 0.001110 0.000000 -0.003412 0.000000
# 2 0.003283 0.011618 -0.000284 0.000000 0.000013 0.000000
# 3 0.001110 -0.000284 0.011348 0.000000 -0.002427 0.000000
# 4 0.000000 0.000000 0.000000 0.056111 0.000000 -0.007232
# 5 -0.003412 0.000013 -0.002427 0.000000 0.045947 0.000000
# 6 0.000000 0.000000 0.000000 -0.007232 0.000000 0.032933
#
#
# Mechanical properties :
#
#
# Convention : Reuss Voigt Hill
#
# Bulk Modulus (GPa) = 17.65675 21.75722 19.70699
# Shear Modulus (GPa) = 25.76432 29.86968 27.81700
#
# Velocity S-wave (km/s) = 3.25284 3.50243 3.37994
# Velocity P-wave (km/s) = 4.62162 5.02905 4.82963
#
# Compressibility (1/GPa) = 0.05663556
#
# Stress axis : x y z
#
# Youngs Moduli (GPa) = 39.29185 86.07140 88.12390
#
# Poissons Ratio (x) = -0.28257 -0.09784
# Poissons Ratio (y) = -0.12900 0.02500
# Poissons Ratio (z) = -0.04362 0.02442
#
# Static dielectric constant tensor:
#      x y z
#    x 1.939690 0.000000 -0.037440 
#    y 0.000000 1.963080 0.000000 
#    z -0.037440 0.000000 1.988840 
# 
# From -- ./inp_files/47704.got.cif
#   From: 2010.05.17/outbox.cif.g08.bks.cpg/sg11_24_cif.got.tgz:47704.got - 2010.06.03 12:22:45.
