data_PCOD9161101
_publ_section_title
;
Structure prediction by ZEFSAII (Michael W. Deem and Ramdas Pophale) SiO2 
 PCOD9161101
Probable space group: P 21/M
;
_chemical_formula_sum "Si O2"
_cell_formula_units_Z 20
_cell_length_a 7.119517
_cell_length_b 11.760863
_cell_length_c 15.400724
_cell_angle_alpha 90.000000
_cell_angle_beta 37.176395
_cell_angle_gamma 90.000000
_cell_volume 779.224402
_symmetry_space_group_name_H-M "P 21/M"
_symmetry_group_IT_number 11
_symmetry_cell_setting 'monoclinic'
loop_
_space_group_symop_operation_xyz
x,y,z
-x,1/2+y,-z
-x,-y,-z
x,1/2-y,z
loop_
_atom_site_type_symbol
_atom_site_label
_atom_site_fract_x
_atom_site_fract_y
_atom_site_fract_z
Si Si1 0.056042 0.383058 0.824013
Si Si2 0.290060 0.124128 0.419501
Si Si3 0.848570 0.621943 0.817021
Si Si4 0.280573 0.882387 0.890455
Si Si5 0.273969 0.593652 0.505083
O O1 0.930608 0.250000 0.858488
O O2 0.390376 0.375737 0.654687
O O3 0.889434 0.499340 0.849444
O O4 0.030779 0.403781 0.938501
O O5 0.358008 0.250000 0.422068
O O6 0.559788 0.074844 0.257247
O O7 0.980440 0.126019 0.474644
O O8 0.248683 0.042621 0.515105
O O9 0.820101 0.750000 0.870412
O O10 0.551567 0.607685 0.863217
O O11 0.142634 0.632268 0.644577
O O12 0.254131 0.750000 0.877362
#
# Coordination Sequence:
#
# PCOD9161101 Si02
#       5
#     4   4   4   4   4
#     4  11  21  33  53  80 106 132 170 216 254 295
#     4   9  18  35  54  72 101 139 172 205 255 313
#     4  10  20  36  54  73 105 142 170 202 254 311
#     4   8  17  34  54  75 103 138 169 205 257 306
#     4  10  20  32  52  77 101 133 172 213 254 298
#
# _framework density 25.666547000000001
#
# number of rings (size 3 to 8) (size 9 to 14) (size 15 to 20)
#    0.000    2.400    0.000    4.200    0.000    2.400 
#    0.000    0.000    0.000    7.200    0.000    0.000 
#    0.000    0.000    0.000    0.000    0.000    0.000 
#
# Total GULP energy -111465.929000 kJ/mol
# GULP energy per Si atom -5573.296450 kJ/mol
# Density = 2.560813 g / cm^3
# Si number density = 25.666547 Si / 1000 Ang^3
#
#
#
# Elastic Constant Matrix: (Units=GPa)
#
#
# Indices 1 2 3 4 5 6 
#
# 1 48.1070 16.1826 3.9918 0.0000 -1.3544 0.0000
# 2 16.1826 200.2071 33.6569 0.0000 22.5357 0.0000
# 3 3.9918 33.6569 133.1326 0.0000 -0.5255 0.0000
# 4 0.0000 0.0000 0.0000 39.4320 0.0000 4.7897
# 5 -1.3544 22.5357 -0.5255 0.0000 36.2256 0.0000
# 6 0.0000 0.0000 0.0000 4.7897 0.0000 -17.7173
#
#
#
# Elastic Compliance Matrix: (Units=1/GPa)
#
#
# Indices 1 2 3 4 5 6 
#
# 1 0.021508 -0.001940 -0.000147 0.000000 0.002009 0.000000
# 2 -0.001940 0.005808 -0.001425 0.000000 -0.003707 0.000000
# 3 -0.000147 -0.001425 0.007880 0.000000 0.000995 0.000000
# 4 0.000000 0.000000 0.000000 0.024554 0.000000 0.006638
# 5 0.002009 -0.003707 0.000995 0.000000 0.030000 0.000000
# 6 0.000000 0.000000 0.000000 0.006638 0.000000 -0.054647
#
#
# Mechanical properties :
#
#
# Convention : Reuss Voigt Hill
#
# Bulk Modulus (GPa) = 35.49402 54.34550 44.91976
# Shear Modulus (GPa) = 97.05507 33.42907 65.24207
#
# Velocity S-wave (km/s) = 6.15597 3.61284 5.04721
# Velocity P-wave (km/s) = 8.02414 6.21475 7.17670
#
# Compressibility (1/GPa) = 0.02817376
#
# Stress axis : x y z
#
# Youngs Moduli (GPa) = 46.49367 172.16475 126.90597
#
# Poissons Ratio (x) = 0.33400 0.01860
# Poissons Ratio (y) = 0.09020 0.18082
# Poissons Ratio (z) = 0.00681 0.24531
#
# Static dielectric constant tensor:
#      x y z
#    x 2.059810 0.000000 -0.079020 
#    y 0.000000 2.139760 0.000000 
#    z -0.079020 0.000000 2.024850 
# 
# From -- ./inp_files/11743.got.cif
#   From: 2010.05.17/outbox.cif.g08.bks.cpg/sg11_6_cif.got.tgz:11743.got - 2010.06.03 12:22:45.
