data_PCOD9161181
_publ_section_title
;
Structure prediction by ZEFSAII (Michael W. Deem and Ramdas Pophale) SiO2 
 PCOD9161181
Probable space group: P 21/M
;
_chemical_formula_sum "Si O2"
_cell_formula_units_Z 28
_cell_length_a 7.570457
_cell_length_b 9.396526
_cell_length_c 28.051874
_cell_angle_alpha 90.000000
_cell_angle_beta 47.570378
_cell_angle_gamma 90.000000
_cell_volume 1472.890295
_symmetry_space_group_name_H-M "P 21/M"
_symmetry_group_IT_number 11
_symmetry_cell_setting 'monoclinic'
loop_
_space_group_symop_operation_xyz
x,y,z
-x,1/2+y,-z
-x,-y,-z
x,1/2-y,z
loop_
_atom_site_type_symbol
_atom_site_label
_atom_site_fract_x
_atom_site_fract_y
_atom_site_fract_z
Si Si1 0.698062 0.910766 0.435936
Si Si2 0.329551 0.422260 0.068180
Si Si3 0.221450 0.576952 0.830699
Si Si4 0.122259 0.910766 0.435936
Si Si5 0.565097 0.913993 0.687624
Si Si6 0.996785 0.586007 0.687623
Si Si7 0.625052 0.923048 0.830700
O O1 0.616611 0.750000 0.441341
O O2 0.925240 0.903754 0.429904
O O3 0.500000 0.000000 0.500000
O O4 0.793217 0.990721 0.371784
O O5 0.349524 0.250000 0.060191
O O6 0.390436 0.462956 0.111574
O O7 0.051695 0.462955 0.111574
O O8 0.500000 0.500000 0.000000
O O9 0.230132 0.750000 0.828171
O O10 0.335639 0.533663 0.759180
O O11 0.399089 0.528936 0.840364
O O12 0.176685 0.750000 0.441341
O O13 0.347864 0.990721 0.371784
O O14 0.000000 0.000000 0.500000
O O15 0.530305 0.750000 0.678930
O O16 0.780064 0.912799 0.687974
O O17 0.075044 0.750000 0.678930
O O18 0.868462 0.533663 0.759180
O O19 0.629010 0.750000 0.828172
#
# Coordination Sequence:
#
# PCOD9161181 Si02
#       7
#     4   4   4   4   4   4   4
#     4  10  20  33  49  71 100 134 170 209 256 308
#     4  10  20  34  52  76 106 136 168 210 254 306
#     4   8  15  30  52  75  99 132 172 209 252 306
#     4  10  20  33  49  71 100 134 170 209 256 308
#     4   8  14  28  50  70  91 124 164 207 252 299
#     4   8  14  28  50  70  91 124 164 207 252 299
#     4   8  15  30  52  75  99 132 172 209 252 306
#
# _framework density 19.01024
#
# number of rings (size 3 to 8) (size 9 to 14) (size 15 to 20)
#    0.000    3.143    0.000    2.571    0.000    2.286 
#    2.571    1.429    0.000    1.714    0.000    0.000 
#    0.000    0.000    0.000    0.000    0.000    0.000 
#
# Total GULP energy -156144.314007 kJ/mol
# GULP energy per Si atom -5576.582643 kJ/mol
# Density = 1.896697 g / cm^3
# Si number density = 19.010240 Si / 1000 Ang^3
#
#
#
# Elastic Constant Matrix: (Units=GPa)
#
#
# Indices 1 2 3 4 5 6 
#
# 1 70.4198 25.1782 59.5881 0.0000 0.5095 0.0000
# 2 25.1782 85.6072 87.8061 0.0000 0.6868 0.0000
# 3 59.5881 87.8061 229.2177 0.0000 1.2321 0.0000
# 4 0.0000 0.0000 0.0000 38.4555 0.0000 0.3183
# 5 0.5095 0.6868 1.2321 0.0000 28.6510 0.0000
# 6 0.0000 0.0000 0.0000 0.3183 0.0000 9.4323
#
#
#
# Elastic Compliance Matrix: (Units=1/GPa)
#
#
# Indices 1 2 3 4 5 6 
#
# 1 0.018241 -0.000825 -0.004425 0.000000 -0.000114 0.000000
# 2 -0.000825 0.019279 -0.007170 0.000000 -0.000139 0.000000
# 3 -0.004425 -0.007170 0.008260 0.000000 -0.000105 0.000000
# 4 0.000000 0.000000 0.000000 0.026011 0.000000 -0.000878
# 5 -0.000114 -0.000139 -0.000105 0.000000 0.034913 0.000000
# 6 0.000000 0.000000 0.000000 -0.000878 0.000000 0.106048
#
#
# Mechanical properties :
#
#
# Convention : Reuss Voigt Hill
#
# Bulk Modulus (GPa) = 47.75608 81.15438 64.45523
# Shear Modulus (GPa) = 20.44379 29.48593 24.96486
#
# Velocity S-wave (km/s) = 3.28290 3.94262 3.62779
# Velocity P-wave (km/s) = 6.28854 7.96920 7.17823
#
# Compressibility (1/GPa) = 0.02093974
#
# Stress axis : x y z
#
# Youngs Moduli (GPa) = 54.82151 51.86927 121.06142
#
# Poissons Ratio (x) = 0.04279 0.53574
# Poissons Ratio (y) = 0.04523 0.86802
# Poissons Ratio (z) = 0.24260 0.37191
#
# Static dielectric constant tensor:
#      x y z
#    x 1.711960 0.000000 -0.000790 
#    y 0.000000 1.647810 0.000000 
#    z -0.000790 0.000000 1.640130 
# 
# From -- ./inp_files/72715.got.cif
#   From: 2010.05.17/outbox.cif.g08.bks.cpg/sg11_37_cif.got.tgz:72715.got - 2010.06.03 12:22:45.
