data_PCOD9161319
_publ_section_title
;
Structure prediction by ZEFSAII (Michael W. Deem and Ramdas Pophale) SiO2 
 PCOD9161319
Probable space group: P 21/M
;
_chemical_formula_sum "Si O2"
_cell_formula_units_Z 32
_cell_length_a 17.876836
_cell_length_b 13.862759
_cell_length_c 6.372719
_cell_angle_alpha 90.000000
_cell_angle_beta 74.680624
_cell_angle_gamma 90.000000
_cell_volume 1523.186138
_symmetry_space_group_name_H-M "P 21/M"
_symmetry_group_IT_number 11
_symmetry_cell_setting 'monoclinic'
loop_
_space_group_symop_operation_xyz
x,y,z
-x,1/2+y,-z
-x,-y,-z
x,1/2-y,z
loop_
_atom_site_type_symbol
_atom_site_label
_atom_site_fract_x
_atom_site_fract_y
_atom_site_fract_z
Si Si1 0.465405 0.358227 0.461468
Si Si2 0.840796 0.995335 0.548453
Si Si3 0.445888 0.963015 0.230509
Si Si4 0.377004 0.642768 0.920102
Si Si5 0.884282 0.364212 0.870072
Si Si6 0.251286 0.530776 0.768235
Si Si7 0.193804 0.139153 0.047445
Si Si8 0.940083 0.861466 0.171502
O O1 0.432046 0.250000 0.507876
O O2 0.501922 0.397641 0.652130
O O3 0.417238 0.445222 0.388908
O O4 0.538427 0.350318 0.248397
O O5 0.806798 0.918005 0.736314
O O6 0.900653 0.937567 0.356723
O O7 0.880568 0.080168 0.651482
O O8 0.772200 0.035811 0.454876
O O9 0.382992 0.902158 0.147744
O O10 0.500000 0.000000 0.000000
O O11 0.343486 0.750000 0.956862
O O12 0.328167 0.578543 0.797127
O O13 0.871845 0.250000 0.856765
O O14 0.968642 0.379301 0.910655
O O15 0.818035 0.413367 0.058552
O O16 0.247305 0.419982 0.847018
O O17 0.215405 0.250000 0.052177
O O18 0.107456 0.132720 0.010124
O O19 0.929757 0.750000 0.255438
#
# Coordination Sequence:
#
# PCOD9161319 Si02
#       8
#     4   4   4   4   4   4   4   4
#     4   9  18  33  57  88 116 143 177 217 258 303
#     4  10  20  33  52  74  99 134 178 224 271 323
#     4   9  18  34  57  84 112 140 176 217 255 299
#     4  10  20  35  56  80 110 149 182 208 249 306
#     4  10  21  34  49  74 106 137 172 219 274 326
#     4  10  22  36  51  75 108 142 177 217 259 310
#     4   9  19  36  56  75  97 131 177 227 276 325
#     4   9  18  33  53  76 100 129 170 223 281 333
#
# _framework density 21.008593999999999
#
# number of rings (size 3 to 8) (size 9 to 14) (size 15 to 20)
#    0.000    2.500    0.000    1.500    0.000    9.500 
#    0.000    4.375    0.000    3.750    0.000    0.000 
#    0.000    0.000    0.000    0.000    0.000    0.000 
#
# Total GULP energy -178629.822478 kJ/mol
# GULP energy per Si atom -5582.181952 kJ/mol
# Density = 2.096078 g / cm^3
# Si number density = 21.008594 Si / 1000 Ang^3
#
#
#
# Elastic Constant Matrix: (Units=GPa)
#
#
# Indices 1 2 3 4 5 6 
#
# 1 32.5015 20.8836 11.8027 0.0000 15.1509 0.0000
# 2 20.8836 137.3610 39.2271 0.0000 23.9625 0.0000
# 3 11.8027 39.2271 86.7014 0.0000 22.7400 0.0000
# 4 0.0000 0.0000 0.0000 20.7685 0.0000 3.7579
# 5 15.1509 23.9625 22.7400 0.0000 29.4526 0.0000
# 6 0.0000 0.0000 0.0000 3.7579 0.0000 23.1062
#
#
#
# Elastic Compliance Matrix: (Units=1/GPa)
#
#
# Indices 1 2 3 4 5 6 
#
# 1 0.041569 -0.003174 0.000888 0.000000 -0.019487 0.000000
# 2 -0.003174 0.009199 -0.002753 0.000000 -0.003726 0.000000
# 3 0.000888 -0.002753 0.015286 0.000000 -0.010020 0.000000
# 4 0.000000 0.000000 0.000000 0.049610 0.000000 -0.008068
# 5 -0.019487 -0.003726 -0.010020 0.000000 0.054745 0.000000
# 6 0.000000 0.000000 0.000000 -0.008068 0.000000 0.044591
#
#
# Mechanical properties :
#
#
# Convention : Reuss Voigt Hill
#
# Bulk Modulus (GPa) = 17.86433 44.48786 31.17609
# Shear Modulus (GPa) = 20.51408 26.97549 23.74479
#
# Velocity S-wave (km/s) = 3.12823 3.58721 3.36555
# Velocity P-wave (km/s) = 4.64430 6.19512 5.47490
#
# Compressibility (1/GPa) = 0.05597748
#
# Stress axis : x y z
#
# Youngs Moduli (GPa) = 24.05648 108.71091 65.41817
#
# Poissons Ratio (x) = 0.34506 -0.05812
# Poissons Ratio (y) = 0.07636 0.18006
# Poissons Ratio (z) = -0.02137 0.29923
#
# Static dielectric constant tensor:
#      x y z
#    x 1.769420 0.000000 -0.006850 
#    y 0.000000 1.795060 0.000000 
#    z -0.006850 0.000000 1.745030 
# 
# From -- ./inp_files/8096.got.cif
#   From: 2010.05.17/outbox.cif.g08.bks.cpg/sg11_5_cif.got.tgz:8096.got - 2010.06.03 12:22:45.
