data_PCOD9161502
_publ_section_title
;
Structure prediction by ZEFSAII (Michael W. Deem and Ramdas Pophale) SiO2 
 PCOD9161502
Probable space group: P 21/M
;
_chemical_formula_sum "Si O2"
_cell_formula_units_Z 32
_cell_length_a 11.515347
_cell_length_b 13.967640
_cell_length_c 19.383414
_cell_angle_alpha 90.000000
_cell_angle_beta 154.441579
_cell_angle_gamma 90.000000
_cell_volume 1345.060648
_symmetry_space_group_name_H-M "P 21/M"
_symmetry_group_IT_number 11
_symmetry_cell_setting 'monoclinic'
loop_
_space_group_symop_operation_xyz
x,y,z
-x,1/2+y,-z
-x,-y,-z
x,1/2-y,z
loop_
_atom_site_type_symbol
_atom_site_label
_atom_site_fract_x
_atom_site_fract_y
_atom_site_fract_z
Si Si1 0.757677 0.952811 0.458627
Si Si2 0.430539 0.636175 0.403342
Si Si3 0.687151 0.363570 0.211110
Si Si4 0.612432 0.639754 0.242813
Si Si5 0.451484 0.854590 0.707992
Si Si6 0.103644 0.038347 0.258015
Si Si7 0.544124 0.135201 0.988755
Si Si8 0.998533 0.591914 0.950565
O O1 0.523990 0.898278 0.376854
O O2 0.770876 0.915711 0.386861
O O3 0.036655 0.923217 0.643532
O O4 0.683542 0.064185 0.411703
O O5 0.393148 0.750000 0.385302
O O6 0.676737 0.599439 0.582630
O O7 0.182215 0.573610 0.299602
O O8 0.760183 0.250000 0.248501
O O9 0.564002 0.383906 0.219886
O O10 0.485880 0.378445 0.038762
O O11 0.688277 0.750000 0.287652
O O12 0.632334 0.608918 0.173046
O O13 0.298190 0.629714 0.097142
O O14 0.324789 0.750000 0.631163
O O15 0.765735 0.846508 0.859633
O O16 0.115400 0.066841 0.184976
O O17 0.813592 0.073395 0.125904
O O18 0.596925 0.250000 0.007902
O O19 0.000000 0.500000 0.000000
#
# Coordination Sequence:
#
# PCOD9161502 Si02
#       8
#     4   4   4   4   4   4   4   4
#     4  12  21  39  60  91 125 158 207 257 304 367
#     4  11  21  34  55  87 124 159 197 250 311 362
#     4  10  21  39  64  90 121 163 210 251 301 366
#     4  10  20  33  60  91 117 153 201 259 309 357
#     4  11  24  40  60  89 123 163 205 255 310 369
#     4  10  20  34  55  87 118 153 199 248 297 366
#     4   9  18  35  59  87 118 160 206 247 298 367
#     4  11  20  39  60  83 124 155 200 252 309 369
#
# _framework density 23.790749999999999
#
# number of rings (size 3 to 8) (size 9 to 14) (size 15 to 20)
#    0.000    1.500    3.750    2.250    0.000    1.500 
#    0.000    1.250    0.000    0.000    0.000    0.000 
#    0.000    0.000    0.000    0.000    0.000    0.000 
#
# Total GULP energy -178877.098066 kJ/mol
# GULP energy per Si atom -5589.909315 kJ/mol
# Density = 2.373660 g / cm^3
# Si number density = 23.790750 Si / 1000 Ang^3
#
#
#
# Elastic Constant Matrix: (Units=GPa)
#
#
# Indices 1 2 3 4 5 6 
#
# 1 50.8508 43.9332 42.0164 0.0000 -20.1112 0.0000
# 2 43.9332 124.2386 40.2269 0.0000 -7.3730 0.0000
# 3 42.0164 40.2269 88.7009 0.0000 -26.5927 0.0000
# 4 0.0000 0.0000 0.0000 24.5231 0.0000 -13.5139
# 5 -20.1112 -7.3730 -26.5927 0.0000 46.8529 0.0000
# 6 0.0000 0.0000 0.0000 -13.5139 0.0000 15.2184
#
#
#
# Elastic Compliance Matrix: (Units=1/GPa)
#
#
# Indices 1 2 3 4 5 6 
#
# 1 0.043122 -0.010546 -0.012764 0.000000 0.009606 0.000000
# 2 -0.010546 0.012064 -0.001523 0.000000 -0.003493 0.000000
# 3 -0.012764 -0.001523 0.019638 0.000000 0.005428 0.000000
# 4 0.000000 0.000000 0.000000 0.079854 0.000000 0.070910
# 5 0.009606 -0.003493 0.005428 0.000000 0.027998 0.000000
# 6 0.000000 0.000000 0.000000 0.070910 0.000000 0.128678
#
#
# Mechanical properties :
#
#
# Convention : Reuss Voigt Hill
#
# Bulk Modulus (GPa) = 39.74773 57.34923 48.54848
# Shear Modulus (GPa) = 13.53530 26.49316 20.01423
#
# Velocity S-wave (km/s) = 2.38782 3.34067 2.90360
# Velocity P-wave (km/s) = 4.93414 6.24805 5.62956
#
# Compressibility (1/GPa) = 0.02515867
#
# Stress axis : x y z
#
# Youngs Moduli (GPa) = 23.18996 82.89061 50.92254
#
# Poissons Ratio (x) = 0.87416 0.64996
# Poissons Ratio (y) = 0.24456 0.07755
# Poissons Ratio (z) = 0.29599 0.12623
#
# Static dielectric constant tensor:
#      x y z
#    x 1.963820 0.000000 0.018420 
#    y 0.000000 1.891310 0.000000 
#    z 0.018420 0.000000 1.905720 
# 
# From -- ./inp_files/59520.got.cif
#   From: 2010.05.17/outbox.cif.g08.bks.cpg/sg11_30_cif.got.tgz:59520.got - 2010.06.03 12:22:45.
