data_PCOD9161144
_publ_section_title
;
Structure prediction by ZEFSAII (Michael W. Deem and Ramdas Pophale) SiO2 
 PCOD9161144
Probable space group: P 21/M
;
_chemical_formula_sum "Si O2"
_cell_formula_units_Z 28
_cell_length_a 18.148344
_cell_length_b 7.799756
_cell_length_c 15.171972
_cell_angle_alpha 90.000000
_cell_angle_beta 49.201705
_cell_angle_gamma 90.000000
_cell_volume 1625.789259
_symmetry_space_group_name_H-M "P 21/M"
_symmetry_group_IT_number 11
_symmetry_cell_setting 'monoclinic'
loop_
_space_group_symop_operation_xyz
x,y,z
-x,1/2+y,-z
-x,-y,-z
x,1/2-y,z
loop_
_atom_site_type_symbol
_atom_site_label
_atom_site_fract_x
_atom_site_fract_y
_atom_site_fract_z
Si Si1 0.365509 0.542690 0.536947
Si Si2 0.111849 0.047027 0.423736
Si Si3 0.585226 0.042445 0.812006
Si Si4 0.743649 0.455326 0.543435
Si Si5 0.264882 0.451375 0.162438
Si Si6 0.418214 0.045308 0.685889
Si Si7 0.371909 0.039668 0.915197
O O1 0.367517 0.750000 0.533965
O O2 0.282559 0.482266 0.533945
O O3 0.471435 0.481069 0.418516
O O4 0.358294 0.490321 0.644135
O O5 0.119917 0.250000 0.411211
O O6 0.181139 0.972664 0.291437
O O7 0.157998 0.999859 0.482127
O O8 0.000000 0.000000 0.500000
O O9 0.587415 0.250000 0.816186
O O10 0.655998 0.988952 0.676544
O O11 0.476225 0.989663 0.874789
O O12 0.635197 0.968887 0.859989
O O13 0.739958 0.250000 0.543038
O O14 0.243251 0.250000 0.168538
O O15 0.287892 0.521817 0.047344
O O16 0.427329 0.250000 0.688339
O O17 0.373143 0.981520 0.812749
O O18 0.369001 0.250000 0.917770
#
# Coordination Sequence:
#
# PCOD9161144 Si02
#       7
#     4   4   4   4   4   4   4
#     4   9  16  27  41  61  88 119 152 182 211 244
#     4  10  20  33  48  67  88 110 141 182 226 266
#     4   9  15  25  41  60  85 118 149 172 202 250
#     4   9  16  28  46  65  88 118 148 177 214 258
#     4   9  18  29  42  62  86 111 143 180 214 254
#     4   9  16  26  41  60  86 122 156 180 205 243
#     4   9  15  26  42  60  86 120 150 174 206 250
#
# _framework density 17.222404999999998
#
# number of rings (size 3 to 8) (size 9 to 14) (size 15 to 20)
#    0.000    2.857    1.429    0.857    0.000    1.143 
#    0.000    1.429    0.000    0.000    0.000    1.000 
#    0.000    0.000    0.000    0.000    0.000    0.000 
#
# Total GULP energy -155958.066953 kJ/mol
# GULP energy per Si atom -5569.930963 kJ/mol
# Density = 1.718321 g / cm^3
# Si number density = 17.222405 Si / 1000 Ang^3
#
#
#
# Elastic Constant Matrix: (Units=GPa)
#
#
# Indices 1 2 3 4 5 6 
#
# 1 111.7286 -4.3390 75.4462 0.0000 15.3379 0.0000
# 2 -4.3390 13.0621 2.6773 0.0000 0.7368 0.0000
# 3 75.4462 2.6773 106.1429 0.0000 29.9641 0.0000
# 4 0.0000 0.0000 0.0000 8.4910 0.0000 3.5029
# 5 15.3379 0.7368 29.9641 0.0000 23.4864 0.0000
# 6 0.0000 0.0000 0.0000 3.5029 0.0000 21.1538
#
#
#
# Elastic Compliance Matrix: (Units=1/GPa)
#
#
# Indices 1 2 3 4 5 6 
#
# 1 0.018964 0.009121 -0.015836 0.000000 0.007533 0.000000
# 2 0.009121 0.081342 -0.009585 0.000000 0.003720 0.000000
# 3 -0.015836 -0.009585 0.027999 0.000000 -0.025079 0.000000
# 4 0.000000 0.000000 0.000000 0.126406 0.000000 -0.020932
# 5 0.007533 0.003720 -0.025079 0.000000 0.069537 0.000000
# 6 0.000000 0.000000 0.000000 -0.020932 0.000000 0.050739
#
#
# Mechanical properties :
#
#
# Convention : Reuss Voigt Hill
#
# Bulk Modulus (GPa) = 10.44892 42.05585 26.25239
# Shear Modulus (GPa) = 11.37682 21.10286 16.23984
#
# Velocity S-wave (km/s) = 2.57297 3.50425 3.07408
# Velocity P-wave (km/s) = 3.86097 6.39103 5.27979
#
# Compressibility (1/GPa) = 0.09570364
#
# Stress axis : x y z
#
# Youngs Moduli (GPa) = 52.73159 12.29381 35.71524
#
# Poissons Ratio (x) = -0.11213 0.56560
# Poissons Ratio (y) = -0.48094 0.34233
# Poissons Ratio (z) = 0.83507 0.11783
#
# Static dielectric constant tensor:
#      x y z
#    x 1.554070 0.000000 0.046940 
#    y 0.000000 1.636540 0.000000 
#    z 0.046940 0.000000 1.607800 
# 
# From -- ./inp_files/43031.got.cif
#   From: 2010.05.17/outbox.cif.g08.bks.cpg/sg11_22_cif.got.tgz:43031.got - 2010.06.03 12:22:45.
