data_PCOD9161061
_publ_section_title
;
Structure prediction by ZEFSAII (Michael W. Deem and Ramdas Pophale) SiO2 
 PCOD9161061
Probable space group: P 21/M
;
_chemical_formula_sum "Si O2"
_cell_formula_units_Z 32
_cell_length_a 19.415117
_cell_length_b 7.650015
_cell_length_c 27.249551
_cell_angle_alpha 90.000000
_cell_angle_beta 156.024408
_cell_angle_gamma 90.000000
_cell_volume 1644.595786
_symmetry_space_group_name_H-M "P 21/M"
_symmetry_group_IT_number 11
_symmetry_cell_setting 'monoclinic'
loop_
_space_group_symop_operation_xyz
x,y,z
-x,1/2+y,-z
-x,-y,-z
x,1/2-y,z
loop_
_atom_site_type_symbol
_atom_site_label
_atom_site_fract_x
_atom_site_fract_y
_atom_site_fract_z
Si Si1 0.162018 0.543418 0.486638
Si Si2 0.403721 0.040427 0.386448
Si Si3 0.301706 0.538982 0.015423
Si Si4 0.470216 0.546808 0.924439
Si Si5 0.078494 0.040114 0.225255
Si Si6 0.269321 0.961510 0.451009
Si Si7 0.371415 0.462030 0.712004
Si Si8 0.849781 0.550221 0.343863
O O1 0.126116 0.750000 0.457154
O O2 0.193267 0.472067 0.452619
O O3 0.324667 0.521272 0.627336
O O4 0.005100 0.466526 0.415600
O O5 0.392058 0.250000 0.373117
O O6 0.213906 0.973123 0.273005
O O7 0.537308 0.975540 0.432909
O O8 0.500000 0.000000 0.500000
O O9 0.298380 0.750000 0.015434
O O10 0.367684 0.490156 0.004228
O O11 0.448413 0.479778 0.148592
O O12 0.112929 0.472671 0.902717
O O13 0.428785 0.750000 0.893706
O O14 0.311934 0.447581 0.797543
O O15 0.500000 0.500000 0.000000
O O16 0.071439 0.250000 0.215182
O O17 0.156294 0.005892 0.329930
O O18 0.275873 0.750000 0.457652
O O19 0.369939 0.250000 0.712446
O O20 0.224993 0.527038 0.654448
O O21 0.897887 0.750000 0.386886
#
# Coordination Sequence:
#
# PCOD9161061 Si02
#       8
#     4   4   4   4   4   4   4   4
#     4  10  20  32  49  71  97 126 159 203 243 285
#     4   8  14  27  46  68  96 127 155 187 234 288
#     4   9  19  35  51  71  96 123 162 205 241 281
#     4  11  22  34  49  69  97 131 161 194 239 287
#     4   9  17  30  51  74  96 125 160 196 234 288
#     4   9  18  30  45  72 104 128 153 192 244 291
#     4   9  18  33  50  66  91 125 162 207 247 282
#     4   9  19  35  50  68  94 125 163 204 242 281
#
# _framework density 19.457668999999999
#
# number of rings (size 3 to 8) (size 9 to 14) (size 15 to 20)
#    0.000    2.750    0.000    2.250    1.750    3.500 
#    0.000    0.000    0.000    0.750    0.000    0.000 
#    0.000    0.000    0.000    0.000    0.000    0.250 
#
# Total GULP energy -178367.311827 kJ/mol
# GULP energy per Si atom -5573.978495 kJ/mol
# Density = 1.941338 g / cm^3
# Si number density = 19.457669 Si / 1000 Ang^3
#
#
#
# Elastic Constant Matrix: (Units=GPa)
#
#
# Indices 1 2 3 4 5 6 
#
# 1 66.9885 2.9322 46.6609 0.0000 18.1558 0.0000
# 2 2.9322 46.4182 3.9554 0.0000 5.7186 0.0000
# 3 46.6609 3.9554 86.7773 0.0000 33.8015 0.0000
# 4 0.0000 0.0000 0.0000 14.7596 0.0000 -5.4211
# 5 18.1558 5.7186 33.8015 0.0000 31.8060 0.0000
# 6 0.0000 0.0000 0.0000 -5.4211 0.0000 8.7707
#
#
#
# Elastic Compliance Matrix: (Units=1/GPa)
#
#
# Indices 1 2 3 4 5 6 
#
# 1 0.023875 -0.000427 -0.012866 0.000000 0.000121 0.000000
# 2 -0.000427 0.022082 0.001151 0.000000 -0.004950 0.000000
# 3 -0.012866 0.001151 0.026635 0.000000 -0.021169 0.000000
# 4 0.000000 0.000000 0.000000 0.087651 0.000000 0.054176
# 5 0.000121 -0.004950 -0.021169 0.000000 0.054759 0.000000
# 6 0.000000 0.000000 0.000000 0.054176 0.000000 0.147503
#
#
# Mechanical properties :
#
#
# Convention : Reuss Voigt Hill
#
# Bulk Modulus (GPa) = 20.69983 34.14236 27.42109
# Shear Modulus (GPa) = 12.41032 20.84295 16.62663
#
# Velocity S-wave (km/s) = 2.52823 3.27646 2.92636
# Velocity P-wave (km/s) = 4.37997 5.64789 5.05385
#
# Compressibility (1/GPa) = 0.04830957
#
# Stress axis : x y z
#
# Youngs Moduli (GPa) = 41.88401 45.28587 37.54472
#
# Poissons Ratio (x) = 0.01933 0.48304
# Poissons Ratio (y) = 0.01787 -0.04321
# Poissons Ratio (z) = 0.53886 -0.05212
#
# Static dielectric constant tensor:
#      x y z
#    x 1.695030 0.000000 0.042070 
#    y 0.000000 1.713050 0.000000 
#    z 0.042070 0.000000 1.700060 
# 
# From -- ./inp_files/43795.got.cif
#   From: 2010.05.17/outbox.cif.g08.bks.cpg/sg11_22_cif.got.tgz:43795.got - 2010.06.03 12:22:45.
