data_PCOD9161649
_publ_section_title
;
Structure prediction by ZEFSAII (Michael W. Deem and Ramdas Pophale) SiO2 
 PCOD9161649
Probable space group: P 21/M
;
_chemical_formula_sum "Si O2"
_cell_formula_units_Z 32
_cell_length_a 16.671350
_cell_length_b 7.826634
_cell_length_c 11.747243
_cell_angle_alpha 90.000000
_cell_angle_beta 87.626628
_cell_angle_gamma 90.000000
_cell_volume 1531.471934
_symmetry_space_group_name_H-M "P 21/M"
_symmetry_group_IT_number 11
_symmetry_cell_setting 'monoclinic'
loop_
_space_group_symop_operation_xyz
x,y,z
-x,1/2+y,-z
-x,-y,-z
x,1/2-y,z
loop_
_atom_site_type_symbol
_atom_site_label
_atom_site_fract_x
_atom_site_fract_y
_atom_site_fract_z
Si Si1 0.271306 0.044717 0.675611
Si Si2 0.670750 0.456139 0.719330
Si Si3 0.411719 0.546087 0.045853
Si Si4 0.406826 0.546889 0.508851
Si Si5 0.169684 0.045214 0.157330
Si Si6 0.253143 0.450533 0.928944
Si Si7 0.122536 0.451608 0.549739
Si Si8 0.035071 0.457856 0.326731
O O1 0.262261 0.250000 0.680904
O O2 0.251934 0.975690 0.802280
O O3 0.206488 0.976150 0.588543
O O4 0.359971 0.010304 0.624254
O O5 0.671648 0.250000 0.714924
O O6 0.609406 0.507909 0.823777
O O7 0.640319 0.522589 0.599733
O O8 0.758602 0.511663 0.756717
O O9 0.401887 0.750000 0.040873
O O10 0.500000 0.500000 0.000000
O O11 0.343626 0.465376 0.970418
O O12 0.500000 0.500000 0.500000
O O13 0.401762 0.750000 0.504701
O O14 0.164161 0.250000 0.147395
O O15 0.085734 0.984732 0.214604
O O16 0.197748 0.974854 0.033233
O O17 0.232700 0.250000 0.921126
O O18 0.133457 0.250000 0.529501
O O19 0.084852 0.520339 0.435121
O O20 0.054893 0.477532 0.650279
O O21 0.032349 0.250000 0.328686
#
# Coordination Sequence:
#
# PCOD9161649 Si02
#       8
#     4   4   4   4   4   4   4   4
#     4  10  21  38  57  76 107 144 178 219 265 317
#     4   9  20  36  52  73 103 133 167 214 263 310
#     4  10  20  34  53  76 101 131 171 217 264 312
#     4  11  24  39  55  78 105 138 176 216 265 318
#     4   9  17  32  55  80 104 135 176 218 262 312
#     4   9  19  35  54  76 103 139 177 217 267 315
#     4   9  18  32  51  77 105 140 177 212 263 318
#     4   9  17  30  51  78 107 134 172 222 263 308
#
# _framework density 20.894932000000001
#
# number of rings (size 3 to 8) (size 9 to 14) (size 15 to 20)
#    0.000    2.500    0.000    1.500    1.750    4.000 
#    0.000    3.125    0.000    0.000    0.000    0.000 
#    0.000    0.000    0.000    0.000    0.000    0.000 
#
# Total GULP energy -178572.409241 kJ/mol
# GULP energy per Si atom -5580.387789 kJ/mol
# Density = 2.084737 g / cm^3
# Si number density = 20.894932 Si / 1000 Ang^3
#
#
#
# Elastic Constant Matrix: (Units=GPa)
#
#
# Indices 1 2 3 4 5 6 
#
# 1 72.4048 -14.4655 19.3710 0.0000 -22.6539 0.0000
# 2 -14.4655 24.7383 0.0247 0.0000 5.3649 0.0000
# 3 19.3710 0.0247 67.5631 0.0000 -4.8648 0.0000
# 4 0.0000 0.0000 0.0000 17.1601 0.0000 -4.2729
# 5 -22.6539 5.3649 -4.8648 0.0000 25.0404 0.0000
# 6 0.0000 0.0000 0.0000 -4.2729 0.0000 20.5321
#
#
#
# Elastic Compliance Matrix: (Units=1/GPa)
#
#
# Indices 1 2 3 4 5 6 
#
# 1 0.022508 0.009407 -0.005208 0.000000 0.017335 0.000000
# 2 0.009407 0.046355 -0.002856 0.000000 -0.001976 0.000000
# 3 -0.005208 -0.002856 0.016227 0.000000 -0.000948 0.000000
# 4 0.000000 0.000000 0.000000 0.061460 0.000000 0.012790
# 5 0.017335 -0.001976 -0.000948 0.000000 0.055858 0.000000
# 6 0.000000 0.000000 0.000000 0.012790 0.000000 0.051366
#
#
# Mechanical properties :
#
#
# Convention : Reuss Voigt Hill
#
# Bulk Modulus (GPa) = 11.39280 19.39630 15.39455
# Shear Modulus (GPa) = 17.83500 23.19825 20.51662
#
# Velocity S-wave (km/s) = 2.92474 3.33563 3.13692
# Velocity P-wave (km/s) = 4.10728 4.91306 4.52813
#
# Compressibility (1/GPa) = 0.08777473
#
# Stress axis : x y z
#
# Youngs Moduli (GPa) = 44.42875 21.57255 61.62523
#
# Poissons Ratio (x) = -0.20293 0.32097
# Poissons Ratio (y) = -0.41794 0.17602
# Poissons Ratio (z) = 0.23141 0.06162
#
# Static dielectric constant tensor:
#      x y z
#    x 1.670610 0.000000 -0.000190 
#    y 0.000000 1.762120 0.000000 
#    z -0.000190 0.000000 1.784900 
# 
# From -- ./inp_files/38162.got.cif
#   From: 2010.05.17/outbox.cif.g08.bks.cpg/sg11_20_cif.got.tgz:38162.got - 2010.06.03 12:22:45.
