data_PCOD9161743
_publ_section_title
;
Structure prediction by ZEFSAII (Michael W. Deem and Ramdas Pophale) SiO2 
 PCOD9161743
Probable space group: P 21/M
;
_chemical_formula_sum "Si O2"
_cell_formula_units_Z 32
_cell_length_a 8.937465
_cell_length_b 20.418839
_cell_length_c 13.590997
_cell_angle_alpha 90.000000
_cell_angle_beta 48.882834
_cell_angle_gamma 90.000000
_cell_volume 1868.542439
_symmetry_space_group_name_H-M "P 21/M"
_symmetry_group_IT_number 11
_symmetry_cell_setting 'monoclinic'
loop_
_space_group_symop_operation_xyz
x,y,z
-x,1/2+y,-z
-x,-y,-z
x,1/2-y,z
loop_
_atom_site_type_symbol
_atom_site_label
_atom_site_fract_x
_atom_site_fract_y
_atom_site_fract_z
Si Si1 0.420161 0.926891 0.151064
Si Si2 0.703025 0.174366 0.366988
Si Si3 0.918137 0.432381 0.151974
Si Si4 0.718499 0.826446 0.352752
Si Si5 0.277915 0.432381 0.151974
Si Si6 0.777711 0.573109 0.151064
Si Si7 0.937000 0.825634 0.633013
Si Si8 0.924003 0.326446 0.647248
O O1 0.585210 0.925984 0.164791
O O2 0.254553 0.873209 0.244530
O O3 0.325168 0.998988 0.183453
O O4 0.535623 0.914837 0.998275
O O5 0.696600 0.250000 0.335283
O O6 0.774508 0.124524 0.252524
O O7 0.489346 0.157311 0.504220
O O8 0.867235 0.170920 0.382765
O O9 0.807925 0.501012 0.183454
O O10 0.090669 0.441316 0.159331
O O11 0.032173 0.414837 0.001725
O O12 0.706611 0.750000 0.327437
O O13 0.756387 0.873209 0.244530
O O14 0.896351 0.833150 0.353649
O O15 0.220444 0.375476 0.252524
O O16 0.867167 0.750000 0.664717
O O17 0.997785 0.842689 0.495780
O O18 0.861484 0.250000 0.672563
#
# Coordination Sequence:
#
# PCOD9161743 Si02
#       8
#     4   4   4   4   4   4   4   4
#     4  10  20  34  54  78 104 136 172 210 253 303
#     4   9  18  34  55  77 101 131 169 212 256 302
#     4   9  19  35  54  77 105 135 169 211 256 302
#     4  10  21  36  53  75 104 136 170 210 255 303
#     4   9  19  35  54  77 105 135 169 211 256 302
#     4  10  20  34  54  78 104 136 172 210 253 303
#     4   9  18  34  55  77 101 131 169 212 256 302
#     4  10  21  36  53  75 104 136 170 210 255 303
#
# _framework density 17.125648999999999
#
# number of rings (size 3 to 8) (size 9 to 14) (size 15 to 20)
#    0.000    2.500    0.000    1.500    0.000    5.500 
#    0.000    2.500    0.000    3.000    0.000    0.000 
#    0.000    0.000    0.000    0.000    0.000    0.000 
#
# Total GULP energy -178550.294975 kJ/mol
# GULP energy per Si atom -5579.696718 kJ/mol
# Density = 1.708667 g / cm^3
# Si number density = 17.125649 Si / 1000 Ang^3
#
#
#
# Elastic Constant Matrix: (Units=GPa)
#
#
# Indices 1 2 3 4 5 6 
#
# 1 38.2080 58.7124 58.3604 0.0000 -4.4464 0.0000
# 2 58.7124 135.1328 126.2075 0.0000 -4.4718 0.0000
# 3 58.3604 126.2075 140.9183 0.0000 -2.3586 0.0000
# 4 0.0000 0.0000 0.0000 44.4534 0.0000 -3.1831
# 5 -4.4464 -4.4718 -2.3586 0.0000 23.3411 0.0000
# 6 0.0000 0.0000 0.0000 -3.1831 0.0000 -3.5871
#
#
#
# Elastic Compliance Matrix: (Units=1/GPa)
#
#
# Indices 1 2 3 4 5 6 
#
# 1 0.084577 -0.023573 -0.013744 0.000000 0.010206 0.000000
# 2 -0.023573 0.052313 -0.037059 0.000000 0.001787 0.000000
# 3 -0.013744 -0.037059 0.045894 0.000000 -0.005081 0.000000
# 4 0.000000 0.000000 0.000000 0.021151 0.000000 -0.018770
# 5 0.010206 0.001787 -0.005081 0.000000 0.044616 0.000000
# 6 0.000000 0.000000 0.000000 -0.018770 0.000000 -0.262123
#
#
# Mechanical properties :
#
#
# Convention : Reuss Voigt Hill
#
# Bulk Modulus (GPa) = 29.38488 88.97995 59.18241
# Shear Modulus (GPa) = 34.12410 17.57341 25.84875
#
# Velocity S-wave (km/s) = 4.46867 3.20683 3.88926
# Velocity P-wave (km/s) = 6.61974 8.11058 7.40279
#
# Compressibility (1/GPa) = 0.03403111
#
# Stress axis : x y z
#
# Youngs Moduli (GPa) = 11.82356 19.11577 21.78936
#
# Poissons Ratio (x) = 0.45061 0.29948
# Poissons Ratio (y) = 0.27871 0.80750
# Poissons Ratio (z) = 0.16250 0.70842
#
# Static dielectric constant tensor:
#      x y z
#    x 1.568950 0.000000 0.000850 
#    y 0.000000 1.557130 0.000000 
#    z 0.000850 0.000000 1.556140 
# 
# From -- ./inp_files/32797.got.cif
#   From: 2010.05.17/outbox.cif.g08.bks.cpg/sg11_17_cif.got.tgz:32797.got - 2010.06.03 12:22:45.
