data_PCOD9161972
_publ_section_title
;
Structure prediction by ZEFSAII (Michael W. Deem and Ramdas Pophale) SiO2 
 PCOD9161972
Probable space group: P 21/M
;
_chemical_formula_sum "Si O2"
_cell_formula_units_Z 24
_cell_length_a 8.260574
_cell_length_b 7.700565
_cell_length_c 15.556158
_cell_angle_alpha 90.000000
_cell_angle_beta 70.857409
_cell_angle_gamma 90.000000
_cell_volume 934.827686
_symmetry_space_group_name_H-M "P 21/M"
_symmetry_group_IT_number 11
_symmetry_cell_setting 'monoclinic'
loop_
_space_group_symop_operation_xyz
x,y,z
-x,1/2+y,-z
-x,-y,-z
x,1/2-y,z
loop_
_atom_site_type_symbol
_atom_site_label
_atom_site_fract_x
_atom_site_fract_y
_atom_site_fract_z
Si Si1 0.486685 0.960491 0.779713
Si Si2 0.743273 0.959692 0.890044
Si Si3 0.810924 0.449417 0.061795
Si Si4 0.697320 0.040460 0.450627
Si Si5 0.793397 0.047345 0.616016
Si Si6 0.958097 0.449546 0.276268
O O1 0.483380 0.750000 0.770435
O O2 0.605199 0.003253 0.841850
O O3 0.299183 0.027223 0.840576
O O4 0.595406 0.031455 0.681633
O O5 0.751461 0.750000 0.894331
O O6 0.292331 0.969961 0.009565
O O7 0.927362 0.024526 0.820723
O O8 0.823450 0.250000 0.081756
O O9 0.000000 0.500000 0.000000
O O10 0.713060 0.250000 0.446000
O O11 0.798368 0.978885 0.518129
O O12 0.786677 0.973599 0.348065
O O13 0.500000 0.000000 0.500000
O O14 0.840219 0.250000 0.610512
O O15 0.909696 0.950954 0.665547
O O16 0.921307 0.250000 0.259126
#
# Coordination Sequence:
#
# PCOD9161972 Si02
#       6
#     4   4   4   4   4   4
#     4   9  20  38  58  79 105 141 179 214 264 324
#     4   9  18  35  58  81 104 134 177 223 263 312
#     4  11  23  37  54  78 109 144 178 215 264 318
#     4  10  22  37  53  78 111 145 180 218 263 315
#     4  10  20  34  56  85 109 133 176 228 266 304
#     4   9  19  37  58  79 107 143 178 214 264 323
#
# _framework density 25.673181
#
# number of rings (size 3 to 8) (size 9 to 14) (size 15 to 20)
#    0.000    2.333    0.000    3.000    0.000    7.333 
#    0.000    5.000    0.000    0.000    0.000    0.000 
#    0.000    0.000    0.000    0.000    0.000    0.000 
#
# Total GULP energy -134182.894518 kJ/mol
# GULP energy per Si atom -5590.953938 kJ/mol
# Density = 2.561475 g / cm^3
# Si number density = 25.673181 Si / 1000 Ang^3
#
#
#
# Elastic Constant Matrix: (Units=GPa)
#
#
# Indices 1 2 3 4 5 6 
#
# 1 67.4269 4.5121 20.3709 0.0000 -6.1210 0.0000
# 2 4.5121 49.8678 8.0734 0.0000 -3.4548 0.0000
# 3 20.3709 8.0734 188.8333 0.0000 -16.5182 0.0000
# 4 0.0000 0.0000 0.0000 18.1944 0.0000 -4.1668
# 5 -6.1210 -3.4548 -16.5182 0.0000 56.5156 0.0000
# 6 0.0000 0.0000 0.0000 -4.1668 0.0000 19.5225
#
#
#
# Elastic Compliance Matrix: (Units=1/GPa)
#
#
# Indices 1 2 3 4 5 6 
#
# 1 0.015468 -0.001073 -0.001521 0.000000 0.001165 0.000000
# 2 -0.001073 0.020323 -0.000672 0.000000 0.000930 0.000000
# 3 -0.001521 -0.000672 0.005614 0.000000 0.001435 0.000000
# 4 0.000000 0.000000 0.000000 0.057787 0.000000 0.012334
# 5 0.001165 0.000930 0.001435 0.000000 0.018297 0.000000
# 6 0.000000 0.000000 0.000000 0.012334 0.000000 0.053855
#
#
# Mechanical properties :
#
#
# Convention : Reuss Voigt Hill
#
# Bulk Modulus (GPa) = 28.67422 41.33785 35.00604
# Shear Modulus (GPa) = 26.38532 37.05796 31.72164
#
# Velocity S-wave (km/s) = 3.20931 3.80340 3.51892
# Velocity P-wave (km/s) = 4.99261 5.95183 5.49320
#
# Compressibility (1/GPa) = 0.03487453
#
# Stress axis : x y z
#
# Youngs Moduli (GPa) = 64.65002 49.20469 178.12621
#
# Poissons Ratio (x) = 0.05278 0.27090
# Poissons Ratio (y) = 0.06934 0.11967
# Poissons Ratio (z) = 0.09832 0.03306
#
# Static dielectric constant tensor:
#      x y z
#    x 2.084480 0.000000 -0.017680 
#    y 0.000000 1.955670 0.000000 
#    z -0.017680 0.000000 1.982340 
# 
# From -- ./inp_files/63171.got.cif
#   From: 2010.05.17/outbox.cif.g08.bks.cpg/sg11_32_cif.got.tgz:63171.got - 2010.06.03 12:22:45.
