data_PCOD9161542
_publ_section_title
;
Structure prediction by ZEFSAII (Michael W. Deem and Ramdas Pophale) SiO2 
 PCOD9161542
Probable space group: P 21/M
;
_chemical_formula_sum "Si O2"
_cell_formula_units_Z 28
_cell_length_a 9.352514
_cell_length_b 7.532181
_cell_length_c 30.570463
_cell_angle_alpha 90.000000
_cell_angle_beta 140.791411
_cell_angle_gamma 90.000000
_cell_volume 1361.344865
_symmetry_space_group_name_H-M "P 21/M"
_symmetry_group_IT_number 11
_symmetry_cell_setting 'monoclinic'
loop_
_space_group_symop_operation_xyz
x,y,z
-x,1/2+y,-z
-x,-y,-z
x,1/2-y,z
loop_
_atom_site_type_symbol
_atom_site_label
_atom_site_fract_x
_atom_site_fract_y
_atom_site_fract_z
Si Si1 0.913710 0.536773 0.430960
Si Si2 0.671551 0.953544 0.146522
Si Si3 0.066653 0.531741 0.296415
Si Si4 0.008490 0.038851 0.148219
Si Si5 0.404971 0.537060 0.299829
Si Si6 0.763524 0.462888 0.569042
Si Si7 0.673651 0.037510 0.001279
O O1 0.904698 0.750000 0.424208
O O2 0.659596 0.468850 0.362877
O O3 0.000000 0.500000 0.500000
O O4 0.089181 0.468279 0.436510
O O5 0.619001 0.750000 0.145751
O O6 0.446713 0.034843 0.071048
O O7 0.819612 0.030230 0.221230
O O8 0.854004 0.953443 0.149736
O O9 0.062349 0.750000 0.294656
O O10 0.252807 0.474275 0.304703
O O11 0.141465 0.472578 0.361968
O O12 0.968675 0.250000 0.141530
O O13 0.265437 0.004868 0.222798
O O14 0.912383 0.977372 0.078429
O O15 0.413698 0.750000 0.305312
O O16 0.500000 0.500000 0.500000
O O17 0.787033 0.250000 0.575581
O O18 0.685242 0.250000 0.998104
O O19 0.500000 0.000000 0.000000
#
# Coordination Sequence:
#
# PCOD9161542 Si02
#       7
#     4   4   4   4   4   4   4
#     4  10  21  35  52  72  94 120 153 190 229 274
#     4   8  13  23  38  56  82 118 149 176 218 270
#     4   8  14  26  45  64  85 114 148 182 218 261
#     4   9  15  22  35  59  87 113 144 186 224 257
#     4   9  17  30  45  62  87 121 152 180 219 270
#     4  10  20  34  51  72  94 118 149 187 229 275
#     4   8  13  20  32  53  82 112 144 179 218 261
#
# _framework density 20.567896000000001
#
# number of rings (size 3 to 8) (size 9 to 14) (size 15 to 20)
#    0.000    3.143    0.000    2.143    0.000    2.857 
#    0.000    4.286    0.000    0.000    0.000    1.000 
#    0.000    0.000    0.000    0.000    0.000    0.000 
#
# Total GULP energy -155947.174666 kJ/mol
# GULP energy per Si atom -5569.541952 kJ/mol
# Density = 2.052108 g / cm^3
# Si number density = 20.567896 Si / 1000 Ang^3
#
#
#
# Elastic Constant Matrix: (Units=GPa)
#
#
# Indices 1 2 3 4 5 6 
#
# 1 74.0020 3.9376 85.2046 0.0000 -4.2313 0.0000
# 2 3.9376 56.5605 -0.6134 0.0000 -0.9188 0.0000
# 3 85.2046 -0.6134 270.6077 0.0000 -11.9121 0.0000
# 4 0.0000 0.0000 0.0000 18.2902 0.0000 -0.7497
# 5 -4.2313 -0.9188 -11.9121 0.0000 22.2767 0.0000
# 6 0.0000 0.0000 0.0000 -0.7497 0.0000 6.2516
#
#
#
# Elastic Compliance Matrix: (Units=1/GPa)
#
#
# Indices 1 2 3 4 5 6 
#
# 1 0.021338 -0.001552 -0.006704 0.000000 0.000404 0.000000
# 2 -0.001552 0.017806 0.000561 0.000000 0.000740 0.000000
# 3 -0.006704 0.000561 0.005891 0.000000 0.001900 0.000000
# 4 0.000000 0.000000 0.000000 0.054944 0.000000 0.006589
# 5 0.000404 0.000740 0.001900 0.000000 0.046013 0.000000
# 6 0.000000 0.000000 0.000000 0.006589 0.000000 0.160749
#
#
# Mechanical properties :
#
#
# Convention : Reuss Voigt Hill
#
# Bulk Modulus (GPa) = 33.73059 64.24752 48.98906
# Shear Modulus (GPa) = 15.05961 30.20644 22.63303
#
# Velocity S-wave (km/s) = 2.70884 3.83642 3.32083
# Velocity P-wave (km/s) = 5.12045 7.13644 6.21078
#
# Compressibility (1/GPa) = 0.02964668
#
# Stress axis : x y z
#
# Youngs Moduli (GPa) = 46.86466 56.15981 169.74357
#
# Poissons Ratio (x) = 0.08714 1.13801
# Poissons Ratio (y) = 0.07272 -0.09531
# Poissons Ratio (z) = 0.31420 -0.03153
#
# Static dielectric constant tensor:
#      x y z
#    x 1.717100 0.000000 -0.003120 
#    y 0.000000 1.563160 0.000000 
#    z -0.003120 0.000000 1.805890 
# 
# From -- ./inp_files/29089.got.cif
#   From: 2010.05.17/outbox.cif.g08.bks.cpg/sg11_15_cif.got.tgz:29089.got - 2010.06.03 12:22:45.
