data_PCOD9161058
_publ_section_title
;
Structure prediction by ZEFSAII (Michael W. Deem and Ramdas Pophale) SiO2 
 PCOD9161058
Probable space group: P 21/M
;
_chemical_formula_sum "Si O2"
_cell_formula_units_Z 28
_cell_length_a 9.302342
_cell_length_b 13.461807
_cell_length_c 12.726760
_cell_angle_alpha 90.000000
_cell_angle_beta 46.844611
_cell_angle_gamma 90.000000
_cell_volume 1162.624971
_symmetry_space_group_name_H-M "P 21/M"
_symmetry_group_IT_number 11
_symmetry_cell_setting 'monoclinic'
loop_
_space_group_symop_operation_xyz
x,y,z
-x,1/2+y,-z
-x,-y,-z
x,1/2-y,z
loop_
_atom_site_type_symbol
_atom_site_label
_atom_site_fract_x
_atom_site_fract_y
_atom_site_fract_z
Si Si1 0.499988 0.999991 0.201795
Si Si2 0.932477 0.859360 0.442594
Si Si3 0.115412 0.071999 0.305299
Si Si4 0.932535 0.640636 0.124928
Si Si5 0.460408 0.636568 0.402324
Si Si6 0.539679 0.363426 0.362649
Si Si7 0.884494 0.927991 0.920769
O O1 0.349085 0.060011 0.207021
O O2 0.387933 0.928586 0.341047
O O3 0.612131 0.071404 0.228923
O O4 0.650818 0.939960 0.056135
O O5 0.004929 0.750000 0.372753
O O6 0.699629 0.864075 0.528957
O O7 0.032517 0.959123 0.350263
O O8 0.950539 0.868491 0.559593
O O9 0.068849 0.116250 0.215564
O O10 0.005000 0.750000 0.122294
O O11 0.699718 0.635903 0.271443
O O12 0.032653 0.540876 0.117149
O O13 0.950454 0.631508 0.989934
O O14 0.397070 0.750000 0.424111
O O15 0.407890 0.601112 0.546067
O O16 0.603061 0.250000 0.321081
#
# Coordination Sequence:
#
# PCOD9161058 Si02
#       7
#     4   4   4   4   4   4   4
#     4  10  20  32  48  74 108 136 164 200 246 304
#     4   9  19  35  54  75  98 128 172 217 252 294
#     4  10  20  34  53  76 103 135 168 205 252 303
#     4   9  19  35  54  75  98 128 172 217 252 294
#     4   9  17  31  51  72  96 130 170 211 253 292
#     4   9  17  31  51  72  96 130 170 211 253 292
#     4  10  20  34  53  76 103 135 168 205 252 303
#
# _framework density 24.083434
#
# number of rings (size 3 to 8) (size 9 to 14) (size 15 to 20)
#    0.000    2.571    0.000    1.714    0.000    3.429 
#    0.000    1.429    0.000    5.143    0.000    0.000 
#    0.000    0.000    0.000    0.000    0.000    0.000 
#
# Total GULP energy -156505.077128 kJ/mol
# GULP energy per Si atom -5589.467040 kJ/mol
# Density = 2.402862 g / cm^3
# Si number density = 24.083434 Si / 1000 Ang^3
#
#
#
# Elastic Constant Matrix: (Units=GPa)
#
#
# Indices 1 2 3 4 5 6 
#
# 1 56.4335 -4.2355 51.5074 0.0000 11.9321 0.0000
# 2 -4.2355 94.1663 -0.0764 0.0000 6.3763 0.0000
# 3 51.5074 -0.0764 91.8399 0.0000 42.4396 0.0000
# 4 0.0000 0.0000 0.0000 13.1815 0.0000 -5.9113
# 5 11.9321 6.3763 42.4396 0.0000 53.3701 0.0000
# 6 0.0000 0.0000 0.0000 -5.9113 0.0000 16.9992
#
#
#
# Elastic Compliance Matrix: (Units=1/GPa)
#
#
# Indices 1 2 3 4 5 6 
#
# 1 0.042859 0.000894 -0.030921 0.000000 0.014900 0.000000
# 2 0.000894 0.010777 0.000308 0.000000 -0.001733 0.000000
# 3 -0.030921 0.000308 0.039607 0.000000 -0.024619 0.000000
# 4 0.000000 0.000000 0.000000 0.089880 0.000000 0.031255
# 5 0.014900 -0.001733 -0.024619 0.000000 0.035190 0.000000
# 6 0.000000 0.000000 0.000000 0.031255 0.000000 0.069695
#
#
# Mechanical properties :
#
#
# Convention : Reuss Voigt Hill
#
# Bulk Modulus (GPa) = 29.58142 37.42563 33.50352
# Shear Modulus (GPa) = 13.93862 29.72645 21.83253
#
# Velocity S-wave (km/s) = 2.40836 3.51709 3.01414
# Velocity P-wave (km/s) = 4.47696 5.66277 5.10441
#
# Compressibility (1/GPa) = 0.03380501
#
# Stress axis : x y z
#
# Youngs Moduli (GPa) = 23.33232 92.78778 25.24785
#
# Poissons Ratio (x) = -0.08293 0.78070
# Poissons Ratio (y) = -0.02085 -0.00779
# Poissons Ratio (z) = 0.72147 -0.02861
#
# Static dielectric constant tensor:
#      x y z
#    x 1.913610 0.000000 -0.006470 
#    y 0.000000 1.915100 0.000000 
#    z -0.006470 0.000000 1.909400 
# 
# From -- ./inp_files/17924.got.cif
#   From: 2010.05.17/outbox.cif.g08.bks.cpg/sg11_9_cif.got.tgz:17924.got - 2010.06.03 12:22:45.
