data_PCOD9161354
_publ_section_title
;
Structure prediction by ZEFSAII (Michael W. Deem and Ramdas Pophale) SiO2 
 PCOD9161354
Probable space group: P 21/M
;
_chemical_formula_sum "Si O2"
_cell_formula_units_Z 24
_cell_length_a 9.425924
_cell_length_b 7.609881
_cell_length_c 21.082022
_cell_angle_alpha 90.000000
_cell_angle_beta 48.761939
_cell_angle_gamma 90.000000
_cell_volume 1137.152536
_symmetry_space_group_name_H-M "P 21/M"
_symmetry_group_IT_number 11
_symmetry_cell_setting 'monoclinic'
loop_
_space_group_symop_operation_xyz
x,y,z
-x,1/2+y,-z
-x,-y,-z
x,1/2-y,z
loop_
_atom_site_type_symbol
_atom_site_label
_atom_site_fract_x
_atom_site_fract_y
_atom_site_fract_z
Si Si1 0.212318 0.539076 0.416231
Si Si2 0.720806 0.466136 0.747251
Si Si3 0.999025 0.459095 0.095616
Si Si4 0.949004 0.961412 0.256393
Si Si5 0.534770 0.538775 0.416256
Si Si6 0.685054 0.954214 0.091248
O O1 0.230606 0.750000 0.409158
O O2 0.252388 0.475716 0.333137
O O3 0.366063 0.471549 0.421314
O O4 0.000000 0.500000 0.500000
O O5 0.718286 0.250000 0.747496
O O6 0.521041 0.528447 0.834310
O O7 0.894408 0.523284 0.739918
O O8 0.990505 0.250000 0.087653
O O9 0.003095 0.494965 0.168570
O O10 0.812978 0.535199 0.116760
O O11 0.182028 0.529184 0.003578
O O12 0.943902 0.750000 0.263046
O O13 0.739691 0.028080 0.334239
O O14 0.500000 0.500000 0.500000
O O15 0.538029 0.750000 0.408545
O O16 0.655064 0.750000 0.083937
#
# Coordination Sequence:
#
# PCOD9161354 Si02
#       6
#     4   4   4   4   4   4
#     4  10  20  35  55  78 103 133 171 212 255 304
#     4   9  18  34  56  77  99 134 177 213 250 305
#     4  10  20  33  52  79 107 136 172 215 260 304
#     4  10  20  35  55  77 103 138 175 210 256 312
#     4  10  21  36  56  80 105 136 173 213 258 308
#     4   9  18  35  56  76 102 137 176 215 256 306
#
# _framework density 21.105346999999998
#
# number of rings (size 3 to 8) (size 9 to 14) (size 15 to 20)
#    0.000    2.333    0.000    2.500    0.000    6.667 
#    0.000    4.167    0.000    0.000    0.000    0.000 
#    0.000    0.000    0.000    0.000    0.000    0.000 
#
# Total GULP energy -134066.935492 kJ/mol
# GULP energy per Si atom -5586.122312 kJ/mol
# Density = 2.105731 g / cm^3
# Si number density = 21.105347 Si / 1000 Ang^3
#
#
#
# Elastic Constant Matrix: (Units=GPa)
#
#
# Indices 1 2 3 4 5 6 
#
# 1 201.1354 -0.4332 132.9325 0.0000 -6.6197 0.0000
# 2 -0.4332 43.6568 0.5907 0.0000 -6.3009 0.0000
# 3 132.9325 0.5907 166.6275 0.0000 -7.1546 0.0000
# 4 0.0000 0.0000 0.0000 21.8753 0.0000 4.3328
# 5 -6.6197 -6.3009 -7.1546 0.0000 45.5182 0.0000
# 6 0.0000 0.0000 0.0000 4.3328 0.0000 16.6504
#
#
#
# Elastic Compliance Matrix: (Units=1/GPa)
#
#
# Indices 1 2 3 4 5 6 
#
# 1 0.010522 0.000254 -0.008384 0.000000 0.000247 0.000000
# 2 0.000254 0.023380 -0.000146 0.000000 0.003250 0.000000
# 3 -0.008384 -0.000146 0.012723 0.000000 0.000760 0.000000
# 4 0.000000 0.000000 0.000000 0.048198 0.000000 -0.012542
# 5 0.000247 0.003250 0.000760 0.000000 0.022575 0.000000
# 6 0.000000 0.000000 0.000000 -0.012542 0.000000 0.063322
#
#
# Mechanical properties :
#
#
# Convention : Reuss Voigt Hill
#
# Bulk Modulus (GPa) = 33.25352 75.28884 54.27118
# Shear Modulus (GPa) = 24.12003 35.36409 29.74206
#
# Velocity S-wave (km/s) = 3.38426 4.09785 3.75803
# Velocity P-wave (km/s) = 5.57325 7.62497 6.67837
#
# Compressibility (1/GPa) = 0.03007200
#
# Stress axis : x y z
#
# Youngs Moduli (GPa) = 95.04087 42.77240 78.59479
#
# Poissons Ratio (x) = -0.01085 0.65897
# Poissons Ratio (y) = -0.02410 0.01144
# Poissons Ratio (z) = 0.79686 0.00623
#
# Static dielectric constant tensor:
#      x y z
#    x 1.720440 0.000000 -0.018080 
#    y 0.000000 1.816030 0.000000 
#    z -0.018080 0.000000 1.733880 
# 
# From -- ./inp_files/20614.got.cif
#   From: 2010.05.17/outbox.cif.g08.bks.cpg/sg11_11_cif.got.tgz:20614.got - 2010.06.03 12:22:45.
