data_PCOD9161708
_publ_section_title
;
Structure prediction by ZEFSAII (Michael W. Deem and Ramdas Pophale) SiO2 
 PCOD9161708
Probable space group: P 21/M
;
_chemical_formula_sum "Si O2"
_cell_formula_units_Z 32
_cell_length_a 25.263012
_cell_length_b 8.727081
_cell_length_c 25.127149
_cell_angle_alpha 90.000000
_cell_angle_beta 162.130224
_cell_angle_gamma 90.000000
_cell_volume 1699.925897
_symmetry_space_group_name_H-M "P 21/M"
_symmetry_group_IT_number 11
_symmetry_cell_setting 'monoclinic'
loop_
_space_group_symop_operation_xyz
x,y,z
-x,1/2+y,-z
-x,-y,-z
x,1/2-y,z
loop_
_atom_site_type_symbol
_atom_site_label
_atom_site_fract_x
_atom_site_fract_y
_atom_site_fract_z
Si Si1 0.863851 0.564924 0.037539
Si Si2 0.321041 0.565229 0.765856
Si Si3 0.521980 0.566238 0.347319
Si Si4 0.038541 0.935032 0.409167
Si Si5 0.693413 0.066719 0.124670
Si Si6 0.537947 0.066780 0.594161
Si Si7 0.147419 0.935195 0.394812
Si Si8 0.913042 0.567468 0.969024
O O1 0.844508 0.750000 0.019920
O O2 0.985756 0.517702 0.202896
O O3 0.669868 0.496404 0.850916
O O4 0.964846 0.525398 0.078959
O O5 0.332206 0.750000 0.774737
O O6 0.171969 0.515575 0.582856
O O7 0.282163 0.520388 0.789767
O O8 0.507402 0.497447 0.929776
O O9 0.514951 0.750000 0.337283
O O10 0.566333 0.525873 0.451876
O O11 0.673497 0.501775 0.455624
O O12 0.027749 0.750000 0.400246
O O13 0.108956 0.979944 0.418692
O O14 0.850855 0.001667 0.241587
O O15 0.691454 0.250000 0.120268
O O16 0.540509 0.250000 0.592329
O O17 0.500000 0.000000 0.500000
O O18 0.722197 0.997609 0.783861
O O19 0.158256 0.750000 0.402638
O O20 0.919178 0.750000 0.970520
O O21 0.000000 0.500000 0.000000
#
# Coordination Sequence:
#
# PCOD9161708 Si02
#       8
#     4   4   4   4   4   4   4   4
#     4   9  20  39  59  79 106 144 185 225 272 330
#     4   9  19  36  57  82 114 153 191 229 279 335
#     4  10  22  39  58  82 111 144 181 228 282 331
#     4  10  21  37  57  82 112 148 192 236 277 328
#     4  10  20  34  56  85 116 150 187 232 285 333
#     4  10  21  36  54  80 108 139 175 218 275 335
#     4  10  22  39  60  83 108 148 194 232 276 331
#     4  10  20  34  53  80 108 138 174 219 274 332
#
# _framework density 18.824349999999999
#
# number of rings (size 3 to 8) (size 9 to 14) (size 15 to 20)
#    0.000    2.250    0.000    1.875    1.750    5.000 
#    0.000    5.000    0.000    0.000    0.000    0.000 
#    0.000    0.000    0.000    0.000    0.000    0.000 
#
# Total GULP energy -178439.925599 kJ/mol
# GULP energy per Si atom -5576.247675 kJ/mol
# Density = 1.878150 g / cm^3
# Si number density = 18.824350 Si / 1000 Ang^3
#
#
#
# Elastic Constant Matrix: (Units=GPa)
#
#
# Indices 1 2 3 4 5 6 
#
# 1 93.4006 22.9302 28.2658 0.0000 34.9413 0.0000
# 2 22.9302 18.8537 8.6194 0.0000 8.4712 0.0000
# 3 28.2658 8.6194 55.7532 0.0000 20.2941 0.0000
# 4 0.0000 0.0000 0.0000 25.1992 0.0000 4.9678
# 5 34.9413 8.4712 20.2941 0.0000 30.4682 0.0000
# 6 0.0000 0.0000 0.0000 4.9678 0.0000 23.6985
#
#
#
# Elastic Compliance Matrix: (Units=1/GPa)
#
#
# Indices 1 2 3 4 5 6 
#
# 1 0.023485 -0.018546 -0.001469 0.000000 -0.020798 0.000000
# 2 -0.018546 0.076039 -0.003167 0.000000 0.002238 0.000000
# 3 -0.001469 -0.003167 0.024073 0.000000 -0.013470 0.000000
# 4 0.000000 0.000000 0.000000 0.041394 0.000000 -0.008677
# 5 -0.020798 0.002238 -0.013470 0.000000 0.065022 0.000000
# 6 0.000000 0.000000 0.000000 -0.008677 0.000000 0.044016
#
#
# Mechanical properties :
#
#
# Convention : Reuss Voigt Hill
#
# Bulk Modulus (GPa) = 12.94795 31.95980 22.45388
# Shear Modulus (GPa) = 14.44510 23.08599 18.76555
#
# Velocity S-wave (km/s) = 2.77314 3.50578 3.16076
# Velocity P-wave (km/s) = 4.14089 5.77946 5.02738
#
# Compressibility (1/GPa) = 0.07723229
#
# Stress axis : x y z
#
# Youngs Moduli (GPa) = 42.58089 13.15115 41.53965
#
# Poissons Ratio (x) = 0.24391 0.06101
# Poissons Ratio (y) = 0.78972 0.13157
# Poissons Ratio (z) = 0.06254 0.04165
#
# Static dielectric constant tensor:
#      x y z
#    x 1.703170 0.000000 -0.032160 
#    y 0.000000 1.631610 0.000000 
#    z -0.032160 0.000000 1.621210 
# 
# From -- ./inp_files/70015.got.cif
#   From: 2010.05.17/outbox.cif.g08.bks.cpg/sg11_36_cif.got.tgz:70015.got - 2010.06.03 12:22:45.
