data_PCOD9161830
_publ_section_title
;
Structure prediction by ZEFSAII (Michael W. Deem and Ramdas Pophale) SiO2 
 PCOD9161830
Probable space group: P 21/M
;
_chemical_formula_sum "Si O2"
_cell_formula_units_Z 28
_cell_length_a 9.525769
_cell_length_b 13.928222
_cell_length_c 11.704909
_cell_angle_alpha 90.000000
_cell_angle_beta 67.941252
_cell_angle_gamma 90.000000
_cell_volume 1439.293780
_symmetry_space_group_name_H-M "P 21/M"
_symmetry_group_IT_number 11
_symmetry_cell_setting 'monoclinic'
loop_
_space_group_symop_operation_xyz
x,y,z
-x,1/2+y,-z
-x,-y,-z
x,1/2-y,z
loop_
_atom_site_type_symbol
_atom_site_label
_atom_site_fract_x
_atom_site_fract_y
_atom_site_fract_z
Si Si1 0.152185 0.066886 0.541475
Si Si2 0.485502 0.360205 0.481667
Si Si3 0.763474 0.448033 0.293434
Si Si4 0.231395 0.141663 0.850463
Si Si5 0.940792 0.641557 0.860503
Si Si6 0.849248 0.486558 0.703786
Si Si7 0.428893 0.639868 0.279058
O O1 0.306423 0.123151 0.521252
O O2 0.138638 0.054682 0.411157
O O3 0.182512 0.963546 0.592449
O O4 0.988288 0.089563 0.645593
O O5 0.520872 0.250000 0.450203
O O6 0.589260 0.419021 0.361321
O O7 0.532874 0.380580 0.598637
O O8 0.790151 0.550547 0.224792
O O9 0.877897 0.374232 0.200647
O O10 0.213338 0.250000 0.805051
O O11 0.407826 0.135360 0.831956
O O12 0.122760 0.133792 0.992174
O O13 0.904741 0.750000 0.830346
O O14 0.871141 0.555179 0.805996
O O15 0.691810 0.431249 0.738720
O O16 0.374417 0.750000 0.290441
#
# Coordination Sequence:
#
# PCOD9161830 Si02
#       7
#     4   4   4   4   4   4   4
#     4  10  20  34  54  85 117 148 189 235 291 346
#     4  11  21  34  58  90 122 155 191 242 295 346
#     4  11  19  36  62  86 117 149 196 248 292 344
#     4  10  21  38  61  85 114 155 201 243 289 345
#     4  10  23  40  57  83 118 159 200 238 289 351
#     4  10  21  37  56  83 120 159 189 236 294 350
#     4  10  20  36  59  87 118 155 195 237 293 349
#
# _framework density 19.453986
#
# number of rings (size 3 to 8) (size 9 to 14) (size 15 to 20)
#    0.000    1.714    2.857    2.143    0.000    1.714 
#    0.000    2.143    0.000    1.714    0.000    0.000 
#    0.000    0.000    0.000    0.000    0.000    0.000 
#
# Total GULP energy -155983.661380 kJ/mol
# GULP energy per Si atom -5570.845049 kJ/mol
# Density = 1.940971 g / cm^3
# Si number density = 19.453986 Si / 1000 Ang^3
#
#
#
# Elastic Constant Matrix: (Units=GPa)
#
#
# Indices 1 2 3 4 5 6 
#
# 1 67.6454 29.0501 9.7041 0.0000 -4.1591 0.0000
# 2 29.0501 97.5124 36.6591 0.0000 -1.0456 0.0000
# 3 9.7041 36.6591 77.9414 0.0000 -11.7266 0.0000
# 4 0.0000 0.0000 0.0000 28.1780 0.0000 0.2873
# 5 -4.1591 -1.0456 -11.7266 0.0000 19.8346 0.0000
# 6 0.0000 0.0000 0.0000 0.2873 0.0000 31.1511
#
#
#
# Elastic Compliance Matrix: (Units=1/GPa)
#
#
# Indices 1 2 3 4 5 6 
#
# 1 0.017229 -0.005474 0.001021 0.000000 0.003928 0.000000
# 2 -0.005474 0.014371 -0.006736 0.000000 -0.004373 0.000000
# 3 0.001021 -0.006736 0.017398 0.000000 0.010145 0.000000
# 4 0.000000 0.000000 0.000000 0.035492 0.000000 -0.000327
# 5 0.003928 -0.004373 0.010145 0.000000 0.057008 0.000000
# 6 0.000000 0.000000 0.000000 -0.000327 0.000000 0.032105
#
#
# Mechanical properties :
#
#
# Convention : Reuss Voigt Hill
#
# Bulk Modulus (GPa) = 37.56723 43.76954 40.66838
# Shear Modulus (GPa) = 24.40762 27.01180 25.70971
#
# Velocity S-wave (km/s) = 3.54592 3.73030 3.63928
# Velocity P-wave (km/s) = 6.00978 6.41103 6.21365
#
# Compressibility (1/GPa) = 0.02661895
#
# Stress axis : x y z
#
# Youngs Moduli (GPa) = 58.04186 69.58294 57.47948
#
# Poissons Ratio (x) = 0.38092 -0.05866
# Poissons Ratio (y) = 0.31774 0.38717
# Poissons Ratio (z) = -0.05924 0.46869
#
# Static dielectric constant tensor:
#      x y z
#    x 1.727120 0.000000 -0.030000 
#    y 0.000000 1.715140 0.000000 
#    z -0.030000 0.000000 1.701460 
# 
# From -- ./inp_files/17670.got.cif
#   From: 2010.05.17/outbox.cif.g08.bks.cpg/sg11_9_cif.got.tgz:17670.got - 2010.06.03 12:22:45.
