data_PCOD9161003
_publ_section_title
;
Structure prediction by ZEFSAII (Michael W. Deem and Ramdas Pophale) SiO2 
 PCOD9161003
Probable space group: P 21/M
;
_chemical_formula_sum "Si O2"
_cell_formula_units_Z 32
_cell_length_a 15.329760
_cell_length_b 9.044662
_cell_length_c 15.534731
_cell_angle_alpha 90.000000
_cell_angle_beta 90.232478
_cell_angle_gamma 90.000000
_cell_volume 2153.911524
_symmetry_space_group_name_H-M "P 21/M"
_symmetry_group_IT_number 11
_symmetry_cell_setting 'monoclinic'
loop_
_space_group_symop_operation_xyz
x,y,z
-x,1/2+y,-z
-x,-y,-z
x,1/2-y,z
loop_
_atom_site_type_symbol
_atom_site_label
_atom_site_fract_x
_atom_site_fract_y
_atom_site_fract_z
Si Si1 0.269524 0.426451 0.593815
Si Si2 0.909420 0.081498 0.397758
Si Si3 0.395320 0.579551 0.088704
Si Si4 0.608715 0.425003 0.265085
Si Si5 0.399908 0.425015 0.267493
Si Si6 0.392521 0.079524 0.913693
Si Si7 0.277189 0.928214 0.406072
Si Si8 0.082284 0.581013 0.393036
O O1 0.273288 0.250000 0.587813
O O2 0.173209 0.479495 0.622760
O O3 0.339365 0.489470 0.661077
O O4 0.285476 0.498910 0.500151
O O5 0.893666 0.250000 0.370365
O O6 0.916174 0.081906 0.502262
O O7 0.001630 0.019778 0.365237
O O8 0.366767 0.750000 0.092709
O O9 0.372457 0.491490 0.175064
O O10 0.501358 0.580287 0.085162
O O11 0.364366 0.499718 0.001641
O O12 0.626851 0.250000 0.268976
O O13 0.504442 0.445379 0.275853
O O14 0.633084 0.490531 0.171802
O O15 0.382185 0.250000 0.271165
O O16 0.349717 0.509951 0.342495
O O17 0.363938 0.250000 0.909993
O O18 0.718945 0.250000 0.585781
O O19 0.180253 0.966231 0.369845
O O20 0.067749 0.750000 0.365042
#
# Coordination Sequence:
#
# PCOD9161003 Si02
#       8
#     4   4   4   4   4   4   4   4
#     4  11  21  32  46  63  86 117 152 187 221 260
#     4   9  16  27  44  64  85 109 138 176 221 264
#     4   9  16  27  44  64  86 112 141 177 222 266
#     4  10  20  33  46  62  87 118 152 187 222 261
#     4  10  20  32  46  64  87 117 152 188 222 259
#     4   9  16  27  44  65  86 109 141 180 222 265
#     4  10  20  33  47  63  87 118 151 186 221 260
#     4   8  15  27  43  63  84 108 139 176 219 263
#
# _framework density 14.856691
#
# number of rings (size 3 to 8) (size 9 to 14) (size 15 to 20)
#    0.000    2.500    0.000    4.125    0.000    8.500 
#    0.000    0.000    0.000    0.000    0.000    0.000 
#    0.000    1.000    0.000    3.750    0.000    6.000 
#
# Total GULP energy -178328.069271 kJ/mol
# GULP energy per Si atom -5572.752165 kJ/mol
# Density = 1.482288 g / cm^3
# Si number density = 14.856691 Si / 1000 Ang^3
#
#
#
# Elastic Constant Matrix: (Units=GPa)
#
#
# Indices 1 2 3 4 5 6 
#
# 1 50.8035 53.9251 43.7173 0.0000 1.3920 0.0000
# 2 53.9251 129.0062 61.3827 0.0000 1.4379 0.0000
# 3 43.7173 61.3827 88.5578 0.0000 2.4758 0.0000
# 4 0.0000 0.0000 0.0000 25.6496 0.0000 0.7163
# 5 1.3920 1.4379 2.4758 0.0000 -1.5419 0.0000
# 6 0.0000 0.0000 0.0000 0.7163 0.0000 20.8184
#
#
#
# Elastic Compliance Matrix: (Units=1/GPa)
#
#
# Indices 1 2 3 4 5 6 
#
# 1 0.043850 -0.011959 -0.013544 0.000000 0.006687 0.000000
# 2 -0.011959 0.014821 -0.004263 0.000000 -0.003820 0.000000
# 3 -0.013544 -0.004263 0.020467 0.000000 0.016661 0.000000
# 4 0.000000 0.000000 0.000000 0.039024 0.000000 -0.001343
# 5 0.006687 -0.003820 0.016661 0.000000 -0.619335 0.000000
# 6 0.000000 0.000000 0.000000 -0.001343 0.000000 0.048081
#
#
# Mechanical properties :
#
#
# Convention : Reuss Voigt Hill
#
# Bulk Modulus (GPa) = 51.00544 65.15752 58.08148
# Shear Modulus (GPa) = -12.91912 16.27472 1.67780
#
# Velocity S-wave (km/s) = -2.95207 3.31334 1.06385
# Velocity P-wave (km/s) = 4.77353 7.65443 6.37875
#
# Compressibility (1/GPa) = 0.01960575
#
# Stress axis : x y z
#
# Youngs Moduli (GPa) = 22.80508 67.46981 48.85893
#
# Poissons Ratio (x) = 0.80690 0.66176
# Poissons Ratio (y) = 0.27274 0.20827
# Poissons Ratio (z) = 0.30888 0.28760
#
# Static dielectric constant tensor:
#      x y z
#    x 1.488810 0.000000 -0.002010 
#    y 0.000000 1.499320 0.000000 
#    z -0.002010 0.000000 1.469160 
# 
# From -- ./inp_files/51275.got.cif
#   From: 2010.05.17/outbox.cif.g08.bks.cpg/sg11_26_cif.got.tgz:51275.got - 2010.06.03 12:22:45.
