data_PCOD9161522
_publ_section_title
;
Structure prediction by ZEFSAII (Michael W. Deem and Ramdas Pophale) SiO2 
 PCOD9161522
Probable space group: P 21/M
;
_chemical_formula_sum "Si O2"
_cell_formula_units_Z 24
_cell_length_a 11.661458
_cell_length_b 8.600088
_cell_length_c 20.426828
_cell_angle_alpha 90.000000
_cell_angle_beta 136.010742
_cell_angle_gamma 90.000000
_cell_volume 1422.799229
_symmetry_space_group_name_H-M "P 21/M"
_symmetry_group_IT_number 11
_symmetry_cell_setting 'monoclinic'
loop_
_space_group_symop_operation_xyz
x,y,z
-x,1/2+y,-z
-x,-y,-z
x,1/2-y,z
loop_
_atom_site_type_symbol
_atom_site_label
_atom_site_fract_x
_atom_site_fract_y
_atom_site_fract_z
Si Si1 0.815500 0.439088 0.781493
Si Si2 0.229372 0.437779 0.642221
Si Si3 0.889087 0.563680 0.014215
Si Si4 0.316923 0.563622 0.413193
Si Si5 0.890422 0.564373 0.551677
Si Si6 0.398620 0.562383 0.179891
O O1 0.810865 0.250000 0.779073
O O2 0.753643 0.493184 0.685720
O O3 0.693814 0.488020 0.790780
O O4 0.002996 0.483273 0.878146
O O5 0.218808 0.250000 0.642269
O O6 0.199664 0.479612 0.553730
O O7 0.411132 0.486681 0.739643
O O8 0.079149 0.510441 0.620880
O O9 0.884166 0.750000 0.009529
O O10 0.708093 0.498752 0.924959
O O11 0.000000 0.500000 0.000000
O O12 0.500000 0.500000 0.500000
O O13 0.324012 0.750000 0.414024
O O14 0.199843 0.511288 0.424116
O O15 0.882170 0.750000 0.554216
O O16 0.393543 0.750000 0.176835
#
# Coordination Sequence:
#
# PCOD9161522 Si02
#       6
#     4   4   4   4   4   4
#     4   8  16  30  47  67  96 130 155 185 234 286
#     4   9  18  33  52  71  96 129 159 192 238 288
#     4   9  16  28  45  67  94 123 156 193 235 278
#     4  11  21  34  51  71  97 129 162 193 233 284
#     4  10  20  34  50  71  98 126 160 199 236 277
#     4   9  16  29  49  72  96 122 155 193 236 282
#
# _framework density 16.868155999999999
#
# number of rings (size 3 to 8) (size 9 to 14) (size 15 to 20)
#    0.000    2.667    0.000    3.500    0.000    4.000 
#    0.000   11.667    0.000    1.000    0.000    0.000 
#    0.000    0.000    0.000    0.000    0.000    0.000 
#
# Total GULP energy -133749.171781 kJ/mol
# GULP energy per Si atom -5572.882158 kJ/mol
# Density = 1.682976 g / cm^3
# Si number density = 16.868156 Si / 1000 Ang^3
#
#
#
# Elastic Constant Matrix: (Units=GPa)
#
#
# Indices 1 2 3 4 5 6 
#
# 1 86.5388 25.4413 79.0105 0.0000 5.2430 0.0000
# 2 25.4413 27.2610 35.6298 0.0000 4.4413 0.0000
# 3 79.0105 35.6298 187.0344 0.0000 19.9126 0.0000
# 4 0.0000 0.0000 0.0000 27.7913 0.0000 4.3164
# 5 5.2430 4.4413 19.9126 0.0000 27.7296 0.0000
# 6 0.0000 0.0000 0.0000 4.3164 0.0000 25.0695
#
#
#
# Elastic Compliance Matrix: (Units=1/GPa)
#
#
# Indices 1 2 3 4 5 6 
#
# 1 0.021092 -0.010795 -0.007161 0.000000 0.002883 0.000000
# 2 -0.010795 0.054408 -0.005516 0.000000 -0.002712 0.000000
# 3 -0.007161 -0.005516 0.009944 0.000000 -0.004904 0.000000
# 4 0.000000 0.000000 0.000000 0.036971 0.000000 -0.006366
# 5 0.002883 -0.002712 -0.004904 0.000000 0.039473 0.000000
# 6 0.000000 0.000000 0.000000 -0.006366 0.000000 0.040985
#
#
# Mechanical properties :
#
#
# Convention : Reuss Voigt Hill
#
# Bulk Modulus (GPa) = 25.97298 64.55528 45.26413
# Shear Modulus (GPa) = 19.03676 26.83492 22.93584
#
# Velocity S-wave (km/s) = 3.36305 3.99289 3.69143
# Velocity P-wave (km/s) = 5.52370 7.72082 6.71276
#
# Compressibility (1/GPa) = 0.03850155
#
# Stress axis : x y z
#
# Youngs Moduli (GPa) = 47.41105 18.37981 100.55998
#
# Poissons Ratio (x) = 0.19841 0.72007
# Poissons Ratio (y) = 0.51180 0.55465
# Poissons Ratio (z) = 0.33949 0.10138
#
# Static dielectric constant tensor:
#      x y z
#    x 1.563080 0.000000 0.009960 
#    y 0.000000 1.576140 0.000000 
#    z 0.009960 0.000000 1.602400 
# 
# From -- ./inp_files/42255.got.cif
#   From: 2010.05.17/outbox.cif.g08.bks.cpg/sg11_22_cif.got.tgz:42255.got - 2010.06.03 12:22:45.
