data_PCOD9161033
_publ_section_title
;
Structure prediction by ZEFSAII (Michael W. Deem and Ramdas Pophale) SiO2 
 PCOD9161033
Probable space group: P 21/M
;
_chemical_formula_sum "Si O2"
_cell_formula_units_Z 32
_cell_length_a 21.939250
_cell_length_b 9.189628
_cell_length_c 21.986365
_cell_angle_alpha 90.000000
_cell_angle_beta 154.352861
_cell_angle_gamma 90.000000
_cell_volume 1918.615974
_symmetry_space_group_name_H-M "P 21/M"
_symmetry_group_IT_number 11
_symmetry_cell_setting 'monoclinic'
loop_
_space_group_symop_operation_xyz
x,y,z
-x,1/2+y,-z
-x,-y,-z
x,1/2-y,z
loop_
_atom_site_type_symbol
_atom_site_label
_atom_site_fract_x
_atom_site_fract_y
_atom_site_fract_z
Si Si1 0.310661 0.075394 0.504960
Si Si2 0.615763 0.924805 0.562799
Si Si3 0.392512 0.923551 0.828410
Si Si4 0.239370 0.076415 0.936567
Si Si5 0.937695 0.924189 0.885090
Si Si6 0.436437 0.577948 0.735006
Si Si7 0.011892 0.574900 0.816767
Si Si8 0.689969 0.422285 0.117954
O O1 0.320004 0.250000 0.516659
O O2 0.386534 0.030068 0.510255
O O3 0.145178 0.039544 0.348598
O O4 0.377869 0.006821 0.624931
O O5 0.599151 0.750000 0.549953
O O6 0.772656 0.958748 0.727911
O O7 0.500000 0.000000 0.500000
O O8 0.431666 0.750000 0.866743
O O9 0.352585 0.952028 0.722655
O O10 0.285835 0.949497 0.788226
O O11 0.530018 0.021422 0.964035
O O12 0.224480 0.250000 0.920407
O O13 0.223086 0.008257 0.854550
O O14 0.399335 0.044319 0.103019
O O15 0.128861 0.006064 0.883080
O O16 0.949266 0.750000 0.901528
O O17 0.013333 0.964619 0.889613
O O18 0.000000 0.000000 0.000000
O O19 0.427190 0.750000 0.714718
O O20 0.029543 0.750000 0.828170
O O21 0.700154 0.250000 0.116089
#
# Coordination Sequence:
#
# PCOD9161033 Si02
#       8
#     4   4   4   4   4   4   4   4
#     4   9  19  35  52  70  95 127 162 197 234 281
#     4   9  19  35  52  72  98 126 157 195 237 281
#     4   8  15  27  42  65  97 127 157 197 241 283
#     4  10  20  32  47  72 102 127 158 202 244 284
#     4   9  19  35  53  73  98 126 158 197 239 284
#     4   9  18  31  47  71 101 127 155 195 240 283
#     4   9  19  36  53  69  94 129 164 197 237 285
#     4   9  15  25  44  67  93 127 161 195 239 286
#
# _framework density 16.678688999999999
#
# number of rings (size 3 to 8) (size 9 to 14) (size 15 to 20)
#    0.000    3.000    0.000    3.000    0.000    6.000 
#    0.000    7.500    0.000    0.750    0.000    0.000 
#    0.000    0.000    0.000    0.000    0.000    0.000 
#
# Total GULP energy -178190.749179 kJ/mol
# GULP energy per Si atom -5568.460912 kJ/mol
# Density = 1.664073 g / cm^3
# Si number density = 16.678689 Si / 1000 Ang^3
#
#
#
# Elastic Constant Matrix: (Units=GPa)
#
#
# Indices 1 2 3 4 5 6 
#
# 1 197.2435 70.5938 79.4645 0.0000 -17.2053 0.0000
# 2 70.5938 41.2948 37.4462 0.0000 -7.1974 0.0000
# 3 79.4645 37.4462 55.0569 0.0000 -21.4106 0.0000
# 4 0.0000 0.0000 0.0000 28.3802 0.0000 -2.7072
# 5 -17.2053 -7.1974 -21.4106 0.0000 23.4983 0.0000
# 6 0.0000 0.0000 0.0000 -2.7072 0.0000 34.9572
#
#
#
# Elastic Compliance Matrix: (Units=1/GPa)
#
#
# Indices 1 2 3 4 5 6 
#
# 1 0.016080 -0.012992 -0.017565 0.000000 -0.008210 0.000000
# 2 -0.012992 0.092121 -0.056732 0.000000 -0.032988 0.000000
# 3 -0.017565 -0.056732 0.108945 0.000000 0.069028 0.000000
# 4 0.000000 0.000000 0.000000 0.035498 0.000000 0.002749
# 5 -0.008210 -0.032988 0.069028 0.000000 0.089336 0.000000
# 6 0.000000 0.000000 0.000000 0.002749 0.000000 0.028819
#
#
# Mechanical properties :
#
#
# Convention : Reuss Voigt Hill
#
# Bulk Modulus (GPa) = 23.49225 74.28936 48.89080
# Shear Modulus (GPa) = 8.93548 24.43984 16.68766
#
# Velocity S-wave (km/s) = 2.31712 3.83212 3.16656
# Velocity P-wave (km/s) = 4.61243 8.01364 6.53808
#
# Compressibility (1/GPa) = 0.04256724
#
# Stress axis : x y z
#
# Youngs Moduli (GPa) = 62.18842 10.85532 9.17895
#
# Poissons Ratio (x) = 0.14103 0.16123
# Poissons Ratio (y) = 0.80794 0.52074
# Poissons Ratio (z) = 1.09237 0.61584
#
# Static dielectric constant tensor:
#      x y z
#    x 1.586700 0.000000 -0.011550 
#    y 0.000000 1.551060 0.000000 
#    z -0.011550 0.000000 1.543160 
# 
# From -- ./inp_files/66398.got.cif
#   From: 2010.05.17/outbox.cif.g08.bks.cpg/sg11_34_cif.got.tgz:66398.got - 2010.06.03 12:22:45.
