data_PCOD9161446
_publ_section_title
;
Structure prediction by ZEFSAII (Michael W. Deem and Ramdas Pophale) SiO2 
 PCOD9161446
Probable space group: P 21/M
;
_chemical_formula_sum "Si O2"
_cell_formula_units_Z 32
_cell_length_a 12.864908
_cell_length_b 8.371512
_cell_length_c 23.383661
_cell_angle_alpha 90.000000
_cell_angle_beta 142.128243
_cell_angle_gamma 90.000000
_cell_volume 1546.030338
_symmetry_space_group_name_H-M "P 21/M"
_symmetry_group_IT_number 11
_symmetry_cell_setting 'monoclinic'
loop_
_space_group_symop_operation_xyz
x,y,z
-x,1/2+y,-z
-x,-y,-z
x,1/2-y,z
loop_
_atom_site_type_symbol
_atom_site_label
_atom_site_fract_x
_atom_site_fract_y
_atom_site_fract_z
Si Si1 0.819502 0.942597 0.306341
Si Si2 0.424174 0.940762 0.710088
Si Si3 0.714818 0.557292 0.139869
Si Si4 0.666200 0.058951 0.998052
Si Si5 0.177750 0.942145 0.501772
Si Si6 0.050555 0.939114 0.959645
Si Si7 0.471289 0.058489 0.551578
Si Si8 0.717748 0.060137 0.761138
O O1 0.811104 0.750000 0.306823
O O2 0.830772 0.982960 0.244272
O O3 0.987240 0.002604 0.411433
O O4 0.649601 0.009151 0.261147
O O5 0.442778 0.750000 0.714698
O O6 0.278546 0.995863 0.601821
O O7 0.595561 0.019600 0.761796
O O8 0.712298 0.750000 0.132158
O O9 0.525824 0.501243 0.076319
O O10 0.103093 0.479557 0.149812
O O11 0.654990 0.250000 0.987097
O O12 0.775941 0.994967 0.992843
O O13 0.757431 0.017874 0.097563
O O14 0.170198 0.750000 0.500273
O O15 0.295275 0.993227 0.500147
O O16 0.931610 0.250000 0.028098
O O17 0.000000 0.000000 0.000000
O O18 0.468183 0.250000 0.551491
O O19 0.616582 0.006168 0.660246
O O20 0.500000 0.000000 0.500000
O O21 0.741083 0.250000 0.768221
#
# Coordination Sequence:
#
# PCOD9161446 Si02
#       8
#     4   4   4   4   4   4   4   4
#     4  10  20  33  54  82 111 147 186 228 280 336
#     4  10  20  34  54  80 113 149 186 231 281 337
#     4   9  19  36  58  82 108 146 189 229 280 338
#     4   9  20  39  58  79 112 147 183 233 284 334
#     4   9  19  35  52  77 113 147 184 230 278 334
#     4  11  24  40  61  90 121 155 197 244 297 350
#     4  10  21  37  59  83 110 150 192 236 292 350
#     4  10  22  40  59  82 113 151 195 240 292 351
#
# _framework density 20.698170000000001
#
# number of rings (size 3 to 8) (size 9 to 14) (size 15 to 20)
#    0.000    2.250    0.000    1.875    1.750    5.000 
#    0.000    3.750    0.000    0.000    0.000    0.000 
#    0.000    0.000    0.000    0.000    0.000    0.000 
#
# Total GULP energy -178669.580115 kJ/mol
# GULP energy per Si atom -5583.424379 kJ/mol
# Density = 2.065106 g / cm^3
# Si number density = 20.698170 Si / 1000 Ang^3
#
#
#
# Elastic Constant Matrix: (Units=GPa)
#
#
# Indices 1 2 3 4 5 6 
#
# 1 94.7521 -2.2386 11.6147 0.0000 -13.7264 0.0000
# 2 -2.2386 4.3595 -2.3885 0.0000 0.9113 0.0000
# 3 11.6147 -2.3885 28.2121 0.0000 -3.1826 0.0000
# 4 0.0000 0.0000 0.0000 24.3759 0.0000 -4.2705
# 5 -13.7264 0.9113 -3.1826 0.0000 29.1851 0.0000
# 6 0.0000 0.0000 0.0000 -4.2705 0.0000 28.0191
#
#
#
# Elastic Compliance Matrix: (Units=1/GPa)
#
#
# Indices 1 2 3 4 5 6 
#
# 1 0.011850 0.002799 -0.004073 0.000000 0.005042 0.000000
# 2 0.002799 0.242034 0.018867 0.000000 -0.004183 0.000000
# 3 -0.004073 0.018867 0.038916 0.000000 0.001739 0.000000
# 4 0.000000 0.000000 0.000000 0.042150 0.000000 0.006424
# 5 0.005042 -0.004183 0.001739 0.000000 0.036955 0.000000
# 6 0.000000 0.000000 0.000000 0.006424 0.000000 0.036669
#
#
# Mechanical properties :
#
#
# Convention : Reuss Voigt Hill
#
# Bulk Modulus (GPa) = 3.04890 15.69988 9.37439
# Shear Modulus (GPa) = 10.35808 24.33843 17.34826
#
# Velocity S-wave (km/s) = 2.23947 3.43282 2.89823
# Velocity P-wave (km/s) = 2.85713 4.82845 3.96719
#
# Compressibility (1/GPa) = 0.32798681
#
# Stress axis : x y z
#
# Youngs Moduli (GPa) = 84.39119 4.13166 25.69642
#
# Poissons Ratio (x) = -0.01157 0.10465
# Poissons Ratio (y) = -0.23625 -0.48481
# Poissons Ratio (z) = 0.34369 -0.07795
#
# Static dielectric constant tensor:
#      x y z
#    x 1.748000 0.000000 0.002730 
#    y 0.000000 1.706170 0.000000 
#    z 0.002730 0.000000 1.779830 
# 
# From -- ./inp_files/64220.got.cif
#   From: 2010.05.17/outbox.cif.g08.bks.cpg/sg11_33_cif.got.tgz:64220.got - 2010.06.03 12:22:45.
