data_PCOD9161034
_publ_section_title
;
Structure prediction by ZEFSAII (Michael W. Deem and Ramdas Pophale) SiO2 
 PCOD9161034
Probable space group: P 21/M
;
_chemical_formula_sum "Si O2"
_cell_formula_units_Z 28
_cell_length_a 17.125306
_cell_length_b 7.580292
_cell_length_c 18.180927
_cell_angle_alpha 90.000000
_cell_angle_beta 26.973609
_cell_angle_gamma 90.000000
_cell_volume 1070.518652
_symmetry_space_group_name_H-M "P 21/M"
_symmetry_group_IT_number 11
_symmetry_cell_setting 'monoclinic'
loop_
_space_group_symop_operation_xyz
x,y,z
-x,1/2+y,-z
-x,-y,-z
x,1/2-y,z
loop_
_atom_site_type_symbol
_atom_site_label
_atom_site_fract_x
_atom_site_fract_y
_atom_site_fract_z
Si Si1 0.752549 0.550071 0.227698
Si Si2 0.639400 0.966179 0.477740
Si Si3 0.810765 0.552639 0.633650
Si Si4 0.807235 0.040469 0.023424
Si Si5 0.757129 0.038196 0.835052
Si Si6 0.058038 0.035001 0.682905
Si Si7 0.497067 0.535153 0.815254
O O1 0.806100 0.750000 0.193337
O O2 0.551752 0.536961 0.371595
O O3 0.744050 0.472644 0.316798
O O4 0.848190 0.486651 0.074287
O O5 0.626155 0.750000 0.487545
O O6 0.748240 0.015680 0.458418
O O7 0.832559 0.750000 0.588231
O O8 0.712968 0.546240 0.794353
O O9 0.684892 0.464396 0.679902
O O10 0.000000 0.500000 0.500000
O O11 0.801248 0.250000 0.018172
O O12 0.619047 0.973126 0.155467
O O13 0.944129 0.976483 0.848892
O O14 0.760374 0.250000 0.821854
O O15 0.946463 0.979811 0.706104
O O16 0.625130 0.000946 0.011442
O O17 0.057752 0.250000 0.681443
O O18 0.512772 0.750000 0.795019
#
# Coordination Sequence:
#
# PCOD9161034 Si02
#       7
#     4   4   4   4   4   4   4
#     4  10  20  32  47  72 103 131 162 201 243 286
#     4   9  18  34  52  69  95 133 169 198 237 291
#     4  11  22  35  50  73 103 132 163 198 240 288
#     4   9  17  33  55  75  95 125 165 202 240 289
#     4   9  17  34  57  77  96 122 161 206 247 286
#     4   8  16  32  55  77  95 123 165 204 238 288
#     4   8  17  34  55  74  95 128 166 199 236 292
#
# _framework density 26.155543999999999
#
# number of rings (size 3 to 8) (size 9 to 14) (size 15 to 20)
#    0.000    2.857    0.000    3.000    0.000    2.286 
#    0.000   12.143    0.000    0.000    0.000    0.000 
#    0.000    0.000    0.000    0.000    0.000    0.000 
#
# Total GULP energy -156387.279551 kJ/mol
# GULP energy per Si atom -5585.259984 kJ/mol
# Density = 2.609601 g / cm^3
# Si number density = 26.155544 Si / 1000 Ang^3
#
#
#
# Elastic Constant Matrix: (Units=GPa)
#
#
# Indices 1 2 3 4 5 6 
#
# 1 179.1779 -5.4941 33.1259 0.0000 -15.5489 0.0000
# 2 -5.4941 45.9025 4.5493 0.0000 -3.5185 0.0000
# 3 33.1259 4.5493 55.5794 0.0000 -10.3008 0.0000
# 4 0.0000 0.0000 0.0000 17.9775 0.0000 7.1881
# 5 -15.5489 -3.5185 -10.3008 0.0000 60.5146 0.0000
# 6 0.0000 0.0000 0.0000 7.1881 0.0000 2.0328
#
#
#
# Elastic Compliance Matrix: (Units=1/GPa)
#
#
# Indices 1 2 3 4 5 6 
#
# 1 0.006399 0.001217 -0.003713 0.000000 0.001083 0.000000
# 2 0.001217 0.022254 -0.002322 0.000000 0.001211 0.000000
# 3 -0.003713 -0.002322 0.020851 0.000000 0.002460 0.000000
# 4 0.000000 0.000000 0.000000 -0.134404 0.000000 0.475266
# 5 0.001083 0.001211 0.002460 0.000000 0.017292 0.000000
# 6 0.000000 0.000000 0.000000 0.475266 0.000000 -1.188648
#
#
# Mechanical properties :
#
#
# Convention : Reuss Voigt Hill
#
# Bulk Modulus (GPa) = 25.08302 38.33578 31.70940
# Shear Modulus (GPa) = -4.05406 32.67023 14.30808
#
# Velocity S-wave (km/s) = -1.24633 3.53806 2.34142
# Velocity P-wave (km/s) = 2.74584 5.60171 4.41128
#
# Compressibility (1/GPa) = 0.03986761
#
# Stress axis : x y z
#
# Youngs Moduli (GPa) = 156.28166 44.93583 47.95915
#
# Poissons Ratio (x) = -0.05468 0.17805
# Poissons Ratio (y) = -0.19017 0.11138
# Poissons Ratio (z) = 0.58021 0.10435
#
# Static dielectric constant tensor:
#      x y z
#    x 2.039680 0.000000 -0.005140 
#    y 0.000000 2.000950 0.000000 
#    z -0.005140 0.000000 2.160080 
# 
# From -- ./inp_files/65988.got.cif
#   From: 2010.05.17/outbox.cif.g08.bks.cpg/sg11_33_cif.got.tgz:65988.got - 2010.06.03 12:22:45.
