data_PCOD9161397
_publ_section_title
;
Structure prediction by ZEFSAII (Michael W. Deem and Ramdas Pophale) SiO2 
 PCOD9161397
Probable space group: P 21/M
;
_chemical_formula_sum "Si O2"
_cell_formula_units_Z 32
_cell_length_a 23.375709
_cell_length_b 9.302622
_cell_length_c 15.888498
_cell_angle_alpha 90.000000
_cell_angle_beta 30.157566
_cell_angle_gamma 90.000000
_cell_volume 1735.741734
_symmetry_space_group_name_H-M "P 21/M"
_symmetry_group_IT_number 11
_symmetry_cell_setting 'monoclinic'
loop_
_space_group_symop_operation_xyz
x,y,z
-x,1/2+y,-z
-x,-y,-z
x,1/2-y,z
loop_
_atom_site_type_symbol
_atom_site_label
_atom_site_fract_x
_atom_site_fract_y
_atom_site_fract_z
Si Si1 0.173640 0.417697 0.819101
Si Si2 0.564065 0.577041 0.684423
Si Si3 0.961874 0.578885 0.840330
Si Si4 0.576775 0.422224 0.971130
Si Si5 0.162897 0.579244 0.343000
Si Si6 0.947293 0.419479 0.693784
Si Si7 0.555716 0.916933 0.505897
Si Si8 0.197580 0.921507 0.617647
O O1 0.149302 0.250000 0.828583
O O2 0.307165 0.426510 0.672391
O O3 0.156761 0.517771 0.759901
O O4 0.099912 0.458192 0.993715
O O5 0.583639 0.750000 0.656125
O O6 0.526215 0.532337 0.638406
O O7 0.683581 0.499809 0.552533
O O8 0.473524 0.546488 0.872247
O O9 0.948698 0.750000 0.844606
O O10 0.096275 0.548111 0.681096
O O11 0.912374 0.494126 0.824638
O O12 0.570133 0.250000 0.967804
O O13 0.709148 0.463474 0.796896
O O14 0.500000 0.500000 0.000000
O O15 0.148338 0.750000 0.379080
O O16 0.139571 0.558574 0.273087
O O17 0.065924 0.491151 0.513923
O O18 0.961705 0.250000 0.687331
O O19 0.523000 0.750000 0.541179
O O20 0.500000 0.000000 0.500000
O O21 0.213482 0.750000 0.601523
#
# Coordination Sequence:
#
# PCOD9161397 Si02
#       8
#     4   4   4   4   4   4   4   4
#     4   9  19  36  53  73 106 145 179 215 268 325
#     4   9  20  38  55  76 109 147 181 219 274 335
#     4  10  21  35  53  79 110 142 177 222 275 324
#     4  10  22  39  60  84 112 147 187 232 282 332
#     4   9  20  40  59  78 112 147 179 229 284 329
#     4  10  21  36  58  84 107 143 188 226 274 334
#     4   9  18  33  54  77 104 141 179 217 265 320
#     4  10  20  33  53  79 108 141 178 222 270 318
#
# _framework density 18.435922000000001
#
# number of rings (size 3 to 8) (size 9 to 14) (size 15 to 20)
#    0.000    2.500    0.000    1.875    1.750    6.000 
#    0.000    1.250    0.000    0.000    0.000    0.000 
#    0.000    0.000    0.000    0.000    0.000    0.000 
#
# Total GULP energy -178586.939230 kJ/mol
# GULP energy per Si atom -5580.841851 kJ/mol
# Density = 1.839396 g / cm^3
# Si number density = 18.435922 Si / 1000 Ang^3
#
#
#
# Elastic Constant Matrix: (Units=GPa)
#
#
# Indices 1 2 3 4 5 6 
#
# 1 74.7130 26.1234 14.8508 0.0000 -8.4798 0.0000
# 2 26.1234 23.7607 6.4544 0.0000 -3.4452 0.0000
# 3 14.8508 6.4544 37.8588 0.0000 -7.4948 0.0000
# 4 0.0000 0.0000 0.0000 26.1041 0.0000 4.4116
# 5 -8.4798 -3.4452 -7.4948 0.0000 14.2742 0.0000
# 6 0.0000 0.0000 0.0000 4.4116 0.0000 33.6097
#
#
#
# Elastic Compliance Matrix: (Units=1/GPa)
#
#
# Indices 1 2 3 4 5 6 
#
# 1 0.023005 -0.023376 -0.003850 0.000000 0.006003 0.000000
# 2 -0.023376 0.068610 -0.002230 0.000000 0.001502 0.000000
# 3 -0.003850 -0.002230 0.030964 0.000000 0.013432 0.000000
# 4 0.000000 0.000000 0.000000 0.039177 0.000000 -0.005142
# 5 0.006003 0.001502 0.013432 0.000000 0.081038 0.000000
# 6 0.000000 0.000000 0.000000 -0.005142 0.000000 0.030428
#
#
# Mechanical properties :
#
#
# Convention : Reuss Voigt Hill
#
# Bulk Modulus (GPa) = 15.70704 25.68772 20.69738
# Shear Modulus (GPa) = 14.15003 20.72452 17.43728
#
# Velocity S-wave (km/s) = 2.77343 3.35645 3.07877
# Velocity P-wave (km/s) = 4.33523 5.38375 4.88769
#
# Compressibility (1/GPa) = 0.06366573
#
# Stress axis : x y z
#
# Youngs Moduli (GPa) = 43.46974 14.57509 32.29593
#
# Poissons Ratio (x) = 0.34070 0.12435
# Poissons Ratio (y) = 1.01614 0.07202
# Poissons Ratio (z) = 0.16738 0.03250
#
# Static dielectric constant tensor:
#      x y z
#    x 1.623230 0.000000 0.008950 
#    y 0.000000 1.615390 0.000000 
#    z 0.008950 0.000000 1.637850 
# 
# From -- ./inp_files/55598.got.cif
#   From: 2010.05.17/outbox.cif.g08.bks.cpg/sg11_28_cif.got.tgz:55598.got - 2010.06.03 12:22:45.
