data_PCOD9161601
_publ_section_title
;
Structure prediction by ZEFSAII (Michael W. Deem and Ramdas Pophale) SiO2 
 PCOD9161601
Probable space group: P 21/M
;
_chemical_formula_sum "Si O2"
_cell_formula_units_Z 32
_cell_length_a 17.162809
_cell_length_b 8.085263
_cell_length_c 24.654048
_cell_angle_alpha 90.000000
_cell_angle_beta 151.083655
_cell_angle_gamma 90.000000
_cell_volume 1654.230707
_symmetry_space_group_name_H-M "P 21/M"
_symmetry_group_IT_number 11
_symmetry_cell_setting 'monoclinic'
loop_
_space_group_symop_operation_xyz
x,y,z
-x,1/2+y,-z
-x,-y,-z
x,1/2-y,z
loop_
_atom_site_type_symbol
_atom_site_label
_atom_site_fract_x
_atom_site_fract_y
_atom_site_fract_z
Si Si1 0.540909 0.949892 0.400330
Si Si2 0.907964 0.553550 0.611426
Si Si3 0.106184 0.554431 0.514236
Si Si4 0.529424 0.050455 0.273141
Si Si5 0.983324 0.948359 0.209768
Si Si6 0.275278 0.939426 0.313942
Si Si7 0.048474 0.061866 0.087928
Si Si8 0.245403 0.450645 0.022493
O O1 0.539954 0.750000 0.403778
O O2 0.725621 0.011018 0.511564
O O3 0.442944 0.013914 0.393531
O O4 0.473234 0.994101 0.299055
O O5 0.897308 0.750000 0.601864
O O6 0.964594 0.490652 0.587625
O O7 0.014426 0.504516 0.727342
O O8 0.120709 0.750000 0.526161
O O9 0.289166 0.485296 0.625492
O O10 0.000000 0.500000 0.500000
O O11 0.532232 0.250000 0.277131
O O12 0.415631 0.005111 0.153170
O O13 0.997092 0.750000 0.215823
O O14 0.147053 0.014431 0.278878
O O15 0.819457 0.990127 0.077364
O O16 0.305409 0.750000 0.348757
O O17 0.172732 0.946651 0.195563
O O18 0.109685 0.250000 0.124283
O O19 0.884745 0.046470 0.021422
O O20 0.000000 0.000000 0.000000
O O21 0.227204 0.250000 0.018067
#
# Coordination Sequence:
#
# PCOD9161601 Si02
#       8
#     4   4   4   4   4   4   4   4
#     4   9  18  31  47  69  98 132 170 215 260 296
#     4  10  20  34  52  75 103 133 167 206 247 295
#     4  10  20  36  59  85 108 128 154 192 244 302
#     4   9  18  32  52  77 102 129 162 202 249 301
#     4   9  18  32  49  69  98 137 175 209 247 290
#     4   9  18  32  46  63  92 131 174 216 256 294
#     4  11  20  28  40  61  90 126 169 214 257 296
#     4   9  18  33  50  69  96 130 167 206 248 293
#
# _framework density 19.344339000000002
#
# number of rings (size 3 to 8) (size 9 to 14) (size 15 to 20)
#    0.000    2.500    0.000    3.375    0.000    6.500 
#    0.000    0.000    0.000    0.750    0.000    0.000 
#    0.000    0.000    0.000    0.000    0.000    0.000 
#
# Total GULP energy -178272.808035 kJ/mol
# GULP energy per Si atom -5571.025251 kJ/mol
# Density = 1.930031 g / cm^3
# Si number density = 19.344339 Si / 1000 Ang^3
#
#
#
# Elastic Constant Matrix: (Units=GPa)
#
#
# Indices 1 2 3 4 5 6 
#
# 1 92.2974 8.0941 33.4069 0.0000 -17.5122 0.0000
# 2 8.0941 18.3428 14.7053 0.0000 -4.1096 0.0000
# 3 33.4069 14.7053 56.8674 0.0000 -20.1700 0.0000
# 4 0.0000 0.0000 0.0000 17.9393 0.0000 -4.7687
# 5 -17.5122 -4.1096 -20.1700 0.0000 23.7559 0.0000
# 6 0.0000 0.0000 0.0000 -4.7687 0.0000 19.8078
#
#
#
# Elastic Compliance Matrix: (Units=1/GPa)
#
#
# Indices 1 2 3 4 5 6 
#
# 1 0.014137 0.000163 -0.006640 0.000000 0.004811 0.000000
# 2 0.000163 0.069127 -0.019585 0.000000 -0.004550 0.000000
# 3 -0.006640 -0.019585 0.033787 0.000000 0.020404 0.000000
# 4 0.000000 0.000000 0.000000 0.059555 0.000000 0.014338
# 5 0.004811 -0.004550 0.020404 0.000000 0.062178 0.000000
# 6 0.000000 0.000000 0.000000 0.014338 0.000000 0.053937
#
#
# Mechanical properties :
#
#
# Convention : Reuss Voigt Hill
#
# Bulk Modulus (GPa) = 15.40206 31.10226 23.25216
# Shear Modulus (GPa) = 13.64306 19.72071 16.68189
#
# Velocity S-wave (km/s) = 2.65858 3.19636 2.93979
# Velocity P-wave (km/s) = 4.17174 5.45302 4.85483
#
# Compressibility (1/GPa) = 0.06492638
#
# Stress axis : x y z
#
# Youngs Moduli (GPa) = 70.73863 14.46614 29.59720
#
# Poissons Ratio (x) = -0.00236 0.19653
# Poissons Ratio (y) = -0.01156 0.57967
# Poissons Ratio (z) = 0.46972 0.28332
#
# Static dielectric constant tensor:
#      x y z
#    x 1.634230 0.000000 0.044380 
#    y 0.000000 1.680230 0.000000 
#    z 0.044380 0.000000 1.757280 
# 
# From -- ./inp_files/69466.got.cif
#   From: 2010.05.17/outbox.cif.g08.bks.cpg/sg11_35_cif.got.tgz:69466.got - 2010.06.03 12:22:45.
