data_PCOD9161328
_publ_section_title
;
Structure prediction by ZEFSAII (Michael W. Deem and Ramdas Pophale) SiO2 
 PCOD9161328
Probable space group: P 21/M
;
_chemical_formula_sum "Si O2"
_cell_formula_units_Z 24
_cell_length_a 9.024865
_cell_length_b 9.065339
_cell_length_c 15.945166
_cell_angle_alpha 90.000000
_cell_angle_beta 116.494238
_cell_angle_gamma 90.000000
_cell_volume 1167.526548
_symmetry_space_group_name_H-M "P 21/M"
_symmetry_group_IT_number 11
_symmetry_cell_setting 'monoclinic'
loop_
_space_group_symop_operation_xyz
x,y,z
-x,1/2+y,-z
-x,-y,-z
x,1/2-y,z
loop_
_atom_site_type_symbol
_atom_site_label
_atom_site_fract_x
_atom_site_fract_y
_atom_site_fract_z
Si Si1 0.006719 0.918652 0.373901
Si Si2 0.355525 0.427941 0.731725
Si Si3 0.329666 0.087661 0.450172
Si Si4 0.652259 0.072695 0.087143
Si Si5 0.677837 0.916385 0.751090
Si Si6 0.992204 0.578912 0.164896
O O1 0.032856 0.750000 0.406162
O O2 0.822560 0.966675 0.353457
O O3 0.999814 0.920934 0.269461
O O4 0.163491 0.012278 0.441814
O O5 0.358976 0.250000 0.743653
O O6 0.360997 0.511172 0.821841
O O7 0.514666 0.486643 0.723567
O O8 0.350562 0.250000 0.492789
O O9 0.300446 0.098720 0.343120
O O10 0.500000 0.000000 0.500000
O O11 0.647885 0.250000 0.083096
O O12 0.828298 0.010731 0.098841
O O13 0.500000 0.000000 0.000000
O O14 0.660319 0.750000 0.781575
O O15 0.841159 0.999954 0.824513
O O16 0.983012 0.750000 0.136885
#
# Coordination Sequence:
#
# PCOD9161328 Si02
#       6
#     4   4   4   4   4   4
#     4   8  16  31  51  73  99 131 170 209 250 303
#     4  10  20  35  55  79 105 137 173 212 258 309
#     4  10  20  33  52  76 103 134 172 213 257 306
#     4  11  21  35  55  79 107 138 173 214 256 304
#     4  10  20  34  53  79 106 136 173 215 259 307
#     4   9  17  32  53  76 102 136 174 211 253 307
#
# _framework density 20.556277999999999
#
# number of rings (size 3 to 8) (size 9 to 14) (size 15 to 20)
#    0.000    2.333    0.000    4.500    0.000    6.667 
#    0.000    1.667    0.000    0.000    0.000    0.000 
#    0.000    0.000    0.000    0.000    0.000    0.000 
#
# Total GULP energy -133947.927804 kJ/mol
# GULP energy per Si atom -5581.163658 kJ/mol
# Density = 2.050949 g / cm^3
# Si number density = 20.556278 Si / 1000 Ang^3
#
#
#
# Elastic Constant Matrix: (Units=GPa)
#
#
# Indices 1 2 3 4 5 6 
#
# 1 113.9133 66.1082 43.3561 0.0000 52.2739 0.0000
# 2 66.1082 171.8858 65.0526 0.0000 40.5589 0.0000
# 3 43.3561 65.0526 75.8413 0.0000 36.7642 0.0000
# 4 0.0000 0.0000 0.0000 27.3533 0.0000 11.9015
# 5 52.2739 40.5589 36.7642 0.0000 38.9546 0.0000
# 6 0.0000 0.0000 0.0000 11.9015 0.0000 33.9146
#
#
#
# Elastic Compliance Matrix: (Units=1/GPa)
#
#
# Indices 1 2 3 4 5 6 
#
# 1 0.024548 -0.003406 0.005783 0.000000 -0.034853 0.000000
# 2 -0.003406 0.009383 -0.006601 0.000000 0.001031 0.000000
# 3 0.005783 -0.006601 0.029440 0.000000 -0.028673 0.000000
# 4 0.000000 0.000000 0.000000 0.043147 0.000000 -0.015141
# 5 -0.034853 0.001031 -0.028673 0.000000 0.098428 0.000000
# 6 0.000000 0.000000 0.000000 -0.015141 0.000000 0.034799
#
#
# Mechanical properties :
#
#
# Convention : Reuss Voigt Hill
#
# Bulk Modulus (GPa) = 18.20692 78.96382 48.58537
# Shear Modulus (GPa) = 18.76178 32.51938 25.64058
#
# Velocity S-wave (km/s) = 3.02437 3.98171 3.53560
# Velocity P-wave (km/s) = 4.59044 7.72241 6.35247
#
# Compressibility (1/GPa) = 0.05492417
#
# Stress axis : x y z
#
# Youngs Moduli (GPa) = 40.73689 106.58069 33.96714
#
# Poissons Ratio (x) = 0.36300 -0.19644
# Poissons Ratio (y) = 0.13875 0.22420
# Poissons Ratio (z) = -0.23559 0.70349
#
# Static dielectric constant tensor:
#      x y z
#    x 1.754420 0.000000 -0.024800 
#    y 0.000000 1.718620 0.000000 
#    z -0.024800 0.000000 1.746770 
# 
# From -- ./inp_files/20508.got.cif
#   From: 2010.05.17/outbox.cif.g08.bks.cpg/sg11_11_cif.got.tgz:20508.got - 2010.06.03 12:22:45.
