data_PCOD9161529
_publ_section_title
;
Structure prediction by ZEFSAII (Michael W. Deem and Ramdas Pophale) SiO2 
 PCOD9161529
Probable space group: P 21/M
;
_chemical_formula_sum "Si O2"
_cell_formula_units_Z 28
_cell_length_a 22.414654
_cell_length_b 16.604504
_cell_length_c 5.052339
_cell_angle_alpha 90.000000
_cell_angle_beta 48.048139
_cell_angle_gamma 90.000000
_cell_volume 1398.466786
_symmetry_space_group_name_H-M "P 21/M"
_symmetry_group_IT_number 11
_symmetry_cell_setting 'monoclinic'
loop_
_space_group_symop_operation_xyz
x,y,z
-x,1/2+y,-z
-x,-y,-z
x,1/2-y,z
loop_
_atom_site_type_symbol
_atom_site_label
_atom_site_fract_x
_atom_site_fract_y
_atom_site_fract_z
Si Si1 0.099793 0.016584 0.020198
Si Si2 0.787026 0.158241 0.911007
Si Si3 0.426110 0.161142 0.493081
Si Si4 0.595225 0.005053 0.654814
Si Si5 0.260407 0.553707 0.447204
Si Si6 0.945955 0.083373 0.344362
Si Si7 0.461323 0.662252 0.345909
O O1 0.084590 0.987316 0.364084
O O2 0.194257 0.017112 0.682501
O O3 0.067789 0.946845 0.913654
O O4 0.040279 0.089989 0.128516
O O5 0.760987 0.250000 0.956447
O O6 0.754312 0.097122 0.785884
O O7 0.883886 0.153547 0.592206
O O8 0.762190 0.121244 0.266085
O O9 0.386118 0.250000 0.602005
O O10 0.467359 0.151114 0.655219
O O11 0.380593 0.079011 0.553520
O O12 0.498042 0.165402 0.063876
O O13 0.652011 0.021534 0.735824
O O14 0.596335 0.086133 0.476792
O O15 0.500000 0.000000 0.000000
O O16 0.424832 0.750000 0.509010
#
# Coordination Sequence:
#
# PCOD9161529 Si02
#       7
#     4   4   4   4   4   4   4
#     4   8  14  27  45  68  92 119 161 199 234 288
#     4  10  20  34  50  75 109 137 165 205 259 320
#     4   9  18  33  51  69  89 117 160 213 261 298
#     4  10  21  36  53  73 100 136 180 221 259 308
#     4  10  21  33  49  73 102 140 175 213 260 303
#     4   8  14  26  47  68  92 125 156 191 236 292
#     4   9  18  31  48  70  93 120 158 206 256 304
#
# _framework density 20.021929
#
# number of rings (size 3 to 8) (size 9 to 14) (size 15 to 20)
#    0.000    2.857    0.000    0.857    0.000    5.714 
#    0.000    2.857    0.000    0.857    0.000    0.000 
#    0.000   16.000    0.000    0.000    0.000    4.143 
#
# Total GULP energy -155910.149656 kJ/mol
# GULP energy per Si atom -5568.219631 kJ/mol
# Density = 1.997636 g / cm^3
# Si number density = 20.021929 Si / 1000 Ang^3
#
#
#
# Elastic Constant Matrix: (Units=GPa)
#
#
# Indices 1 2 3 4 5 6 
#
# 1 78.0585 18.2265 14.1510 0.0000 -20.0411 0.0000
# 2 18.2265 101.0920 -11.5331 0.0000 -6.6057 0.0000
# 3 14.1510 -11.5331 57.1827 0.0000 -7.6208 0.0000
# 4 0.0000 0.0000 0.0000 -3.8628 0.0000 9.2347
# 5 -20.0411 -6.6057 -7.6208 0.0000 34.4328 0.0000
# 6 0.0000 0.0000 0.0000 9.2347 0.0000 14.2354
#
#
#
# Elastic Compliance Matrix: (Units=1/GPa)
#
#
# Indices 1 2 3 4 5 6 
#
# 1 0.016174 -0.002784 -0.003483 0.000000 0.008109 0.000000
# 2 -0.002784 0.010812 0.003019 0.000000 0.001122 0.000000
# 3 -0.003483 0.003019 0.019336 0.000000 0.002831 0.000000
# 4 0.000000 0.000000 0.000000 -0.101487 0.000000 0.065836
# 5 0.008109 0.001122 0.002831 0.000000 0.034604 0.000000
# 6 0.000000 0.000000 0.000000 0.065836 0.000000 0.027539
#
#
# Mechanical properties :
#
#
# Convention : Reuss Voigt Hill
#
# Bulk Modulus (GPa) = 25.10937 30.89136 28.00037
# Shear Modulus (GPa) = 186.92306 23.32699 105.12503
#
# Velocity S-wave (km/s) = 9.67274 3.41702 7.25389
# Velocity P-wave (km/s) = 11.71825 5.57048 9.17463
#
# Compressibility (1/GPa) = 0.03982576
#
# Stress axis : x y z
#
# Youngs Moduli (GPa) = 61.82620 92.49315 51.71688
#
# Poissons Ratio (x) = 0.25747 0.18015
# Poissons Ratio (y) = 0.17211 -0.15613
# Poissons Ratio (z) = 0.21537 -0.27924
#
# Static dielectric constant tensor:
#      x y z
#    x 1.728430 0.000000 -0.046300 
#    y 0.000000 1.723610 0.000000 
#    z -0.046300 0.000000 1.774580 
# 
# From -- ./inp_files/9100.got.cif
#   From: 2010.05.17/outbox.cif.g08.bks.cpg/sg11_5_cif.got.tgz:9100.got - 2010.06.03 12:22:45.
