data_PCOD9161422
_publ_section_title
;
Structure prediction by ZEFSAII (Michael W. Deem and Ramdas Pophale) SiO2 
 PCOD9161422
Probable space group: P 21/M
;
_chemical_formula_sum "Si O2"
_cell_formula_units_Z 28
_cell_length_a 10.084545
_cell_length_b 8.286148
_cell_length_c 28.252231
_cell_angle_alpha 90.000000
_cell_angle_beta 38.379748
_cell_angle_gamma 90.000000
_cell_volume 1465.760223
_symmetry_space_group_name_H-M "P 21/M"
_symmetry_group_IT_number 11
_symmetry_cell_setting 'monoclinic'
loop_
_space_group_symop_operation_xyz
x,y,z
-x,1/2+y,-z
-x,-y,-z
x,1/2-y,z
loop_
_atom_site_type_symbol
_atom_site_label
_atom_site_fract_x
_atom_site_fract_y
_atom_site_fract_z
Si Si1 0.881295 0.054930 0.193526
Si Si2 0.511427 0.444801 0.227823
Si Si3 0.244499 0.945101 0.934477
Si Si4 0.969709 0.443102 0.645331
Si Si5 0.810925 0.445589 0.318712
Si Si6 0.693737 0.057150 0.977856
Si Si7 0.389104 0.055629 0.482469
O O1 0.879976 0.250000 0.194746
O O2 0.664772 0.001221 0.227729
O O3 0.893044 0.998860 0.244632
O O4 0.083668 0.001957 0.106294
O O5 0.515376 0.250000 0.226315
O O6 0.619353 0.502373 0.148502
O O7 0.267162 0.497199 0.298648
O O8 0.248058 0.750000 0.932442
O O9 0.331320 0.000309 0.961023
O O10 0.000000 0.000000 0.000000
O O11 0.969795 0.250000 0.644991
O O12 0.053772 0.497040 0.673771
O O13 0.145401 0.500930 0.557234
O O14 0.817735 0.250000 0.317678
O O15 0.561916 0.496876 0.395062
O O16 0.696593 0.250000 0.977799
O O17 0.500000 0.000000 0.000000
O O18 0.383418 0.250000 0.482062
O O19 0.500000 0.000000 0.500000
#
# Coordination Sequence:
#
# PCOD9161422 Si02
#       7
#     4   4   4   4   4   4   4
#     4  10  21  38  58  79 106 141 179 220 268 315
#     4  10  21  37  55  77 107 142 178 216 260 316
#     4  10  21  38  59  79 103 139 180 218 260 312
#     4  10  20  33  53  82 110 139 177 220 264 311
#     4   9  18  34  57  80 105 140 178 219 267 317
#     4  11  24  39  57  82 110 141 177 219 266 316
#     4   8  15  30  51  76 106 137 173 216 261 311
#
# _framework density 19.102716999999998
#
# number of rings (size 3 to 8) (size 9 to 14) (size 15 to 20)
#    0.000    2.286    1.429    0.857    2.000    2.857 
#    0.000    0.714    0.000    0.000    0.000    0.000 
#    0.000    0.000    0.000    0.000    0.000    0.000 
#
# Total GULP energy -156132.845307 kJ/mol
# GULP energy per Si atom -5576.173047 kJ/mol
# Density = 1.905924 g / cm^3
# Si number density = 19.102717 Si / 1000 Ang^3
#
#
#
# Elastic Constant Matrix: (Units=GPa)
#
#
# Indices 1 2 3 4 5 6 
#
# 1 83.4882 9.9670 5.5778 0.0000 -18.8711 0.0000
# 2 9.9670 5.9585 5.9934 0.0000 1.1494 0.0000
# 3 5.5778 5.9934 45.7966 0.0000 -24.0384 0.0000
# 4 0.0000 0.0000 0.0000 24.9533 0.0000 -5.0489
# 5 -18.8711 1.1494 -24.0384 0.0000 37.5639 0.0000
# 6 0.0000 0.0000 0.0000 -5.0489 0.0000 18.8148
#
#
#
# Elastic Compliance Matrix: (Units=1/GPa)
#
#
# Indices 1 2 3 4 5 6 
#
# 1 0.024849 -0.067143 0.020165 0.000000 0.027442 0.000000
# 2 -0.067143 0.406926 -0.104379 0.000000 -0.112978 0.000000
# 3 0.020165 -0.104379 0.060282 0.000000 0.051901 0.000000
# 4 0.000000 0.000000 0.000000 0.042376 0.000000 0.011372
# 5 0.027442 -0.112978 0.051901 0.000000 0.077078 0.000000
# 6 0.000000 0.000000 0.000000 0.011372 0.000000 0.056201
#
#
# Mechanical properties :
#
#
# Convention : Reuss Voigt Hill
#
# Bulk Modulus (GPa) = 5.28138 19.81330 12.54734
# Shear Modulus (GPa) = 4.83774 23.84672 14.34223
#
# Velocity S-wave (km/s) = 1.59311 3.53702 2.74304
# Velocity P-wave (km/s) = 2.48087 5.20338 4.07614
#
# Compressibility (1/GPa) = 0.18934439
#
# Stress axis : x y z
#
# Youngs Moduli (GPa) = 40.24303 2.45745 16.58858
#
# Poissons Ratio (x) = 0.16500 -0.33451
# Poissons Ratio (y) = 2.70203 1.73149
# Poissons Ratio (z) = -0.81149 0.25651
#
# Static dielectric constant tensor:
#      x y z
#    x 1.638760 0.000000 0.010740 
#    y 0.000000 1.679720 0.000000 
#    z 0.010740 0.000000 1.685210 
# 
# From -- ./inp_files/28554.got.cif
#   From: 2010.05.17/outbox.cif.g08.bks.cpg/sg11_15_cif.got.tgz:28554.got - 2010.06.03 12:22:45.
