data_PCOD9161076
_publ_section_title
;
Structure prediction by ZEFSAII (Michael W. Deem and Ramdas Pophale) SiO2 
 PCOD9161076
Probable space group: P 21/M
;
_chemical_formula_sum "Si O2"
_cell_formula_units_Z 20
_cell_length_a 28.130718
_cell_length_b 8.742189
_cell_length_c 9.969020
_cell_angle_alpha 90.000000
_cell_angle_beta 27.964883
_cell_angle_gamma 90.000000
_cell_volume 1149.639773
_symmetry_space_group_name_H-M "P 21/M"
_symmetry_group_IT_number 11
_symmetry_cell_setting 'monoclinic'
loop_
_space_group_symop_operation_xyz
x,y,z
-x,1/2+y,-z
-x,-y,-z
x,1/2-y,z
loop_
_atom_site_type_symbol
_atom_site_label
_atom_site_fract_x
_atom_site_fract_y
_atom_site_fract_z
Si Si1 0.387741 0.433691 0.278274
Si Si2 0.772095 0.933391 0.099057
Si Si3 0.066204 0.434990 0.081652
Si Si4 0.225950 0.566196 0.480123
Si Si5 0.831569 0.065905 0.672565
O O1 0.390058 0.250000 0.266330
O O2 0.324383 0.477997 0.569822
O O3 0.321791 0.496488 0.318683
O O4 0.500000 0.500000 0.000000
O O5 0.772121 0.750000 0.087541
O O6 0.870964 0.977110 0.941058
O O7 0.777351 0.004116 0.939623
O O8 0.070881 0.250000 0.056678
O O9 0.949641 0.483047 0.379108
O O10 0.126688 0.508164 0.807204
O O11 0.229826 0.750000 0.477547
O O12 0.217811 0.518855 0.345352
O O13 0.830999 0.250000 0.678549
#
# Coordination Sequence:
#
# PCOD9161076 Si02
#       5
#     4   4   4   4   4
#     4  10  21  39  60  79  98 127 168 214 260 310
#     4   9  19  33  51  76 104 133 170 211 254 304
#     4   9  18  33  50  73 106 143 179 213 247 293
#     4  10  20  33  51  78 106 136 174 212 251 303
#     4  10  20  32  49  76 110 141 172 210 252 298
#
# _framework density 17.396754000000001
#
# number of rings (size 3 to 8) (size 9 to 14) (size 15 to 20)
#    0.000    2.400    0.000    3.600    0.000    6.400 
#    0.000    1.000    0.000    0.000    0.000    0.000 
#    0.000    0.000    0.000    0.000    0.000    0.000 
#
# Total GULP energy -111617.300777 kJ/mol
# GULP energy per Si atom -5580.865039 kJ/mol
# Density = 1.735716 g / cm^3
# Si number density = 17.396754 Si / 1000 Ang^3
#
#
#
# Elastic Constant Matrix: (Units=GPa)
#
#
# Indices 1 2 3 4 5 6 
#
# 1 138.8807 38.4271 113.1080 0.0000 26.3255 0.0000
# 2 38.4271 28.6134 38.3871 0.0000 4.0834 0.0000
# 3 113.1080 38.3871 132.1144 0.0000 0.1161 0.0000
# 4 0.0000 0.0000 0.0000 30.3236 0.0000 3.0361
# 5 26.3255 4.0834 0.1161 0.0000 33.1856 0.0000
# 6 0.0000 0.0000 0.0000 3.0361 0.0000 28.4047
#
#
#
# Elastic Compliance Matrix: (Units=1/GPa)
#
#
# Indices 1 2 3 4 5 6 
#
# 1 0.047643 -0.006633 -0.038829 0.000000 -0.036842 0.000000
# 2 -0.006633 0.059867 -0.011714 0.000000 -0.002064 0.000000
# 3 -0.038829 -0.011714 0.044187 0.000000 0.032089 0.000000
# 4 0.000000 0.000000 0.000000 0.033334 0.000000 -0.003563
# 5 -0.036842 -0.002064 0.032089 0.000000 0.059501 0.000000
# 6 0.000000 0.000000 0.000000 -0.003563 0.000000 0.035586
#
#
# Mechanical properties :
#
#
# Convention : Reuss Voigt Hill
#
# Bulk Modulus (GPa) = 26.77779 75.49477 51.13628
# Shear Modulus (GPa) = 12.28746 25.69520 18.99133
#
# Velocity S-wave (km/s) = 2.66053 3.84736 3.30761
# Velocity P-wave (km/s) = 4.98635 7.95150 6.63664
#
# Compressibility (1/GPa) = 0.03734439
#
# Stress axis : x y z
#
# Youngs Moduli (GPa) = 20.98966 16.70381 22.63086
#
# Poissons Ratio (x) = 0.11080 0.87873
# Poissons Ratio (y) = 0.13923 0.26510
# Poissons Ratio (z) = 0.81500 0.19567
#
# Static dielectric constant tensor:
#      x y z
#    x 1.583650 0.000000 0.001750 
#    y 0.000000 1.581900 0.000000 
#    z 0.001750 0.000000 1.566690 
# 
# From -- ./inp_files/15891.got.cif
#   From: 2010.05.17/outbox.cif.g08.bks.cpg/sg11_8_cif.got.tgz:15891.got - 2010.06.03 12:22:45.
