data_PCOD9161184
_publ_section_title
;
Structure prediction by ZEFSAII (Michael W. Deem and Ramdas Pophale) SiO2 
 PCOD9161184
Probable space group: P 21/M
;
_chemical_formula_sum "Si O2"
_cell_formula_units_Z 28
_cell_length_a 20.689778
_cell_length_b 9.249318
_cell_length_c 19.167142
_cell_angle_alpha 90.000000
_cell_angle_beta 21.243874
_cell_angle_gamma 90.000000
_cell_volume 1329.037542
_symmetry_space_group_name_H-M "P 21/M"
_symmetry_group_IT_number 11
_symmetry_cell_setting 'monoclinic'
loop_
_space_group_symop_operation_xyz
x,y,z
-x,1/2+y,-z
-x,-y,-z
x,1/2-y,z
loop_
_atom_site_type_symbol
_atom_site_label
_atom_site_fract_x
_atom_site_fract_y
_atom_site_fract_z
Si Si1 0.715842 0.911631 0.848894
Si Si2 0.786004 0.585690 0.506149
Si Si3 0.215927 0.913113 0.081120
Si Si4 0.709871 0.088026 0.722864
Si Si5 0.197758 0.576901 0.647253
Si Si6 0.192455 0.922919 0.803622
Si Si7 0.811867 0.075718 0.041125
O O1 0.789978 0.750000 0.770405
O O2 0.744292 0.981442 0.895689
O O3 0.784404 0.010912 0.716882
O O4 0.502933 0.901474 0.053583
O O5 0.719917 0.750000 0.572302
O O6 0.738337 0.505277 0.625147
O O7 0.724920 0.501225 0.498502
O O8 0.001642 0.590209 0.288129
O O9 0.275875 0.750000 0.038137
O O10 0.285527 0.955347 0.934031
O O11 0.780759 0.250000 0.642696
O O12 0.200660 0.750000 0.634932
O O13 0.277858 0.538338 0.642993
O O14 0.993696 0.517798 0.857248
O O15 0.164537 0.750000 0.828639
O O16 0.278137 0.953583 0.793182
O O17 0.000000 0.000000 0.000000
O O18 0.852699 0.250000 0.997809
#
# Coordination Sequence:
#
# PCOD9161184 Si02
#       7
#     4   4   4   4   4   4   4
#     4  10  21  36  54  74  95 121 154 192 235 282
#     4  10  20  33  49  71  99 129 159 193 235 280
#     4   9  18  31  48  71  99 129 159 192 232 278
#     4  10  21  37  55  73  93 120 156 195 234 280
#     4   9  15  23  38  62  91 123 157 193 234 275
#     4   8  13  21  35  56  85 121 157 191 228 270
#     4   8  14  25  39  59  90 125 159 193 229 272
#
# _framework density 21.067878
#
# number of rings (size 3 to 8) (size 9 to 14) (size 15 to 20)
#    0.000    2.857    0.000    2.571    0.000    5.714 
#    0.000    0.000    0.000    0.000    0.000    1.000 
#    0.000    0.000    0.000    0.000    0.000    0.000 
#
# Total GULP energy -156035.472332 kJ/mol
# GULP energy per Si atom -5572.695440 kJ/mol
# Density = 2.101993 g / cm^3
# Si number density = 21.067878 Si / 1000 Ang^3
#
#
#
# Elastic Constant Matrix: (Units=GPa)
#
#
# Indices 1 2 3 4 5 6 
#
# 1 169.5598 82.9634 20.9567 0.0000 51.0369 0.0000
# 2 82.9634 122.1329 29.5431 0.0000 41.0249 0.0000
# 3 20.9567 29.5431 61.8840 0.0000 25.8310 0.0000
# 4 0.0000 0.0000 0.0000 16.7352 0.0000 10.2098
# 5 51.0369 41.0249 25.8310 0.0000 63.2382 0.0000
# 6 0.0000 0.0000 0.0000 10.2098 0.0000 18.8546
#
#
#
# Elastic Compliance Matrix: (Units=1/GPa)
#
#
# Indices 1 2 3 4 5 6 
#
# 1 0.009854 -0.005318 0.001303 0.000000 -0.005035 0.000000
# 2 -0.005318 0.013700 -0.003401 0.000000 -0.003207 0.000000
# 3 0.001303 -0.003401 0.020325 0.000000 -0.007148 0.000000
# 4 0.000000 0.000000 0.000000 0.089233 0.000000 -0.048320
# 5 -0.005035 -0.003207 -0.007148 0.000000 0.024877 0.000000
# 6 0.000000 0.000000 0.000000 -0.048320 0.000000 0.079203
#
#
# Mechanical properties :
#
#
# Convention : Reuss Voigt Hill
#
# Bulk Modulus (GPa) = 34.42489 68.94478 51.68484
# Shear Modulus (GPa) = 19.10548 34.43983 26.77265
#
# Velocity S-wave (km/s) = 3.01467 4.04754 3.56867
# Velocity P-wave (km/s) = 5.33789 7.39186 6.44719
#
# Compressibility (1/GPa) = 0.02904875
#
# Stress axis : x y z
#
# Youngs Moduli (GPa) = 101.48171 72.99391 49.20043
#
# Poissons Ratio (x) = 0.38815 -0.06413
# Poissons Ratio (y) = 0.53963 0.16733
# Poissons Ratio (z) = -0.13227 0.24824
#
# Static dielectric constant tensor:
#      x y z
#    x 1.794330 0.000000 0.016450 
#    y 0.000000 1.732950 0.000000 
#    z 0.016450 0.000000 1.790330 
# 
# From -- ./inp_files/42624.got.cif
#   From: 2010.05.17/outbox.cif.g08.bks.cpg/sg11_22_cif.got.tgz:42624.got - 2010.06.03 12:22:45.
