data_PCOD9161586
_publ_section_title
;
Structure prediction by ZEFSAII (Michael W. Deem and Ramdas Pophale) SiO2 
 PCOD9161586
Probable space group: P 21/M
;
_chemical_formula_sum "Si O2"
_cell_formula_units_Z 32
_cell_length_a 16.524336
_cell_length_b 8.300711
_cell_length_c 29.259403
_cell_angle_alpha 90.000000
_cell_angle_beta 153.808609
_cell_angle_gamma 90.000000
_cell_volume 1771.367187
_symmetry_space_group_name_H-M "P 21/M"
_symmetry_group_IT_number 11
_symmetry_cell_setting 'monoclinic'
loop_
_space_group_symop_operation_xyz
x,y,z
-x,1/2+y,-z
-x,-y,-z
x,1/2-y,z
loop_
_atom_site_type_symbol
_atom_site_label
_atom_site_fract_x
_atom_site_fract_y
_atom_site_fract_z
Si Si1 0.500538 0.055274 0.427043
Si Si2 0.207607 0.057287 0.600935
Si Si3 0.506265 0.444532 0.325743
Si Si4 0.791077 0.444600 0.146419
Si Si5 0.514491 0.944724 0.080375
Si Si6 0.506514 0.055450 0.826055
Si Si7 0.208401 0.055277 0.353584
Si Si8 0.792455 0.942692 0.899251
O O1 0.498587 0.250000 0.425405
O O2 0.495804 0.997550 0.372520
O O3 0.327178 0.001333 0.369851
O O4 0.680302 0.000251 0.545496
O O5 0.210029 0.250000 0.602203
O O6 0.335439 0.000270 0.708042
O O7 0.310003 0.997180 0.607294
O O8 0.000000 0.000000 0.500000
O O9 0.502265 0.250000 0.324433
O O10 0.335407 0.500009 0.207834
O O11 0.792791 0.250000 0.146667
O O12 0.693290 0.499709 0.143367
O O13 0.999326 0.502107 0.247400
O O14 0.659942 0.498887 0.038326
O O15 0.513228 0.750000 0.080268
O O16 0.505972 0.002104 0.128187
O O17 0.503649 0.250000 0.825283
O O18 0.690198 0.002439 0.893032
O O19 0.206507 0.250000 0.352186
O O20 0.790111 0.750000 0.897914
O O21 0.000000 0.000000 0.000000
#
# Coordination Sequence:
#
# PCOD9161586 Si02
#       8
#     4   4   4   4   4   4   4   4
#     4   9  18  33  52  72  96 128 165 203 241 285
#     4  10  20  34  52  74 101 131 164 205 249 294
#     4   9  19  35  53  73  98 131 169 205 243 290
#     4   9  18  32  50  72  99 129 161 199 242 290
#     4   9  18  33  52  72  96 128 164 202 243 287
#     4   9  19  35  53  73  98 130 168 207 245 289
#     4   9  18  32  49  72 100 128 160 199 244 290
#     4  10  20  34  53  76 102 131 163 202 246 293
#
# _framework density 18.065142000000002
#
# number of rings (size 3 to 8) (size 9 to 14) (size 15 to 20)
#    0.000    2.750    0.000    0.750    0.000    4.500 
#    0.000    7.500    0.000    3.000    0.000    0.000 
#    0.000    0.000    0.000    0.000    0.000    0.000 
#
# Total GULP energy -178457.438192 kJ/mol
# GULP energy per Si atom -5576.794943 kJ/mol
# Density = 1.802403 g / cm^3
# Si number density = 18.065142 Si / 1000 Ang^3
#
#
#
# Elastic Constant Matrix: (Units=GPa)
#
#
# Indices 1 2 3 4 5 6 
#
# 1 178.2769 15.1348 111.7269 0.0000 -10.1337 0.0000
# 2 15.1348 4.6132 11.3032 0.0000 -1.7132 0.0000
# 3 111.7269 11.3032 125.9739 0.0000 23.8536 0.0000
# 4 0.0000 0.0000 0.0000 25.1278 0.0000 4.5732
# 5 -10.1337 -1.7132 23.8536 0.0000 33.2494 0.0000
# 6 0.0000 0.0000 0.0000 4.5732 0.0000 27.3140
#
#
#
# Elastic Compliance Matrix: (Units=1/GPa)
#
#
# Indices 1 2 3 4 5 6 
#
# 1 0.022301 -0.006610 -0.023617 0.000000 0.023399 0.000000
# 2 -0.006610 0.326406 -0.030351 0.000000 0.036578 0.000000
# 3 -0.023617 -0.030351 0.038496 0.000000 -0.036379 0.000000
# 4 0.000000 0.000000 0.000000 0.041047 0.000000 -0.006873
# 5 0.023399 0.036578 -0.036379 0.000000 0.065191 0.000000
# 6 0.000000 0.000000 0.000000 -0.006873 0.000000 0.037762
#
#
# Mechanical properties :
#
#
# Convention : Reuss Voigt Hill
#
# Bulk Modulus (GPa) = 3.75873 65.02154 34.39013
# Shear Modulus (GPa) = 6.74727 28.51817 17.63272
#
# Velocity S-wave (km/s) = 1.93470 3.97751 3.12759
# Velocity P-wave (km/s) = 2.66006 7.56076 5.66749
#
# Compressibility (1/GPa) = 0.26604748
#
# Stress axis : x y z
#
# Youngs Moduli (GPa) = 44.84069 3.06367 25.97693
#
# Poissons Ratio (x) = 0.02025 0.61349
# Poissons Ratio (y) = 0.29640 0.78842
# Poissons Ratio (z) = 1.05899 0.09299
#
# Static dielectric constant tensor:
#      x y z
#    x 1.600710 0.000000 -0.012890 
#    y 0.000000 1.632260 0.000000 
#    z -0.012890 0.000000 1.610650 
# 
# From -- ./inp_files/71637.got.cif
#   From: 2010.05.17/outbox.cif.g08.bks.cpg/sg11_36_cif.got.tgz:71637.got - 2010.06.03 12:22:45.
