data_PCOD9161685
_publ_section_title
;
Structure prediction by ZEFSAII (Michael W. Deem and Ramdas Pophale) SiO2 
 PCOD9161685
Probable space group: P 21/M
;
_chemical_formula_sum "Si O2"
_cell_formula_units_Z 24
_cell_length_a 7.178274
_cell_length_b 8.963875
_cell_length_c 21.624297
_cell_angle_alpha 90.000000
_cell_angle_beta 91.547897
_cell_angle_gamma 90.000000
_cell_volume 1390.910914
_symmetry_space_group_name_H-M "P 21/M"
_symmetry_group_IT_number 11
_symmetry_cell_setting 'monoclinic'
loop_
_space_group_symop_operation_xyz
x,y,z
-x,1/2+y,-z
-x,-y,-z
x,1/2-y,z
loop_
_atom_site_type_symbol
_atom_site_label
_atom_site_fract_x
_atom_site_fract_y
_atom_site_fract_z
Si Si1 0.029073 0.427900 0.933604
Si Si2 0.689113 0.428454 0.157759
Si Si3 0.996694 0.929169 0.596214
Si Si4 0.997359 0.571119 0.739408
Si Si5 0.286707 0.927350 0.171153
Si Si6 0.702417 0.071825 0.504020
O O1 -0.053532 0.750000 0.061220
O O2 0.204091 0.499520 0.899438
O O3 0.849106 0.456676 0.888545
O O4 0.000000 0.500000 0.000000
O O5 0.681705 0.250000 0.150691
O O6 0.484321 0.494202 0.164241
O O7 0.818786 0.463213 0.218553
O O8 0.970119 0.750000 0.592482
O O9 0.177825 0.965464 0.556488
O O10 0.017552 0.970683 0.667987
O O11 0.822799 0.008487 0.562020
O O12 0.968884 0.750000 0.742637
O O13 0.824763 0.490855 0.770933
O O14 0.311053 0.750000 0.176938
O O15 0.688377 0.250000 0.508149
O O16 0.500000 0.000000 0.500000
#
# Coordination Sequence:
#
# PCOD9161685 Si02
#       6
#     4   4   4   4   4   4
#     4  10  21  37  56  78 106 139 176 219 264 311
#     4  10  20  35  56  80 106 139 177 215 259 313
#     4   9  19  36  55  75 103 138 176 218 260 306
#     4   9  19  36  56  77 102 136 177 217 258 307
#     4  10  21  36  54  79 109 138 170 214 265 312
#     4  10  20  34  53  78 107 139 175 216 263 313
#
# _framework density 17.254878999999999
#
# number of rings (size 3 to 8) (size 9 to 14) (size 15 to 20)
#    0.000    2.333    0.000    2.000    0.000    6.000 
#    0.000    3.333    0.000    0.000    0.000    0.000 
#    0.000    0.000    0.000    0.000    0.000    0.000 
#
# Total GULP energy -133965.545756 kJ/mol
# GULP energy per Si atom -5581.897740 kJ/mol
# Density = 1.721561 g / cm^3
# Si number density = 17.254879 Si / 1000 Ang^3
#
#
#
# Elastic Constant Matrix: (Units=GPa)
#
#
# Indices 1 2 3 4 5 6 
#
# 1 153.0517 68.5399 61.3420 0.0000 -11.2546 0.0000
# 2 68.5399 57.7236 57.7783 0.0000 -4.3613 0.0000
# 3 61.3420 57.7783 145.5611 0.0000 -11.1123 0.0000
# 4 0.0000 0.0000 0.0000 29.5628 0.0000 -1.3639
# 5 -11.2546 -4.3613 -11.1123 0.0000 7.5541 0.0000
# 6 0.0000 0.0000 0.0000 -1.3639 0.0000 37.1411
#
#
#
# Elastic Compliance Matrix: (Units=1/GPa)
#
#
# Indices 1 2 3 4 5 6 
#
# 1 0.015503 -0.019715 0.002463 0.000000 0.015339 0.000000
# 2 -0.019715 0.053815 -0.014558 0.000000 -0.019718 0.000000
# 3 0.002463 -0.014558 0.012672 0.000000 0.013906 0.000000
# 4 0.000000 0.000000 0.000000 0.033884 0.000000 0.001244
# 5 0.015339 -0.019718 0.013906 0.000000 0.164302 0.000000
# 6 0.000000 0.000000 0.000000 0.001244 0.000000 0.026970
#
#
# Mechanical properties :
#
#
# Convention : Reuss Voigt Hill
#
# Bulk Modulus (GPa) = 54.43426 81.29519 67.86473
# Shear Modulus (GPa) = 13.26652 26.09669 19.68161
#
# Velocity S-wave (km/s) = 2.77583 3.89321 3.38100
# Velocity P-wave (km/s) = 6.47220 8.21134 7.39308
#
# Compressibility (1/GPa) = 0.01837078
#
# Stress axis : x y z
#
# Youngs Moduli (GPa) = 64.50333 18.58224 78.91281
#
# Poissons Ratio (x) = 0.36634 -0.19437
# Poissons Ratio (y) = 1.27166 1.14883
# Poissons Ratio (z) = -0.15888 0.27052
#
# Static dielectric constant tensor:
#      x y z
#    x 1.550560 0.000000 0.004040 
#    y 0.000000 1.574670 0.000000 
#    z 0.004040 0.000000 1.568320 
# 
# From -- ./inp_files/67517.got.cif
#   From: 2010.05.17/outbox.cif.g08.bks.cpg/sg11_34_cif.got.tgz:67517.got - 2010.06.03 12:22:45.
