data_PCOD9161608
_publ_section_title
;
Structure prediction by ZEFSAII (Michael W. Deem and Ramdas Pophale) SiO2 
 PCOD9161608
Probable space group: P 21/M
;
_chemical_formula_sum "Si O2"
_cell_formula_units_Z 32
_cell_length_a 18.610142
_cell_length_b 8.840387
_cell_length_c 22.917930
_cell_angle_alpha 90.000000
_cell_angle_beta 152.306860
_cell_angle_gamma 90.000000
_cell_volume 1752.276759
_symmetry_space_group_name_H-M "P 21/M"
_symmetry_group_IT_number 11
_symmetry_cell_setting 'monoclinic'
loop_
_space_group_symop_operation_xyz
x,y,z
-x,1/2+y,-z
-x,-y,-z
x,1/2-y,z
loop_
_atom_site_type_symbol
_atom_site_label
_atom_site_fract_x
_atom_site_fract_y
_atom_site_fract_z
Si Si1 0.858834 0.418176 0.560706
Si Si2 0.171371 0.570131 0.628161
Si Si3 0.552065 0.574994 0.356142
Si Si4 0.478251 0.569698 0.784165
Si Si5 0.253774 0.569285 0.946861
Si Si6 0.389071 0.432218 0.469185
Si Si7 0.165610 0.569855 0.752239
Si Si8 0.060760 0.579914 0.245414
O O1 0.802856 0.250000 0.502206
O O2 0.731832 0.548114 0.470340
O O3 0.907626 0.405276 0.662937
O O4 0.009697 0.472345 0.636432
O O5 0.150834 0.750000 0.607295
O O6 0.303159 0.522164 0.676919
O O7 0.241562 0.543579 0.743850
O O8 0.000000 0.500000 0.500000
O O9 0.507822 0.750000 0.321280
O O10 0.476782 0.482723 0.249023
O O11 0.546183 0.523006 0.419541
O O12 0.486629 0.750000 0.794243
O O13 0.596655 0.498096 0.914902
O O14 0.254167 0.750000 0.950835
O O15 0.244496 0.529320 0.870770
O O16 0.101988 0.507063 0.871740
O O17 0.500000 0.500000 0.500000
O O18 0.386377 0.250000 0.465883
O O19 0.214531 0.494018 0.334395
O O20 0.130348 0.750000 0.730694
O O21 0.049449 0.750000 0.212393
#
# Coordination Sequence:
#
# PCOD9161608 Si02
#       8
#     4   4   4   4   4   4   4   4
#     4   9  16  27  47  75 102 131 170 215 263 311
#     4  10  22  37  52  74 104 137 176 224 278 330
#     4  10  20  34  52  75 105 140 176 214 258 311
#     4  11  23  37  53  75 104 139 181 227 271 319
#     4  10  20  35  55  77 102 139 186 228 268 316
#     4  10  20  34  56  87 118 144 172 210 258 313
#     4   9  18  33  51  71 100 137 177 223 271 319
#     4   9  17  31  52  78 109 141 173 213 258 306
#
# _framework density 18.261955
#
# number of rings (size 3 to 8) (size 9 to 14) (size 15 to 20)
#    0.000    2.250    0.000    3.000    0.000    9.000 
#    0.000    0.000    0.000    0.750    0.000    0.000 
#    0.000    0.000    0.000    0.000    0.000    0.000 
#
# Total GULP energy -178215.560387 kJ/mol
# GULP energy per Si atom -5569.236262 kJ/mol
# Density = 1.822039 g / cm^3
# Si number density = 18.261955 Si / 1000 Ang^3
#
#
#
# Elastic Constant Matrix: (Units=GPa)
#
#
# Indices 1 2 3 4 5 6 
#
# 1 129.5493 38.2391 47.7599 0.0000 -3.0549 0.0000
# 2 38.2391 54.0321 30.1665 0.0000 -3.4451 0.0000
# 3 47.7599 30.1665 89.3372 0.0000 -5.7907 0.0000
# 4 0.0000 0.0000 0.0000 29.7065 0.0000 0.8024
# 5 -3.0549 -3.4451 -5.7907 0.0000 20.6022 0.0000
# 6 0.0000 0.0000 0.0000 0.8024 0.0000 18.8406
#
#
#
# Elastic Compliance Matrix: (Units=1/GPa)
#
#
# Indices 1 2 3 4 5 6 
#
# 1 0.010772 -0.005447 -0.003947 0.000000 -0.000423 0.000000
# 2 -0.005447 0.025619 -0.005616 0.000000 0.001898 0.000000
# 3 -0.003947 -0.005616 0.015381 0.000000 0.002799 0.000000
# 4 0.000000 0.000000 0.000000 0.033701 0.000000 -0.001435
# 5 -0.000423 0.001898 0.002799 0.000000 0.049580 0.000000
# 6 0.000000 0.000000 0.000000 -0.001435 0.000000 0.053138
#
#
# Mechanical properties :
#
#
# Convention : Reuss Voigt Hill
#
# Bulk Modulus (GPa) = 45.97084 56.13883 51.05483
# Shear Modulus (GPa) = 22.17681 24.28007 23.22844
#
# Velocity S-wave (km/s) = 3.48856 3.65025 3.57032
# Velocity P-wave (km/s) = 6.43851 6.96946 6.70924
#
# Compressibility (1/GPa) = 0.02175292
#
# Stress axis : x y z
#
# Youngs Moduli (GPa) = 92.83427 39.03417 65.01426
#
# Poissons Ratio (x) = 0.21261 0.25660
# Poissons Ratio (y) = 0.50565 0.36510
# Poissons Ratio (z) = 0.36641 0.21921
#
# Static dielectric constant tensor:
#      x y z
#    x 1.637620 0.000000 -0.033880 
#    y 0.000000 1.630130 0.000000 
#    z -0.033880 0.000000 1.648740 
# 
# From -- ./inp_files/69451.got.cif
#   From: 2010.05.17/outbox.cif.g08.bks.cpg/sg11_35_cif.got.tgz:69451.got - 2010.06.03 12:22:45.
