data_PCOD9161115
_publ_section_title
;
Structure prediction by ZEFSAII (Michael W. Deem and Ramdas Pophale) SiO2 
 PCOD9161115
Probable space group: P 21/M
;
_chemical_formula_sum "Si O2"
_cell_formula_units_Z 32
_cell_length_a 8.610783
_cell_length_b 14.775320
_cell_length_c 23.447026
_cell_angle_alpha 90.000000
_cell_angle_beta 31.141678
_cell_angle_gamma 90.000000
_cell_volume 1542.726432
_symmetry_space_group_name_H-M "P 21/M"
_symmetry_group_IT_number 11
_symmetry_cell_setting 'monoclinic'
loop_
_space_group_symop_operation_xyz
x,y,z
-x,1/2+y,-z
-x,-y,-z
x,1/2-y,z
loop_
_atom_site_type_symbol
_atom_site_label
_atom_site_fract_x
_atom_site_fract_y
_atom_site_fract_z
Si Si1 0.274226 0.577036 0.048547
Si Si2 0.154353 0.588558 0.425005
Si Si3 0.510952 0.648389 0.637249
Si Si4 0.758444 0.146266 0.820409
Si Si5 0.449299 0.357618 0.592155
Si Si6 0.858947 0.360437 0.358719
Si Si7 0.512169 0.957967 0.855687
Si Si8 0.357343 0.992364 0.783977
O O1 0.274417 0.647173 0.100343
O O2 0.940156 0.538687 0.146108
O O3 0.500000 0.500000 0.000000
O O4 0.386291 0.597099 0.949518
O O5 0.384242 0.622176 0.400940
O O6 0.359224 0.561543 0.307133
O O7 0.000000 0.500000 0.500000
O O8 0.860937 0.648761 0.508576
O O9 0.421490 0.750000 0.680155
O O10 0.314932 0.617616 0.645095
O O11 0.450482 0.585829 0.710521
O O12 0.708417 0.250000 0.815252
O O13 0.102194 0.115156 0.700211
O O14 0.558623 0.063557 0.859189
O O15 0.441064 0.250000 0.588304
O O16 0.654983 0.391910 0.475875
O O17 0.895703 0.250000 0.350025
O O18 0.174117 0.411230 0.259829
O O19 0.312169 0.957089 0.861844
#
# Coordination Sequence:
#
# PCOD9161115 Si02
#       8
#     4   4   4   4   4   4   4   4
#     4  10  21  42  66  87 116 158 207 258 304 362
#     4  10  20  32  54  83 119 158 194 244 303 371
#     4  10  21  37  58  88 125 163 204 256 310 371
#     4  10  22  41  63  90 121 162 207 254 310 367
#     4  10  20  37  58  84 121 161 205 256 306 368
#     4  10  22  38  61  93 126 163 212 259 309 368
#     4  11  24  39  65  91 125 167 202 262 304 369
#     4  11  22  40  59  92 123 161 208 251 315 368
#
# _framework density 20.742497
#
# number of rings (size 3 to 8) (size 9 to 14) (size 15 to 20)
#    0.000    1.750    1.250    3.750    3.500    2.500 
#    0.000    5.000    0.000    3.000    0.000    0.000 
#    0.000    0.000    0.000    0.000    0.000    0.000 
#
# Total GULP energy -178578.779026 kJ/mol
# GULP energy per Si atom -5580.586845 kJ/mol
# Density = 2.069529 g / cm^3
# Si number density = 20.742497 Si / 1000 Ang^3
#
#
#
# Elastic Constant Matrix: (Units=GPa)
#
#
# Indices 1 2 3 4 5 6 
#
# 1 61.7195 6.0110 -3.9174 0.0000 9.4353 0.0000
# 2 6.0110 45.0445 9.8419 0.0000 0.5991 0.0000
# 3 -3.9174 9.8419 77.5547 0.0000 14.2821 0.0000
# 4 0.0000 0.0000 0.0000 5.3595 0.0000 12.6555
# 5 9.4353 0.5991 14.2821 0.0000 39.6023 0.0000
# 6 0.0000 0.0000 0.0000 12.6555 0.0000 16.2510
#
#
#
# Elastic Compliance Matrix: (Units=1/GPa)
#
#
# Indices 1 2 3 4 5 6 
#
# 1 0.017343 -0.002712 0.002114 0.000000 -0.004853 0.000000
# 2 -0.002712 0.023278 -0.003369 0.000000 0.001509 0.000000
# 3 0.002114 -0.003369 0.014473 0.000000 -0.005672 0.000000
# 4 0.000000 0.000000 0.000000 -0.222420 0.000000 0.173210
# 5 -0.004853 0.001509 -0.005672 0.000000 0.028430 0.000000
# 6 0.000000 0.000000 0.000000 0.173210 0.000000 -0.073353
#
#
# Mechanical properties :
#
#
# Convention : Reuss Voigt Hill
#
# Bulk Modulus (GPa) = 21.20425 23.13219 22.16822
# Shear Modulus (GPa) = -26.51170 23.73480 -1.38845
#
# Velocity S-wave (km/s) = -3.57898 3.38636 -0.81904
# Velocity P-wave (km/s) = 2.61419 5.14453 3.13307
#
# Compressibility (1/GPa) = 0.04716036
#
# Stress axis : x y z
#
# Youngs Moduli (GPa) = 57.66180 42.95880 69.09432
#
# Poissons Ratio (x) = 0.11649 -0.14605
# Poissons Ratio (y) = 0.15636 0.23277
# Poissons Ratio (z) = -0.12189 0.14472
#
# Static dielectric constant tensor:
#      x y z
#    x 1.684430 0.000000 0.013930 
#    y 0.000000 1.761260 0.000000 
#    z 0.013930 0.000000 1.767430 
# 
# From -- ./inp_files/68139.got.cif
#   From: 2010.05.17/outbox.cif.g08.bks.cpg/sg11_35_cif.got.tgz:68139.got - 2010.06.03 12:22:45.
