data_PCOD9161547
_publ_section_title
;
Structure prediction by ZEFSAII (Michael W. Deem and Ramdas Pophale) SiO2 
 PCOD9161547
Probable space group: P 21/M
;
_chemical_formula_sum "Si O2"
_cell_formula_units_Z 32
_cell_length_a 14.345874
_cell_length_b 9.289973
_cell_length_c 15.879688
_cell_angle_alpha 90.000000
_cell_angle_beta 116.085536
_cell_angle_gamma 90.000000
_cell_volume 1900.757858
_symmetry_space_group_name_H-M "P 21/M"
_symmetry_group_IT_number 11
_symmetry_cell_setting 'monoclinic'
loop_
_space_group_symop_operation_xyz
x,y,z
-x,1/2+y,-z
-x,-y,-z
x,1/2-y,z
loop_
_atom_site_type_symbol
_atom_site_label
_atom_site_fract_x
_atom_site_fract_y
_atom_site_fract_z
Si Si1 0.072199 0.419140 0.961154
Si Si2 0.053199 0.076548 0.218591
Si Si3 0.155473 0.418586 0.587790
Si Si4 0.760495 0.916702 0.834871
Si Si5 0.345877 0.422715 0.785434
Si Si6 0.419733 0.582388 0.165250
Si Si7 0.609762 0.081231 0.037888
Si Si8 0.939888 0.419306 0.601940
O O1 0.045461 0.250000 0.942062
O O2 0.046815 0.502239 0.865228
O O3 0.182489 0.426206 0.051380
O O4 0.000000 0.500000 0.000000
O O5 0.042694 0.250000 0.213881
O O6 0.153900 0.038453 0.200682
O O7 0.067269 0.011711 0.316297
O O8 0.159133 0.250000 0.563714
O O9 0.258238 0.451835 0.681763
O O10 0.136606 0.518084 0.499661
O O11 0.055389 0.435055 0.608552
O O12 0.738159 0.750000 0.810039
O O13 0.653860 0.002162 0.798758
O O14 0.349809 0.250000 0.802521
O O15 0.460819 0.467617 0.798593
O O16 0.322680 0.502875 0.864234
O O17 0.424689 0.750000 0.189199
O O18 0.366608 0.571164 0.051593
O O19 0.599639 0.250000 0.054174
O O20 0.500000 0.000000 0.000000
O O21 0.921994 0.250000 0.610673
#
# Coordination Sequence:
#
# PCOD9161547 Si02
#       8
#     4   4   4   4   4   4   4   4
#     4   9  17  30  46  67  95 127 164 202 239 281
#     4  10  20  34  51  72  99 132 166 201 245 293
#     4   9  19  36  55  74 100 129 155 193 247 301
#     4   9  19  32  47  69  98 133 168 199 238 286
#     4   9  18  33  51  72  98 130 165 198 240 291
#     4   9  18  30  46  70  99 131 167 203 237 277
#     4   9  17  29  44  66  95 127 163 200 238 278
#     4  10  20  34  54  79 100 122 157 199 245 296
#
# _framework density 16.83539
#
# number of rings (size 3 to 8) (size 9 to 14) (size 15 to 20)
#    0.000    2.750    0.000    3.000    0.000    7.500 
#    0.000    3.750    0.000    0.750    0.000    0.000 
#    0.000    0.000    0.000    0.000    0.000    0.000 
#
# Total GULP energy -178184.818521 kJ/mol
# GULP energy per Si atom -5568.275579 kJ/mol
# Density = 1.679707 g / cm^3
# Si number density = 16.835390 Si / 1000 Ang^3
#
#
#
# Elastic Constant Matrix: (Units=GPa)
#
#
# Indices 1 2 3 4 5 6 
#
# 1 38.9600 35.7050 26.9337 0.0000 2.5750 0.0000
# 2 35.7050 75.2284 50.2110 0.0000 -2.0500 0.0000
# 3 26.9337 50.2110 103.4760 0.0000 1.0018 0.0000
# 4 0.0000 0.0000 0.0000 31.1808 0.0000 -2.9642
# 5 2.5750 -2.0500 1.0018 0.0000 15.6281 0.0000
# 6 0.0000 0.0000 0.0000 -2.9642 0.0000 23.5433
#
#
#
# Elastic Compliance Matrix: (Units=1/GPa)
#
#
# Indices 1 2 3 4 5 6 
#
# 1 0.047369 -0.021605 -0.001744 0.000000 -0.010527 0.000000
# 2 -0.021605 0.029675 -0.008854 0.000000 0.008020 0.000000
# 3 -0.001744 -0.008854 0.014432 0.000000 -0.001799 0.000000
# 4 0.000000 0.000000 0.000000 0.032460 0.000000 0.004087
# 5 -0.010527 0.008020 -0.001799 0.000000 0.066889 0.000000
# 6 0.000000 0.000000 0.000000 0.004087 0.000000 0.042989
#
#
# Mechanical properties :
#
#
# Convention : Reuss Voigt Hill
#
# Bulk Modulus (GPa) = 36.94127 49.26265 43.10196
# Shear Modulus (GPa) = 16.27379 21.05809 18.66594
#
# Velocity S-wave (km/s) = 3.11246 3.54053 3.33338
# Velocity P-wave (km/s) = 5.90820 6.78518 6.36182
#
# Compressibility (1/GPa) = 0.02706999
#
# Stress axis : x y z
#
# Youngs Moduli (GPa) = 21.11089 33.69834 69.29241
#
# Poissons Ratio (x) = 0.72806 0.12084
# Poissons Ratio (y) = 0.45610 0.61349
# Poissons Ratio (z) = 0.03682 0.29835
#
# Static dielectric constant tensor:
#      x y z
#    x 1.579220 0.000000 0.002100 
#    y 0.000000 1.673630 0.000000 
#    z 0.002100 0.000000 1.578280 
# 
# From -- ./inp_files/51768.got.cif
#   From: 2010.05.17/outbox.cif.g08.bks.cpg/sg11_26_cif.got.tgz:51768.got - 2010.06.03 12:22:45.
