data_PCOD9161805
_publ_section_title
;
Structure prediction by ZEFSAII (Michael W. Deem and Ramdas Pophale) SiO2 
 PCOD9161805
Probable space group: P 21/M
;
_chemical_formula_sum "Si O2"
_cell_formula_units_Z 32
_cell_length_a 19.087536
_cell_length_b 8.251411
_cell_length_c 12.081841
_cell_angle_alpha 90.000000
_cell_angle_beta 55.331321
_cell_angle_gamma 90.000000
_cell_volume 1565.032685
_symmetry_space_group_name_H-M "P 21/M"
_symmetry_group_IT_number 11
_symmetry_cell_setting 'monoclinic'
loop_
_space_group_symop_operation_xyz
x,y,z
-x,1/2+y,-z
-x,-y,-z
x,1/2-y,z
loop_
_atom_site_type_symbol
_atom_site_label
_atom_site_fract_x
_atom_site_fract_y
_atom_site_fract_z
Si Si1 0.803243 0.945011 0.224401
Si Si2 0.577606 0.943485 0.006857
Si Si3 0.039363 0.052046 0.778569
Si Si4 0.377934 0.446348 0.553432
Si Si5 0.539595 0.943894 0.288438
Si Si6 0.844883 0.054559 0.954114
Si Si7 0.764137 0.443637 0.795884
Si Si8 0.916346 0.943737 0.508770
O O1 0.805350 0.750000 0.225299
O O2 0.892520 0.006462 0.192896
O O3 0.720397 0.995756 0.368011
O O4 0.793800 0.998105 0.106692
O O5 0.574792 0.750000 0.014867
O O6 0.568345 0.006841 0.142379
O O7 0.500000 0.000000 0.000000
O O8 0.668113 0.994468 0.874960
O O9 0.037721 0.250000 0.783965
O O10 0.072495 0.003742 0.627923
O O11 0.942408 0.996221 0.878965
O O12 0.383173 0.250000 0.545530
O O13 0.410097 0.501802 0.646823
O O14 0.441728 0.514248 0.404420
O O15 0.549829 0.750000 0.277365
O O16 0.846330 0.250000 0.949768
O O17 0.804094 0.996265 0.876473
O O18 0.761974 0.250000 0.801184
O O19 0.830051 0.494943 0.642160
O O20 0.915391 0.750000 0.511378
O O21 0.000000 0.000000 0.500000
#
# Coordination Sequence:
#
# PCOD9161805 Si02
#       8
#     4   4   4   4   4   4   4   4
#     4  10  20  34  54  81 113 148 188 234 287 350
#     4  11  24  42  62  88 121 156 195 244 297 352
#     4   9  19  36  55  79 114 151 187 238 297 346
#     4   9  18  33  55  83 111 143 186 233 285 345
#     4   9  19  36  57  80 111 146 187 236 284 340
#     4  10  20  36  56  80 115 152 189 237 290 346
#     4  11  23  40  62  89 119 155 198 245 296 354
#     4  11  21  38  61  85 117 156 201 251 299 351
#
# _framework density 20.446854999999999
#
# number of rings (size 3 to 8) (size 9 to 14) (size 15 to 20)
#    0.000    2.000    1.250    2.250    0.000    4.500 
#    0.000    5.000    0.000    0.000    0.000    0.000 
#    0.000    0.000    0.000    0.000    0.000    0.000 
#
# Total GULP energy -178721.711269 kJ/mol
# GULP energy per Si atom -5585.053477 kJ/mol
# Density = 2.040032 g / cm^3
# Si number density = 20.446855 Si / 1000 Ang^3
#
#
#
# Elastic Constant Matrix: (Units=GPa)
#
#
# Indices 1 2 3 4 5 6 
#
# 1 56.6006 5.5698 17.8623 0.0000 -25.9481 0.0000
# 2 5.5698 14.9992 3.3930 0.0000 -2.1398 0.0000
# 3 17.8623 3.3930 103.4703 0.0000 -19.6989 0.0000
# 4 0.0000 0.0000 0.0000 29.1163 0.0000 -4.9028
# 5 -25.9481 -2.1398 -19.6989 0.0000 37.4314 0.0000
# 6 0.0000 0.0000 0.0000 -4.9028 0.0000 21.1424
#
#
#
# Elastic Compliance Matrix: (Units=1/GPa)
#
#
# Indices 1 2 3 4 5 6 
#
# 1 0.026772 -0.007196 -0.001034 0.000000 0.017603 0.000000
# 2 -0.007196 0.069403 -0.001365 0.000000 -0.001739 0.000000
# 3 -0.001034 -0.001365 0.010821 0.000000 0.004899 0.000000
# 4 0.000000 0.000000 0.000000 0.035741 0.000000 0.008288
# 5 0.017603 -0.001739 0.004899 0.000000 0.041397 0.000000
# 6 0.000000 0.000000 0.000000 0.008288 0.000000 0.049220
#
#
# Mechanical properties :
#
#
# Convention : Reuss Voigt Hill
#
# Bulk Modulus (GPa) = 11.38886 25.41336 18.40111
# Shear Modulus (GPa) = 17.74221 27.42102 22.58162
#
# Velocity S-wave (km/s) = 2.94891 3.66606 3.32686
# Velocity P-wave (km/s) = 4.14449 5.51144 4.87610
#
# Compressibility (1/GPa) = 0.08780508
#
# Stress axis : x y z
#
# Youngs Moduli (GPa) = 37.35187 14.40860 92.41539
#
# Poissons Ratio (x) = 0.10369 0.09560
# Poissons Ratio (y) = 0.26880 0.12612
# Poissons Ratio (z) = 0.03864 0.01966
#
# Static dielectric constant tensor:
#      x y z
#    x 1.730830 0.000000 0.003990 
#    y 0.000000 1.708040 0.000000 
#    z 0.003990 0.000000 1.707750 
# 
# From -- ./inp_files/38094.got.cif
#   From: 2010.05.17/outbox.cif.g08.bks.cpg/sg11_20_cif.got.tgz:38094.got - 2010.06.03 12:22:45.
