data_PCOD9161645
_publ_section_title
;
Structure prediction by ZEFSAII (Michael W. Deem and Ramdas Pophale) SiO2 
 PCOD9161645
Probable space group: P 21/M
;
_chemical_formula_sum "Si O2"
_cell_formula_units_Z 32
_cell_length_a 21.786264
_cell_length_b 8.081953
_cell_length_c 28.100185
_cell_angle_alpha 90.000000
_cell_angle_beta 16.836563
_cell_angle_gamma 90.000000
_cell_volume 1433.081101
_symmetry_space_group_name_H-M "P 21/M"
_symmetry_group_IT_number 11
_symmetry_cell_setting 'monoclinic'
loop_
_space_group_symop_operation_xyz
x,y,z
-x,1/2+y,-z
-x,-y,-z
x,1/2-y,z
loop_
_atom_site_type_symbol
_atom_site_label
_atom_site_fract_x
_atom_site_fract_y
_atom_site_fract_z
Si Si1 0.953004 0.447044 0.608812
Si Si2 0.332087 0.565486 0.264843
Si Si3 0.297135 0.444590 0.118907
Si Si4 0.399438 0.550719 0.382911
Si Si5 0.000840 0.047318 0.255496
Si Si6 0.991882 0.934671 0.857329
Si Si7 0.436542 0.928617 0.828435
Si Si8 0.891148 0.949049 0.032018
O O1 0.003891 0.250000 0.570914
O O2 0.738965 0.463730 0.735752
O O3 0.898361 0.515652 0.700655
O O4 0.121698 0.550500 0.453465
O O5 0.420044 0.750000 0.203780
O O6 0.481937 0.436934 0.178856
O O7 0.324873 0.250000 0.092425
O O8 0.205489 0.506597 0.135563
O O9 0.500000 0.500000 0.000000
O O10 0.390311 0.750000 0.384751
O O11 0.380388 0.465946 0.345349
O O12 0.641115 0.502236 0.218335
O O13 0.213531 0.502777 0.556847
O O14 0.012486 0.250000 0.244318
O O15 0.976177 0.988202 0.218878
O O16 0.085758 0.750000 0.786917
O O17 0.021628 0.011078 0.888120
O O18 0.736012 0.930352 0.048998
O O19 0.342325 0.750000 0.888043
O O20 0.894568 0.750000 0.025878
O O21 0.000000 0.000000 0.000000
#
# Coordination Sequence:
#
# PCOD9161645 Si02
#       8
#     4   4   4   4   4   4   4   4
#     4  10  21  36  52  73  99 131 177 231 288 344
#     4  10  20  34  53  73  99 135 175 228 285 343
#     4  11  23  37  54  77 107 147 190 239 295 351
#     4   9  18  36  60  85 109 148 196 234 276 335
#     4   9  19  37  61  81 105 144 197 244 282 332
#     4   9  19  37  58  82 109 147 192 232 274 330
#     4  11  21  32  51  80 109 140 182 233 282 334
#     4   9  18  33  58  88 120 150 182 224 274 334
#
# _framework density 22.329511
#
# number of rings (size 3 to 8) (size 9 to 14) (size 15 to 20)
#    0.000    2.250    0.000    3.750    1.750    4.500 
#    0.000    2.500    0.000    0.000    0.000    0.000 
#    0.000    0.000    0.000    0.000    0.000    0.000 
#
# Total GULP energy -178283.255177 kJ/mol
# GULP energy per Si atom -5571.351724 kJ/mol
# Density = 2.227869 g / cm^3
# Si number density = 22.329511 Si / 1000 Ang^3
#
#
#
# Elastic Constant Matrix: (Units=GPa)
#
#
# Indices 1 2 3 4 5 6 
#
# 1 175.8244 22.6398 49.6809 0.0000 29.2494 0.0000
# 2 22.6398 44.2914 6.0519 0.0000 -0.6109 0.0000
# 3 49.6809 6.0519 81.9670 0.0000 28.7720 0.0000
# 4 0.0000 0.0000 0.0000 13.0582 0.0000 -2.6645
# 5 29.2494 -0.6109 28.7720 0.0000 43.7885 0.0000
# 6 0.0000 0.0000 0.0000 -2.6645 0.0000 24.8109
#
#
#
# Elastic Compliance Matrix: (Units=1/GPa)
#
#
# Indices 1 2 3 4 5 6 
#
# 1 0.007549 -0.003449 -0.003294 0.000000 -0.002927 0.000000
# 2 -0.003449 0.024500 -0.000841 0.000000 0.003198 0.000000
# 3 -0.003294 -0.000841 0.017535 0.000000 -0.009333 0.000000
# 4 0.000000 0.000000 0.000000 0.078296 0.000000 0.008408
# 5 -0.002927 0.003198 -0.009333 0.000000 0.030969 0.000000
# 6 0.000000 0.000000 0.000000 0.008408 0.000000 0.041208
#
#
# Mechanical properties :
#
#
# Convention : Reuss Voigt Hill
#
# Bulk Modulus (GPa) = 29.05639 50.98089 40.01864
# Shear Modulus (GPa) = 22.05597 31.24552 26.65075
#
# Velocity S-wave (km/s) = 3.14626 3.74477 3.45849
# Velocity P-wave (km/s) = 5.12244 6.44814 5.82314
#
# Compressibility (1/GPa) = 0.03441584
#
# Stress axis : x y z
#
# Youngs Moduli (GPa) = 132.46582 40.81663 57.03030
#
# Poissons Ratio (x) = 0.14078 0.18784
# Poissons Ratio (y) = 0.45689 0.04797
# Poissons Ratio (z) = 0.43630 0.03433
#
# Static dielectric constant tensor:
#      x y z
#    x 1.921630 0.000000 0.007470 
#    y 0.000000 1.874050 0.000000 
#    z 0.007470 0.000000 1.864260 
# 
# From -- ./inp_files/71971.got.cif
#   From: 2010.05.17/outbox.cif.g08.bks.cpg/sg11_36_cif.got.tgz:71971.got - 2010.06.03 12:22:45.
