data_PCOD9161254
_publ_section_title
;
Structure prediction by ZEFSAII (Michael W. Deem and Ramdas Pophale) SiO2 
 PCOD9161254
Probable space group: P 21/M
;
_chemical_formula_sum "Si O2"
_cell_formula_units_Z 32
_cell_length_a 23.233676
_cell_length_b 7.673749
_cell_length_c 11.656804
_cell_angle_alpha 90.000000
_cell_angle_beta 131.969181
_cell_angle_gamma 90.000000
_cell_volume 1545.214216
_symmetry_space_group_name_H-M "P 21/M"
_symmetry_group_IT_number 11
_symmetry_cell_setting 'monoclinic'
loop_
_space_group_symop_operation_xyz
x,y,z
-x,1/2+y,-z
-x,-y,-z
x,1/2-y,z
loop_
_atom_site_type_symbol
_atom_site_label
_atom_site_fract_x
_atom_site_fract_y
_atom_site_fract_z
Si Si1 0.506682 0.540595 0.143188
Si Si2 0.812557 0.547888 0.258575
Si Si3 0.869231 0.541789 0.097505
Si Si4 0.818569 0.964360 0.524925
Si Si5 0.667867 0.963569 0.466602
Si Si6 0.709162 0.960354 0.776588
Si Si7 0.351809 0.957060 0.060883
Si Si8 0.020507 0.043682 0.157529
O O1 0.507335 0.750000 0.155732
O O2 0.587135 0.476440 0.304400
O O3 0.431175 0.476806 0.111124
O O4 0.500000 0.500000 0.000000
O O5 0.835990 0.750000 0.300334
O O6 0.860058 0.470544 0.214630
O O7 0.820379 0.473221 0.395856
O O8 0.723337 0.539392 0.099355
O O9 0.858530 0.750000 0.091435
O O10 0.950659 0.511069 0.146800
O O11 0.796214 0.477613 0.924568
O O12 0.817209 0.750000 0.522846
O O13 0.740874 0.018138 0.486950
O O14 0.895905 0.024958 0.692483
O O15 0.667118 0.750000 0.465811
O O16 0.680526 0.021361 0.614648
O O17 0.711311 0.750000 0.774411
O O18 0.656017 0.010016 0.813771
O O19 0.346539 0.750000 0.034520
O O20 0.025969 0.250000 0.173055
O O21 0.000000 0.000000 0.000000
#
# Coordination Sequence:
#
# PCOD9161254 Si02
#       8
#     4   4   4   4   4   4   4   4
#     4  10  21  35  53  77 104 135 171 213 260 307
#     4   9  18  35  58  78  99 136 179 209 243 302
#     4   9  18  33  53  78 105 132 168 212 253 300
#     4   9  18  33  54  77  99 129 174 219 251 293
#     4   9  17  32  54  76  99 132 176 218 251 293
#     4   9  18  34  56  77 100 138 181 211 243 299
#     4  10  20  33  50  78 112 136 162 210 264 305
#     4  11  22  35  53  77 104 135 171 212 259 306
#
# _framework density 20.709102000000001
#
# number of rings (size 3 to 8) (size 9 to 14) (size 15 to 20)
#    0.000    2.500    0.000    3.000    0.000    7.000 
#    0.000    1.875    0.000    3.750    0.000    0.000 
#    0.000    0.000    0.000    0.000    0.000    0.000 
#
# Total GULP energy -178653.413565 kJ/mol
# GULP energy per Si atom -5582.919174 kJ/mol
# Density = 2.066197 g / cm^3
# Si number density = 20.709102 Si / 1000 Ang^3
#
#
#
# Elastic Constant Matrix: (Units=GPa)
#
#
# Indices 1 2 3 4 5 6 
#
# 1 160.6827 -14.1206 76.1127 0.0000 1.4681 0.0000
# 2 -14.1206 29.9988 -12.7874 0.0000 -1.9726 0.0000
# 3 76.1127 -12.7874 118.5631 0.0000 -21.4358 0.0000
# 4 0.0000 0.0000 0.0000 9.1596 0.0000 -0.2142
# 5 1.4681 -1.9726 -21.4358 0.0000 34.3785 0.0000
# 6 0.0000 0.0000 0.0000 -0.2142 0.0000 22.6925
#
#
#
# Elastic Compliance Matrix: (Units=1/GPa)
#
#
# Indices 1 2 3 4 5 6 
#
# 1 0.009642 0.001298 -0.006887 0.000000 -0.004632 0.000000
# 2 0.001298 0.035866 0.003828 0.000000 0.004390 0.000000
# 3 -0.006887 0.003828 0.015059 0.000000 0.009904 0.000000
# 4 0.000000 0.000000 0.000000 0.109199 0.000000 0.001031
# 5 -0.004632 0.004390 0.009904 0.000000 0.035713 0.000000
# 6 0.000000 0.000000 0.000000 0.001031 0.000000 0.044077
#
#
# Mechanical properties :
#
#
# Convention : Reuss Voigt Hill
#
# Bulk Modulus (GPa) = 17.52952 45.29490 31.41221
# Shear Modulus (GPa) = 18.37604 30.58210 24.47907
#
# Velocity S-wave (km/s) = 2.98206 3.84702 3.44182
# Velocity P-wave (km/s) = 4.50998 6.45385 5.56741
#
# Compressibility (1/GPa) = 0.05704661
#
# Stress axis : x y z
#
# Youngs Moduli (GPa) = 103.71014 27.88131 66.40488
#
# Poissons Ratio (x) = -0.03620 0.45735
# Poissons Ratio (y) = -0.13465 -0.25423
# Poissons Ratio (z) = 0.71428 -0.10674
#
# Static dielectric constant tensor:
#      x y z
#    x 1.708340 0.000000 -0.000160 
#    y 0.000000 1.779530 0.000000 
#    z -0.000160 0.000000 1.717840 
# 
# From -- ./inp_files/42947.got.cif
#   From: 2010.05.17/outbox.cif.g08.bks.cpg/sg11_22_cif.got.tgz:42947.got - 2010.06.03 12:22:45.
