data_PCOD9161806
_publ_section_title
;
Structure prediction by ZEFSAII (Michael W. Deem and Ramdas Pophale) SiO2 
 PCOD9161806
Probable space group: P 21/M
;
_chemical_formula_sum "Si O2"
_cell_formula_units_Z 32
_cell_length_a 15.848501
_cell_length_b 8.896798
_cell_length_c 24.259599
_cell_angle_alpha 90.000000
_cell_angle_beta 27.833805
_cell_angle_gamma 90.000000
_cell_volume 1597.119056
_symmetry_space_group_name_H-M "P 21/M"
_symmetry_group_IT_number 11
_symmetry_cell_setting 'monoclinic'
loop_
_space_group_symop_operation_xyz
x,y,z
-x,1/2+y,-z
-x,-y,-z
x,1/2-y,z
loop_
_atom_site_type_symbol
_atom_site_label
_atom_site_fract_x
_atom_site_fract_y
_atom_site_fract_z
Si Si1 0.681894 0.071297 0.372350
Si Si2 0.928086 0.929780 0.806163
Si Si3 0.818746 0.928151 0.677929
Si Si4 0.784330 0.425335 0.998143
Si Si5 0.390770 0.428196 0.801467
Si Si6 0.330161 0.571253 0.130105
Si Si7 0.816013 0.572912 0.185370
Si Si8 0.210211 0.572163 0.425048
O O1 0.669666 0.250000 0.381794
O O2 0.864510 0.027595 0.300123
O O3 0.500000 0.000000 0.500000
O O4 0.714168 0.017551 0.291464
O O5 0.916572 0.750000 0.805776
O O6 0.811752 0.980447 0.926759
O O7 0.845011 0.013705 0.802113
O O8 0.790486 0.750000 0.699840
O O9 0.033012 0.963062 0.563172
O O10 0.694027 0.012658 0.793690
O O11 0.791600 0.980153 0.630753
O O12 0.756848 0.250000 0.000611
O O13 0.972682 0.441439 0.923105
O O14 0.635798 0.486608 0.125825
O O15 0.365532 0.250000 0.826338
O O16 0.247437 0.477233 0.838170
O O17 0.593676 0.451231 0.661855
O O18 0.344883 0.750000 0.120570
O O19 0.500000 0.500000 0.000000
O O20 0.770019 0.750000 0.216632
O O21 0.195963 0.750000 0.419321
#
# Coordination Sequence:
#
# PCOD9161806 Si02
#       8
#     4   4   4   4   4   4   4   4
#     4  10  21  37  60  86 116 155 196 241 294 352
#     4  10  22  41  61  85 117 156 199 244 298 358
#     4  10  21  40  62  85 118 154 194 244 299 356
#     4  10  20  34  54  81 116 153 191 237 289 346
#     4  10  20  34  55  82 112 149 193 238 287 343
#     4  12  26  43  65  92 122 157 200 251 307 365
#     4   9  19  35  53  78 113 151 191 237 288 342
#     4   9  20  38  60  85 114 154 198 242 295 352
#
# _framework density 20.036076999999999
#
# number of rings (size 3 to 8) (size 9 to 14) (size 15 to 20)
#    0.000    2.000    0.000    3.000    1.750    4.500 
#    0.000    2.500    0.000    0.000    0.000    0.000 
#    0.000    0.000    0.000    0.000    0.000    0.000 
#
# Total GULP energy -178752.292135 kJ/mol
# GULP energy per Si atom -5586.009129 kJ/mol
# Density = 1.999047 g / cm^3
# Si number density = 20.036077 Si / 1000 Ang^3
#
#
#
# Elastic Constant Matrix: (Units=GPa)
#
#
# Indices 1 2 3 4 5 6 
#
# 1 44.8007 20.6265 4.5908 0.0000 6.9694 0.0000
# 2 20.6265 69.2545 40.7582 0.0000 6.9783 0.0000
# 3 4.5908 40.7582 96.5855 0.0000 12.1388 0.0000
# 4 0.0000 0.0000 0.0000 30.8798 0.0000 4.4722
# 5 6.9694 6.9783 12.1388 0.0000 18.6004 0.0000
# 6 0.0000 0.0000 0.0000 4.4722 0.0000 29.5846
#
#
#
# Elastic Compliance Matrix: (Units=1/GPa)
#
#
# Indices 1 2 3 4 5 6 
#
# 1 0.027821 -0.009654 0.003929 0.000000 -0.009366 0.000000
# 2 -0.009654 0.022636 -0.009238 0.000000 0.001154 0.000000
# 3 0.003929 -0.009238 0.015049 0.000000 -0.007827 0.000000
# 4 0.000000 0.000000 0.000000 0.033108 0.000000 -0.005005
# 5 -0.009366 0.001154 -0.007827 0.000000 0.061947 0.000000
# 6 0.000000 0.000000 0.000000 -0.005005 0.000000 0.034558
#
#
# Mechanical properties :
#
#
# Convention : Reuss Voigt Hill
#
# Bulk Modulus (GPa) = 28.10762 38.06574 33.08668
# Shear Modulus (GPa) = 21.10550 25.45731 23.28140
#
# Velocity S-wave (km/s) = 3.24909 3.56838 3.41247
# Velocity P-wave (km/s) = 5.30419 6.00147 5.66357
#
# Compressibility (1/GPa) = 0.03557754
#
# Stress axis : x y z
#
# Youngs Moduli (GPa) = 35.94469 44.17823 66.44988
#
# Poissons Ratio (x) = 0.42652 -0.26107
# Poissons Ratio (y) = 0.34703 0.61388
# Poissons Ratio (z) = -0.14122 0.40813
#
# Static dielectric constant tensor:
#      x y z
#    x 1.718690 0.000000 -0.038160 
#    y 0.000000 1.672430 0.000000 
#    z -0.038160 0.000000 1.720260 
# 
# From -- ./inp_files/68996.got.cif
#   From: 2010.05.17/outbox.cif.g08.bks.cpg/sg11_35_cif.got.tgz:68996.got - 2010.06.03 12:22:45.
