data_PCOD9161102
_publ_section_title
;
Structure prediction by ZEFSAII (Michael W. Deem and Ramdas Pophale) SiO2 
 PCOD9161102
Probable space group: P 21/M
;
_chemical_formula_sum "Si O2"
_cell_formula_units_Z 32
_cell_length_a 21.896207
_cell_length_b 7.452131
_cell_length_c 12.581123
_cell_angle_alpha 90.000000
_cell_angle_beta 44.068659
_cell_angle_gamma 90.000000
_cell_volume 1427.835987
_symmetry_space_group_name_H-M "P 21/M"
_symmetry_group_IT_number 11
_symmetry_cell_setting 'monoclinic'
loop_
_space_group_symop_operation_xyz
x,y,z
-x,1/2+y,-z
-x,-y,-z
x,1/2-y,z
loop_
_atom_site_type_symbol
_atom_site_label
_atom_site_fract_x
_atom_site_fract_y
_atom_site_fract_z
Si Si1 0.903222 0.464679 0.074961
Si Si2 0.598796 0.538045 0.842642
Si Si3 0.848458 0.534640 0.504221
Si Si4 0.631072 0.968084 0.037356
Si Si5 0.439560 0.950742 0.341441
Si Si6 0.183370 0.464986 0.216372
Si Si7 0.254607 0.965768 0.580179
Si Si8 0.956956 0.464148 0.783421
O O1 0.891601 0.250000 0.087411
O O2 0.825269 0.534823 0.246807
O O3 0.906257 0.533501 0.950467
O O4 0.000000 0.500000 0.000000
O O5 0.615562 0.750000 0.803963
O O6 0.598502 0.440489 0.731245
O O7 0.500000 0.500000 0.000000
O O8 0.643135 0.483167 0.897252
O O9 0.853512 0.750000 0.506343
O O10 0.828913 0.466876 0.647582
O O11 0.776722 0.500050 0.502533
O O12 0.943639 0.465811 0.348160
O O13 0.621782 0.750000 0.050955
O O14 0.538095 0.032467 0.204152
O O15 0.727209 0.024393 0.957074
O O16 0.451630 0.750000 0.370746
O O17 0.350465 0.036297 0.500008
O O18 0.192352 0.250000 0.213450
O O19 0.098107 0.503321 0.253499
O O20 0.259956 0.750000 0.584170
O O21 0.964617 0.250000 0.787213
#
# Coordination Sequence:
#
# PCOD9161102 Si02
#       8
#     4   4   4   4   4   4   4   4
#     4  10  20  36  56  77 101 129 165 209 259 309
#     4   9  15  25  42  64  93 130 167 203 245 293
#     4  10  20  34  51  74 106 137 165 206 257 308
#     4   8  15  28  44  63  93 130 165 201 239 285
#     4   9  17  29  44  67  99 130 163 205 251 298
#     4  10  20  33  51  74  99 135 178 208 241 296
#     4  10  20  32  52  80 104 131 169 210 255 309
#     4  10  21  36  52  72 101 134 166 209 262 306
#
# _framework density 22.411536999999999
#
# number of rings (size 3 to 8) (size 9 to 14) (size 15 to 20)
#    0.000    2.500    1.250    2.250    0.000    3.000 
#    0.000    3.125    0.000    0.750    0.000    0.000 
#    0.000    0.000    0.000    0.000    0.000    0.000 
#
# Total GULP energy -178167.621927 kJ/mol
# GULP energy per Si atom -5567.738185 kJ/mol
# Density = 2.236053 g / cm^3
# Si number density = 22.411537 Si / 1000 Ang^3
#
#
#
# Elastic Constant Matrix: (Units=GPa)
#
#
# Indices 1 2 3 4 5 6 
#
# 1 49.7395 -5.2655 20.6331 0.0000 -12.9378 0.0000
# 2 -5.2655 70.8571 2.6164 0.0000 -0.2014 0.0000
# 3 20.6331 2.6164 81.2331 0.0000 -3.6355 0.0000
# 4 0.0000 0.0000 0.0000 0.8018 0.0000 -0.0899
# 5 -12.9378 -0.2014 -3.6355 0.0000 30.2143 0.0000
# 6 0.0000 0.0000 0.0000 -0.0899 0.0000 10.4841
#
#
#
# Elastic Compliance Matrix: (Units=1/GPa)
#
#
# Indices 1 2 3 4 5 6 
#
# 1 0.025515 0.002150 -0.006093 0.000000 0.010207 0.000000
# 2 0.002150 0.014311 -0.000967 0.000000 0.000900 0.000000
# 3 -0.006093 -0.000967 0.013847 0.000000 -0.000949 0.000000
# 4 0.000000 0.000000 0.000000 1.248345 0.000000 0.010706
# 5 0.010207 0.000900 -0.000949 0.000000 0.037359 0.000000
# 6 0.000000 0.000000 0.000000 0.010706 0.000000 0.095474
#
#
# Mechanical properties :
#
#
# Convention : Reuss Voigt Hill
#
# Bulk Modulus (GPa) = 22.80374 26.42197 24.61286
# Shear Modulus (GPa) = 3.42633 20.55643 11.99138
#
# Velocity S-wave (km/s) = 1.23780 3.03186 2.31563
# Velocity P-wave (km/s) = 3.49856 4.90625 4.26094
#
# Compressibility (1/GPa) = 0.04385246
#
# Stress axis : x y z
#
# Youngs Moduli (GPa) = 39.19291 69.87657 72.22010
#
# Poissons Ratio (x) = -0.15024 0.44005
# Poissons Ratio (y) = -0.08427 0.06982
# Poissons Ratio (z) = 0.23881 0.06755
#
# Static dielectric constant tensor:
#      x y z
#    x 2.489320 0.000000 0.385110 
#    y 0.000000 1.856360 0.000000 
#    z 0.385110 0.000000 2.171910 
# 
# From -- ./inp_files/42800.got.cif
#   From: 2010.05.17/outbox.cif.g08.bks.cpg/sg11_22_cif.got.tgz:42800.got - 2010.06.03 12:22:45.
