data_PCOD9161587
_publ_section_title
;
Structure prediction by ZEFSAII (Michael W. Deem and Ramdas Pophale) SiO2 
 PCOD9161587
Probable space group: P 21/M
;
_chemical_formula_sum "Si O2"
_cell_formula_units_Z 24
_cell_length_a 11.292927
_cell_length_b 8.984722
_cell_length_c 24.237364
_cell_angle_alpha 90.000000
_cell_angle_beta 35.405932
_cell_angle_gamma 90.000000
_cell_volume 1424.784647
_symmetry_space_group_name_H-M "P 21/M"
_symmetry_group_IT_number 11
_symmetry_cell_setting 'monoclinic'
loop_
_space_group_symop_operation_xyz
x,y,z
-x,1/2+y,-z
-x,-y,-z
x,1/2-y,z
loop_
_atom_site_type_symbol
_atom_site_label
_atom_site_fract_x
_atom_site_fract_y
_atom_site_fract_z
Si Si1 0.341991 0.427438 0.016844
Si Si2 0.390390 0.072658 0.169153
Si Si3 0.830307 0.572490 0.636826
Si Si4 0.415373 0.072756 0.588142
Si Si5 0.017819 0.427269 0.225814
Si Si6 0.739308 0.926537 0.544101
O O1 0.365933 0.250000 0.008761
O O2 0.120973 0.460896 0.127162
O O3 0.500000 0.500000 0.000000
O O4 0.414275 0.490890 0.930930
O O5 0.425673 0.250000 0.153044
O O6 0.325856 0.031041 0.255450
O O7 0.192509 0.042080 0.205429
O O8 0.872189 0.750000 0.626319
O O9 0.745037 0.546654 0.607804
O O10 0.043154 0.485198 0.561032
O O11 0.425826 0.250000 0.580283
O O12 0.500000 0.000000 0.500000
O O13 0.558791 0.013017 0.582683
O O14 0.184750 0.018461 0.685641
O O15 0.973898 0.250000 0.244972
O O16 0.719996 0.750000 0.541841
#
# Coordination Sequence:
#
# PCOD9161587 Si02
#       6
#     4   4   4   4   4   4
#     4   9  17  29  47  71  99 129 160 199 244 289
#     4   9  17  30  50  75 102 129 159 199 244 290
#     4   9  18  33  53  76 102 132 165 203 245 288
#     4  12  24  36  52  73  99 131 166 204 246 296
#     4   9  18  32  49  72 103 133 160 198 247 292
#     4  10  20  34  52  74 101 133 167 203 245 292
#
# _framework density 16.844650000000001
#
# number of rings (size 3 to 8) (size 9 to 14) (size 15 to 20)
#    0.000    2.333    0.000    4.500    0.000    6.000 
#    0.000    0.000    0.000    1.000    0.000    0.000 
#    0.000    0.000    0.000    0.000    0.000    0.000 
#
# Total GULP energy -133855.169693 kJ/mol
# GULP energy per Si atom -5577.298737 kJ/mol
# Density = 1.680631 g / cm^3
# Si number density = 16.844650 Si / 1000 Ang^3
#
#
#
# Elastic Constant Matrix: (Units=GPa)
#
#
# Indices 1 2 3 4 5 6 
#
# 1 37.3527 37.7782 41.4154 0.0000 5.1583 0.0000
# 2 37.7782 81.2815 71.0770 0.0000 0.7252 0.0000
# 3 41.4154 71.0770 146.2804 0.0000 22.8340 0.0000
# 4 0.0000 0.0000 0.0000 35.2844 0.0000 0.0973
# 5 5.1583 0.7252 22.8340 0.0000 27.3270 0.0000
# 6 0.0000 0.0000 0.0000 0.0973 0.0000 23.6023
#
#
#
# Elastic Compliance Matrix: (Units=1/GPa)
#
#
# Indices 1 2 3 4 5 6 
#
# 1 0.053642 -0.021706 -0.003622 0.000000 -0.006523 0.000000
# 2 -0.021706 0.032469 -0.011656 0.000000 0.012975 0.000000
# 3 -0.003622 -0.011656 0.015376 0.000000 -0.011855 0.000000
# 4 0.000000 0.000000 0.000000 0.028341 0.000000 -0.000117
# 5 -0.006523 0.012975 -0.011855 0.000000 0.047386 0.000000
# 6 0.000000 0.000000 0.000000 -0.000117 0.000000 0.042369
#
#
# Mechanical properties :
#
#
# Convention : Reuss Voigt Hill
#
# Bulk Modulus (GPa) = 36.34059 62.82840 49.58449
# Shear Modulus (GPa) = 16.51658 24.88568 20.70113
#
# Velocity S-wave (km/s) = 3.13473 3.84782 3.50943
# Velocity P-wave (km/s) = 5.89261 7.55782 6.77656
#
# Compressibility (1/GPa) = 0.02751744
#
# Stress axis : x y z
#
# Youngs Moduli (GPa) = 18.64200 30.79886 65.03671
#
# Poissons Ratio (x) = 0.66853 0.23557
# Poissons Ratio (y) = 0.40465 0.75809
# Poissons Ratio (z) = 0.06752 0.35900
#
# Static dielectric constant tensor:
#      x y z
#    x 1.566450 0.000000 0.031610 
#    y 0.000000 1.561080 0.000000 
#    z 0.031610 0.000000 1.578460 
# 
# From -- ./inp_files/40808.got.cif
#   From: 2010.05.17/outbox.cif.g08.bks.cpg/sg11_21_cif.got.tgz:40808.got - 2010.06.03 12:22:45.
