data_PCOD9161537
_publ_section_title
;
Structure prediction by ZEFSAII (Michael W. Deem and Ramdas Pophale) SiO2 
 PCOD9161537
Probable space group: P 21/M
;
_chemical_formula_sum "Si O2"
_cell_formula_units_Z 32
_cell_length_a 11.543836
_cell_length_b 9.073795
_cell_length_c 19.468801
_cell_angle_alpha 90.000000
_cell_angle_beta 95.426426
_cell_angle_gamma 90.000000
_cell_volume 2030.147686
_symmetry_space_group_name_H-M "P 21/M"
_symmetry_group_IT_number 11
_symmetry_cell_setting 'monoclinic'
loop_
_space_group_symop_operation_xyz
x,y,z
-x,1/2+y,-z
-x,-y,-z
x,1/2-y,z
loop_
_atom_site_type_symbol
_atom_site_label
_atom_site_fract_x
_atom_site_fract_y
_atom_site_fract_z
Si Si1 0.501996 0.573297 0.707076
Si Si2 0.938207 0.425993 0.395419
Si Si3 0.239106 0.926857 0.731478
Si Si4 0.621735 0.572382 0.983134
Si Si5 0.428541 0.921737 0.154474
Si Si6 0.703702 0.579108 0.130032
Si Si7 0.832336 0.424657 0.539650
Si Si8 0.587984 0.926650 0.558621
O O1 0.508461 0.750000 0.717541
O O2 0.366208 0.529783 0.708779
O O3 0.575277 0.494627 0.770933
O O4 0.546376 0.538790 0.633659
O O5 0.961172 0.250000 0.391589
O O6 0.862149 0.474608 0.325979
O O7 0.863660 0.447953 0.460958
O O8 0.057956 0.512547 0.412182
O O9 0.237285 0.750000 0.733211
O O10 0.231116 0.987416 0.808220
O O11 0.610353 0.750000 0.980508
O O12 0.641833 0.507682 0.908610
O O13 0.500000 0.500000 0.000000
O O14 0.710075 0.534723 0.050231
O O15 0.397277 0.750000 0.153724
O O16 0.565864 0.931423 0.141269
O O17 0.736703 0.750000 0.137637
O O18 0.818667 0.250000 0.549686
O O19 0.715683 0.509405 0.552540
O O20 0.586773 0.750000 0.550520
O O21 0.500000 0.000000 0.500000
#
# Coordination Sequence:
#
# PCOD9161537 Si02
#       8
#     4   4   4   4   4   4   4   4
#     4   9  18  31  45  63  89 121 153 185 224 270
#     4   9  18  33  50  68  91 118 150 188 230 275
#     4   9  16  27  44  63  86 117 150 184 222 265
#     4   9  15  23  35  52  78 113 149 184 221 262
#     4   9  16  25  38  57  81 112 149 186 222 263
#     4   8  15  24  34  54  83 112 144 180 217 260
#     4  10  20  34  51  70  91 117 152 191 230 273
#     4  11  22  35  51  70  94 123 154 189 229 272
#
# _framework density 15.7624
#
# number of rings (size 3 to 8) (size 9 to 14) (size 15 to 20)
#    0.000    2.750    0.000    3.000    0.000    7.500 
#    0.000    2.500    0.000    0.000    0.000    0.000 
#    0.000    1.000    0.000    3.250    0.000    5.000 
#
# Total GULP energy -178241.012831 kJ/mol
# GULP energy per Si atom -5570.031651 kJ/mol
# Density = 1.572652 g / cm^3
# Si number density = 15.762400 Si / 1000 Ang^3
#
#
#
# Elastic Constant Matrix: (Units=GPa)
#
#
# Indices 1 2 3 4 5 6 
#
# 1 60.3979 34.9162 60.0751 0.0000 14.1348 0.0000
# 2 34.9162 57.0213 70.6604 0.0000 10.0338 0.0000
# 3 60.0751 70.6604 157.9436 0.0000 28.5232 0.0000
# 4 0.0000 0.0000 0.0000 30.8985 0.0000 4.2737
# 5 14.1348 10.0338 28.5232 0.0000 21.4063 0.0000
# 6 0.0000 0.0000 0.0000 4.2737 0.0000 19.5461
#
#
#
# Elastic Compliance Matrix: (Units=1/GPa)
#
#
# Indices 1 2 3 4 5 6 
#
# 1 0.029476 -0.010149 -0.005288 0.000000 -0.007661 0.000000
# 2 -0.010149 0.043571 -0.017323 0.000000 0.009361 0.000000
# 3 -0.005288 -0.017323 0.018431 0.000000 -0.012947 0.000000
# 4 0.000000 0.000000 0.000000 0.033373 0.000000 -0.007297
# 5 -0.007661 0.009361 -0.012947 0.000000 0.064637 0.000000
# 6 0.000000 0.000000 0.000000 -0.007297 0.000000 0.052757
#
#
# Mechanical properties :
#
#
# Convention : Reuss Voigt Hill
#
# Bulk Modulus (GPa) = 38.52244 67.40737 52.96491
# Shear Modulus (GPa) = 15.80189 21.68426 18.74308
#
# Velocity S-wave (km/s) = 3.16967 3.71306 3.45207
# Velocity P-wave (km/s) = 6.15534 7.82559 7.04018
#
# Compressibility (1/GPa) = 0.02595889
#
# Stress axis : x y z
#
# Youngs Moduli (GPa) = 33.92562 22.95086 54.25743
#
# Poissons Ratio (x) = 0.23293 0.28690
# Poissons Ratio (y) = 0.34431 0.93991
# Poissons Ratio (z) = 0.17939 0.39758
#
# Static dielectric constant tensor:
#      x y z
#    x 1.499230 0.000000 0.006720 
#    y 0.000000 1.527510 0.000000 
#    z 0.006720 0.000000 1.550470 
# 
# From -- ./inp_files/42566.got.cif
#   From: 2010.05.17/outbox.cif.g08.bks.cpg/sg11_22_cif.got.tgz:42566.got - 2010.06.03 12:22:45.
