data_PCOD9161582
_publ_section_title
;
Structure prediction by ZEFSAII (Michael W. Deem and Ramdas Pophale) SiO2 
 PCOD9161582
Probable space group: P 21/M
;
_chemical_formula_sum "Si O2"
_cell_formula_units_Z 24
_cell_length_a 21.662664
_cell_length_b 7.603565
_cell_length_c 9.440183
_cell_angle_alpha 90.000000
_cell_angle_beta 130.831886
_cell_angle_gamma 90.000000
_cell_volume 1176.505177
_symmetry_space_group_name_H-M "P 21/M"
_symmetry_group_IT_number 11
_symmetry_cell_setting 'monoclinic'
loop_
_space_group_symop_operation_xyz
x,y,z
-x,1/2+y,-z
-x,-y,-z
x,1/2-y,z
loop_
_atom_site_type_symbol
_atom_site_label
_atom_site_fract_x
_atom_site_fract_y
_atom_site_fract_z
Si Si1 0.729837 0.544033 0.750548
Si Si2 0.419460 0.461628 0.289527
Si Si3 0.916095 0.963215 0.711608
Si Si4 0.090965 0.955769 0.963389
Si Si5 0.419479 0.038721 0.969096
Si Si6 0.738075 0.534387 0.438575
O O1 0.711621 0.750000 0.707304
O O2 0.660169 0.469425 0.747204
O O3 0.728611 0.473057 0.587709
O O4 0.821589 0.530808 0.948724
O O5 0.500000 0.500000 0.500000
O O6 0.411945 0.250000 0.268513
O O7 0.426154 0.529082 0.139319
O O8 0.918891 0.750000 0.713393
O O9 0.828284 0.018623 0.519828
O O10 0.002819 0.026686 0.779918
O O11 0.912710 0.017626 0.871756
O O12 0.094153 0.750000 0.936414
O O13 0.412448 0.250000 0.964757
O O14 0.337888 0.974090 0.768260
O O15 0.500000 0.000000 0.000000
O O16 0.737985 0.750000 0.439937
#
# Coordination Sequence:
#
# PCOD9161582 Si02
#       6
#     4   4   4   4   4   4
#     4   9  17  30  46  65  93 127 157 188 233 283
#     4  10  21  35  52  73  96 125 161 198 239 289
#     4   8  14  25  41  63  92 124 154 187 232 279
#     4   9  15  23  40  67  93 118 154 196 231 268
#     4  10  20  34  52  73  95 122 158 197 239 287
#     4   8  14  27  47  66  88 121 156 188 226 275
#
# _framework density 20.3994
#
# number of rings (size 3 to 8) (size 9 to 14) (size 15 to 20)
#    0.000    3.000    0.000    2.500    0.000    3.333 
#    0.000    5.000    0.000    1.000    0.000    0.000 
#    0.000    0.000    0.000    0.000    0.000    1.500 
#
# Total GULP energy -133703.684107 kJ/mol
# GULP energy per Si atom -5570.986838 kJ/mol
# Density = 2.035297 g / cm^3
# Si number density = 20.399400 Si / 1000 Ang^3
#
#
#
# Elastic Constant Matrix: (Units=GPa)
#
#
# Indices 1 2 3 4 5 6 
#
# 1 176.7159 0.4470 116.9150 0.0000 49.1459 0.0000
# 2 0.4470 40.2797 3.0912 0.0000 -3.0009 0.0000
# 3 116.9150 3.0912 170.2706 0.0000 53.8439 0.0000
# 4 0.0000 0.0000 0.0000 14.3493 0.0000 7.2244
# 5 49.1459 -3.0009 53.8439 0.0000 57.5887 0.0000
# 6 0.0000 0.0000 0.0000 7.2244 0.0000 17.3738
#
#
#
# Elastic Compliance Matrix: (Units=1/GPa)
#
#
# Indices 1 2 3 4 5 6 
#
# 1 0.010779 0.000130 -0.006384 0.000000 -0.003222 0.000000
# 2 0.000130 0.025106 -0.001312 0.000000 0.002423 0.000000
# 3 -0.006384 -0.001312 0.012181 0.000000 -0.006009 0.000000
# 4 0.000000 0.000000 0.000000 0.088142 0.000000 -0.036651
# 5 -0.003222 0.002423 -0.006009 0.000000 0.025859 0.000000
# 6 0.000000 0.000000 0.000000 -0.036651 0.000000 0.072798
#
#
# Mechanical properties :
#
#
# Convention : Reuss Voigt Hill
#
# Bulk Modulus (GPa) = 30.36378 69.79693 50.08035
# Shear Modulus (GPa) = 19.15899 35.64990 27.40445
#
# Velocity S-wave (km/s) = 3.06795 4.18496 3.66921
# Velocity P-wave (km/s) = 5.24087 7.59219 6.52334
#
# Compressibility (1/GPa) = 0.03293398
#
# Stress axis : x y z
#
# Youngs Moduli (GPa) = 92.77722 39.83089 82.09746
#
# Poissons Ratio (x) = -0.00519 0.52414
# Poissons Ratio (y) = -0.01209 0.10768
# Poissons Ratio (z) = 0.59232 0.05224
#
# Static dielectric constant tensor:
#      x y z
#    x 1.745070 0.000000 0.027950 
#    y 0.000000 1.823030 0.000000 
#    z 0.027950 0.000000 1.731910 
# 
# From -- ./inp_files/25753.got.cif
#   From: 2010.05.17/outbox.cif.g08.bks.cpg/sg11_13_cif.got.tgz:25753.got - 2010.06.03 12:22:45.
