data_PCOD9161543
_publ_section_title
;
Structure prediction by ZEFSAII (Michael W. Deem and Ramdas Pophale) SiO2 
 PCOD9161543
Probable space group: P 21/M
;
_chemical_formula_sum "Si O2"
_cell_formula_units_Z 28
_cell_length_a 7.032033
_cell_length_b 9.260472
_cell_length_c 19.784200
_cell_angle_alpha 90.000000
_cell_angle_beta 70.341863
_cell_angle_gamma 90.000000
_cell_volume 1213.256813
_symmetry_space_group_name_H-M "P 21/M"
_symmetry_group_IT_number 11
_symmetry_cell_setting 'monoclinic'
loop_
_space_group_symop_operation_xyz
x,y,z
-x,1/2+y,-z
-x,-y,-z
x,1/2-y,z
loop_
_atom_site_type_symbol
_atom_site_label
_atom_site_fract_x
_atom_site_fract_y
_atom_site_fract_z
Si Si1 0.353852 0.587886 0.204065
Si Si2 0.185710 0.914739 0.629427
Si Si3 0.865418 0.588503 0.234688
Si Si4 0.695853 0.586605 0.663747
Si Si5 0.000685 0.074357 0.925244
Si Si6 0.209180 0.421433 0.494456
Si Si7 0.609031 0.918750 0.926914
O O1 0.423797 0.750000 0.183104
O O2 0.109735 0.589832 0.220470
O O3 0.387969 0.531280 0.275055
O O4 0.448806 0.479325 0.138767
O O5 0.253476 0.750000 0.614612
O O6 0.940471 0.914864 0.646574
O O7 0.272207 0.010884 0.558087
O O8 0.217401 0.975032 0.701101
O O9 0.793867 0.750000 0.260372
O O10 0.839219 0.568408 0.156655
O O11 0.630273 0.750000 0.688637
O O12 0.659605 0.558004 0.589083
O O13 0.958042 0.250000 0.937381
O O14 0.834355 0.971413 0.911438
O O15 0.000000 0.000000 0.000000
O O16 0.177162 0.250000 0.505708
O O17 0.000000 0.500000 0.500000
O O18 0.580623 0.750000 0.935434
O O19 0.500000 0.000000 0.000000
#
# Coordination Sequence:
#
# PCOD9161543 Si02
#       7
#     4   4   4   4   4   4   4
#     4   9  16  26  40  58  79 106 141 180 221 267
#     4   9  15  21  31  47  68  96 133 172 211 254
#     4   8  15  26  39  55  78 107 140 176 215 262
#     4   8  14  22  31  46  68  98 134 171 211 257
#     4  10  20  34  51  72  95 122 156 193 235 281
#     4   9  15  21  29  42  64  94 130 169 209 252
#     4  11  21  34  51  70  94 123 156 195 235 279
#
# _framework density 23.078378000000001
#
# number of rings (size 3 to 8) (size 9 to 14) (size 15 to 20)
#    0.000    2.857    0.000    4.714    0.000    8.000 
#    0.000    0.000    0.000    0.000    0.000    0.000 
#    0.000    0.000    0.000    1.286    0.000   18.286 
#
# Total GULP energy -156176.438310 kJ/mol
# GULP energy per Si atom -5577.729940 kJ/mol
# Density = 2.302585 g / cm^3
# Si number density = 23.078378 Si / 1000 Ang^3
#
#
#
# Elastic Constant Matrix: (Units=GPa)
#
#
# Indices 1 2 3 4 5 6 
#
# 1 65.9691 18.2679 12.4886 0.0000 24.7962 0.0000
# 2 18.2679 209.8432 122.4396 0.0000 13.1350 0.0000
# 3 12.4886 122.4396 175.6609 0.0000 27.6162 0.0000
# 4 0.0000 0.0000 0.0000 50.9078 0.0000 4.6246
# 5 24.7962 13.1350 27.6162 0.0000 31.8774 0.0000
# 6 0.0000 0.0000 0.0000 4.6246 0.0000 15.1783
#
#
#
# Elastic Compliance Matrix: (Units=1/GPa)
#
#
# Indices 1 2 3 4 5 6 
#
# 1 0.022518 -0.002676 0.003293 0.000000 -0.019266 0.000000
# 2 -0.002676 0.008439 -0.006335 0.000000 0.004092 0.000000
# 3 0.003293 -0.006335 0.011422 0.000000 -0.009847 0.000000
# 4 0.000000 0.000000 0.000000 0.020203 0.000000 -0.006155
# 5 -0.019266 0.004092 -0.009847 0.000000 0.053201 0.000000
# 6 0.000000 0.000000 0.000000 -0.006155 0.000000 0.067759
#
#
# Mechanical properties :
#
#
# Convention : Reuss Voigt Hill
#
# Bulk Modulus (GPa) = 32.31726 84.20727 58.26227
# Shear Modulus (GPa) = 24.35566 39.47784 31.91675
#
# Velocity S-wave (km/s) = 3.25213 4.14043 3.72287
# Velocity P-wave (km/s) = 5.30429 7.70871 6.61663
#
# Compressibility (1/GPa) = 0.03094321
#
# Stress axis : x y z
#
# Youngs Moduli (GPa) = 44.40929 118.50274 87.54757
#
# Poissons Ratio (x) = 0.31708 -0.28830
# Poissons Ratio (y) = 0.11883 0.55462
# Poissons Ratio (z) = -0.14624 0.75072
#
# Static dielectric constant tensor:
#      x y z
#    x 2.239420 0.000000 -0.000400 
#    y 0.000000 1.763590 0.000000 
#    z -0.000400 0.000000 1.890470 
# 
# From -- ./inp_files/64070.got.cif
#   From: 2010.05.17/outbox.cif.g08.bks.cpg/sg11_33_cif.got.tgz:64070.got - 2010.06.03 12:22:45.
