data_PCOD9161664
_publ_section_title
;
Structure prediction by ZEFSAII (Michael W. Deem and Ramdas Pophale) SiO2 
 PCOD9161664
Probable space group: P 21/M
;
_chemical_formula_sum "Si O2"
_cell_formula_units_Z 28
_cell_length_a 15.567161
_cell_length_b 12.330985
_cell_length_c 8.374464
_cell_angle_alpha 90.000000
_cell_angle_beta 110.914553
_cell_angle_gamma 90.000000
_cell_volume 1501.633714
_symmetry_space_group_name_H-M "P 21/M"
_symmetry_group_IT_number 11
_symmetry_cell_setting 'monoclinic'
loop_
_space_group_symop_operation_xyz
x,y,z
-x,1/2+y,-z
-x,-y,-z
x,1/2-y,z
loop_
_atom_site_type_symbol
_atom_site_label
_atom_site_fract_x
_atom_site_fract_y
_atom_site_fract_z
Si Si1 0.826037 0.128094 0.212591
Si Si2 0.173963 0.371906 0.287410
Si Si3 0.389533 0.626740 0.882507
Si Si4 0.068783 0.555764 0.420964
Si Si5 0.931216 0.944237 0.079036
Si Si6 0.610467 0.873260 0.617491
Si Si7 0.500001 0.460292 0.750000
O O1 0.845692 0.250000 0.164919
O O2 0.716815 0.110338 0.142771
O O3 0.862734 0.120747 0.419291
O O4 0.875670 0.036958 0.138854
O O5 0.154306 0.250000 0.335080
O O6 0.124330 0.463042 0.361146
O O7 0.283185 0.389660 0.357233
O O8 0.137266 0.379253 0.080710
O O9 0.399609 0.750000 0.829573
O O10 0.423929 0.538989 0.778103
O O11 0.452738 0.609048 0.080101
O O12 0.000000 0.500000 0.500000
O O13 1.000000 0.613525 0.250000
O O14 0.000000 0.000000 0.000000
O O15 0.600391 0.750000 0.670425
O O16 0.547260 0.890952 0.419898
O O17 0.576073 0.961012 0.721897
#
# Coordination Sequence:
#
# PCOD9161664 Si02
#       7
#     4   4   4   4   4   4   4
#     4  10  20  35  54  75 103 136 169 210 255 298
#     4  10  20  35  54  75 103 136 169 210 255 298
#     4  10  20  34  53  77 103 135 172 207 252 304
#     4   9  19  34  52  75 101 130 170 210 249 303
#     4   9  19  34  52  75 101 130 170 210 249 303
#     4  10  20  34  53  77 103 135 172 207 252 304
#     4  10  20  34  54  76 106 136 166 212 254 294
#
# _framework density 18.646360000000001
#
# number of rings (size 3 to 8) (size 9 to 14) (size 15 to 20)
#    0.000    2.286    0.000    2.571    0.000    5.714 
#    0.000    4.286    0.000   24.000    0.000    0.000 
#    0.000    0.000    0.000    0.000    0.000    0.000 
#
# Total GULP energy -156084.883475 kJ/mol
# GULP energy per Si atom -5574.460124 kJ/mol
# Density = 1.860392 g / cm^3
# Si number density = 18.646360 Si / 1000 Ang^3
#
#
#
# Elastic Constant Matrix: (Units=GPa)
#
#
# Indices 1 2 3 4 5 6 
#
# 1 70.3456 35.1748 7.0576 0.0000 8.7684 0.0000
# 2 35.1748 70.9615 0.0061 0.0000 2.6578 0.0000
# 3 7.0576 0.0061 42.0796 0.0000 2.1258 0.0000
# 4 0.0000 0.0000 0.0000 12.6394 0.0000 -20.6477
# 5 8.7684 2.6578 2.1258 0.0000 26.8394 0.0000
# 6 0.0000 0.0000 0.0000 -20.6477 0.0000 -128.0956
#
#
#
# Elastic Compliance Matrix: (Units=1/GPa)
#
#
# Indices 1 2 3 4 5 6 
#
# 1 0.020065 -0.009746 -0.003094 0.000000 -0.005345 0.000000
# 2 -0.009746 0.018878 0.001572 0.000000 0.001190 0.000000
# 3 -0.003094 0.001572 0.024337 0.000000 -0.001072 0.000000
# 4 0.000000 0.000000 0.000000 0.062627 0.000000 -0.010095
# 5 -0.005345 0.001190 -0.001072 0.000000 0.038972 0.000000
# 6 0.000000 0.000000 0.000000 -0.010095 0.000000 -0.006179
#
#
# Mechanical properties :
#
#
# Convention : Reuss Voigt Hill
#
# Bulk Modulus (GPa) = 24.54280 29.76262 27.15271
# Shear Modulus (GPa) = 25.66501 -8.31346 8.67577
#
# Velocity S-wave (km/s) = 3.71402 -2.11380 2.15937
# Velocity P-wave (km/s) = 5.61986 3.16839 4.56188
#
# Compressibility (1/GPa) = 0.04074515
#
# Stress axis : x y z
#
# Youngs Moduli (GPa) = 49.83724 52.97096 41.08909
#
# Poissons Ratio (x) = 0.51624 0.12713
# Poissons Ratio (y) = 0.48570 -0.06458
# Poissons Ratio (z) = 0.15419 -0.08325
#
# Static dielectric constant tensor:
#      x y z
#    x 1.614010 0.000000 0.020060 
#    y 0.000000 1.622610 0.000000 
#    z 0.020060 0.000000 1.665700 
# 
# From -- ./inp_files/21296.got.cif
#   From: 2010.05.17/outbox.cif.g08.bks.cpg/sg11_11_cif.got.tgz:21296.got - 2010.06.03 12:22:45.
