data_PCOD9161230
_publ_section_title
;
Structure prediction by ZEFSAII (Michael W. Deem and Ramdas Pophale) SiO2 
 PCOD9161230
Probable space group: P 21/M
;
_chemical_formula_sum "Si O2"
_cell_formula_units_Z 20
_cell_length_a 14.015021
_cell_length_b 8.430815
_cell_length_c 23.155078
_cell_angle_alpha 90.000000
_cell_angle_beta 24.354502
_cell_angle_gamma 90.000000
_cell_volume 1128.257815
_symmetry_space_group_name_H-M "P 21/M"
_symmetry_group_IT_number 11
_symmetry_cell_setting 'monoclinic'
loop_
_space_group_symop_operation_xyz
x,y,z
-x,1/2+y,-z
-x,-y,-z
x,1/2-y,z
loop_
_atom_site_type_symbol
_atom_site_label
_atom_site_fract_x
_atom_site_fract_y
_atom_site_fract_z
Si Si1 0.608740 0.559960 0.499751
Si Si2 0.460528 0.941712 0.930869
Si Si3 0.266620 0.558070 0.789406
Si Si4 0.746826 0.058503 0.072821
Si Si5 0.129869 0.059807 0.212892
O O1 0.500000 0.500000 0.500000
O O2 0.604318 0.750000 0.501828
O O3 0.450856 0.503741 0.640413
O O4 0.871973 0.503923 0.360167
O O5 0.457313 0.750000 0.933358
O O6 0.413988 0.995816 0.891238
O O7 0.700307 0.992807 0.828566
O O8 0.254715 0.000926 0.085734
O O9 0.262004 0.750000 0.791256
O O10 0.321254 0.506013 0.825022
O O11 0.009092 0.497920 0.917575
O O12 0.746264 0.250000 0.073157
O O13 0.123670 0.250000 0.215379
#
# Coordination Sequence:
#
# PCOD9161230 Si02
#       5
#     4   4   4   4   4
#     4  11  22  35  51  72 100 131 162 199 245 292
#     4   9  18  33  53  74  97 129 165 201 242 288
#     4   9  19  33  49  72  99 126 159 200 243 287
#     4   9  17  32  53  73  95 125 161 200 241 286
#     4  10  20  33  50  74 102 129 162 202 242 288
#
# _framework density 17.726444999999998
#
# number of rings (size 3 to 8) (size 9 to 14) (size 15 to 20)
#    0.000    2.400    0.000    2.400    0.000    6.400 
#    0.000    1.000    0.000    0.000    0.000    0.000 
#    0.000    0.000    0.000    0.000    0.000    0.000 
#
# Total GULP energy -111576.344025 kJ/mol
# GULP energy per Si atom -5578.817201 kJ/mol
# Density = 1.768610 g / cm^3
# Si number density = 17.726445 Si / 1000 Ang^3
#
#
#
# Elastic Constant Matrix: (Units=GPa)
#
#
# Indices 1 2 3 4 5 6 
#
# 1 169.0594 20.0240 90.1824 0.0000 5.0053 0.0000
# 2 20.0240 9.6108 15.6297 0.0000 1.2525 0.0000
# 3 90.1824 15.6297 147.7081 0.0000 3.8537 0.0000
# 4 0.0000 0.0000 0.0000 27.5557 0.0000 -3.4727
# 5 5.0053 1.2525 3.8537 0.0000 13.8878 0.0000
# 6 0.0000 0.0000 0.0000 -3.4727 0.0000 22.8822
#
#
#
# Elastic Compliance Matrix: (Units=1/GPa)
#
#
# Indices 1 2 3 4 5 6 
#
# 1 0.009998 -0.013051 -0.004694 0.000000 -0.001124 0.000000
# 2 -0.013051 0.143536 -0.007056 0.000000 -0.006283 0.000000
# 3 -0.004694 -0.007056 0.010397 0.000000 -0.000557 0.000000
# 4 0.000000 0.000000 0.000000 0.036998 0.000000 0.005615
# 5 -0.001124 -0.006283 -0.000557 0.000000 0.073132 0.000000
# 6 0.000000 0.000000 0.000000 0.005615 0.000000 0.044554
#
#
# Mechanical properties :
#
#
# Convention : Reuss Voigt Hill
#
# Bulk Modulus (GPa) = 8.74669 64.22784 36.48727
# Shear Modulus (GPa) = 12.30538 26.23462 19.27000
#
# Velocity S-wave (km/s) = 2.63759 3.85121 3.30066
# Velocity P-wave (km/s) = 3.77105 7.48914 5.92908
#
# Compressibility (1/GPa) = 0.11432896
#
# Stress axis : x y z
#
# Youngs Moduli (GPa) = 100.01915 6.96691 96.17999
#
# Poissons Ratio (x) = 0.09092 0.45147
# Poissons Ratio (y) = 1.30534 0.67866
# Poissons Ratio (z) = 0.46949 0.04916
#
# Static dielectric constant tensor:
#      x y z
#    x 1.628570 0.000000 0.010210 
#    y 0.000000 1.611740 0.000000 
#    z 0.010210 0.000000 1.567780 
# 
# From -- ./inp_files/16077.got.cif
#   From: 2010.05.17/outbox.cif.g08.bks.cpg/sg11_9_cif.got.tgz:16077.got - 2010.06.03 12:22:45.
