data_PCOD9161840
_publ_section_title
;
Structure prediction by ZEFSAII (Michael W. Deem and Ramdas Pophale) SiO2 
 PCOD9161840
Probable space group: P 21/M
;
_chemical_formula_sum "Si O2"
_cell_formula_units_Z 28
_cell_length_a 17.771273
_cell_length_b 11.621198
_cell_length_c 21.293257
_cell_angle_alpha 90.000000
_cell_angle_beta 19.882423
_cell_angle_gamma 90.000000
_cell_volume 1495.570090
_symmetry_space_group_name_H-M "P 21/M"
_symmetry_group_IT_number 11
_symmetry_cell_setting 'monoclinic'
loop_
_space_group_symop_operation_xyz
x,y,z
-x,1/2+y,-z
-x,-y,-z
x,1/2-y,z
loop_
_atom_site_type_symbol
_atom_site_label
_atom_site_fract_x
_atom_site_fract_y
_atom_site_fract_z
Si Si1 0.771166 0.382736 0.889401
Si Si2 0.980003 0.381619 0.595322
Si Si3 0.644190 0.458830 0.758402
Si Si4 0.890213 0.882562 0.116448
Si Si5 0.379757 0.615832 0.477390
Si Si6 0.005077 0.963913 0.161056
Si Si7 0.430702 0.380602 0.801233
O O1 0.704534 0.250000 0.932987
O O2 0.918012 0.416736 0.714397
O O3 0.905382 0.395573 0.848777
O O4 0.558947 0.464334 0.058554
O O5 0.054665 0.250000 0.537488
O O6 0.763216 0.393087 0.721542
O O7 0.170119 0.459123 0.417104
O O8 0.551938 0.384984 0.772932
O O9 0.955466 0.750000 0.043954
O O10 0.627332 0.892679 0.310941
O O11 0.940264 0.890845 0.151212
O O12 0.000000 0.000000 0.000000
O O13 0.310557 0.750000 0.533724
O O14 0.202364 0.539697 0.653090
O O15 0.411109 0.579855 0.379784
O O16 0.210993 0.043888 0.978568
O O17 0.368016 0.250000 0.834897
#
# Coordination Sequence:
#
# PCOD9161840 Si02
#       7
#     4   4   4   4   4   4   4
#     4  10  21  36  54  78 111 145 183 231 281 339
#     4  10  20  35  54  78 108 143 185 229 280 336
#     4  10  20  34  55  79 107 146 186 229 281 336
#     4  11  23  41  63  89 121 155 198 244 294 353
#     4  10  21  37  59  86 116 152 193 240 292 347
#     4  11  21  37  60  83 115 151 193 234 293 343
#     4  10  20  35  56  84 116 149 191 240 286 340
#
# _framework density 18.721958000000001
#
# number of rings (size 3 to 8) (size 9 to 14) (size 15 to 20)
#    0.000    1.714    1.429    3.429    0.000    0.571 
#    0.000    1.429    0.000   13.714    0.000    0.000 
#    0.000    0.000    0.000    0.000    0.000    0.000 
#
# Total GULP energy -156207.954317 kJ/mol
# GULP energy per Si atom -5578.855511 kJ/mol
# Density = 1.867935 g / cm^3
# Si number density = 18.721958 Si / 1000 Ang^3
#
#
#
# Elastic Constant Matrix: (Units=GPa)
#
#
# Indices 1 2 3 4 5 6 
#
# 1 71.7786 8.4940 4.7306 0.0000 12.1789 0.0000
# 2 8.4940 79.3530 43.1884 0.0000 10.7637 0.0000
# 3 4.7306 43.1884 53.6857 0.0000 9.4169 0.0000
# 4 0.0000 0.0000 0.0000 26.7159 0.0000 3.7377
# 5 12.1789 10.7637 9.4169 0.0000 28.8323 0.0000
# 6 0.0000 0.0000 0.0000 3.7377 0.0000 23.8669
#
#
#
# Elastic Compliance Matrix: (Units=1/GPa)
#
#
# Indices 1 2 3 4 5 6 
#
# 1 0.015067 -0.001144 0.000672 0.000000 -0.006157 0.000000
# 2 -0.001144 0.022693 -0.017772 0.000000 -0.002184 0.000000
# 3 0.000672 -0.017772 0.033680 0.000000 -0.004650 0.000000
# 4 0.000000 0.000000 0.000000 0.038269 0.000000 -0.005993
# 5 -0.006157 -0.002184 -0.004650 0.000000 0.039618 0.000000
# 6 0.000000 0.000000 0.000000 -0.005993 0.000000 0.042838
#
#
# Mechanical properties :
#
#
# Convention : Reuss Voigt Hill
#
# Bulk Modulus (GPa) = 28.60873 35.29372 31.95122
# Shear Modulus (GPa) = 20.80696 25.77663 23.29179
#
# Velocity S-wave (km/s) = 3.33733 3.71457 3.53099
# Velocity P-wave (km/s) = 5.49221 6.10654 5.80750
#
# Compressibility (1/GPa) = 0.03495436
#
# Stress axis : x y z
#
# Youngs Moduli (GPa) = 66.36817 44.06611 29.69093
#
# Poissons Ratio (x) = 0.05039 -0.01996
# Poissons Ratio (y) = 0.07589 0.52767
# Poissons Ratio (z) = -0.04462 0.78314
#
# Static dielectric constant tensor:
#      x y z
#    x 1.661850 0.000000 0.009710 
#    y 0.000000 1.632900 0.000000 
#    z 0.009710 0.000000 1.608090 
# 
# From -- ./inp_files/61478.got.cif
#   From: 2010.05.17/outbox.cif.g08.bks.cpg/sg11_31_cif.got.tgz:61478.got - 2010.06.03 12:22:45.
