data_PCOD9161524
_publ_section_title
;
Structure prediction by ZEFSAII (Michael W. Deem and Ramdas Pophale) SiO2 
 PCOD9161524
Probable space group: P 21/M
;
_chemical_formula_sum "Si O2"
_cell_formula_units_Z 32
_cell_length_a 21.060828
_cell_length_b 8.973424
_cell_length_c 26.665834
_cell_angle_alpha 90.000000
_cell_angle_beta 19.613141
_cell_angle_gamma 90.000000
_cell_volume 1691.602264
_symmetry_space_group_name_H-M "P 21/M"
_symmetry_group_IT_number 11
_symmetry_cell_setting 'monoclinic'
loop_
_space_group_symop_operation_xyz
x,y,z
-x,1/2+y,-z
-x,-y,-z
x,1/2-y,z
loop_
_atom_site_type_symbol
_atom_site_label
_atom_site_fract_x
_atom_site_fract_y
_atom_site_fract_z
Si Si1 0.814655 0.426527 0.116288
Si Si2 0.645266 0.582218 0.329128
Si Si3 0.410547 0.428049 0.919893
Si Si4 0.162846 0.569937 0.412787
Si Si5 0.810976 0.575191 0.497725
Si Si6 0.793581 0.079835 0.312033
Si Si7 0.988809 0.930721 0.747375
Si Si8 0.629043 0.075608 0.156039
O O1 0.827688 0.250000 0.105101
O O2 0.655729 0.475175 0.273862
O O3 0.767486 0.479907 0.095923
O O4 0.000000 0.500000 0.000000
O O5 0.701342 0.750000 0.273399
O O6 0.428000 0.585599 0.507922
O O7 0.782748 0.523860 0.271089
O O8 0.413466 0.250000 0.920343
O O9 0.629033 0.477370 0.763387
O O10 0.358833 0.479957 0.902615
O O11 0.233151 0.476586 0.085861
O O12 0.153904 0.750000 0.419583
O O13 0.142632 0.509082 0.484657
O O14 0.000000 0.500000 0.500000
O O15 0.862163 0.750000 0.463721
O O16 0.583170 0.566385 0.664118
O O17 0.906689 0.503309 0.377705
O O18 0.852050 0.250000 0.255732
O O19 0.913123 0.030213 0.271877
O O20 0.001592 0.750000 0.734022
O O21 0.664712 0.250000 0.117847
#
# Coordination Sequence:
#
# PCOD9161524 Si02
#       8
#     4   4   4   4   4   4   4   4
#     4  11  23  36  50  71 101 137 181 233 284 333
#     4  10  20  34  50  72 100 135 182 229 279 334
#     4   9  20  36  57  85 115 146 182 224 276 331
#     4  10  20  38  63  89 117 150 185 222 264 320
#     4  10  20  36  59  87 114 146 184 224 271 325
#     4   9  19  34  53  74 102 140 179 224 276 332
#     4  10  20  35  55  82 113 144 182 227 276 327
#     4   9  20  37  55  76 106 142 186 233 278 332
#
# _framework density 18.916975999999998
#
# number of rings (size 3 to 8) (size 9 to 14) (size 15 to 20)
#    0.000    2.250    0.000    2.250    1.750    3.500 
#    0.000    0.625    0.000    0.000    0.000    0.000 
#    0.000    0.000    0.000    0.000    0.000    0.000 
#
# Total GULP energy -178512.257894 kJ/mol
# GULP energy per Si atom -5578.508059 kJ/mol
# Density = 1.887392 g / cm^3
# Si number density = 18.916976 Si / 1000 Ang^3
#
#
#
# Elastic Constant Matrix: (Units=GPa)
#
#
# Indices 1 2 3 4 5 6 
#
# 1 60.6763 9.7684 22.8871 0.0000 -28.1714 0.0000
# 2 9.7684 24.5427 15.6263 0.0000 -11.7020 0.0000
# 3 22.8871 15.6263 73.3301 0.0000 -0.1076 0.0000
# 4 0.0000 0.0000 0.0000 22.8490 0.0000 3.9941
# 5 -28.1714 -11.7020 -0.1076 0.0000 24.7309 0.0000
# 6 0.0000 0.0000 0.0000 3.9941 0.0000 31.3472
#
#
#
# Elastic Compliance Matrix: (Units=1/GPa)
#
#
# Indices 1 2 3 4 5 6 
#
# 1 0.058731 0.031416 -0.024905 0.000000 0.081659 0.000000
# 2 0.031416 0.080510 -0.026854 0.000000 0.073766 0.000000
# 3 -0.024905 -0.026854 0.027072 0.000000 -0.040959 0.000000
# 4 0.000000 0.000000 0.000000 0.044763 0.000000 -0.005703
# 5 0.081659 0.073766 -0.040959 0.000000 0.168180 0.000000
# 6 0.000000 0.000000 0.000000 -0.005703 0.000000 0.032628
#
#
# Mechanical properties :
#
#
# Convention : Reuss Voigt Hill
#
# Bulk Modulus (GPa) = 7.95998 28.34584 18.15291
# Shear Modulus (GPa) = 10.11235 23.13656 16.62445
#
# Velocity S-wave (km/s) = 2.31457 3.50102 2.96769
# Velocity P-wave (km/s) = 3.37046 5.59997 4.62167
#
# Compressibility (1/GPa) = 0.12562846
#
# Stress axis : x y z
#
# Youngs Moduli (GPa) = 17.02686 12.42078 36.93787
#
# Poissons Ratio (x) = -0.39022 0.91995
# Poissons Ratio (y) = -0.53492 0.99191
# Poissons Ratio (z) = 0.42406 0.33354
#
# Static dielectric constant tensor:
#      x y z
#    x 1.639130 0.000000 0.008310 
#    y 0.000000 1.644040 0.000000 
#    z 0.008310 0.000000 1.725570 
# 
# From -- ./inp_files/72038.got.cif
#   From: 2010.05.17/outbox.cif.g08.bks.cpg/sg11_37_cif.got.tgz:72038.got - 2010.06.03 12:22:45.
