data_PCOD9161376
_publ_section_title
;
Structure prediction by ZEFSAII (Michael W. Deem and Ramdas Pophale) SiO2 
 PCOD9161376
Probable space group: P 21/M
;
_chemical_formula_sum "Si O2"
_cell_formula_units_Z 32
_cell_length_a 16.622443
_cell_length_b 16.997001
_cell_length_c 11.962484
_cell_angle_alpha 90.000000
_cell_angle_beta 147.972845
_cell_angle_gamma 90.000000
_cell_volume 1792.369130
_symmetry_space_group_name_H-M "P 21/M"
_symmetry_group_IT_number 11
_symmetry_cell_setting 'monoclinic'
loop_
_space_group_symop_operation_xyz
x,y,z
-x,1/2+y,-z
-x,-y,-z
x,1/2-y,z
loop_
_atom_site_type_symbol
_atom_site_label
_atom_site_fract_x
_atom_site_fract_y
_atom_site_fract_z
Si Si1 0.371588 0.155907 0.209069
Si Si2 0.853841 0.978840 0.008650
Si Si3 0.372995 0.950453 0.414908
Si Si4 0.887303 0.051686 0.289949
Si Si5 0.387168 0.157865 0.969075
Si Si6 0.861799 0.843631 0.507411
Si Si7 0.806203 0.511462 0.588470
Si Si8 0.639940 0.439802 0.181325
O O1 0.349448 0.250000 0.193446
O O2 0.537637 0.129184 0.449018
O O3 0.368791 0.130588 0.074752
O O4 0.240537 0.102688 0.112616
O O5 0.851648 0.004559 0.135258
O O6 0.030607 0.976166 0.185095
O O7 0.769664 0.045578 0.836336
O O8 0.500000 0.000000 0.500000
O O9 0.315239 0.994279 0.458518
O O10 0.738093 0.068572 0.185826
O O11 0.978560 0.128707 0.356749
O O12 0.000000 0.000000 0.500000
O O13 0.365844 0.250000 0.949870
O O14 0.552673 0.137521 0.118501
O O15 0.261849 0.130819 0.732160
O O16 0.853460 0.750000 0.516727
O O17 0.830137 0.897828 0.578796
O O18 0.748093 0.468853 0.407948
O O19 0.500000 0.500000 0.000000
#
# Coordination Sequence:
#
# PCOD9161376 Si02
#       8
#     4   4   4   4   4   4   4   4
#     4  10  20  37  58  84 116 152 194 246 303 344
#     4  10  21  37  59  85 115 150 201 241 287 354
#     4  10  22  38  60  83 114 153 202 245 288 352
#     4  11  20  35  59  88 116 155 192 235 298 361
#     4  10  20  33  52  81 117 151 188 243 297 342
#     4  10  21  37  57  86 122 156 195 246 297 353
#     4  11  21  37  60  84 117 156 200 237 294 354
#     4  12  20  32  58  85 117 149 196 236 287 359
#
# _framework density 17.853466000000001
#
# number of rings (size 3 to 8) (size 9 to 14) (size 15 to 20)
#    0.000    1.500    5.000    1.875    1.750    0.500 
#    0.000    6.250    0.000    0.000    0.000    0.000 
#    0.000    0.000    0.000    0.000    0.000    0.000 
#
# Total GULP energy -178315.246564 kJ/mol
# GULP energy per Si atom -5572.351455 kJ/mol
# Density = 1.781283 g / cm^3
# Si number density = 17.853466 Si / 1000 Ang^3
#
#
#
# Elastic Constant Matrix: (Units=GPa)
#
#
# Indices 1 2 3 4 5 6 
#
# 1 92.3241 32.0816 13.4267 0.0000 14.0035 0.0000
# 2 32.0816 69.4131 35.6881 0.0000 6.2973 0.0000
# 3 13.4267 35.6881 91.3634 0.0000 8.0643 0.0000
# 4 0.0000 0.0000 0.0000 26.7964 0.0000 3.5842
# 5 14.0035 6.2973 8.0643 0.0000 33.7814 0.0000
# 6 0.0000 0.0000 0.0000 3.5842 0.0000 23.7389
#
#
#
# Elastic Compliance Matrix: (Units=1/GPa)
#
#
# Indices 1 2 3 4 5 6 
#
# 1 0.013608 -0.006318 0.000881 0.000000 -0.004673 0.000000
# 2 -0.006318 0.021058 -0.007336 0.000000 0.000445 0.000000
# 3 0.000881 -0.007336 0.013886 0.000000 -0.002312 0.000000
# 4 0.000000 0.000000 0.000000 0.038088 0.000000 -0.005751
# 5 -0.004673 0.000445 -0.002312 0.000000 0.032008 0.000000
# 6 0.000000 0.000000 0.000000 -0.005751 0.000000 0.042993
#
#
# Mechanical properties :
#
#
# Convention : Reuss Voigt Hill
#
# Bulk Modulus (GPa) = 43.47094 46.16592 44.81843
# Shear Modulus (GPa) = 25.65992 28.32362 26.99177
#
# Velocity S-wave (km/s) = 3.79522 3.98735 3.89247
# Velocity P-wave (km/s) = 6.60353 6.86389 6.73496
#
# Compressibility (1/GPa) = 0.02300387
#
# Stress axis : x y z
#
# Youngs Moduli (GPa) = 73.48834 47.48739 72.01630
#
# Poissons Ratio (x) = 0.30003 -0.06342
# Poissons Ratio (y) = 0.46430 0.52835
# Poissons Ratio (z) = -0.06472 0.34839
#
# Static dielectric constant tensor:
#      x y z
#    x 1.622400 0.000000 -0.003880 
#    y 0.000000 1.625780 0.000000 
#    z -0.003880 0.000000 1.649410 
# 
# From -- ./inp_files/41875.got.cif
#   From: 2010.05.17/outbox.cif.g08.bks.cpg/sg11_21_cif.got.tgz:41875.got - 2010.06.03 12:22:45.
