data_PCOD9161773
_publ_section_title
;
Structure prediction by ZEFSAII (Michael W. Deem and Ramdas Pophale) SiO2 
 PCOD9161773
Probable space group: P 21/M
;
_chemical_formula_sum "Si O2"
_cell_formula_units_Z 32
_cell_length_a 28.586416
_cell_length_b 8.785280
_cell_length_c 20.292323
_cell_angle_alpha 90.000000
_cell_angle_beta 158.487088
_cell_angle_gamma 90.000000
_cell_volume 1868.834724
_symmetry_space_group_name_H-M "P 21/M"
_symmetry_group_IT_number 11
_symmetry_cell_setting 'monoclinic'
loop_
_space_group_symop_operation_xyz
x,y,z
-x,1/2+y,-z
-x,-y,-z
x,1/2-y,z
loop_
_atom_site_type_symbol
_atom_site_label
_atom_site_fract_x
_atom_site_fract_y
_atom_site_fract_z
Si Si1 0.424957 0.564340 0.711273
Si Si2 0.600832 0.933060 0.824628
Si Si3 0.839422 0.067851 0.427083
Si Si4 0.845565 0.067267 0.591506
Si Si5 0.109116 0.569228 0.938825
Si Si6 0.609126 0.432753 0.688968
Si Si7 0.117318 0.432244 0.803723
Si Si8 0.579782 0.932084 0.043840
O O1 0.423521 0.750000 0.708485
O O2 0.491528 0.514238 0.731175
O O3 0.280479 0.514003 0.535601
O O4 0.512205 0.519163 0.887595
O O5 0.591146 0.750000 0.803804
O O6 0.593656 0.007614 0.743426
O O7 0.742295 0.962911 0.040693
O O8 0.821420 0.250000 0.398358
O O9 0.831844 0.028260 0.495511
O O10 0.983896 0.029412 0.593681
O O11 0.725279 0.985895 0.240407
O O12 0.850838 0.250000 0.600892
O O13 0.978627 0.003994 0.793257
O O14 0.099098 0.750000 0.930682
O O15 0.114596 0.519003 0.869552
O O16 0.247892 0.521683 0.147692
O O17 0.500000 0.500000 0.500000
O O18 0.603508 0.250000 0.681636
O O19 0.110540 0.250000 0.808193
O O20 0.573682 0.750000 0.039520
O O21 0.500000 0.000000 0.000000
#
# Coordination Sequence:
#
# PCOD9161773 Si02
#       8
#     4   4   4   4   4   4   4   4
#     4   9  18  32  49  69  96 130 168 205 243 293
#     4   9  17  33  55  74  95 129 166 197 239 293
#     4   9  16  28  44  65  93 122 161 209 249 287
#     4   9  16  29  47  67  95 130 165 202 241 286
#     4   9  17  28  45  73 101 122 153 199 238 274
#     4  10  20  34  54  80 107 128 153 193 237 284
#     4   8  15  28  47  67  90 123 160 198 241 292
#     4  11  20  31  45  65  94 127 167 211 251 290
#
# _framework density 17.122969000000001
#
# number of rings (size 3 to 8) (size 9 to 14) (size 15 to 20)
#    0.000    2.750    1.250    1.875    0.000    3.500 
#    0.000    2.500    0.000    0.750    0.000    0.000 
#    0.000    0.000    0.000    0.000    0.000    0.000 
#
# Total GULP energy -178197.300510 kJ/mol
# GULP energy per Si atom -5568.665641 kJ/mol
# Density = 1.708400 g / cm^3
# Si number density = 17.122969 Si / 1000 Ang^3
#
#
#
# Elastic Constant Matrix: (Units=GPa)
#
#
# Indices 1 2 3 4 5 6 
#
# 1 72.1121 17.6758 60.1289 0.0000 21.0105 0.0000
# 2 17.6758 19.1530 38.2936 0.0000 6.9797 0.0000
# 3 60.1289 38.2936 170.0419 0.0000 24.8044 0.0000
# 4 0.0000 0.0000 0.0000 29.8826 0.0000 1.3873
# 5 21.0105 6.9797 24.8044 0.0000 23.8684 0.0000
# 6 0.0000 0.0000 0.0000 1.3873 0.0000 11.5353
#
#
#
# Elastic Compliance Matrix: (Units=1/GPa)
#
#
# Indices 1 2 3 4 5 6 
#
# 1 0.023578 -0.007440 -0.004658 0.000000 -0.013738 0.000000
# 2 -0.007440 0.098194 -0.019153 0.000000 -0.002262 0.000000
# 3 -0.004658 -0.019153 0.012289 0.000000 -0.003070 0.000000
# 4 0.000000 0.000000 0.000000 0.033652 0.000000 -0.004047
# 5 -0.013738 -0.002262 -0.003070 0.000000 0.057842 0.000000
# 6 0.000000 0.000000 0.000000 -0.004047 0.000000 0.087177
#
#
# Mechanical properties :
#
#
# Convention : Reuss Voigt Hill
#
# Bulk Modulus (GPa) = 13.97432 54.83375 34.40403
# Shear Modulus (GPa) = 12.52863 22.73784 17.63323
#
# Velocity S-wave (km/s) = 2.70790 3.64801 3.21253
# Velocity P-wave (km/s) = 4.23744 7.05953 5.82206
#
# Compressibility (1/GPa) = 0.07155983
#
# Stress axis : x y z
#
# Youngs Moduli (GPa) = 42.41329 10.18389 81.37373
#
# Poissons Ratio (x) = 0.07577 0.37902
# Poissons Ratio (y) = 0.31556 1.55852
# Poissons Ratio (z) = 0.19755 0.19505
#
# Static dielectric constant tensor:
#      x y z
#    x 1.570440 0.000000 0.036940 
#    y 0.000000 1.576750 0.000000 
#    z 0.036940 0.000000 1.612670 
# 
# From -- ./inp_files/42737.got.cif
#   From: 2010.05.17/outbox.cif.g08.bks.cpg/sg11_22_cif.got.tgz:42737.got - 2010.06.03 12:22:45.
