data_PCOD9161112
_publ_section_title
;
Structure prediction by ZEFSAII (Michael W. Deem and Ramdas Pophale) SiO2 
 PCOD9161112
Probable space group: P 21/M
;
_chemical_formula_sum "Si O2"
_cell_formula_units_Z 32
_cell_length_a 14.751038
_cell_length_b 8.578093
_cell_length_c 21.622511
_cell_angle_alpha 90.000000
_cell_angle_beta 144.116635
_cell_angle_gamma 90.000000
_cell_volume 1603.683666
_symmetry_space_group_name_H-M "P 21/M"
_symmetry_group_IT_number 11
_symmetry_cell_setting 'monoclinic'
loop_
_space_group_symop_operation_xyz
x,y,z
-x,1/2+y,-z
-x,-y,-z
x,1/2-y,z
loop_
_atom_site_type_symbol
_atom_site_label
_atom_site_fract_x
_atom_site_fract_y
_atom_site_fract_z
Si Si1 0.504240 0.938838 0.625777
Si Si2 0.447128 0.065370 0.830996
Si Si3 0.698164 0.932851 0.053581
Si Si4 0.342641 0.062513 0.161558
Si Si5 0.171349 0.436454 0.410648
Si Si6 0.785872 0.563154 0.704952
Si Si7 0.935238 0.567675 0.069154
Si Si8 0.149803 0.061886 0.733336
O O1 0.494027 0.750000 0.620109
O O2 0.593118 0.988767 0.737153
O O3 0.615145 0.989378 0.630737
O O4 0.334005 0.007378 0.527448
O O5 0.448733 0.250000 0.821189
O O6 0.272180 0.014010 0.748493
O O7 0.532926 0.982896 0.821893
O O8 0.550270 0.027756 0.948596
O O9 0.656232 0.750000 0.036631
O O10 0.824055 0.943426 0.068128
O O11 0.775929 0.987725 0.159840
O O12 0.330286 0.250000 0.155404
O O13 0.173444 0.004044 0.046126
O O14 0.166926 0.250000 0.407532
O O15 0.165696 0.495583 0.336035
O O16 0.022524 0.497783 0.364736
O O17 0.783365 0.750000 0.700613
O O18 0.908573 0.516921 0.825274
O O19 0.968778 0.750000 0.077020
O O20 0.143568 0.250000 0.730393
#
# Coordination Sequence:
#
# PCOD9161112 Si02
#       8
#     4   4   4   4   4   4   4   4
#     4  10  22  41  61  77 104 149 190 227 274 331
#     4  10  20  32  53  83 112 143 182 227 271 320
#     4   9  17  31  51  77 113 151 182 215 265 329
#     4   9  20  39  58  78 109 149 190 225 268 325
#     4  11  23  37  56  85 115 140 179 234 279 322
#     4  10  21  36  56  85 114 140 177 226 279 329
#     4   9  17  31  54  82 112 146 179 218 268 325
#     4  10  20  35  54  79 111 149 185 217 269 333
#
# _framework density 19.954059999999998
#
# number of rings (size 3 to 8) (size 9 to 14) (size 15 to 20)
#    0.000    2.250    1.250    2.250    0.000    5.500 
#    0.000    0.625    0.000    0.000    0.000    0.000 
#    0.000    0.000    0.000    0.000    0.000    0.000 
#
# Total GULP energy -178639.622098 kJ/mol
# GULP energy per Si atom -5582.488191 kJ/mol
# Density = 1.990864 g / cm^3
# Si number density = 19.954060 Si / 1000 Ang^3
#
#
#
# Elastic Constant Matrix: (Units=GPa)
#
#
# Indices 1 2 3 4 5 6 
#
# 1 33.6567 -0.4086 21.9294 0.0000 10.3837 0.0000
# 2 -0.4086 -6.7779 1.2538 0.0000 0.3798 0.0000
# 3 21.9294 1.2538 88.6089 0.0000 8.9319 0.0000
# 4 0.0000 0.0000 0.0000 32.6223 0.0000 3.1248
# 5 10.3837 0.3798 8.9319 0.0000 30.9903 0.0000
# 6 0.0000 0.0000 0.0000 3.1248 0.0000 8.8369
#
#
#
# Elastic Compliance Matrix: (Units=1/GPa)
#
#
# Indices 1 2 3 4 5 6 
#
# 1 0.038313 -0.004440 -0.008374 0.000000 -0.010369 0.000000
# 2 -0.004440 -0.146592 0.002927 0.000000 0.002441 0.000000
# 3 -0.008374 0.002927 0.013427 0.000000 -0.001100 0.000000
# 4 0.000000 0.000000 0.000000 0.031729 0.000000 -0.011219
# 5 -0.010369 0.002441 -0.001100 0.000000 0.036030 0.000000
# 6 0.000000 0.000000 0.000000 -0.011219 0.000000 0.117129
#
#
# Mechanical properties :
#
#
# Convention : Reuss Voigt Hill
#
# Bulk Modulus (GPa) = -8.72412 17.89299 4.58444
# Shear Modulus (GPa) = 69.83243 20.67077 45.25160
#
# Velocity S-wave (km/s) = 5.92221 3.22206 4.76730
# Velocity P-wave (km/s) = 6.51013 4.77795 5.71011
#
# Compressibility (1/GPa) = -0.11462474
#
# Stress axis : x y z
#
# Youngs Moduli (GPa) = 26.10078 -6.82165 74.47454
#
# Poissons Ratio (x) = -0.03029 0.62364
# Poissons Ratio (y) = 0.11588 -0.21799
# Poissons Ratio (z) = 0.21856 0.01997
#
# Static dielectric constant tensor:
#      x y z
#    x 1.725900 0.000000 -0.008140 
#    y 0.000000 1.672990 0.000000 
#    z -0.008140 0.000000 1.698750 
# 
# From -- ./inp_files/55641.got.cif
#   From: 2010.05.17/outbox.cif.g08.bks.cpg/sg11_28_cif.got.tgz:55641.got - 2010.06.03 12:22:45.
