data_PCOD9161062
_publ_section_title
;
Structure prediction by ZEFSAII (Michael W. Deem and Ramdas Pophale) SiO2 
 PCOD9161062
Probable space group: P 21/M
;
_chemical_formula_sum "Si O2"
_cell_formula_units_Z 28
_cell_length_a 14.270139
_cell_length_b 8.875003
_cell_length_c 14.324524
_cell_angle_alpha 90.000000
_cell_angle_beta 119.366990
_cell_angle_gamma 90.000000
_cell_volume 1581.038898
_symmetry_space_group_name_H-M "P 21/M"
_symmetry_group_IT_number 11
_symmetry_cell_setting 'monoclinic'
loop_
_space_group_symop_operation_xyz
x,y,z
-x,1/2+y,-z
-x,-y,-z
x,1/2-y,z
loop_
_atom_site_type_symbol
_atom_site_label
_atom_site_fract_x
_atom_site_fract_y
_atom_site_fract_z
Si Si1 0.965462 0.568763 0.126138
Si Si2 0.621801 0.431443 0.256634
Si Si3 0.380963 0.430473 0.937336
Si Si4 0.029841 0.068116 0.660198
Si Si5 0.168797 0.571242 0.108612
Si Si6 0.164469 0.568983 0.556417
Si Si7 0.373717 0.430542 0.143126
O O1 0.949341 0.750000 0.113362
O O2 0.088402 0.537057 0.154867
O O3 0.945697 0.519106 0.222513
O O4 0.891020 0.493228 0.012186
O O5 0.617824 0.250000 0.245075
O O6 0.664131 0.498771 0.179119
O O7 0.709971 0.472904 0.377296
O O8 0.498392 0.480979 0.213731
O O9 0.383824 0.250000 0.929957
O O10 0.500000 0.500000 0.000000
O O11 0.335913 0.466022 0.017941
O O12 0.039569 0.250000 0.662907
O O13 0.908389 0.027508 0.568046
O O14 0.106117 0.999968 0.618415
O O15 0.177143 0.750000 0.104640
O O16 0.287352 0.501949 0.169584
O O17 0.159516 0.750000 0.561714
O O18 0.372264 0.250000 0.151509
#
# Coordination Sequence:
#
# PCOD9161062 Si02
#       7
#     4   4   4   4   4   4   4
#     4   9  19  35  51  69  95 125 157 194 241 288
#     4   9  18  31  46  67  96 126 156 192 233 280
#     4   9  17  28  42  62  90 124 158 188 225 273
#     4   9  18  33  52  71  95 126 156 193 241 286
#     4  10  20  32  49  72  94 122 161 200 235 277
#     4   9  18  32  50  74  98 122 158 196 231 281
#     4   9  18  31  45  64  94 128 156 188 233 284
#
# _framework density 17.709873999999999
#
# number of rings (size 3 to 8) (size 9 to 14) (size 15 to 20)
#    0.000    2.857    0.000    1.714    2.000    4.571 
#    0.000    0.000    0.000    0.857    0.000    0.000 
#    0.000    0.000    0.000    0.000    0.000    0.714 
#
# Total GULP energy -155939.341168 kJ/mol
# GULP energy per Si atom -5569.262185 kJ/mol
# Density = 1.766957 g / cm^3
# Si number density = 17.709874 Si / 1000 Ang^3
#
#
#
# Elastic Constant Matrix: (Units=GPa)
#
#
# Indices 1 2 3 4 5 6 
#
# 1 63.1247 12.4080 0.4033 0.0000 11.4196 0.0000
# 2 12.4080 1.6624 -0.2477 0.0000 2.3812 0.0000
# 3 0.4033 -0.2477 43.3206 0.0000 7.6268 0.0000
# 4 0.0000 0.0000 0.0000 16.1479 0.0000 0.7941
# 5 11.4196 2.3812 7.6268 0.0000 27.5184 0.0000
# 6 0.0000 0.0000 0.0000 0.7941 0.0000 25.2079
#
#
#
# Elastic Compliance Matrix: (Units=1/GPa)
#
#
# Indices 1 2 3 4 5 6 
#
# 1 -0.031617 0.250031 0.003389 0.000000 -0.009454 0.000000
# 2 0.250031 -1.281089 -0.011462 0.000000 0.010272 0.000000
# 3 0.003389 -0.011462 0.024243 0.000000 -0.007133 0.000000
# 4 0.000000 0.000000 0.000000 0.062024 0.000000 -0.001954
# 5 -0.009454 0.010272 -0.007133 0.000000 0.041351 0.000000
# 6 0.000000 0.000000 0.000000 -0.001954 0.000000 0.039732
#
#
# Mechanical properties :
#
#
# Convention : Reuss Voigt Hill
#
# Bulk Modulus (GPa) = -1.24293 14.80387 6.78047
# Shear Modulus (GPa) = -2.63511 20.14444 8.75467
#
# Velocity S-wave (km/s) = -1.22113 3.37630 2.22578
# Velocity P-wave (km/s) = 1.64060 4.85556 3.23148
#
# Compressibility (1/GPa) = -0.80454741
#
# Stress axis : x y z
#
# Youngs Moduli (GPa) = -31.62870 -0.78059 41.24987
#
# Poissons Ratio (x) = 0.19517 -0.13978
# Poissons Ratio (y) = 7.90816 0.47279
# Poissons Ratio (z) = 0.10717 -0.00895
#
# Static dielectric constant tensor:
#      x y z
#    x 1.624970 0.000000 0.025530 
#    y 0.000000 1.592890 0.000000 
#    z 0.025530 0.000000 1.622030 
# 
# From -- ./inp_files/51454.got.cif
#   From: 2010.05.17/outbox.cif.g08.bks.cpg/sg11_26_cif.got.tgz:51454.got - 2010.06.03 12:22:45.
