data_PCOD9161703
_publ_section_title
;
Structure prediction by ZEFSAII (Michael W. Deem and Ramdas Pophale) SiO2 
 PCOD9161703
Probable space group: P 21/M
;
_chemical_formula_sum "Si O2"
_cell_formula_units_Z 32
_cell_length_a 29.078614
_cell_length_b 8.972187
_cell_length_c 22.718687
_cell_angle_alpha 90.000000
_cell_angle_beta 16.468703
_cell_angle_gamma 90.000000
_cell_volume 1680.333100
_symmetry_space_group_name_H-M "P 21/M"
_symmetry_group_IT_number 11
_symmetry_cell_setting 'monoclinic'
loop_
_space_group_symop_operation_xyz
x,y,z
-x,1/2+y,-z
-x,-y,-z
x,1/2-y,z
loop_
_atom_site_type_symbol
_atom_site_label
_atom_site_fract_x
_atom_site_fract_y
_atom_site_fract_z
Si Si1 0.905545 0.426140 0.939664
Si Si2 0.784833 0.079288 0.755761
Si Si3 0.599845 0.428494 0.603143
Si Si4 0.045215 0.929233 0.882285
Si Si5 0.733307 0.926890 0.552260
Si Si6 0.435531 0.417446 0.134962
Si Si7 0.953577 0.571948 0.656307
Si Si8 0.750643 0.930830 0.018310
O O1 0.873259 0.250000 0.986827
O O2 0.928097 0.505951 0.974920
O O3 0.082902 0.445478 0.692851
O O4 0.787097 0.499393 0.037231
O O5 0.841307 0.250000 0.697673
O O6 0.872974 0.028680 0.586381
O O7 0.835157 0.978736 0.748745
O O8 0.593753 0.084595 0.982353
O O9 0.598117 0.250000 0.610603
O O10 0.766886 0.468801 0.364108
O O11 0.620945 0.498094 0.641543
O O12 0.430646 0.472311 0.780775
O O13 0.033012 0.750000 0.898521
O O14 0.000000 0.000000 0.000000
O O15 0.699368 0.750000 0.595754
O O16 0.702947 0.988283 0.654891
O O17 0.389463 0.250000 0.174357
O O18 0.500000 0.500000 0.000000
O O19 0.955647 0.750000 0.659254
O O20 0.880155 0.517510 0.808761
O O21 0.759413 0.750000 0.011666
#
# Coordination Sequence:
#
# PCOD9161703 Si02
#       8
#     4   4   4   4   4   4   4   4
#     4  10  21  36  55  82 113 145 183 221 265 319
#     4   9  18  32  46  66  94 127 172 219 267 318
#     4   9  19  35  57  84 109 139 178 217 261 318
#     4  10  20  38  63  88 114 144 177 213 258 313
#     4   9  19  35  52  73 104 140 181 228 272 320
#     4  10  21  33  46  67  97 132 174 223 271 316
#     4   9  18  31  49  70  95 130 170 215 264 316
#     4  10  20  34  53  79 111 141 177 223 270 316
#
# _framework density 19.043842999999999
#
# number of rings (size 3 to 8) (size 9 to 14) (size 15 to 20)
#    0.000    2.500    0.000    1.500    1.750    3.000 
#    0.000    0.625    0.000    0.000    0.000    0.000 
#    0.000    0.000    0.000    0.000    0.000    0.000 
#
# Total GULP energy -178350.080254 kJ/mol
# GULP energy per Si atom -5573.440008 kJ/mol
# Density = 1.900050 g / cm^3
# Si number density = 19.043843 Si / 1000 Ang^3
#
#
#
# Elastic Constant Matrix: (Units=GPa)
#
#
# Indices 1 2 3 4 5 6 
#
# 1 116.2161 30.4697 35.4768 0.0000 19.6948 0.0000
# 2 30.4697 18.2321 17.4007 0.0000 8.6074 0.0000
# 3 35.4768 17.4007 44.6240 0.0000 11.9910 0.0000
# 4 0.0000 0.0000 0.0000 19.0387 0.0000 1.8457
# 5 19.6948 8.6074 11.9910 0.0000 38.9725 0.0000
# 6 0.0000 0.0000 0.0000 1.8457 0.0000 34.5662
#
#
#
# Elastic Compliance Matrix: (Units=1/GPa)
#
#
# Indices 1 2 3 4 5 6 
#
# 1 0.015808 -0.022272 -0.003334 0.000000 -0.002044 0.000000
# 2 -0.022272 0.122169 -0.028023 0.000000 -0.007105 0.000000
# 3 -0.003334 -0.028023 0.036924 0.000000 -0.003487 0.000000
# 4 0.000000 0.000000 0.000000 0.052798 0.000000 -0.002819
# 5 -0.002044 -0.007105 -0.003487 0.000000 0.029334 0.000000
# 6 0.000000 0.000000 0.000000 -0.002819 0.000000 0.029080
#
#
# Mechanical properties :
#
#
# Convention : Reuss Voigt Hill
#
# Bulk Modulus (GPa) = 14.78331 38.41850 26.60091
# Shear Modulus (GPa) = 12.02159 24.89715 18.45937
#
# Velocity S-wave (km/s) = 2.51521 3.61967 3.11675
# Velocity P-wave (km/s) = 4.02675 6.13896 5.19141
#
# Compressibility (1/GPa) = 0.06764383
#
# Stress axis : x y z
#
# Youngs Moduli (GPa) = 63.25940 8.18540 27.08258
#
# Poissons Ratio (x) = 0.18230 0.09028
# Poissons Ratio (y) = 1.40890 0.75894
# Poissons Ratio (z) = 0.21088 0.22938
#
# Static dielectric constant tensor:
#      x y z
#    x 1.667160 0.000000 0.013450 
#    y 0.000000 1.651950 0.000000 
#    z 0.013450 0.000000 1.699930 
# 
# From -- ./inp_files/67073.got.cif
#   From: 2010.05.17/outbox.cif.g08.bks.cpg/sg11_34_cif.got.tgz:67073.got - 2010.06.03 12:22:45.
