data_PCOD9161173
_publ_section_title
;
Structure prediction by ZEFSAII (Michael W. Deem and Ramdas Pophale) SiO2 
 PCOD9161173
Probable space group: P 21/M
;
_chemical_formula_sum "Si O2"
_cell_formula_units_Z 24
_cell_length_a 16.385479
_cell_length_b 9.275352
_cell_length_c 7.330013
_cell_angle_alpha 90.000000
_cell_angle_beta 77.074235
_cell_angle_gamma 90.000000
_cell_volume 1085.794764
_symmetry_space_group_name_H-M "P 21/M"
_symmetry_group_IT_number 11
_symmetry_cell_setting 'monoclinic'
loop_
_space_group_symop_operation_xyz
x,y,z
-x,1/2+y,-z
-x,-y,-z
x,1/2-y,z
loop_
_atom_site_type_symbol
_atom_site_label
_atom_site_fract_x
_atom_site_fract_y
_atom_site_fract_z
Si Si1 0.583462 0.583699 0.180766
Si Si2 0.914757 0.913595 0.010389
Si Si3 0.750659 0.083686 0.651844
Si Si4 0.750657 0.416314 0.097503
Si Si5 0.085242 0.413595 0.425142
Si Si6 0.416536 0.083699 0.264227
O O1 0.583449 0.750000 0.238717
O O2 0.499998 0.500002 0.280266
O O3 0.667145 0.500366 0.195866
O O4 0.583306 0.584012 0.958348
O O5 0.919099 0.750000 0.078784
O O6 0.904751 0.903950 0.797627
O O7 0.833989 0.001038 0.117902
O O8 0.000000 0.000000 0.000000
O O9 0.750130 0.250000 0.594550
O O10 0.751058 0.084070 0.874474
O O11 0.833991 0.001038 0.548112
O O12 0.667149 0.999631 0.636990
O O13 0.750129 0.250000 0.155326
O O14 0.080900 0.250000 0.497879
O O15 0.000000 0.500000 0.500000
O O16 0.416550 0.250000 0.322163
#
# Coordination Sequence:
#
# PCOD9161173 Si02
#       6
#     4   4   4   4   4   4
#     4   9  15  22  33  51  77 109 144 180 219 266
#     4  10  20  33  49  69  93 122 156 193 233 277
#     4   9  16  26  40  58  82 113 147 183 225 271
#     4   9  16  26  40  58  82 113 147 183 225 271
#     4  10  20  33  49  69  93 122 156 193 233 277
#     4   9  15  22  33  51  77 109 144 180 219 266
#
# _framework density 22.103625000000001
#
# number of rings (size 3 to 8) (size 9 to 14) (size 15 to 20)
#    0.000    2.667    0.000    3.000    0.000   10.000 
#    0.000    0.000    0.000    0.000    0.000    0.000 
#    0.000    1.333    0.000    5.000    0.000   11.000 
#
# Total GULP energy -134193.917776 kJ/mol
# GULP energy per Si atom -5591.413241 kJ/mol
# Density = 2.205332 g / cm^3
# Si number density = 22.103625 Si / 1000 Ang^3
#
#
#
# Elastic Constant Matrix: (Units=GPa)
#
#
# Indices 1 2 3 4 5 6 
#
# 1 217.9108 161.3958 41.0167 0.0000 -74.2881 0.0000
# 2 161.3958 294.7805 31.7633 0.0000 -59.3450 0.0000
# 3 41.0167 31.7633 74.6205 0.0000 8.6960 0.0000
# 4 0.0000 0.0000 0.0000 2.7713 0.0000 -18.3272
# 5 -74.2881 -59.3450 8.6960 0.0000 45.2983 0.0000
# 6 0.0000 0.0000 0.0000 -18.3272 0.0000 42.8067
#
#
#
# Elastic Compliance Matrix: (Units=1/GPa)
#
#
# Indices 1 2 3 4 5 6 
#
# 1 0.020385 -0.003339 -0.013471 0.000000 0.031642 0.000000
# 2 -0.003339 0.005769 -0.000882 0.000000 0.002251 0.000000
# 3 -0.013471 -0.000882 0.024437 0.000000 -0.027940 0.000000
# 4 0.000000 0.000000 0.000000 -0.197032 0.000000 -0.084357
# 5 0.031642 0.002251 -0.027940 0.000000 0.082281 0.000000
# 6 0.000000 0.000000 0.000000 -0.084357 0.000000 -0.012756
#
#
# Mechanical properties :
#
#
# Convention : Reuss Voigt Hill
#
# Bulk Modulus (GPa) = 65.76474 117.29595 91.53034
# Shear Modulus (GPa) = -137.13188 41.71765 -47.70712
#
# Velocity S-wave (km/s) = -7.88512 4.34910 -4.65083
# Velocity P-wave (km/s) = 7.28579 8.85444 3.55798
#
# Compressibility (1/GPa) = 0.01520572
#
# Stress axis : x y z
#
# Youngs Moduli (GPa) = 49.05515 173.34403 40.92083
#
# Poissons Ratio (x) = 0.57886 0.55125
# Poissons Ratio (y) = 0.16381 0.03611
# Poissons Ratio (z) = 0.66083 0.15295
#
# Static dielectric constant tensor:
#      x y z
#    x 1.770540 0.000000 0.088890 
#    y 0.000000 1.752420 0.000000 
#    z 0.088890 0.000000 1.964740 
# 
# From -- ./inp_files/25749.got.cif
#   From: 2010.05.17/outbox.cif.g08.bks.cpg/sg11_13_cif.got.tgz:25749.got - 2010.06.03 12:22:45.
