data_PCOD9161428
_publ_section_title
;
Structure prediction by ZEFSAII (Michael W. Deem and Ramdas Pophale) SiO2 
 PCOD9161428
Probable space group: P 21/M
;
_chemical_formula_sum "Si O2"
_cell_formula_units_Z 32
_cell_length_a 22.050409
_cell_length_b 8.191503
_cell_length_c 12.968353
_cell_angle_alpha 90.000000
_cell_angle_beta 145.021630
_cell_angle_gamma 90.000000
_cell_volume 1342.833374
_symmetry_space_group_name_H-M "P 21/M"
_symmetry_group_IT_number 11
_symmetry_cell_setting 'monoclinic'
loop_
_space_group_symop_operation_xyz
x,y,z
-x,1/2+y,-z
-x,-y,-z
x,1/2-y,z
loop_
_atom_site_type_symbol
_atom_site_label
_atom_site_fract_x
_atom_site_fract_y
_atom_site_fract_z
Si Si1 0.324899 0.448936 0.867718
Si Si2 0.546913 0.438827 0.240356
Si Si3 0.450260 0.438250 0.537711
Si Si4 0.777319 0.433524 0.067972
Si Si5 0.010296 0.070175 0.628103
Si Si6 0.768301 0.943740 0.477336
Si Si7 0.011422 0.438705 0.182253
Si Si8 0.770500 0.059820 0.822535
O O1 0.318068 0.250000 0.866029
O O2 0.287817 0.532017 0.921154
O O3 0.255395 0.502945 0.672869
O O4 0.448567 0.492818 0.033191
O O5 0.567929 0.250000 0.248739
O O6 0.512172 0.460919 0.310787
O O7 0.656347 0.530438 0.375744
O O8 0.500000 0.500000 0.500000
O O9 0.478978 0.250000 0.592418
O O10 0.322576 0.458915 0.358887
O O11 0.824452 0.250000 0.143695
O O12 0.864146 0.573482 0.186070
O O13 0.734021 0.436693 0.892132
O O14 0.963365 0.250000 0.573384
O O15 0.000000 0.000000 0.500000
O O16 0.979505 0.955570 0.680479
O O17 0.786757 0.750000 0.495907
O O18 0.872527 0.011748 0.682533
O O19 0.007312 0.250000 0.144602
O O20 0.893408 0.502108 0.988367
O O21 0.768143 0.250000 0.784376
#
# Coordination Sequence:
#
# PCOD9161428 Si02
#       8
#     4   4   4   4   4   4   4   4
#     4  10  21  36  57  86 121 160 199 242 293 350
#     4  11  24  41  61  88 120 155 198 246 295 350
#     4  12  25  42  66  93 120 153 193 241 299 356
#     4  10  20  33  53  82 115 151 191 236 290 349
#     4  11  20  30  47  73 109 150 194 241 287 340
#     4  10  21  39  61  86 118 157 199 243 292 347
#     4   9  19  36  58  83 115 155 196 241 295 350
#     4   9  19  37  59  87 122 157 196 246 300 354
#
# _framework density 23.830210000000001
#
# number of rings (size 3 to 8) (size 9 to 14) (size 15 to 20)
#    0.000    1.750    0.000    5.625    0.000    7.500 
#    0.000    0.625    0.000    0.000    0.000    0.000 
#    0.000    0.000    0.000    0.000    0.000    0.000 
#
# Total GULP energy -178493.216943 kJ/mol
# GULP energy per Si atom -5577.913029 kJ/mol
# Density = 2.377597 g / cm^3
# Si number density = 23.830210 Si / 1000 Ang^3
#
#
#
# Elastic Constant Matrix: (Units=GPa)
#
#
# Indices 1 2 3 4 5 6 
#
# 1 35.8546 -1.1055 18.7248 0.0000 19.1109 0.0000
# 2 -1.1055 43.8601 8.2762 0.0000 4.5200 0.0000
# 3 18.7248 8.2762 118.4446 0.0000 20.5528 0.0000
# 4 0.0000 0.0000 0.0000 22.3979 0.0000 7.2662
# 5 19.1109 4.5200 20.5528 0.0000 31.7607 0.0000
# 6 0.0000 0.0000 0.0000 7.2662 0.0000 26.8165
#
#
#
# Elastic Compliance Matrix: (Units=1/GPa)
#
#
# Indices 1 2 3 4 5 6 
#
# 1 0.042427 0.004099 -0.002774 0.000000 -0.024317 0.000000
# 2 0.004099 0.023682 -0.001453 0.000000 -0.004896 0.000000
# 3 -0.002774 -0.001453 0.009752 0.000000 -0.004435 0.000000
# 4 0.000000 0.000000 0.000000 0.048950 0.000000 -0.013263
# 5 -0.024317 -0.004896 -0.004435 0.000000 0.049684 0.000000
# 6 0.000000 0.000000 0.000000 -0.013263 0.000000 0.040884
#
#
# Mechanical properties :
#
#
# Convention : Reuss Voigt Hill
#
# Bulk Modulus (GPa) = 13.22673 27.77224 20.49948
# Shear Modulus (GPa) = 20.76087 27.67928 24.22007
#
# Velocity S-wave (km/s) = 2.95481 3.41181 3.19150
# Velocity P-wave (km/s) = 4.14773 5.21537 4.71189
#
# Compressibility (1/GPa) = 0.07560450
#
# Stress axis : x y z
#
# Youngs Moduli (GPa) = 23.56995 42.22638 102.53882
#
# Poissons Ratio (x) = -0.17308 0.28445
# Poissons Ratio (y) = -0.09661 0.14900
# Poissons Ratio (z) = 0.06538 0.06136
#
# Static dielectric constant tensor:
#      x y z
#    x 2.138260 0.000000 -0.128510 
#    y 0.000000 1.851890 0.000000 
#    z -0.128510 0.000000 2.141570 
# 
# From -- ./inp_files/55752.got.cif
#   From: 2010.05.17/outbox.cif.g08.bks.cpg/sg11_28_cif.got.tgz:55752.got - 2010.06.03 12:22:45.
