data_PCOD9161750
_publ_section_title
;
Structure prediction by ZEFSAII (Michael W. Deem and Ramdas Pophale) SiO2 
 PCOD9161750
Probable space group: P 21/M
;
_chemical_formula_sum "Si O2"
_cell_formula_units_Z 28
_cell_length_a 15.428353
_cell_length_b 9.371177
_cell_length_c 22.083169
_cell_angle_alpha 90.000000
_cell_angle_beta 25.150178
_cell_angle_gamma 90.000000
_cell_volume 1356.926104
_symmetry_space_group_name_H-M "P 21/M"
_symmetry_group_IT_number 11
_symmetry_cell_setting 'monoclinic'
loop_
_space_group_symop_operation_xyz
x,y,z
-x,1/2+y,-z
-x,-y,-z
x,1/2-y,z
loop_
_atom_site_type_symbol
_atom_site_label
_atom_site_fract_x
_atom_site_fract_y
_atom_site_fract_z
Si Si1 0.938832 0.916676 0.478470
Si Si2 0.880415 0.906046 0.807253
Si Si3 0.702822 0.582755 0.797870
Si Si4 0.705003 0.085914 0.533826
Si Si5 0.973431 0.078218 0.952938
Si Si6 0.297319 0.919217 0.979934
Si Si7 0.400959 0.078967 0.620352
O O1 0.910894 0.750000 0.505509
O O2 0.749044 0.986129 0.563185
O O3 0.000000 0.000000 0.500000
O O4 0.134527 0.957571 0.314783
O O5 0.872114 0.750000 0.842012
O O6 0.695656 0.913163 0.875376
O O7 0.090064 0.914321 0.637230
O O8 0.859176 0.023937 0.870997
O O9 0.768372 0.750000 0.741937
O O10 0.516260 0.549172 0.871444
O O11 0.672970 0.250000 0.573718
O O12 0.526842 0.040682 0.601489
O O13 0.967664 0.250000 0.966661
O O14 0.166626 0.049476 0.786299
O O15 0.773168 0.030001 0.041639
O O16 0.000000 0.000000 0.000000
O O17 0.285036 0.750000 0.985012
O O18 0.423121 0.250000 0.597202
O O19 0.500000 0.000000 0.500000
#
# Coordination Sequence:
#
# PCOD9161750 Si02
#       7
#     4   4   4   4   4   4   4
#     4  11  22  36  55  78 105 139 178 224 276 337
#     4   9  17  30  51  79 110 141 177 222 275 332
#     4   9  19  35  52  76 110 143 176 218 268 329
#     4   9  19  36  55  79 112 147 184 233 284 331
#     4  10  23  41  58  82 115 153 197 244 290 339
#     4  10  20  34  54  78 109 146 183 226 274 327
#     4  10  21  38  62  90 120 153 195 245 295 347
#
# _framework density 20.634875000000001
#
# number of rings (size 3 to 8) (size 9 to 14) (size 15 to 20)
#    0.000    2.286    0.000    3.429    0.000    5.714 
#    0.000    2.857    0.000    0.000    0.000    0.000 
#    0.000    0.000    0.000    0.000    0.000    0.000 
#
# Total GULP energy -156017.049745 kJ/mol
# GULP energy per Si atom -5572.037491 kJ/mol
# Density = 2.058791 g / cm^3
# Si number density = 20.634875 Si / 1000 Ang^3
#
#
#
# Elastic Constant Matrix: (Units=GPa)
#
#
# Indices 1 2 3 4 5 6 
#
# 1 165.5576 48.5999 17.4702 0.0000 -12.1489 0.0000
# 2 48.5999 41.1977 7.6454 0.0000 -2.8271 0.0000
# 3 17.4702 7.6454 19.4608 0.0000 -4.3309 0.0000
# 4 0.0000 0.0000 0.0000 23.7302 0.0000 7.7286
# 5 -12.1489 -2.8271 -4.3309 0.0000 30.6930 0.0000
# 6 0.0000 0.0000 0.0000 7.7286 0.0000 36.1084
#
#
#
# Elastic Compliance Matrix: (Units=1/GPa)
#
#
# Indices 1 2 3 4 5 6 
#
# 1 0.009746 -0.010582 -0.004079 0.000000 0.002308 0.000000
# 2 -0.010582 0.037701 -0.005648 0.000000 -0.001513 0.000000
# 3 -0.004079 -0.005648 0.058632 0.000000 0.006138 0.000000
# 4 0.000000 0.000000 0.000000 0.045298 0.000000 -0.009695
# 5 0.002308 -0.001513 0.006138 0.000000 0.034221 0.000000
# 6 0.000000 0.000000 0.000000 -0.009695 0.000000 0.029770
#
#
# Mechanical properties :
#
#
# Convention : Reuss Voigt Hill
#
# Bulk Modulus (GPa) = 15.27622 41.51635 28.39629
# Shear Modulus (GPa) = 17.99818 28.27306 23.13562
#
# Velocity S-wave (km/s) = 2.95654 3.70558 3.35205
# Velocity P-wave (km/s) = 4.36738 6.20255 5.36403
#
# Compressibility (1/GPa) = 0.06546120
#
# Stress axis : x y z
#
# Youngs Moduli (GPa) = 102.60232 26.52436 17.05565
#
# Poissons Ratio (x) = 0.28069 0.06956
# Poissons Ratio (y) = 1.08577 0.09633
# Poissons Ratio (z) = 0.41847 0.14981
#
# Static dielectric constant tensor:
#      x y z
#    x 1.822550 0.000000 0.007780 
#    y 0.000000 1.700790 0.000000 
#    z 0.007780 0.000000 1.883730 
# 
# From -- ./inp_files/65355.got.cif
#   From: 2010.05.17/outbox.cif.g08.bks.cpg/sg11_33_cif.got.tgz:65355.got - 2010.06.03 12:22:45.
