data_PCOD9161090
_publ_section_title
;
Structure prediction by ZEFSAII (Michael W. Deem and Ramdas Pophale) SiO2 
 PCOD9161090
Probable space group: P 21/M
;
_chemical_formula_sum "Si O2"
_cell_formula_units_Z 32
_cell_length_a 17.320042
_cell_length_b 7.704404
_cell_length_c 26.850742
_cell_angle_alpha 90.000000
_cell_angle_beta 155.907139
_cell_angle_gamma 90.000000
_cell_volume 1462.631991
_symmetry_space_group_name_H-M "P 21/M"
_symmetry_group_IT_number 11
_symmetry_cell_setting 'monoclinic'
loop_
_space_group_symop_operation_xyz
x,y,z
-x,1/2+y,-z
-x,-y,-z
x,1/2-y,z
loop_
_atom_site_type_symbol
_atom_site_label
_atom_site_fract_x
_atom_site_fract_y
_atom_site_fract_z
Si Si1 0.962702 0.041145 0.765480
Si Si2 0.348683 0.539856 0.251554
Si Si3 0.935713 0.460471 0.324484
Si Si4 0.013505 0.462350 0.906612
Si Si5 0.424166 0.042770 0.182083
Si Si6 0.809049 0.458350 0.358179
Si Si7 0.694449 0.939802 0.090882
Si Si8 0.700599 0.956969 0.517966
O O1 0.979489 0.250000 0.775653
O O2 0.936785 0.985205 0.806961
O O3 0.167276 0.968827 0.867309
O O4 0.800244 0.005835 0.628865
O O5 0.348728 0.750000 0.252926
O O6 0.137673 0.480499 0.141077
O O7 0.414727 0.488442 0.235557
O O8 0.496668 0.476389 0.380859
O O9 0.911195 0.250000 0.304670
O O10 0.848858 0.516985 0.325387
O O11 0.829647 0.557383 0.218135
O O12 0.155058 0.497951 0.442487
O O13 0.017872 0.250000 0.910029
O O14 0.226868 0.523324 0.042544
O O15 0.425541 0.250000 0.174943
O O16 0.617253 0.973578 0.270767
O O17 0.793595 0.250000 0.347195
O O18 0.000000 0.500000 0.500000
O O19 0.651939 0.750000 0.044904
O O20 0.500000 0.000000 0.000000
O O21 0.686463 0.750000 0.512186
#
# Coordination Sequence:
#
# PCOD9161090 Si02
#       8
#     4   4   4   4   4   4   4   4
#     4   9  19  35  55  78 106 142 180 219 264 319
#     4  10  20  36  58  80 106 143 182 224 276 326
#     4   9  18  33  51  72 102 140 176 212 259 315
#     4   9  19  36  57  80 108 142 182 224 270 325
#     4  10  21  36  56  81 109 143 183 228 272 321
#     4  10  21  35  55  80 108 144 182 223 270 320
#     4  10  20  32  51  76 103 138 175 214 258 313
#     4   9  18  33  53  78 109 141 175 221 271 317
#
# _framework density 21.878367000000001
#
# number of rings (size 3 to 8) (size 9 to 14) (size 15 to 20)
#    0.000    2.500    0.000    1.500    1.750    3.500 
#    0.000    3.750    0.000    0.000    0.000    0.000 
#    0.000    0.000    0.000    0.000    0.000    0.000 
#
# Total GULP energy -178402.818852 kJ/mol
# GULP energy per Si atom -5575.088089 kJ/mol
# Density = 2.182857 g / cm^3
# Si number density = 21.878367 Si / 1000 Ang^3
#
#
#
# Elastic Constant Matrix: (Units=GPa)
#
#
# Indices 1 2 3 4 5 6 
#
# 1 84.8325 2.3932 31.7345 0.0000 3.7399 0.0000
# 2 2.3932 27.8553 4.4702 0.0000 9.7849 0.0000
# 3 31.7345 4.4702 108.4423 0.0000 19.1555 0.0000
# 4 0.0000 0.0000 0.0000 19.9762 0.0000 -8.9850
# 5 3.7399 9.7849 19.1555 0.0000 30.4060 0.0000
# 6 0.0000 0.0000 0.0000 -8.9850 0.0000 -19.2116
#
#
#
# Elastic Compliance Matrix: (Units=1/GPa)
#
#
# Indices 1 2 3 4 5 6 
#
# 1 0.013280 -0.000918 -0.004064 0.000000 0.001223 0.000000
# 2 -0.000918 0.040588 0.000993 0.000000 -0.013574 0.000000
# 3 -0.004064 0.000993 0.011633 0.000000 -0.007148 0.000000
# 4 0.000000 0.000000 0.000000 0.041359 0.000000 -0.019343
# 5 0.001223 -0.013574 -0.007148 0.000000 0.041610 0.000000
# 6 0.000000 0.000000 0.000000 -0.019343 0.000000 -0.043005
#
#
# Mechanical properties :
#
#
# Convention : Reuss Voigt Hill
#
# Bulk Modulus (GPa) = 17.38460 33.14733 25.26596
# Shear Modulus (GPa) = 37.70263 18.40294 28.05278
#
# Velocity S-wave (km/s) = 4.15575 2.90340 3.58469
# Velocity P-wave (km/s) = 5.56689 5.14036 5.35787
#
# Compressibility (1/GPa) = 0.05752219
#
# Stress axis : x y z
#
# Youngs Moduli (GPa) = 75.29896 24.63802 85.96487
#
# Poissons Ratio (x) = 0.02262 0.34940
# Poissons Ratio (y) = 0.06914 -0.08540
# Poissons Ratio (z) = 0.30605 -0.02448
#
# Static dielectric constant tensor:
#      x y z
#    x 1.850470 0.000000 0.042360 
#    y 0.000000 1.907480 0.000000 
#    z 0.042360 0.000000 1.851610 
# 
# From -- ./inp_files/54296.got.cif
#   From: 2010.05.17/outbox.cif.g08.bks.cpg/sg11_28_cif.got.tgz:54296.got - 2010.06.03 12:22:45.
