data_PCOD9161267
_publ_section_title
;
Structure prediction by ZEFSAII (Michael W. Deem and Ramdas Pophale) SiO2 
 PCOD9161267
Probable space group: P 21/M
;
_chemical_formula_sum "Si O2"
_cell_formula_units_Z 28
_cell_length_a 19.737009
_cell_length_b 8.771014
_cell_length_c 14.772658
_cell_angle_alpha 90.000000
_cell_angle_beta 41.665398
_cell_angle_gamma 90.000000
_cell_volume 1700.071907
_symmetry_space_group_name_H-M "P 21/M"
_symmetry_group_IT_number 11
_symmetry_cell_setting 'monoclinic'
loop_
_space_group_symop_operation_xyz
x,y,z
-x,1/2+y,-z
-x,-y,-z
x,1/2-y,z
loop_
_atom_site_type_symbol
_atom_site_label
_atom_site_fract_x
_atom_site_fract_y
_atom_site_fract_z
Si Si1 0.612542 0.933671 0.786884
Si Si2 0.386018 0.066099 0.012725
Si Si3 0.891726 0.067684 0.216809
Si Si4 0.699912 0.933111 0.510053
Si Si5 0.111337 0.932109 0.991266
Si Si6 0.508145 0.432966 0.592426
Si Si7 0.300909 0.433416 0.908757
O O1 0.604080 0.750000 0.794291
O O2 0.681440 0.978588 0.633125
O O3 0.499839 0.001903 0.886667
O O4 0.648774 0.979018 0.851474
O O5 0.392163 0.250000 0.003528
O O6 0.317526 0.018099 0.996345
O O7 0.889791 0.250000 0.226003
O O8 0.871186 0.026250 0.131886
O O9 0.804456 0.996295 0.365543
O O10 0.004211 0.006273 0.126514
O O11 0.699068 0.750000 0.504876
O O12 0.605466 0.998240 0.546568
O O13 0.102809 0.750000 0.004881
O O14 0.205036 0.989931 0.957022
O O15 0.500000 0.500000 0.500000
O O16 0.518187 0.250000 0.578479
O O17 0.405071 0.469512 0.750721
O O18 0.288137 0.250000 0.918597
#
# Coordination Sequence:
#
# PCOD9161267 Si02
#       7
#     4   4   4   4   4   4   4
#     4   9  18  31  50  75 103 135 171 212 257 302
#     4   9  17  32  51  73 102 136 173 212 254 304
#     4  10  21  37  56  76 100 135 175 213 255 306
#     4  11  21  33  51  77 107 137 170 212 258 306
#     4  10  21  36  55  77 101 131 171 217 258 302
#     4  11  22  34  48  72 105 141 174 208 254 307
#     4  10  20  33  51  74 103 137 171 209 254 306
#
# _framework density 16.469891000000001
#
# number of rings (size 3 to 8) (size 9 to 14) (size 15 to 20)
#    0.000    2.000    1.429    2.571    0.000    6.286 
#    0.000    0.000    0.000    0.857    0.000    0.000 
#    0.000    0.000    0.000    0.000    0.000    0.000 
#
# Total GULP energy -156274.532593 kJ/mol
# GULP energy per Si atom -5581.233307 kJ/mol
# Density = 1.643240 g / cm^3
# Si number density = 16.469891 Si / 1000 Ang^3
#
#
#
# Elastic Constant Matrix: (Units=GPa)
#
#
# Indices 1 2 3 4 5 6 
#
# 1 105.0121 39.8796 86.1228 0.0000 10.1165 0.0000
# 2 39.8796 35.0544 50.7830 0.0000 2.0075 0.0000
# 3 86.1228 50.7830 154.5490 0.0000 8.2123 0.0000
# 4 0.0000 0.0000 0.0000 26.6228 0.0000 -5.6195
# 5 10.1165 2.0075 8.2123 0.0000 22.4077 0.0000
# 6 0.0000 0.0000 0.0000 -5.6195 0.0000 27.2083
#
#
#
# Elastic Compliance Matrix: (Units=1/GPa)
#
#
# Indices 1 2 3 4 5 6 
#
# 1 0.020794 -0.013323 -0.006909 0.000000 -0.005662 0.000000
# 2 -0.013323 0.063045 -0.013575 0.000000 0.005342 0.000000
# 3 -0.006909 -0.013575 0.014840 0.000000 -0.001103 0.000000
# 4 0.000000 0.000000 0.000000 0.039274 0.000000 0.008111
# 5 -0.005662 0.005342 -0.001103 0.000000 0.047110 0.000000
# 6 0.000000 0.000000 0.000000 0.008111 0.000000 0.038429
#
#
# Mechanical properties :
#
#
# Convention : Reuss Voigt Hill
#
# Bulk Modulus (GPa) = 32.19182 72.02068 52.10625
# Shear Modulus (GPa) = 16.58598 23.10309 19.84454
#
# Velocity S-wave (km/s) = 3.17685 3.74939 3.47493
# Velocity P-wave (km/s) = 5.74846 7.90996 6.91420
#
# Compressibility (1/GPa) = 0.03106380
#
# Stress axis : x y z
#
# Youngs Moduli (GPa) = 48.09116 15.86177 67.38742
#
# Poissons Ratio (x) = 0.21133 0.46556
# Poissons Ratio (y) = 0.64074 0.91479
# Poissons Ratio (z) = 0.33224 0.21533
#
# Static dielectric constant tensor:
#      x y z
#    x 1.543800 0.000000 0.031920 
#    y 0.000000 1.550860 0.000000 
#    z 0.031920 0.000000 1.537180 
# 
# From -- ./inp_files/37154.got.cif
#   From: 2010.05.17/outbox.cif.g08.bks.cpg/sg11_19_cif.got.tgz:37154.got - 2010.06.03 12:22:45.
