data_PCOD9161025
_publ_section_title
;
Structure prediction by ZEFSAII (Michael W. Deem and Ramdas Pophale) SiO2 
 PCOD9161025
Probable space group: P 21/M
;
_chemical_formula_sum "Si O2"
_cell_formula_units_Z 32
_cell_length_a 16.487559
_cell_length_b 9.393806
_cell_length_c 23.978595
_cell_angle_alpha 90.000000
_cell_angle_beta 151.399960
_cell_angle_gamma 90.000000
_cell_volume 1777.781076
_symmetry_space_group_name_H-M "P 21/M"
_symmetry_group_IT_number 11
_symmetry_cell_setting 'monoclinic'
loop_
_space_group_symop_operation_xyz
x,y,z
-x,1/2+y,-z
-x,-y,-z
x,1/2-y,z
loop_
_atom_site_type_symbol
_atom_site_label
_atom_site_fract_x
_atom_site_fract_y
_atom_site_fract_z
Si Si1 0.473088 0.919869 0.697519
Si Si2 0.955250 0.580359 0.098085
Si Si3 0.222891 0.579790 0.178973
Si Si4 0.975912 0.082158 0.223908
Si Si5 0.542386 0.403574 0.576333
Si Si6 0.771836 0.588475 0.529664
Si Si7 0.553903 0.916448 0.870147
Si Si8 0.429655 0.583585 0.010428
O O1 0.483058 0.750000 0.692943
O O2 0.457506 0.942998 0.754265
O O3 0.650361 0.993154 0.784356
O O4 0.314729 0.990263 0.569421
O O5 0.987410 0.750000 0.122767
O O6 0.018771 0.500410 0.192498
O O7 0.033737 0.536844 0.084934
O O8 0.752973 0.559494 0.976683
O O9 0.228760 0.750000 0.168622
O O10 0.311091 0.557533 0.292691
O O11 0.018131 0.250000 0.242093
O O12 0.072614 0.033769 0.338534
O O13 0.774728 0.069895 0.111401
O O14 0.500000 0.500000 0.500000
O O15 0.584923 0.250000 0.578598
O O16 0.377897 0.397869 0.515651
O O17 0.808978 0.750000 0.531351
O O18 0.535429 0.750000 0.874328
O O19 0.506035 0.013999 0.893217
O O20 0.472128 0.750000 0.032974
O O21 0.500000 0.500000 0.000000
#
# Coordination Sequence:
#
# PCOD9161025 Si02
#       8
#     4   4   4   4   4   4   4   4
#     4  10  20  32  47  69  97 133 175 211 243 282
#     4   9  17  30  48  69  96 131 168 209 256 296
#     4   9  18  30  42  61  92 130 171 211 250 290
#     4   9  18  32  51  76 102 127 159 201 248 294
#     4   9  16  24  36  56  83 117 157 201 243 278
#     4   9  18  32  47  65  94 129 163 202 245 288
#     4   9  19  35  52  73 102 131 162 204 248 290
#     4  10  20  35  58  85 107 127 152 187 238 298
#
# _framework density 17.999967000000002
#
# number of rings (size 3 to 8) (size 9 to 14) (size 15 to 20)
#    0.000    2.750    0.000    2.250    0.000    5.000 
#    0.000    0.000    0.000    0.750    0.000    0.000 
#    0.000    0.000    0.000    0.000    0.000    0.000 
#
# Total GULP energy -178164.714428 kJ/mol
# GULP energy per Si atom -5567.647326 kJ/mol
# Density = 1.795900 g / cm^3
# Si number density = 17.999967 Si / 1000 Ang^3
#
#
#
# Elastic Constant Matrix: (Units=GPa)
#
#
# Indices 1 2 3 4 5 6 
#
# 1 93.5802 66.8148 20.7867 0.0000 -21.9042 0.0000
# 2 66.8148 72.7264 29.6427 0.0000 -22.2605 0.0000
# 3 20.7867 29.6427 48.9730 0.0000 -24.8441 0.0000
# 4 0.0000 0.0000 0.0000 19.0549 0.0000 -3.7338
# 5 -21.9042 -22.2605 -24.8441 0.0000 24.1750 0.0000
# 6 0.0000 0.0000 0.0000 -3.7338 0.0000 27.4220
#
#
#
# Elastic Compliance Matrix: (Units=1/GPa)
#
#
# Indices 1 2 3 4 5 6 
#
# 1 0.034012 -0.031892 0.011706 0.000000 0.013481 0.000000
# 2 -0.031892 0.049795 -0.016718 0.000000 -0.000226 0.000000
# 3 0.011706 -0.016718 0.048346 0.000000 0.044897 0.000000
# 4 0.000000 0.000000 0.000000 0.053918 0.000000 0.007342
# 5 0.013481 -0.000226 0.044897 0.000000 0.099511 0.000000
# 6 0.000000 0.000000 0.000000 0.007342 0.000000 0.037467
#
#
# Mechanical properties :
#
#
# Convention : Reuss Voigt Hill
#
# Bulk Modulus (GPa) = 17.13942 49.97422 33.55682
# Shear Modulus (GPa) = 12.01044 20.66608 16.33826
#
# Velocity S-wave (km/s) = 2.58592 3.39206 3.01605
# Velocity P-wave (km/s) = 4.29634 6.57003 5.55085
#
# Compressibility (1/GPa) = 0.05834504
#
# Stress axis : x y z
#
# Youngs Moduli (GPa) = 29.40176 20.08237 20.68422
#
# Poissons Ratio (x) = 0.64047 -0.24214
# Poissons Ratio (y) = 0.93768 0.34580
# Poissons Ratio (z) = -0.34419 0.33574
#
# Static dielectric constant tensor:
#      x y z
#    x 1.609100 0.000000 0.030860 
#    y 0.000000 1.698280 0.000000 
#    z 0.030860 0.000000 1.690660 
# 
# From -- ./inp_files/54319.got.cif
#   From: 2010.05.17/outbox.cif.g08.bks.cpg/sg11_28_cif.got.tgz:54319.got - 2010.06.03 12:22:45.
