data_PCOD9161594
_publ_section_title
;
Structure prediction by ZEFSAII (Michael W. Deem and Ramdas Pophale) SiO2 
 PCOD9161594
Probable space group: P 21/M
;
_chemical_formula_sum "Si O2"
_cell_formula_units_Z 32
_cell_length_a 10.260110
_cell_length_b 9.267574
_cell_length_c 21.627022
_cell_angle_alpha 90.000000
_cell_angle_beta 73.683966
_cell_angle_gamma 90.000000
_cell_volume 1973.614756
_symmetry_space_group_name_H-M "P 21/M"
_symmetry_group_IT_number 11
_symmetry_cell_setting 'monoclinic'
loop_
_space_group_symop_operation_xyz
x,y,z
-x,1/2+y,-z
-x,-y,-z
x,1/2-y,z
loop_
_atom_site_type_symbol
_atom_site_label
_atom_site_fract_x
_atom_site_fract_y
_atom_site_fract_z
Si Si1 0.201961 0.923163 0.193764
Si Si2 0.614008 0.580605 0.658406
Si Si3 0.396644 0.578154 0.468316
Si Si4 0.089255 0.421287 0.319091
Si Si5 0.519025 0.578064 0.802518
Si Si6 0.297019 0.916270 0.051977
Si Si7 0.400230 0.416651 0.926592
Si Si8 0.085291 0.922291 0.541815
O O1 0.213944 0.750000 0.198920
O O2 0.194240 0.953888 0.121395
O O3 0.092488 0.988090 0.255492
O O4 0.340412 0.001483 0.196713
O O5 0.605396 0.750000 0.642706
O O6 0.588331 0.482914 0.602860
O O7 0.767081 0.555963 0.664057
O O8 0.512867 0.554372 0.729667
O O9 0.500000 0.500000 0.500000
O O10 0.416129 0.750000 0.466708
O O11 0.243187 0.546448 0.511074
O O12 0.081698 0.250000 0.306199
O O13 0.972551 0.462346 0.383104
O O14 0.528790 0.750000 0.811641
O O15 0.408479 0.508368 0.862551
O O16 0.275787 0.750000 0.036480
O O17 0.447869 0.922994 0.063177
O O18 0.302431 0.016831 0.991587
O O19 0.370772 0.250000 0.917882
O O20 0.064884 0.750000 0.538410
O O21 0.000000 0.000000 0.500000
#
# Coordination Sequence:
#
# PCOD9161594 Si02
#       8
#     4   4   4   4   4   4   4   4
#     4   9  16  24  35  54  78 106 144 183 221 268
#     4   9  17  30  47  65  88 117 149 189 234 280
#     4  11  23  36  52  72  96 126 158 194 239 287
#     4   9  17  29  45  65  90 115 145 188 234 277
#     4   9  16  25  37  53  77 108 140 180 228 270
#     4   8  14  22  30  43  69 104 139 177 218 262
#     4   9  15  21  31  48  69  99 142 184 217 261
#     4  10  20  34  52  74  95 122 157 195 239 284
#
# _framework density 16.213902999999998
#
# number of rings (size 3 to 8) (size 9 to 14) (size 15 to 20)
#    0.000    2.750    1.250    3.000    0.000    7.000 
#    0.000    0.000    0.000    0.000    0.000    0.000 
#    0.000    0.000    0.000    1.125    0.000   14.000 
#
# Total GULP energy -178159.155982 kJ/mol
# GULP energy per Si atom -5567.473624 kJ/mol
# Density = 1.617700 g / cm^3
# Si number density = 16.213903 Si / 1000 Ang^3
#
#
#
# Elastic Constant Matrix: (Units=GPa)
#
#
# Indices 1 2 3 4 5 6 
#
# 1 32.0218 32.9077 33.8627 0.0000 -0.8894 0.0000
# 2 32.9077 85.3039 91.1923 0.0000 1.0932 0.0000
# 3 33.8627 91.1923 179.1329 0.0000 -3.6907 0.0000
# 4 0.0000 0.0000 0.0000 36.4751 0.0000 3.1024
# 5 -0.8894 1.0932 -3.6907 0.0000 5.8052 0.0000
# 6 0.0000 0.0000 0.0000 3.1024 0.0000 10.7451
#
#
#
# Elastic Compliance Matrix: (Units=1/GPa)
#
#
# Indices 1 2 3 4 5 6 
#
# 1 0.052757 -0.022280 0.001644 0.000000 0.013324 0.000000
# 2 -0.022280 0.036191 -0.014615 0.000000 -0.019520 0.000000
# 3 0.001644 -0.014615 0.012943 0.000000 0.011233 0.000000
# 4 0.000000 0.000000 0.000000 0.028106 0.000000 -0.008115
# 5 0.013324 -0.019520 0.011233 0.000000 0.185119 0.000000
# 6 0.000000 0.000000 0.000000 -0.008115 0.000000 0.095409
#
#
# Mechanical properties :
#
#
# Convention : Reuss Voigt Hill
#
# Bulk Modulus (GPa) = 31.85761 68.04267 49.95014
# Shear Modulus (GPa) = 10.17315 19.83814 15.00564
#
# Velocity S-wave (km/s) = 2.50758 3.50169 3.04547
# Velocity P-wave (km/s) = 5.29858 7.64237 6.57574
#
# Compressibility (1/GPa) = 0.03138968
#
# Stress axis : x y z
#
# Youngs Moduli (GPa) = 18.95482 27.63094 77.26138
#
# Poissons Ratio (x) = 0.61562 -0.12700
# Poissons Ratio (y) = 0.42231 1.12914
# Poissons Ratio (z) = -0.03116 0.40381
#
# Static dielectric constant tensor:
#      x y z
#    x 1.507300 0.000000 -0.017480 
#    y 0.000000 1.698130 0.000000 
#    z -0.017480 0.000000 1.594410 
# 
# From -- ./inp_files/68246.got.cif
#   From: 2010.05.17/outbox.cif.g08.bks.cpg/sg11_35_cif.got.tgz:68246.got - 2010.06.03 12:22:45.
