data_PCOD9161565
_publ_section_title
;
Structure prediction by ZEFSAII (Michael W. Deem and Ramdas Pophale) SiO2 
 PCOD9161565
Probable space group: P 21/M
;
_chemical_formula_sum "Si O2"
_cell_formula_units_Z 32
_cell_length_a 8.274409
_cell_length_b 7.357777
_cell_length_c 28.158687
_cell_angle_alpha 90.000000
_cell_angle_beta 54.580826
_cell_angle_gamma 90.000000
_cell_volume 1397.070706
_symmetry_space_group_name_H-M "P 21/M"
_symmetry_group_IT_number 11
_symmetry_cell_setting 'monoclinic'
loop_
_space_group_symop_operation_xyz
x,y,z
-x,1/2+y,-z
-x,-y,-z
x,1/2-y,z
loop_
_atom_site_type_symbol
_atom_site_label
_atom_site_fract_x
_atom_site_fract_y
_atom_site_fract_z
Si Si1 0.476046 0.971977 0.363144
Si Si2 0.850324 0.970944 0.243980
Si Si3 0.197585 0.971424 0.251959
Si Si4 0.103417 0.971406 0.373042
Si Si5 0.794812 0.035894 0.005897
Si Si6 0.975047 0.527153 0.119291
Si Si7 0.419022 0.461861 0.867286
Si Si8 0.657837 0.533366 0.431958
O O1 0.474521 0.750000 0.364470
O O2 0.627773 0.025433 0.295164
O O3 0.252973 0.031021 0.388941
O O4 0.568516 0.034458 0.397244
O O5 0.848458 0.750000 0.242205
O O6 0.946993 0.031320 0.178072
O O7 0.992724 0.026541 0.262557
O O8 0.197612 0.750000 0.251203
O O9 0.201225 0.023893 0.306043
O O10 0.379959 0.036872 0.188808
O O11 0.098861 0.750000 0.375694
O O12 0.875885 0.034747 0.409832
O O13 0.231228 0.750000 0.992774
O O14 0.618921 0.970537 0.069863
O O15 0.840558 0.966709 0.945006
O O16 0.000000 0.000000 0.000000
O O17 0.981146 0.750000 0.117997
O O18 0.775854 0.465548 0.125878
O O19 0.421133 0.250000 0.854618
O O20 0.500000 0.500000 0.500000
O O21 0.681417 0.750000 0.421518
#
# Coordination Sequence:
#
# PCOD9161565 Si02
#       8
#     4   4   4   4   4   4   4   4
#     4   9  16  27  46  71  99 128 159 199 246 286
#     4   9  14  23  40  65  93 117 147 196 247 280
#     4   9  15  24  41  66  94 118 149 197 244 280
#     4   9  16  28  47  72 101 129 160 203 245 282
#     4   9  16  27  42  61  87 119 154 193 235 283
#     4   8  14  23  37  58  84 113 146 184 232 280
#     4   9  16  26  41  64  89 115 148 188 236 286
#     4  10  20  34  51  75 104 132 162 196 237 285
#
# _framework density 22.905069999999998
#
# number of rings (size 3 to 8) (size 9 to 14) (size 15 to 20)
#    0.000    3.000    1.250    1.875    0.000    3.500 
#    0.000    0.625    0.000    0.750    0.000   11.375 
#    0.000    0.000    0.000    0.000    0.000    0.000 
#
# Total GULP energy -178507.938437 kJ/mol
# GULP energy per Si atom -5578.373076 kJ/mol
# Density = 2.285294 g / cm^3
# Si number density = 22.905070 Si / 1000 Ang^3
#
#
#
# Elastic Constant Matrix: (Units=GPa)
#
#
# Indices 1 2 3 4 5 6 
#
# 1 79.1026 0.0484 22.8702 0.0000 -13.7261 0.0000
# 2 0.0484 79.4312 -11.3679 0.0000 -2.2107 0.0000
# 3 22.8702 -11.3679 106.0507 0.0000 -15.8042 0.0000
# 4 0.0000 0.0000 0.0000 13.3794 0.0000 -1.0982
# 5 -13.7261 -2.2107 -15.8042 0.0000 34.0502 0.0000
# 6 0.0000 0.0000 0.0000 -1.0982 0.0000 -11.3368
#
#
#
# Elastic Compliance Matrix: (Units=1/GPa)
#
#
# Indices 1 2 3 4 5 6 
#
# 1 0.014126 -0.000223 -0.002389 0.000000 0.004571 0.000000
# 2 -0.000223 0.012868 0.001653 0.000000 0.001513 0.000000
# 3 -0.002389 0.001653 0.010737 0.000000 0.004128 0.000000
# 4 0.000000 0.000000 0.000000 0.074152 0.000000 -0.007183
# 5 0.004571 0.001513 0.004128 0.000000 0.033225 0.000000
# 6 0.000000 0.000000 0.000000 -0.007183 0.000000 -0.087512
#
#
# Mechanical properties :
#
#
# Convention : Reuss Voigt Hill
#
# Bulk Modulus (GPa) = 27.92326 31.96509 29.94417
# Shear Modulus (GPa) = 69.97663 24.08747 47.03205
#
# Velocity S-wave (km/s) = 5.53327 3.24639 4.53630
# Velocity P-wave (km/s) = 7.28286 5.29508 6.36702
#
# Compressibility (1/GPa) = 0.03581243
#
# Stress axis : x y z
#
# Youngs Moduli (GPa) = 70.79225 77.71019 93.13607
#
# Poissons Ratio (x) = 0.01735 0.22251
# Poissons Ratio (y) = 0.01581 -0.15395
# Poissons Ratio (z) = 0.16913 -0.12845
#
# Static dielectric constant tensor:
#      x y z
#    x 1.837710 0.000000 -0.005610 
#    y 0.000000 1.903820 0.000000 
#    z -0.005610 0.000000 1.848060 
# 
# From -- ./inp_files/70976.got.cif
#   From: 2010.05.17/outbox.cif.g08.bks.cpg/sg11_36_cif.got.tgz:70976.got - 2010.06.03 12:22:45.
