data_PCOD9161821
_publ_section_title
;
Structure prediction by ZEFSAII (Michael W. Deem and Ramdas Pophale) SiO2 
 PCOD9161821
Probable space group: P 21/M
;
_chemical_formula_sum "Si O2"
_cell_formula_units_Z 32
_cell_length_a 13.416262
_cell_length_b 9.994822
_cell_length_c 22.683416
_cell_angle_alpha 90.000000
_cell_angle_beta 32.608063
_cell_angle_gamma 90.000000
_cell_volume 1639.134687
_symmetry_space_group_name_H-M "P 21/M"
_symmetry_group_IT_number 11
_symmetry_cell_setting 'monoclinic'
loop_
_space_group_symop_operation_xyz
x,y,z
-x,1/2+y,-z
-x,-y,-z
x,1/2-y,z
loop_
_atom_site_type_symbol
_atom_site_label
_atom_site_fract_x
_atom_site_fract_y
_atom_site_fract_z
Si Si1 0.144632 0.093626 0.706938
Si Si2 0.475905 0.407334 0.863420
Si Si3 0.802717 0.901560 0.888755
Si Si4 0.577306 0.901469 0.324278
Si Si5 0.237906 0.101547 0.226086
Si Si6 0.433583 0.906342 0.778020
Si Si7 0.132032 0.107670 0.462038
Si Si8 0.824127 0.486170 0.438375
O O1 0.096957 0.250000 0.727985
O O2 0.303544 0.075835 0.676288
O O3 0.204718 0.046087 0.612035
O O4 0.965985 0.007634 0.813376
O O5 0.500589 0.250000 0.835252
O O6 0.665856 0.482288 0.786497
O O7 0.386505 0.498107 0.856521
O O8 0.346818 0.414068 0.985440
O O9 0.879913 0.750000 0.852709
O O10 0.718717 0.915921 0.864995
O O11 0.615015 0.750000 0.283693
O O12 0.360585 0.911185 0.449035
O O13 0.622762 0.014556 0.253273
O O14 0.302384 0.250000 0.213124
O O15 0.015873 0.095094 0.341247
O O16 0.373233 0.750000 0.811100
O O17 0.657585 0.904691 0.664107
O O18 0.056405 0.250000 0.481136
O O19 0.141504 0.094479 0.527692
O O20 0.000000 0.000000 0.500000
#
# Coordination Sequence:
#
# PCOD9161821 Si02
#       8
#     4   4   4   4   4   4   4   4
#     4  10  21  37  60  87 112 142 186 236 282 330
#     4  11  22  37  58  82 110 147 188 232 281 332
#     4   9  21  39  57  81 113 147 185 231 283 334
#     4  10  21  38  59  84 113 146 185 231 280 330
#     4  10  20  34  54  83 116 149 184 222 270 330
#     4  10  22  38  55  78 108 144 186 231 278 332
#     4  10  21  34  50  74 108 146 183 221 263 316
#     4  10  20  35  56  83 116 151 184 220 269 328
#
# _framework density 19.522496
#
# number of rings (size 3 to 8) (size 9 to 14) (size 15 to 20)
#    0.000    2.000    0.000    3.000    0.000   10.000 
#    0.000    0.625    0.000    0.000    0.000    0.000 
#    0.000    0.000    0.000    0.000    0.000    0.000 
#
# Total GULP energy -178589.938176 kJ/mol
# GULP energy per Si atom -5580.935568 kJ/mol
# Density = 1.947806 g / cm^3
# Si number density = 19.522496 Si / 1000 Ang^3
#
#
#
# Elastic Constant Matrix: (Units=GPa)
#
#
# Indices 1 2 3 4 5 6 
#
# 1 79.6736 54.9635 16.7019 0.0000 16.5123 0.0000
# 2 54.9635 142.9386 22.6911 0.0000 12.9093 0.0000
# 3 16.7019 22.6911 37.4517 0.0000 19.2221 0.0000
# 4 0.0000 0.0000 0.0000 15.0925 0.0000 -1.4224
# 5 16.5123 12.9093 19.2221 0.0000 25.9803 0.0000
# 6 0.0000 0.0000 0.0000 -1.4224 0.0000 27.7913
#
#
#
# Elastic Compliance Matrix: (Units=1/GPa)
#
#
# Indices 1 2 3 4 5 6 
#
# 1 0.018810 -0.006443 0.000013 0.000000 -0.008763 0.000000
# 2 -0.006443 0.009954 -0.004386 0.000000 0.002395 0.000000
# 3 0.000013 -0.004386 0.045527 0.000000 -0.031513 0.000000
# 4 0.000000 0.000000 0.000000 0.066579 0.000000 0.003408
# 5 -0.008763 0.002395 -0.031513 0.000000 0.066186 0.000000
# 6 0.000000 0.000000 0.000000 0.003408 0.000000 0.036157
#
#
# Mechanical properties :
#
#
# Convention : Reuss Voigt Hill
#
# Bulk Modulus (GPa) = 18.99078 49.86410 34.42744
# Shear Modulus (GPa) = 17.70553 24.81998 21.26276
#
# Velocity S-wave (km/s) = 3.01479 3.56947 3.30379
# Velocity P-wave (km/s) = 4.67626 6.52576 5.67683
#
# Compressibility (1/GPa) = 0.05265713
#
# Stress axis : x y z
#
# Youngs Moduli (GPa) = 53.16429 100.46500 21.96510
#
# Poissons Ratio (x) = 0.64734 -0.00029
# Poissons Ratio (y) = 0.34256 0.09635
# Poissons Ratio (z) = -0.00070 0.44067
#
# Static dielectric constant tensor:
#      x y z
#    x 1.675060 0.000000 0.029580 
#    y 0.000000 1.681630 0.000000 
#    z 0.029580 0.000000 1.678520 
# 
# From -- ./inp_files/68980.got.cif
#   From: 2010.05.17/outbox.cif.g08.bks.cpg/sg11_35_cif.got.tgz:68980.got - 2010.06.03 12:22:45.
