data_PCOD9161311
_publ_section_title
;
Structure prediction by ZEFSAII (Michael W. Deem and Ramdas Pophale) SiO2 
 PCOD9161311
Probable space group: P 21/M
;
_chemical_formula_sum "Si O2"
_cell_formula_units_Z 32
_cell_length_a 20.450564
_cell_length_b 14.245138
_cell_length_c 8.748693
_cell_angle_alpha 90.000000
_cell_angle_beta 39.414126
_cell_angle_gamma 90.000000
_cell_volume 1618.209791
_symmetry_space_group_name_H-M "P 21/M"
_symmetry_group_IT_number 11
_symmetry_cell_setting 'monoclinic'
loop_
_space_group_symop_operation_xyz
x,y,z
-x,1/2+y,-z
-x,-y,-z
x,1/2-y,z
loop_
_atom_site_type_symbol
_atom_site_label
_atom_site_fract_x
_atom_site_fract_y
_atom_site_fract_z
Si Si1 0.542838 0.354207 0.136214
Si Si2 0.368483 0.143474 0.964545
Si Si3 0.072088 0.641732 0.845544
Si Si4 0.768702 0.139408 0.718601
Si Si5 0.440795 0.907337 0.553488
Si Si6 0.239244 0.994814 0.999824
Si Si7 0.329478 0.362395 0.393975
Si Si8 0.868561 0.545165 0.095489
O O1 0.539042 0.250000 0.074260
O O2 0.550593 0.348407 0.305667
O O3 0.435117 0.398781 0.282335
O O4 0.652484 0.396203 0.889952
O O5 0.340519 0.250000 0.974034
O O6 0.343694 0.128830 0.186723
O O7 0.490390 0.131723 0.707574
O O8 0.304380 0.072435 0.975060
O O9 0.071169 0.750000 0.901464
O O10 0.156358 0.633052 0.559219
O O11 0.100250 0.561080 0.915616
O O12 0.962139 0.612595 0.973522
O O13 0.759661 0.250000 0.776799
O O14 0.805044 0.076991 0.795216
O O15 0.500000 0.000000 0.500000
O O16 0.322059 0.935318 0.748644
O O17 0.159206 0.043366 0.032662
O O18 0.316834 0.250000 0.452518
O O19 0.232060 0.418725 0.632370
#
# Coordination Sequence:
#
# PCOD9161311 Si02
#       8
#     4   4   4   4   4   4   4   4
#     4   9  17  31  53  79 111 150 187 225 272 328
#     4  10  20  33  51  79 119 159 194 234 276 328
#     4  10  23  43  63  83 109 145 190 236 285 342
#     4   9  19  38  61  85 117 153 188 231 281 334
#     4   9  17  30  46  72 109 147 183 223 271 326
#     4  10  21  36  56  85 114 145 190 236 285 339
#     4  10  20  34  55  86 120 155 195 235 277 325
#     4  11  23  39  62  85 112 149 187 236 287 337
#
# _framework density 19.774940000000001
#
# number of rings (size 3 to 8) (size 9 to 14) (size 15 to 20)
#    0.000    2.250    0.000    3.000    0.000    4.500 
#    0.000    8.125    0.000    3.000    0.000    0.000 
#    0.000    0.000    0.000    0.000    0.000    0.000 
#
# Total GULP energy -178471.978267 kJ/mol
# GULP energy per Si atom -5577.249321 kJ/mol
# Density = 1.972993 g / cm^3
# Si number density = 19.774940 Si / 1000 Ang^3
#
#
#
# Elastic Constant Matrix: (Units=GPa)
#
#
# Indices 1 2 3 4 5 6 
#
# 1 58.8370 11.4150 -1.5095 0.0000 -25.4821 0.0000
# 2 11.4150 88.2463 21.2057 0.0000 3.3505 0.0000
# 3 -1.5095 21.2057 -9.9858 0.0000 -50.5297 0.0000
# 4 0.0000 0.0000 0.0000 24.5481 0.0000 11.3395
# 5 -25.4821 3.3505 -50.5297 0.0000 2.0278 0.0000
# 6 0.0000 0.0000 0.0000 11.3395 0.0000 5.5568
#
#
#
# Elastic Compliance Matrix: (Units=1/GPa)
#
#
# Indices 1 2 3 4 5 6 
#
# 1 0.017296 -0.000192 -0.008690 0.000000 0.001120 0.000000
# 2 -0.000192 0.010949 0.000999 0.000000 0.004403 0.000000
# 3 -0.008690 0.000999 0.003653 0.000000 -0.019833 0.000000
# 4 0.000000 0.000000 0.000000 0.710087 0.000000 -1.449031
# 5 0.001120 0.004403 -0.019833 0.000000 0.005734 0.000000
# 6 0.000000 0.000000 0.000000 -1.449031 0.000000 3.136906
#
#
# Mechanical properties :
#
#
# Convention : Reuss Voigt Hill
#
# Bulk Modulus (GPa) = 61.98351 22.14666 42.06509
# Shear Modulus (GPa) = 1.28016 13.49229 7.38622
#
# Velocity S-wave (km/s) = 0.80546 2.61491 1.93475
# Velocity P-wave (km/s) = 5.68133 4.51006 5.12924
#
# Compressibility (1/GPa) = 0.01613332
#
# Stress axis : x y z
#
# Youngs Moduli (GPa) = 57.81846 91.32942 273.77498
#
# Poissons Ratio (x) = 0.01750 2.37907
# Poissons Ratio (y) = 0.01108 -0.27360
# Poissons Ratio (z) = 0.50243 -0.09127
#
# Static dielectric constant tensor:
#      x y z
#    x 1.676880 0.000000 -0.015500 
#    y 0.000000 1.739080 0.000000 
#    z -0.015500 0.000000 1.707130 
# 
# From -- ./inp_files/26819.got.cif
#   From: 2010.05.17/outbox.cif.g08.bks.cpg/sg11_14_cif.got.tgz:26819.got - 2010.06.03 12:22:45.
