data_PCOD9161663
_publ_section_title
;
Structure prediction by ZEFSAII (Michael W. Deem and Ramdas Pophale) SiO2 
 PCOD9161663
Probable space group: P 21/M
;
_chemical_formula_sum "Si O2"
_cell_formula_units_Z 32
_cell_length_a 15.188141
_cell_length_b 7.570233
_cell_length_c 22.046511
_cell_angle_alpha 90.000000
_cell_angle_beta 144.233302
_cell_angle_gamma 90.000000
_cell_volume 1481.589767
_symmetry_space_group_name_H-M "P 21/M"
_symmetry_group_IT_number 11
_symmetry_cell_setting 'monoclinic'
loop_
_space_group_symop_operation_xyz
x,y,z
-x,1/2+y,-z
-x,-y,-z
x,1/2-y,z
loop_
_atom_site_type_symbol
_atom_site_label
_atom_site_fract_x
_atom_site_fract_y
_atom_site_fract_z
Si Si1 0.571965 0.961364 0.475566
Si Si2 0.114744 0.034068 0.409091
Si Si3 0.750604 0.961909 0.391510
Si Si4 0.611791 0.456913 0.191742
Si Si5 0.791507 0.466663 0.176914
Si Si6 0.726674 0.455341 0.006120
Si Si7 0.563197 0.034992 0.721338
Si Si8 0.149423 0.962437 0.046599
O O1 0.581586 0.750000 0.476550
O O2 0.739439 0.023541 0.549132
O O3 0.459492 0.024597 0.360043
O O4 0.500000 0.000000 0.500000
O O5 0.116089 0.250000 0.410930
O O6 0.135808 0.977552 0.491648
O O7 0.958879 0.979726 0.291387
O O8 0.761877 0.750000 0.395745
O O9 0.587473 0.013269 0.327069
O O10 0.737615 0.021559 0.314736
O O11 0.582870 0.250000 0.169546
O O12 0.675888 0.526734 0.164106
O O13 0.447630 0.537707 0.112770
O O14 0.787710 0.250000 0.175815
O O15 0.747837 0.530005 0.085376
O O16 0.767989 0.250000 0.035481
O O17 0.831016 0.531044 0.011015
O O18 0.568348 0.250000 0.724256
O O19 0.710300 0.968335 0.836309
O O20 0.163753 0.750000 0.050796
O O21 0.000000 0.000000 0.000000
#
# Coordination Sequence:
#
# PCOD9161663 Si02
#       8
#     4   4   4   4   4   4   4   4
#     4   9  17  30  52  76  98 130 170 210 253 306
#     4   8  16  32  53  75 103 139 176 211 255 316
#     4   9  16  32  57  76  96 136 181 209 246 318
#     4  11  21  32  52  81 110 135 171 226 274 301
#     4   9  19  34  52  79 110 139 173 219 265 308
#     4  10  20  37  58  74 101 145 186 213 248 320
#     4   8  15  31  50  69  97 132 167 204 247 300
#     4  10  20  34  53  77 103 132 171 215 259 307
#
# _framework density 21.598421999999999
#
# number of rings (size 3 to 8) (size 9 to 14) (size 15 to 20)
#    0.000    2.750    1.250    2.250    0.000    2.000 
#    0.000    5.000    0.000    3.750    0.000    0.000 
#    0.000    0.000    0.000    0.000    0.000    0.000 
#
# Total GULP energy -178478.637570 kJ/mol
# GULP energy per Si atom -5577.457424 kJ/mol
# Density = 2.154926 g / cm^3
# Si number density = 21.598422 Si / 1000 Ang^3
#
#
#
# Elastic Constant Matrix: (Units=GPa)
#
#
# Indices 1 2 3 4 5 6 
#
# 1 129.6255 0.6676 41.6426 0.0000 -29.6295 0.0000
# 2 0.6676 45.9529 -3.7761 0.0000 -1.8319 0.0000
# 3 41.6426 -3.7761 88.4314 0.0000 -18.8558 0.0000
# 4 0.0000 0.0000 0.0000 6.8439 0.0000 -5.9042
# 5 -29.6295 -1.8319 -18.8558 0.0000 36.9903 0.0000
# 6 0.0000 0.0000 0.0000 -5.9042 0.0000 14.2085
#
#
#
# Elastic Compliance Matrix: (Units=1/GPa)
#
#
# Indices 1 2 3 4 5 6 
#
# 1 0.010315 -0.000178 -0.003484 0.000000 0.006478 0.000000
# 2 -0.000178 0.021942 0.001371 0.000000 0.001643 0.000000
# 3 -0.003484 0.001371 0.013942 0.000000 0.004384 0.000000
# 4 0.000000 0.000000 0.000000 0.227764 0.000000 0.094644
# 5 0.006478 0.001643 0.004384 0.000000 0.034539 0.000000
# 6 0.000000 0.000000 0.000000 0.094644 0.000000 0.109708
#
#
# Mechanical properties :
#
#
# Convention : Reuss Voigt Hill
#
# Bulk Modulus (GPa) = 24.02790 37.89756 30.96273
# Shear Modulus (GPa) = 11.45043 26.64026 19.04534
#
# Velocity S-wave (km/s) = 2.30500 3.51584 2.97272
# Velocity P-wave (km/s) = 4.27001 5.83661 5.11366
#
# Compressibility (1/GPa) = 0.04161829
#
# Stress axis : x y z
#
# Youngs Moduli (GPa) = 96.94261 45.57435 71.72496
#
# Poissons Ratio (x) = 0.00811 0.24988
# Poissons Ratio (y) = 0.01725 -0.09834
# Poissons Ratio (z) = 0.33774 -0.06249
#
# Static dielectric constant tensor:
#      x y z
#    x 1.792010 0.000000 -0.032630 
#    y 0.000000 1.812740 0.000000 
#    z -0.032630 0.000000 1.783030 
# 
# From -- ./inp_files/54359.got.cif
#   From: 2010.05.17/outbox.cif.g08.bks.cpg/sg11_28_cif.got.tgz:54359.got - 2010.06.03 12:22:45.
