data_PCOD9161277
_publ_section_title
;
Structure prediction by ZEFSAII (Michael W. Deem and Ramdas Pophale) SiO2 
 PCOD9161277
Probable space group: P 21/M
;
_chemical_formula_sum "Si O2"
_cell_formula_units_Z 32
_cell_length_a 24.023413
_cell_length_b 7.615497
_cell_length_c 15.161506
_cell_angle_alpha 90.000000
_cell_angle_beta 149.186504
_cell_angle_gamma 90.000000
_cell_volume 1420.866190
_symmetry_space_group_name_H-M "P 21/M"
_symmetry_group_IT_number 11
_symmetry_cell_setting 'monoclinic'
loop_
_space_group_symop_operation_xyz
x,y,z
-x,1/2+y,-z
-x,-y,-z
x,1/2-y,z
loop_
_atom_site_type_symbol
_atom_site_label
_atom_site_fract_x
_atom_site_fract_y
_atom_site_fract_z
Si Si1 0.897365 0.458881 0.917651
Si Si2 0.326091 0.538880 0.416998
Si Si3 0.217287 0.037635 0.934425
Si Si4 0.017421 0.539649 0.781377
Si Si5 0.436538 0.960561 0.736588
Si Si6 0.382485 0.446796 0.304132
Si Si7 0.230032 0.461476 0.579848
Si Si8 0.321362 0.464873 0.892056
O O1 0.883700 0.250000 0.910599
O O2 0.920970 0.531208 0.047632
O O3 0.794606 0.510628 0.717731
O O4 0.000000 0.500000 0.000000
O O5 0.340367 0.750000 0.428911
O O6 0.413886 0.473806 0.606013
O O7 0.320974 0.461771 0.312547
O O8 0.221036 0.250000 0.940384
O O9 0.253573 0.980604 0.886333
O O10 0.308709 0.967589 0.128327
O O11 0.097654 0.991968 0.807829
O O12 0.009256 0.750000 0.779146
O O13 0.892785 0.473606 0.606783
O O14 0.445319 0.750000 0.742967
O O15 0.329106 0.995899 0.648160
O O16 0.552520 0.024129 0.930040
O O17 0.500000 0.500000 0.500000
O O18 0.398865 0.250000 0.294602
O O19 0.224107 0.250000 0.573832
O O20 0.267337 0.523041 0.727558
O O21 0.322320 0.250000 0.892828
#
# Coordination Sequence:
#
# PCOD9161277 Si02
#       8
#     4   4   4   4   4   4   4   4
#     4  10  20  33  51  75 108 143 178 223 270 322
#     4  10  20  35  54  78 109 146 181 219 272 326
#     4  10  21  38  59  82 111 150 193 232 274 335
#     4  10  21  37  55  80 115 150 184 232 285 329
#     4  10  20  36  59  84 113 146 186 236 284 337
#     4  11  22  35  55  82 111 146 184 226 272 327
#     4  10  21  37  58  82 112 149 187 232 288 340
#     4   9  19  37  58  81 111 147 186 235 289 334
#
# _framework density 22.521474000000001
#
# number of rings (size 3 to 8) (size 9 to 14) (size 15 to 20)
#    0.000    2.000    1.250    2.250    0.000    5.000 
#    0.000    1.250    0.000    0.000    0.000    0.000 
#    0.000    0.000    0.000    0.000    0.000    0.000 
#
# Total GULP energy -178435.198700 kJ/mol
# GULP energy per Si atom -5576.099959 kJ/mol
# Density = 2.247021 g / cm^3
# Si number density = 22.521474 Si / 1000 Ang^3
#
#
#
# Elastic Constant Matrix: (Units=GPa)
#
#
# Indices 1 2 3 4 5 6 
#
# 1 91.3272 -15.4835 34.0128 0.0000 -0.3372 0.0000
# 2 -15.4835 39.5166 8.4294 0.0000 -1.8905 0.0000
# 3 34.0128 8.4294 135.9915 0.0000 4.4390 0.0000
# 4 0.0000 0.0000 0.0000 11.7372 0.0000 7.3354
# 5 -0.3372 -1.8905 4.4390 0.0000 40.6632 0.0000
# 6 0.0000 0.0000 0.0000 7.3354 0.0000 27.0909
#
#
#
# Elastic Compliance Matrix: (Units=1/GPa)
#
#
# Indices 1 2 3 4 5 6 
#
# 1 0.013380 0.006081 -0.003750 0.000000 0.000803 0.000000
# 2 0.006081 0.028485 -0.003343 0.000000 0.001740 0.000000
# 3 -0.003750 -0.003343 0.008535 0.000000 -0.001118 0.000000
# 4 0.000000 0.000000 0.000000 0.102553 0.000000 -0.027768
# 5 0.000803 0.001740 -0.001118 0.000000 0.024802 0.000000
# 6 0.000000 0.000000 0.000000 -0.027768 0.000000 0.044432
#
#
# Mechanical properties :
#
#
# Convention : Reuss Voigt Hill
#
# Bulk Modulus (GPa) = 20.67153 35.63919 28.15536
# Shear Modulus (GPa) = 20.80421 31.89003 26.34712
#
# Velocity S-wave (km/s) = 3.04262 3.76704 3.42404
# Velocity P-wave (km/s) = 4.64133 5.89743 5.30667
#
# Compressibility (1/GPa) = 0.04837570
#
# Stress axis : x y z
#
# Youngs Moduli (GPa) = 74.73836 35.10639 117.16528
#
# Poissons Ratio (x) = -0.21348 0.43932
# Poissons Ratio (y) = -0.45447 0.39172
# Poissons Ratio (z) = 0.28024 0.11737
#
# Static dielectric constant tensor:
#      x y z
#    x 2.395610 0.000000 0.279690 
#    y 0.000000 1.821030 0.000000 
#    z 0.279690 0.000000 2.035350 
# 
# From -- ./inp_files/51726.got.cif
#   From: 2010.05.17/outbox.cif.g08.bks.cpg/sg11_26_cif.got.tgz:51726.got - 2010.06.03 12:22:45.
