data_PCOD9161751
_publ_section_title
;
Structure prediction by ZEFSAII (Michael W. Deem and Ramdas Pophale) SiO2 
 PCOD9161751
Probable space group: P 21/M
;
_chemical_formula_sum "Si O2"
_cell_formula_units_Z 32
_cell_length_a 31.739803
_cell_length_b 8.698410
_cell_length_c 12.232489
_cell_angle_alpha 90.000000
_cell_angle_beta 149.648766
_cell_angle_gamma 90.000000
_cell_volume 1706.505843
_symmetry_space_group_name_H-M "P 21/M"
_symmetry_group_IT_number 11
_symmetry_cell_setting 'monoclinic'
loop_
_space_group_symop_operation_xyz
x,y,z
-x,1/2+y,-z
-x,-y,-z
x,1/2-y,z
loop_
_atom_site_type_symbol
_atom_site_label
_atom_site_fract_x
_atom_site_fract_y
_atom_site_fract_z
Si Si1 0.739368 0.434151 0.668433
Si Si2 0.472691 0.065058 0.555454
Si Si3 0.894109 0.435230 0.866830
Si Si4 0.928273 0.064585 0.695517
Si Si5 0.773761 0.435521 0.204870
Si Si6 0.406828 0.432535 0.795678
Si Si7 0.718986 0.934139 0.851212
Si Si8 0.372442 0.564623 0.950334
O O1 0.733813 0.250000 0.652966
O O2 0.812502 0.485209 0.749564
O O3 0.652271 0.504000 0.432150
O O4 0.759134 0.490604 0.834462
O O5 0.474742 0.250000 0.554158
O O6 0.378415 0.017270 0.367825
O O7 0.500000 0.000000 0.500000
O O8 0.539885 0.019966 0.797276
O O9 0.895910 0.250000 0.872969
O O10 0.895010 0.482895 0.741430
O O11 0.979558 0.497337 0.109879
O O12 0.933101 0.250000 0.705991
O O13 0.861616 0.018471 0.455091
O O14 0.772068 0.250000 0.188918
O O15 0.700757 0.474607 0.128292
O O16 0.756741 0.511055 0.050290
O O17 0.411535 0.250000 0.798384
O O18 0.366371 0.485224 0.819861
O O19 0.500000 0.500000 0.000000
O O20 0.723017 0.750000 0.852466
O O21 0.370715 0.750000 0.930543
#
# Coordination Sequence:
#
# PCOD9161751 Si02
#       8
#     4   4   4   4   4   4   4   4
#     4  11  23  41  63  84 113 155 197 236 286 349
#     4  10  20  34  54  78 109 148 188 233 279 330
#     4   9  19  37  61  88 115 147 186 230 287 348
#     4   9  18  34  59  89 118 145 182 234 288 344
#     4  10  20  36  58  84 115 154 193 233 288 346
#     4  12  25  40  59  85 117 153 193 238 287 339
#     4  11  23  37  55  84 118 152 196 244 287 341
#     4  10  20  36  58  83 114 152 192 238 290 343
#
# _framework density 18.751767999999998
#
# number of rings (size 3 to 8) (size 9 to 14) (size 15 to 20)
#    0.000    1.750    1.250    3.375    0.000    6.000 
#    0.000    3.125    0.000    0.000    0.000    0.000 
#    0.000    0.000    0.000    0.000    0.000    0.000 
#
# Total GULP energy -178816.330723 kJ/mol
# GULP energy per Si atom -5588.010335 kJ/mol
# Density = 1.870909 g / cm^3
# Si number density = 18.751768 Si / 1000 Ang^3
#
#
#
# Elastic Constant Matrix: (Units=GPa)
#
#
# Indices 1 2 3 4 5 6 
#
# 1 94.3490 31.9021 45.6156 0.0000 -2.9254 0.0000
# 2 31.9021 39.8707 30.8415 0.0000 -2.5392 0.0000
# 3 45.6156 30.8415 125.0394 0.0000 -6.0223 0.0000
# 4 0.0000 0.0000 0.0000 31.0481 0.0000 -4.7593
# 5 -2.9254 -2.5392 -6.0223 0.0000 30.6431 0.0000
# 6 0.0000 0.0000 0.0000 -4.7593 0.0000 28.8584
#
#
#
# Elastic Compliance Matrix: (Units=1/GPa)
#
#
# Indices 1 2 3 4 5 6 
#
# 1 0.015506 -0.009924 -0.003208 0.000000 0.000028 0.000000
# 2 -0.009924 0.037381 -0.005549 0.000000 0.001060 0.000000
# 3 -0.003208 -0.005549 0.010600 0.000000 0.001317 0.000000
# 4 0.000000 0.000000 0.000000 0.033043 0.000000 0.005449
# 5 0.000028 0.001060 0.001317 0.000000 0.032983 0.000000
# 6 0.000000 0.000000 0.000000 0.005449 0.000000 0.035551
#
#
# Mechanical properties :
#
#
# Convention : Reuss Voigt Hill
#
# Bulk Modulus (GPa) = 38.27580 52.88637 45.58109
# Shear Modulus (GPa) = 23.68157 28.16992 25.92575
#
# Velocity S-wave (km/s) = 3.55758 3.88010 3.72233
# Velocity P-wave (km/s) = 6.10994 6.95257 6.54483
#
# Compressibility (1/GPa) = 0.02612617
#
# Stress axis : x y z
#
# Youngs Moduli (GPa) = 64.48998 26.75125 94.34179
#
# Poissons Ratio (x) = 0.26548 0.30262
# Poissons Ratio (y) = 0.64001 0.52349
# Poissons Ratio (z) = 0.20686 0.14844
#
# Static dielectric constant tensor:
#      x y z
#    x 1.641570 0.000000 0.002450 
#    y 0.000000 1.631810 0.000000 
#    z 0.002450 0.000000 1.639870 
# 
# From -- ./inp_files/45333.got.cif
#   From: 2010.05.17/outbox.cif.g08.bks.cpg/sg11_23_cif.got.tgz:45333.got - 2010.06.03 12:22:45.
