data_PCOD9161394
_publ_section_title
;
Structure prediction by ZEFSAII (Michael W. Deem and Ramdas Pophale) SiO2 
 PCOD9161394
Probable space group: P 21/M
;
_chemical_formula_sum "Si O2"
_cell_formula_units_Z 28
_cell_length_a 14.638917
_cell_length_b 8.851214
_cell_length_c 19.587635
_cell_angle_alpha 90.000000
_cell_angle_beta 41.555500
_cell_angle_gamma 90.000000
_cell_volume 1683.578595
_symmetry_space_group_name_H-M "P 21/M"
_symmetry_group_IT_number 11
_symmetry_cell_setting 'monoclinic'
loop_
_space_group_symop_operation_xyz
x,y,z
-x,1/2+y,-z
-x,-y,-z
x,1/2-y,z
loop_
_atom_site_type_symbol
_atom_site_label
_atom_site_fract_x
_atom_site_fract_y
_atom_site_fract_z
Si Si1 0.513969 0.929510 0.700607
Si Si2 0.912027 0.430910 0.309290
Si Si3 0.007575 0.570558 0.390507
Si Si4 0.777242 0.070483 0.616915
Si Si5 0.967257 0.430868 0.122445
Si Si6 0.588868 0.068739 0.511890
Si Si7 0.223168 0.429371 0.884768
O O1 0.517049 0.750000 0.692335
O O2 0.635735 0.986112 0.681641
O O3 0.540762 0.002487 0.611165
O O4 0.366740 0.985211 0.809527
O O5 0.927186 0.250000 0.309263
O O6 0.999797 0.514753 0.317684
O O7 0.955236 0.470772 0.208335
O O8 0.750439 0.467037 0.410504
O O9 0.982332 0.750000 0.408922
O O10 0.886917 0.484713 0.498951
O O11 0.148961 0.539199 0.352031
O O12 0.756986 0.250000 0.621125
O O13 0.942611 0.250000 0.129666
O O14 0.854447 0.516784 0.140394
O O15 0.115707 0.462749 0.005877
O O16 0.574183 0.250000 0.520622
O O17 0.500000 0.000000 0.500000
O O18 0.246657 0.250000 0.869337
#
# Coordination Sequence:
#
# PCOD9161394 Si02
#       7
#     4   4   4   4   4   4   4
#     4  12  23  35  53  77 107 141 180 221 263 316
#     4  10  20  34  53  76 107 141 173 213 262 316
#     4  10  20  33  53  79 106 137 174 215 262 319
#     4  10  20  35  53  76 106 138 175 218 264 316
#     4   9  19  36  56  80 107 139 180 221 264 315
#     4  11  22  34  50  76 110 144 173 210 262 318
#     4  10  20  35  56  79 106 140 180 225 267 311
#
# _framework density 16.631239999999998
#
# number of rings (size 3 to 8) (size 9 to 14) (size 15 to 20)
#    0.000    1.714    1.429    3.857    0.000    4.571 
#    0.000    0.000    0.000    0.857    0.000    0.000 
#    0.000    0.000    0.000    0.000    0.000    0.000 
#
# Total GULP energy -156394.535039 kJ/mol
# GULP energy per Si atom -5585.519109 kJ/mol
# Density = 1.659339 g / cm^3
# Si number density = 16.631240 Si / 1000 Ang^3
#
#
#
# Elastic Constant Matrix: (Units=GPa)
#
#
# Indices 1 2 3 4 5 6 
#
# 1 115.4514 56.8217 50.9547 0.0000 -9.3210 0.0000
# 2 56.8217 70.0541 39.5022 0.0000 -9.1995 0.0000
# 3 50.9547 39.5022 62.8887 0.0000 -8.0322 0.0000
# 4 0.0000 0.0000 0.0000 20.9018 0.0000 -0.1578
# 5 -9.3210 -9.1995 -8.0322 0.0000 22.3111 0.0000
# 6 0.0000 0.0000 0.0000 -0.1578 0.0000 33.4140
#
#
#
# Elastic Compliance Matrix: (Units=1/GPa)
#
#
# Indices 1 2 3 4 5 6 
#
# 1 0.016518 -0.009021 -0.007663 0.000000 0.000422 0.000000
# 2 -0.009021 0.027434 -0.009391 0.000000 0.004162 0.000000
# 3 -0.007663 -0.009391 0.028412 0.000000 0.003155 0.000000
# 4 0.000000 0.000000 0.000000 0.047844 0.000000 0.000226
# 5 0.000422 0.004162 0.003155 0.000000 0.047849 0.000000
# 6 0.000000 0.000000 0.000000 0.000226 0.000000 0.029929
#
#
# Mechanical properties :
#
#
# Convention : Reuss Voigt Hill
#
# Bulk Modulus (GPa) = 49.47346 60.32794 54.90070
# Shear Modulus (GPa) = 19.46481 22.06642 20.76561
#
# Velocity S-wave (km/s) = 3.42479 3.64649 3.53737
# Velocity P-wave (km/s) = 6.74172 7.35403 7.05452
#
# Compressibility (1/GPa) = 0.02021286
#
# Stress axis : x y z
#
# Youngs Moduli (GPa) = 60.54076 36.45094 35.19701
#
# Poissons Ratio (x) = 0.32884 0.26971
# Poissons Ratio (y) = 0.54617 0.33054
# Poissons Ratio (z) = 0.46391 0.34231
#
# Static dielectric constant tensor:
#      x y z
#    x 1.549760 0.000000 -0.000020 
#    y 0.000000 1.555400 0.000000 
#    z -0.000020 0.000000 1.541100 
# 
# From -- ./inp_files/60077.got.cif
#   From: 2010.05.17/outbox.cif.g08.bks.cpg/sg11_31_cif.got.tgz:60077.got - 2010.06.03 12:22:45.
