data_PCOD9161923
_publ_section_title
;
Structure prediction by ZEFSAII (Michael W. Deem and Ramdas Pophale) SiO2 
 PCOD9161923
Probable space group: P 21/M
;
_chemical_formula_sum "Si O2"
_cell_formula_units_Z 24
_cell_length_a 7.071788
_cell_length_b 23.648973
_cell_length_c 7.423746
_cell_angle_alpha 90.000000
_cell_angle_beta 113.944161
_cell_angle_gamma 90.000000
_cell_volume 1134.705035
_symmetry_space_group_name_H-M "P 21/M"
_symmetry_group_IT_number 11
_symmetry_cell_setting 'monoclinic'
loop_
_space_group_symop_operation_xyz
x,y,z
-x,1/2+y,-z
-x,-y,-z
x,1/2-y,z
loop_
_atom_site_type_symbol
_atom_site_label
_atom_site_fract_x
_atom_site_fract_y
_atom_site_fract_z
Si Si1 0.273904 0.986398 0.485032
Si Si2 0.124602 0.600889 0.133403
Si Si3 0.247989 0.184077 0.049074
Si Si4 0.515038 0.315047 0.831639
Si Si5 0.864626 0.685954 0.585881
Si Si6 0.078783 0.926491 0.711634
O O1 0.164836 0.942232 0.308366
O O2 0.500000 0.000000 0.500000
O O3 0.737603 0.043217 0.324779
O O4 0.131474 0.041956 0.430934
O O5 0.318513 0.642348 0.180859
O O6 0.099155 0.568910 0.933413
O O7 0.193021 0.250000 0.989623
O O8 0.252140 0.178292 0.266687
O O9 0.073937 0.140611 0.916482
O O10 0.454748 0.172948 0.015618
O O11 0.587590 0.250000 0.845098
O O12 0.303308 0.319983 0.635981
O O13 0.947371 0.750000 0.614156
O O14 0.042381 0.639084 0.649650
#
# Coordination Sequence:
#
# PCOD9161923 Si02
#       6
#     4   4   4   4   4   4
#     4  11  24  41  60  82 113 151 192 236 282 333
#     4  11  22  36  59  85 112 150 194 235 281 336
#     4   9  19  36  57  83 117 151 186 235 287 335
#     4  10  20  34  55  85 118 151 188 231 282 338
#     4   9  18  36  61  85 113 147 183 229 283 336
#     4  10  23  41  60  85 114 147 189 234 282 336
#
# _framework density 21.150869
#
# number of rings (size 3 to 8) (size 9 to 14) (size 15 to 20)
#    0.000    2.000    0.000    3.000    0.000    6.667 
#    0.000    0.833    0.000    9.000    0.000    0.000 
#    0.000    0.000    0.000    0.000    0.000    0.000 
#
# Total GULP energy -134153.694437 kJ/mol
# GULP energy per Si atom -5589.737268 kJ/mol
# Density = 2.110273 g / cm^3
# Si number density = 21.150869 Si / 1000 Ang^3
#
#
#
# Elastic Constant Matrix: (Units=GPa)
#
#
# Indices 1 2 3 4 5 6 
#
# 1 69.2377 34.4835 -2.8690 0.0000 -3.7329 0.0000
# 2 34.4835 70.4085 17.8344 0.0000 -15.0253 0.0000
# 3 -2.8690 17.8344 38.9664 0.0000 -9.8751 0.0000
# 4 0.0000 0.0000 0.0000 34.2652 0.0000 -7.6327
# 5 -3.7329 -15.0253 -9.8751 0.0000 13.4382 0.0000
# 6 0.0000 0.0000 0.0000 -7.6327 0.0000 21.7398
#
#
#
# Elastic Compliance Matrix: (Units=1/GPa)
#
#
# Indices 1 2 3 4 5 6 
#
# 1 0.020761 -0.012544 0.006362 0.000000 -0.003584 0.000000
# 2 -0.012544 0.026754 -0.007951 0.000000 0.020586 0.000000
# 3 0.006362 -0.007951 0.034365 0.000000 0.018130 0.000000
# 4 0.000000 0.000000 0.000000 0.031660 0.000000 0.011116
# 5 -0.003584 0.020586 0.018130 0.000000 0.109759 0.000000
# 6 0.000000 0.000000 0.000000 0.011116 0.000000 0.049901
#
#
# Mechanical properties :
#
#
# Convention : Reuss Voigt Hill
#
# Bulk Modulus (GPa) = 18.65248 30.83450 24.74349
# Shear Modulus (GPa) = 15.65735 22.49955 19.07845
#
# Velocity S-wave (km/s) = 2.72374 3.26508 3.00662
# Velocity P-wave (km/s) = 4.32777 5.36883 4.87616
#
# Compressibility (1/GPa) = 0.05361217
#
# Stress axis : x y z
#
# Youngs Moduli (GPa) = 48.16735 37.37816 29.09899
#
# Poissons Ratio (x) = 0.46888 -0.18512
# Poissons Ratio (y) = 0.60422 0.23138
# Poissons Ratio (z) = -0.30642 0.29721
#
# Static dielectric constant tensor:
#      x y z
#    x 1.734010 0.000000 -0.021550 
#    y 0.000000 1.769580 0.000000 
#    z -0.021550 0.000000 1.754060 
# 
# From -- ./inp_files/14390.got.cif
#   From: 2010.05.17/outbox.cif.g08.bks.cpg/sg11_8_cif.got.tgz:14390.got - 2010.06.03 12:22:45.
