data_PCOD9161451
_publ_section_title
;
Structure prediction by ZEFSAII (Michael W. Deem and Ramdas Pophale) SiO2 
 PCOD9161451
Probable space group: P 21/M
;
_chemical_formula_sum "Si O2"
_cell_formula_units_Z 32
_cell_length_a 12.376360
_cell_length_b 16.316971
_cell_length_c 9.685553
_cell_angle_alpha 90.000000
_cell_angle_beta 123.927629
_cell_angle_gamma 90.000000
_cell_volume 1622.933097
_symmetry_space_group_name_H-M "P 21/M"
_symmetry_group_IT_number 11
_symmetry_cell_setting 'monoclinic'
loop_
_space_group_symop_operation_xyz
x,y,z
-x,1/2+y,-z
-x,-y,-z
x,1/2-y,z
loop_
_atom_site_type_symbol
_atom_site_label
_atom_site_fract_x
_atom_site_fract_y
_atom_site_fract_z
Si Si1 0.443104 0.459239 0.320014
Si Si2 0.314522 0.001448 0.965003
Si Si3 0.942334 0.156360 0.466551
Si Si4 0.148790 0.153954 0.827298
Si Si5 0.318983 0.944008 0.661574
Si Si6 0.941092 0.395979 0.160540
Si Si7 0.212864 0.483977 0.326805
Si Si8 0.108106 0.840979 0.172152
O O1 0.500000 0.500000 0.500000
O O2 0.557731 0.405286 0.332867
O O3 0.302248 0.435315 0.280705
O O4 0.407947 0.515379 0.161885
O O5 0.273880 0.097138 0.937066
O O6 0.356565 0.972668 0.842621
O O7 0.179546 0.955907 0.899884
O O8 0.931557 0.250000 0.504095
O O9 0.810090 0.110645 0.413603
O O10 0.959617 0.151708 0.315879
O O11 0.069379 0.122436 0.635298
O O12 0.183050 0.250000 0.838427
O O13 0.034947 0.147325 0.861427
O O14 0.274085 0.015976 0.524139
O O15 0.070029 0.447605 0.224397
O O16 0.909289 0.343766 0.004051
O O17 0.196641 0.580535 0.275038
O O18 0.156072 0.750000 0.247427
#
# Coordination Sequence:
#
# PCOD9161451 Si02
#       8
#     4   4   4   4   4   4   4   4
#     4  10  22  36  54  79 108 145 189 233 268 318
#     4  11  19  35  57  80 109 139 186 235 274 328
#     4  10  20  35  54  82 116 144 178 227 280 336
#     4  10  20  33  54  83 113 143 175 223 286 336
#     4  10  21  34  56  81 107 148 190 224 269 320
#     4  11  20  32  56  84 109 141 178 227 288 333
#     4  11  19  35  55  81 114 141 184 229 278 325
#     4  11  20  31  49  79 113 141 173 216 276 335
#
# _framework density 19.717386000000001
#
# number of rings (size 3 to 8) (size 9 to 14) (size 15 to 20)
#    0.000    1.500    3.750    2.625    0.000    2.000 
#    0.000    0.625    0.000    3.000    0.000    5.250 
#    0.000    0.000    0.000    0.000    0.000    0.000 
#
# Total GULP energy -178271.400903 kJ/mol
# GULP energy per Si atom -5570.981278 kJ/mol
# Density = 1.967251 g / cm^3
# Si number density = 19.717386 Si / 1000 Ang^3
#
#
#
# Elastic Constant Matrix: (Units=GPa)
#
#
# Indices 1 2 3 4 5 6 
#
# 1 98.3265 13.5779 27.7735 0.0000 -14.1592 0.0000
# 2 13.5779 53.9568 12.7246 0.0000 -1.1057 0.0000
# 3 27.7735 12.7246 128.9743 0.0000 -25.0126 0.0000
# 4 0.0000 0.0000 0.0000 16.4734 0.0000 -4.4631
# 5 -14.1592 -1.1057 -25.0126 0.0000 33.5982 0.0000
# 6 0.0000 0.0000 0.0000 -4.4631 0.0000 4.3002
#
#
#
# Elastic Compliance Matrix: (Units=1/GPa)
#
#
# Indices 1 2 3 4 5 6 
#
# 1 0.011460 -0.002450 -0.001525 0.000000 0.003613 0.000000
# 2 -0.002450 0.019522 -0.001723 0.000000 -0.001673 0.000000
# 3 -0.001525 -0.001723 0.009486 0.000000 0.006362 0.000000
# 4 0.000000 0.000000 0.000000 0.084451 0.000000 0.087651
# 5 0.003613 -0.001673 0.006362 0.000000 0.035968 0.000000
# 6 0.000000 0.000000 0.000000 0.087651 0.000000 0.323521
#
#
# Mechanical properties :
#
#
# Convention : Reuss Voigt Hill
#
# Bulk Modulus (GPa) = 34.39838 43.26773 38.83305
# Shear Modulus (GPa) = 9.89133 26.01980 17.95556
#
# Velocity S-wave (km/s) = 2.24220 3.63662 3.02097
# Velocity P-wave (km/s) = 4.91801 6.29483 5.64853
#
# Compressibility (1/GPa) = 0.02907113
#
# Stress axis : x y z
#
# Youngs Moduli (GPa) = 87.26259 51.22454 105.42088
#
# Poissons Ratio (x) = 0.12550 0.16080
# Poissons Ratio (y) = 0.21379 0.18162
# Poissons Ratio (z) = 0.13310 0.08825
#
# Static dielectric constant tensor:
#      x y z
#    x 1.729050 0.000000 0.010110 
#    y 0.000000 1.687810 0.000000 
#    z 0.010110 0.000000 1.756500 
# 
# From -- ./inp_files/19214.got.cif
#   From: 2010.05.17/outbox.cif.g08.bks.cpg/sg11_10_cif.got.tgz:19214.got - 2010.06.03 12:22:45.
