data_PCOD9161318
_publ_section_title
;
Structure prediction by ZEFSAII (Michael W. Deem and Ramdas Pophale) SiO2 
 PCOD9161318
Probable space group: P 21/M
;
_chemical_formula_sum "Si O2"
_cell_formula_units_Z 32
_cell_length_a 14.878682
_cell_length_b 8.027819
_cell_length_c 28.825368
_cell_angle_alpha 90.000000
_cell_angle_beta 29.219254
_cell_angle_gamma 90.000000
_cell_volume 1680.710190
_symmetry_space_group_name_H-M "P 21/M"
_symmetry_group_IT_number 11
_symmetry_cell_setting 'monoclinic'
loop_
_space_group_symop_operation_xyz
x,y,z
-x,1/2+y,-z
-x,-y,-z
x,1/2-y,z
loop_
_atom_site_type_symbol
_atom_site_label
_atom_site_fract_x
_atom_site_fract_y
_atom_site_fract_z
Si Si1 0.934142 0.551878 0.816704
Si Si2 0.701311 0.049654 0.295604
Si Si3 0.970238 0.047827 0.695797
Si Si4 0.270824 0.050029 0.909491
Si Si5 0.382833 0.942599 0.193407
Si Si6 0.608268 0.951467 0.498151
Si Si7 0.570771 0.058412 0.018160
Si Si8 0.110565 0.447965 0.883993
O O1 0.910235 0.750000 0.832890
O O2 0.905727 0.504962 0.776094
O O3 0.139027 0.504688 0.739653
O O4 0.789314 0.462066 0.915077
O O5 0.694031 0.250000 0.296509
O O6 0.510543 0.990213 0.403962
O O7 0.770321 0.989264 0.214754
O O8 0.969091 0.250000 0.694929
O O9 0.820066 0.986382 0.725928
O O10 0.180644 0.989175 0.595638
O O11 0.288928 0.250000 0.898868
O O12 0.465977 0.981589 0.839836
O O13 0.208948 0.987230 0.886701
O O14 0.098468 0.014982 0.021095
O O15 0.355576 0.750000 0.219277
O O16 0.485898 0.950867 0.097378
O O17 0.612949 0.750000 0.496866
O O18 0.500000 0.000000 0.500000
O O19 0.520331 0.250000 0.048932
O O20 0.500000 0.000000 0.000000
O O21 0.095795 0.250000 0.894554
#
# Coordination Sequence:
#
# PCOD9161318 Si02
#       8
#     4   4   4   4   4   4   4   4
#     4  11  21  33  49  71 102 138 172 209 257 308
#     4  10  21  35  52  75 106 140 171 213 270 317
#     4  10  20  33  52  74  99 133 175 214 252 307
#     4   9  19  36  56  78 108 138 168 212 267 319
#     4  10  20  35  53  74 101 137 173 211 263 314
#     4  10  20  35  53  76 103 136 178 220 264 311
#     4  12  23  33  46  69 102 138 174 210 248 300
#     4  10  20  34  55  82 105 133 175 218 260 312
#
# _framework density 19.039570999999999
#
# number of rings (size 3 to 8) (size 9 to 14) (size 15 to 20)
#    0.000    1.750    2.500    2.625    0.000    5.500 
#    0.000    0.000    0.000    0.750    0.000    0.000 
#    0.000    0.000    0.000    0.000    0.000    0.375 
#
# Total GULP energy -178593.853800 kJ/mol
# GULP energy per Si atom -5581.057931 kJ/mol
# Density = 1.899624 g / cm^3
# Si number density = 19.039571 Si / 1000 Ang^3
#
#
#
# Elastic Constant Matrix: (Units=GPa)
#
#
# Indices 1 2 3 4 5 6 
#
# 1 112.7508 4.9861 47.5526 0.0000 -21.7271 0.0000
# 2 4.9861 20.3520 3.7751 0.0000 -5.3726 0.0000
# 3 47.5526 3.7751 105.6346 0.0000 -19.4638 0.0000
# 4 0.0000 0.0000 0.0000 17.8020 0.0000 2.0493
# 5 -21.7271 -5.3726 -19.4638 0.0000 34.0071 0.0000
# 6 0.0000 0.0000 0.0000 2.0493 0.0000 17.9904
#
#
#
# Elastic Compliance Matrix: (Units=1/GPa)
#
#
# Indices 1 2 3 4 5 6 
#
# 1 0.011664 -0.000774 -0.004329 0.000000 0.004852 0.000000
# 2 -0.000774 0.051339 -0.000093 0.000000 0.007563 0.000000
# 3 -0.004329 -0.000093 0.012192 0.000000 0.004198 0.000000
# 4 0.000000 0.000000 0.000000 0.056920 0.000000 -0.006484
# 5 0.004852 0.007563 0.004198 0.000000 0.036103 0.000000
# 6 0.000000 0.000000 0.000000 -0.006484 0.000000 0.056324
#
#
# Mechanical properties :
#
#
# Convention : Reuss Voigt Hill
#
# Bulk Modulus (GPa) = 15.43124 39.04056 27.23590
# Shear Modulus (GPa) = 19.49061 26.12147 22.80604
#
# Velocity S-wave (km/s) = 3.20299 3.70801 3.46471
# Velocity P-wave (km/s) = 4.66918 6.23554 5.50832
#
# Compressibility (1/GPa) = 0.06480359
#
# Stress axis : x y z
#
# Youngs Moduli (GPa) = 85.73300 19.47856 82.02029
#
# Poissons Ratio (x) = 0.01507 0.35507
# Poissons Ratio (y) = 0.06634 0.00761
# Poissons Ratio (z) = 0.37114 0.00181
#
# Static dielectric constant tensor:
#      x y z
#    x 1.703150 0.000000 -0.043640 
#    y 0.000000 1.672620 0.000000 
#    z -0.043640 0.000000 1.672340 
# 
# From -- ./inp_files/56487.got.cif
#   From: 2010.05.17/outbox.cif.g08.bks.cpg/sg11_29_cif.got.tgz:56487.got - 2010.06.03 12:22:45.
