data_PCOD9161165
_publ_section_title
;
Structure prediction by ZEFSAII (Michael W. Deem and Ramdas Pophale) SiO2 
 PCOD9161165
Probable space group: P 21/M
;
_chemical_formula_sum "Si O2"
_cell_formula_units_Z 24
_cell_length_a 9.436943
_cell_length_b 17.135954
_cell_length_c 8.896079
_cell_angle_alpha 90.000000
_cell_angle_beta 134.434084
_cell_angle_gamma 90.000000
_cell_volume 1027.237179
_symmetry_space_group_name_H-M "P 21/M"
_symmetry_group_IT_number 11
_symmetry_cell_setting 'monoclinic'
loop_
_space_group_symop_operation_xyz
x,y,z
-x,1/2+y,-z
-x,-y,-z
x,1/2-y,z
loop_
_atom_site_type_symbol
_atom_site_label
_atom_site_fract_x
_atom_site_fract_y
_atom_site_fract_z
Si Si1 0.440966 0.503462 0.185929
Si Si2 0.558808 0.663588 0.330714
Si Si3 0.149302 0.576985 0.216490
Si Si4 0.473743 0.837820 0.611993
Si Si5 0.081706 0.664744 0.901602
Si Si6 0.077622 0.973517 0.715524
O O1 0.601603 0.575074 0.303500
O O2 0.309655 0.528536 0.236598
O O3 0.493176 0.413301 0.257293
O O4 0.303936 0.511057 0.936522
O O5 0.636142 0.750000 0.338538
O O6 0.584091 0.659492 0.530837
O O7 0.320926 0.668292 0.111238
O O8 0.250581 0.645808 0.386696
O O9 0.006363 0.616381 0.988616
O O10 0.043042 0.520836 0.250130
O O11 0.498282 0.750000 0.692448
O O12 0.001176 0.750000 0.838467
O O13 0.046520 0.617831 0.724357
O O14 0.000000 0.000000 0.500000
#
# Coordination Sequence:
#
# PCOD9161165 Si02
#       6
#     4   4   4   4   4   4
#     4   9  16  29  49  72  97 127 165 211 250 289
#     4   7  11  21  42  68  91 115 149 194 246 292
#     4   9  16  31  52  72  96 129 167 208 255 308
#     4   9  16  28  48  75  99 122 160 213 259 296
#     4   8  14  28  49  71  94 124 164 211 251 291
#     4  10  20  33  48  72 106 141 171 201 248 304
#
# _framework density 23.363641000000001
#
# number of rings (size 3 to 8) (size 9 to 14) (size 15 to 20)
#    0.000    4.000    0.000    5.500    0.000    0.000 
#    0.000    7.500    0.000    1.000    0.000    9.333 
#    0.000    0.000    0.000    0.000    0.000    0.000 
#
# Total GULP energy -133669.316607 kJ/mol
# GULP energy per Si atom -5569.554859 kJ/mol
# Density = 2.331046 g / cm^3
# Si number density = 23.363641 Si / 1000 Ang^3
#
#
#
# Elastic Constant Matrix: (Units=GPa)
#
#
# Indices 1 2 3 4 5 6 
#
# 1 35.8888 15.1454 11.2621 0.0000 3.9222 0.0000
# 2 15.1454 243.2900 79.8023 0.0000 -11.0511 0.0000
# 3 11.2621 79.8023 137.1748 0.0000 -5.8106 0.0000
# 4 0.0000 0.0000 0.0000 31.6627 0.0000 5.1166
# 5 3.9222 -11.0511 -5.8106 0.0000 15.9517 0.0000
# 6 0.0000 0.0000 0.0000 5.1166 0.0000 12.0375
#
#
#
# Elastic Compliance Matrix: (Units=1/GPa)
#
#
# Indices 1 2 3 4 5 6 
#
# 1 0.030180 -0.001679 -0.001894 0.000000 -0.009274 0.000000
# 2 -0.001679 0.005272 -0.002800 0.000000 0.003045 0.000000
# 3 -0.001894 -0.002800 0.009153 0.000000 0.001860 0.000000
# 4 0.000000 0.000000 0.000000 0.033912 0.000000 -0.014415
# 5 -0.009274 0.003045 0.001860 0.000000 0.067756 0.000000
# 6 0.000000 0.000000 0.000000 -0.014415 0.000000 0.089201
#
#
# Mechanical properties :
#
#
# Convention : Reuss Voigt Hill
#
# Bulk Modulus (GPa) = 31.38792 69.86370 50.62581
# Shear Modulus (GPa) = 19.31697 32.60664 25.96181
#
# Velocity S-wave (km/s) = 2.87853 3.73985 3.33709
# Velocity P-wave (km/s) = 4.95092 6.97254 6.04681
#
# Compressibility (1/GPa) = 0.03185939
#
# Stress axis : x y z
#
# Youngs Moduli (GPa) = 33.13439 189.69706 109.25203
#
# Poissons Ratio (x) = 0.31846 0.20692
# Poissons Ratio (y) = 0.05563 0.30590
# Poissons Ratio (z) = 0.06276 0.53114
#
# Static dielectric constant tensor:
#      x y z
#    x 1.995570 0.000000 0.104020 
#    y 0.000000 1.957490 0.000000 
#    z 0.104020 0.000000 1.923890 
# 
# From -- ./inp_files/22573.got.cif
#   From: 2010.05.17/outbox.cif.g08.bks.cpg/sg11_12_cif.got.tgz:22573.got - 2010.06.03 12:22:45.
