data_PCOD9161136
_publ_section_title
;
Structure prediction by ZEFSAII (Michael W. Deem and Ramdas Pophale) SiO2 
 PCOD9161136
Probable space group: P 21/M
;
_chemical_formula_sum "Si O2"
_cell_formula_units_Z 32
_cell_length_a 23.908371
_cell_length_b 7.493501
_cell_length_c 22.637730
_cell_angle_alpha 90.000000
_cell_angle_beta 16.789338
_cell_angle_gamma 90.000000
_cell_volume 1171.508617
_symmetry_space_group_name_H-M "P 21/M"
_symmetry_group_IT_number 11
_symmetry_cell_setting 'monoclinic'
loop_
_space_group_symop_operation_xyz
x,y,z
-x,1/2+y,-z
-x,-y,-z
x,1/2-y,z
loop_
_atom_site_type_symbol
_atom_site_label
_atom_site_fract_x
_atom_site_fract_y
_atom_site_fract_z
Si Si1 0.562127 0.957024 0.138962
Si Si2 0.983239 0.959689 0.333019
Si Si3 0.665335 0.533518 0.159713
Si Si4 0.272706 0.462413 0.776287
Si Si5 0.186987 0.465579 0.738603
Si Si6 0.942193 0.541174 0.623508
Si Si7 0.125459 0.039695 0.676339
Si Si8 0.521722 0.533649 0.050252
O O1 0.512242 0.750000 0.193053
O O2 0.548824 0.034288 0.219595
O O3 0.466434 0.027506 0.174650
O O4 0.799334 0.961156 0.890166
O O5 0.004436 0.750000 0.301824
O O6 0.850739 0.032029 0.414189
O O7 0.917051 0.985382 0.467220
O O8 0.655576 0.750000 0.169559
O O9 0.625305 0.466531 0.267188
O O10 0.892254 0.483803 0.920599
O O11 0.302271 0.250000 0.745259
O O12 0.301816 0.534196 0.680130
O O13 0.041311 0.492595 0.020360
O O14 0.203199 0.250000 0.721914
O O15 0.225181 0.538337 0.633993
O O16 0.916854 0.750000 0.654908
O O17 0.736724 0.455266 0.837897
O O18 0.000000 0.500000 0.500000
O O19 0.166357 0.250000 0.635594
O O20 0.497836 0.750000 0.077290
O O21 0.500000 0.500000 0.000000
#
# Coordination Sequence:
#
# PCOD9161136 Si02
#       8
#     4   4   4   4   4   4   4   4
#     4   8  14  24  35  49  70  94 122 158 195 230
#     4   9  15  23  36  53  71  94 124 156 191 230
#     4   8  12  18  28  40  56  80 111 147 184 219
#     4   8  12  16  23  35  50  73 106 141 177 214
#     4   8  12  17  23  33  52  76 104 140 177 212
#     4  10  20  33  47  64  84 106 133 166 203 241
#     4   8  13  19  27  40  59  83 111 144 181 218
#     4   9  18  30  44  62  83 106 133 165 201 240
#
# _framework density 27.315207999999998
#
# number of rings (size 3 to 8) (size 9 to 14) (size 15 to 20)
#    0.000    3.500    0.000    1.500    0.000    3.000 
#    0.000    0.000    0.000    0.000    0.000    0.000 
#    0.000    0.000    0.000    0.000    0.000    1.250 
#
# Total GULP energy -178275.384637 kJ/mol
# GULP energy per Si atom -5571.105770 kJ/mol
# Density = 2.725304 g / cm^3
# Si number density = 27.315208 Si / 1000 Ang^3
#
#
#
# Elastic Constant Matrix: (Units=GPa)
#
#
# Indices 1 2 3 4 5 6 
#
# 1 367.2506 12.4264 91.1702 0.0000 62.6643 0.0000
# 2 12.4264 122.7974 0.7120 0.0000 2.1519 0.0000
# 3 91.1702 0.7120 47.3411 0.0000 22.3227 0.0000
# 4 0.0000 0.0000 0.0000 18.9677 0.0000 0.4846
# 5 62.6643 2.1519 22.3227 0.0000 78.2298 0.0000
# 6 0.0000 0.0000 0.0000 0.4846 0.0000 15.1172
#
#
#
# Elastic Compliance Matrix: (Units=1/GPa)
#
#
# Indices 1 2 3 4 5 6 
#
# 1 0.005404 -0.000463 -0.009665 0.000000 -0.001558 0.000000
# 2 -0.000463 0.008187 0.000810 0.000000 -0.000085 0.000000
# 3 -0.009665 0.000810 0.041694 0.000000 -0.004178 0.000000
# 4 0.000000 0.000000 0.000000 0.052764 0.000000 -0.001691
# 5 -0.001558 -0.000085 -0.004178 0.000000 0.015225 0.000000
# 6 0.000000 0.000000 0.000000 -0.001691 0.000000 0.066204
#
#
# Mechanical properties :
#
#
# Convention : Reuss Voigt Hill
#
# Bulk Modulus (GPa) = 27.28737 82.88958 55.08847
# Shear Modulus (GPa) = 22.69294 51.33499 37.01397
#
# Velocity S-wave (km/s) = 2.88545 4.33986 3.68512
# Velocity P-wave (km/s) = 4.59485 7.45144 6.19018
#
# Compressibility (1/GPa) = 0.03664699
#
# Stress axis : x y z
#
# Youngs Moduli (GPa) = 185.05336 122.14194 23.98408
#
# Poissons Ratio (x) = 0.05661 0.23181
# Poissons Ratio (y) = 0.08577 -0.01942
# Poissons Ratio (z) = 1.78858 -0.09888
#
# Static dielectric constant tensor:
#      x y z
#    x 2.327130 0.000000 -0.188690 
#    y 0.000000 -1.264090 0.000000 
#    z -0.188690 0.000000 4.138120 
# 
# From -- ./inp_files/66638.got.cif
#   From: 2010.05.17/outbox.cif.g08.bks.cpg/sg11_34_cif.got.tgz:66638.got - 2010.06.03 12:22:45.
