data_PCOD9161702
_publ_section_title
;
Structure prediction by ZEFSAII (Michael W. Deem and Ramdas Pophale) SiO2 
 PCOD9161702
Probable space group: P 21/M
;
_chemical_formula_sum "Si O2"
_cell_formula_units_Z 28
_cell_length_a 20.117283
_cell_length_b 8.779839
_cell_length_c 15.717162
_cell_angle_alpha 90.000000
_cell_angle_beta 35.888985
_cell_angle_gamma 90.000000
_cell_volume 1627.376843
_symmetry_space_group_name_H-M "P 21/M"
_symmetry_group_IT_number 11
_symmetry_cell_setting 'monoclinic'
loop_
_space_group_symop_operation_xyz
x,y,z
-x,1/2+y,-z
-x,-y,-z
x,1/2-y,z
loop_
_atom_site_type_symbol
_atom_site_label
_atom_site_fract_x
_atom_site_fract_y
_atom_site_fract_z
Si Si1 0.270450 0.932824 0.050174
Si Si2 0.163138 0.067207 0.997312
Si Si3 0.248392 0.067656 0.396793
Si Si4 0.877465 0.932499 0.647518
Si Si5 0.126540 0.567182 0.860955
Si Si6 0.497017 0.065940 0.098237
Si Si7 0.900083 0.432646 0.298783
O O1 0.265371 0.750000 0.051273
O O2 0.244642 0.002753 0.985143
O O3 0.175671 0.994320 0.213455
O O4 0.391927 0.978460 0.963729
O O5 0.165522 0.250000 0.992907
O O6 0.032764 0.019593 0.155972
O O7 0.190533 0.002858 0.875163
O O8 0.244609 0.250000 0.409567
O O9 0.202053 0.030960 0.350771
O O10 0.379309 0.017757 0.264498
O O11 0.167292 0.998825 0.552181
O O12 0.883549 0.750000 0.650960
O O13 0.000000 0.000000 0.500000
O O14 0.123509 0.750000 0.871185
O O15 0.159178 0.527419 0.730120
O O16 0.000000 0.500000 0.000000
O O17 0.496082 0.250000 0.092698
O O18 0.500000 0.000000 0.000000
O O19 0.900997 0.250000 0.304444
#
# Coordination Sequence:
#
# PCOD9161702 Si02
#       7
#     4   4   4   4   4   4   4
#     4  11  22  35  54  77 103 137 176 220 268 315
#     4  10  20  34  53  79 110 141 175 215 263 319
#     4  10  21  35  52  74 102 136 174 217 260 307
#     4  11  22  35  51  74 107 140 173 213 261 315
#     4   9  17  31  51  77 109 141 175 214 259 314
#     4  10  21  38  56  75  99 134 181 225 265 310
#     4   9  19  33  51  78 108 138 170 209 259 312
#
# _framework density 17.205601999999999
#
# number of rings (size 3 to 8) (size 9 to 14) (size 15 to 20)
#    0.000    2.000    1.429    3.429    0.000    8.000 
#    0.000    0.000    0.000    0.857    0.000    0.000 
#    0.000    0.000    0.000    0.000    0.000    0.000 
#
# Total GULP energy -156228.847715 kJ/mol
# GULP energy per Si atom -5579.601704 kJ/mol
# Density = 1.716644 g / cm^3
# Si number density = 17.205602 Si / 1000 Ang^3
#
#
#
# Elastic Constant Matrix: (Units=GPa)
#
#
# Indices 1 2 3 4 5 6 
#
# 1 124.0116 37.4316 10.6296 0.0000 4.0867 0.0000
# 2 37.4316 34.6469 6.2193 0.0000 2.4768 0.0000
# 3 10.6296 6.2193 14.2648 0.0000 -6.2386 0.0000
# 4 0.0000 0.0000 0.0000 24.8349 0.0000 6.9292
# 5 4.0867 2.4768 -6.2386 0.0000 31.6994 0.0000
# 6 0.0000 0.0000 0.0000 6.9292 0.0000 30.3591
#
#
#
# Elastic Compliance Matrix: (Units=1/GPa)
#
#
# Indices 1 2 3 4 5 6 
#
# 1 0.012195 -0.012285 -0.004376 0.000000 -0.001474 0.000000
# 2 -0.012285 0.044629 -0.012185 0.000000 -0.004301 0.000000
# 3 -0.004376 -0.012185 0.086811 0.000000 0.018601 0.000000
# 4 0.000000 0.000000 0.000000 0.043004 0.000000 -0.009815
# 5 -0.001474 -0.004301 0.018601 0.000000 0.035733 0.000000
# 6 0.000000 0.000000 0.000000 -0.009815 0.000000 0.035179
#
#
# Mechanical properties :
#
#
# Convention : Reuss Voigt Hill
#
# Bulk Modulus (GPa) = 11.63538 31.27603 21.45571
# Shear Modulus (GPa) = 14.53941 25.28821 19.91381
#
# Velocity S-wave (km/s) = 2.91011 3.83791 3.40575
# Velocity P-wave (km/s) = 4.25075 6.15278 5.28799
#
# Compressibility (1/GPa) = 0.08594474
#
# Stress axis : x y z
#
# Youngs Moduli (GPa) = 81.99783 22.40672 11.51923
#
# Poissons Ratio (x) = 0.27526 0.05041
# Poissons Ratio (y) = 1.00732 0.14036
# Poissons Ratio (z) = 0.35883 0.27302
#
# Static dielectric constant tensor:
#      x y z
#    x 1.558710 0.000000 0.002760 
#    y 0.000000 1.577580 0.000000 
#    z 0.002760 0.000000 1.561140 
# 
# From -- ./inp_files/37937.got.cif
#   From: 2010.05.17/outbox.cif.g08.bks.cpg/sg11_19_cif.got.tgz:37937.got - 2010.06.03 12:22:45.
