data_PCOD9161694
_publ_section_title
;
Structure prediction by ZEFSAII (Michael W. Deem and Ramdas Pophale) SiO2 
 PCOD9161694
Probable space group: P 21/M
;
_chemical_formula_sum "Si O2"
_cell_formula_units_Z 20
_cell_length_a 13.449992
_cell_length_b 10.820292
_cell_length_c 16.462946
_cell_angle_alpha 90.000000
_cell_angle_beta 154.798022
_cell_angle_gamma 90.000000
_cell_volume 1020.199147
_symmetry_space_group_name_H-M "P 21/M"
_symmetry_group_IT_number 11
_symmetry_cell_setting 'monoclinic'
loop_
_space_group_symop_operation_xyz
x,y,z
-x,1/2+y,-z
-x,-y,-z
x,1/2-y,z
loop_
_atom_site_type_symbol
_atom_site_label
_atom_site_fract_x
_atom_site_fract_y
_atom_site_fract_z
Si Si1 0.721951 0.994574 0.788523
Si Si2 0.417481 0.607513 0.699325
Si Si3 0.476665 0.394081 0.049905
Si Si4 0.685033 0.881459 0.597178
Si Si5 0.057344 0.888596 0.289764
O O1 0.614912 0.968047 0.797486
O O2 0.659573 0.889410 0.675677
O O3 0.564333 0.103166 0.632310
O O4 0.000000 0.000000 0.000000
O O5 0.496959 0.750000 0.759810
O O6 0.193902 0.601064 0.476118
O O7 0.370057 0.573851 0.757162
O O8 0.521159 0.250000 0.056982
O O9 0.214379 0.398204 0.891721
O O10 0.500000 0.500000 0.000000
O O11 0.790464 0.750000 0.652113
O O12 0.843541 0.998492 0.689713
O O13 0.103498 0.750000 0.290167
#
# Coordination Sequence:
#
# PCOD9161694 Si02
#       5
#     4   4   4   4   4
#     4  10  20  34  53  78 113 153 186 218 267 327
#     4   9  18  34  54  74 100 139 181 214 255 318
#     4  10  21  37  57  80 103 133 176 224 274 326
#     4  10  21  34  53  85 116 143 184 233 271 309
#     4   9  19  37  57  76 107 147 179 212 265 333
#
# _framework density 19.604016000000001
#
# number of rings (size 3 to 8) (size 9 to 14) (size 15 to 20)
#    0.000    2.400    0.000    1.800    0.000    8.000 
#    0.000    4.000    0.000    0.000    0.000    0.000 
#    0.000    0.000    0.000    0.000    0.000    0.000 
#
# Total GULP energy -111417.269495 kJ/mol
# GULP energy per Si atom -5570.863475 kJ/mol
# Density = 1.955940 g / cm^3
# Si number density = 19.604016 Si / 1000 Ang^3
#
#
#
# Elastic Constant Matrix: (Units=GPa)
#
#
# Indices 1 2 3 4 5 6 
#
# 1 67.4310 48.4245 3.6646 0.0000 -27.9862 0.0000
# 2 48.4245 131.6312 7.5440 0.0000 -12.3546 0.0000
# 3 3.6646 7.5440 53.2995 0.0000 -3.8126 0.0000
# 4 0.0000 0.0000 0.0000 9.4963 0.0000 6.3596
# 5 -27.9862 -12.3546 -3.8126 0.0000 28.6888 0.0000
# 6 0.0000 0.0000 0.0000 6.3596 0.0000 26.2310
#
#
#
# Elastic Compliance Matrix: (Units=1/GPa)
#
#
# Indices 1 2 3 4 5 6 
#
# 1 0.033786 -0.009782 0.001129 0.000000 0.028897 0.000000
# 2 -0.009782 0.010791 -0.001216 0.000000 -0.005057 0.000000
# 3 0.001129 -0.001216 0.019079 0.000000 0.003113 0.000000
# 4 0.000000 0.000000 0.000000 0.125715 0.000000 -0.030479
# 5 0.028897 -0.005057 0.003113 0.000000 0.061282 0.000000
# 6 0.000000 0.000000 0.000000 -0.030479 0.000000 0.045512
#
#
# Mechanical properties :
#
#
# Convention : Reuss Voigt Hill
#
# Bulk Modulus (GPa) = 22.77044 41.29199 32.03121
# Shear Modulus (GPa) = 15.12661 25.73179 20.42920
#
# Velocity S-wave (km/s) = 2.78080 3.62688 3.23165
# Velocity P-wave (km/s) = 4.68517 6.21673 5.50448
#
# Compressibility (1/GPa) = 0.04391659
#
# Stress axis : x y z
#
# Youngs Moduli (GPa) = 29.59773 92.67315 52.41322
#
# Poissons Ratio (x) = 0.90652 -0.05915
# Poissons Ratio (y) = 0.28952 0.06376
# Poissons Ratio (z) = -0.03340 0.11274
#
# Static dielectric constant tensor:
#      x y z
#    x 1.700360 0.000000 -0.026710 
#    y 0.000000 1.734230 0.000000 
#    z -0.026710 0.000000 1.769610 
# 
# From -- ./inp_files/38793.got.cif
#   From: 2010.05.17/outbox.cif.g08.bks.cpg/sg11_20_cif.got.tgz:38793.got - 2010.06.03 12:22:45.
