data_PCOD9161248
_publ_section_title
;
Structure prediction by ZEFSAII (Michael W. Deem and Ramdas Pophale) SiO2 
 PCOD9161248
Probable space group: P 21/M
;
_chemical_formula_sum "Si O2"
_cell_formula_units_Z 32
_cell_length_a 29.384038
_cell_length_b 8.838889
_cell_length_c 21.523994
_cell_angle_alpha 90.000000
_cell_angle_beta 159.875934
_cell_angle_gamma 90.000000
_cell_volume 1923.351999
_symmetry_space_group_name_H-M "P 21/M"
_symmetry_group_IT_number 11
_symmetry_cell_setting 'monoclinic'
loop_
_space_group_symop_operation_xyz
x,y,z
-x,1/2+y,-z
-x,-y,-z
x,1/2-y,z
loop_
_atom_site_type_symbol
_atom_site_label
_atom_site_fract_x
_atom_site_fract_y
_atom_site_fract_z
Si Si1 0.213729 0.427734 0.288699
Si Si2 0.376972 0.571146 0.878109
Si Si3 0.635020 0.071895 0.990278
Si Si4 0.028681 0.069619 0.948473
Si Si5 0.124716 0.929477 0.366874
Si Si6 0.921133 0.569579 0.340154
Si Si7 0.890567 0.570316 0.517965
Si Si8 0.375991 0.570111 0.600284
O O1 0.241651 0.250000 0.329686
O O2 0.169615 0.462268 0.161243
O O3 0.326608 0.519505 0.468850
O O4 0.080894 0.470115 0.156732
O O5 0.366356 0.750000 0.850936
O O6 0.244171 0.488852 0.686155
O O7 0.500000 0.500000 0.000000
O O8 0.393991 0.552460 0.973623
O O9 0.655148 0.250000 0.004478
O O10 0.509740 0.011007 0.792015
O O11 0.769836 0.983854 0.148712
O O12 0.000807 0.250000 0.924127
O O13 0.999521 0.045132 0.838689
O O14 0.131486 0.750000 0.389771
O O15 0.256876 0.967539 0.496302
O O16 0.113926 0.021739 0.415996
O O17 0.930692 0.750000 0.355594
O O18 0.000000 0.500000 0.500000
O O19 0.991223 0.508653 0.368007
O O20 0.900247 0.750000 0.524178
O O21 0.392769 0.750000 0.623614
#
# Coordination Sequence:
#
# PCOD9161248 Si02
#       8
#     4   4   4   4   4   4   4   4
#     4   9  15  25  44  70 101 137 176 214 255 306
#     4  11  23  37  55  77 105 137 172 211 258 313
#     4  11  23  38  56  78 103 135 175 218 263 308
#     4   8  15  27  44  68 100 139 176 212 256 307
#     4   9  18  33  51  74 108 143 178 216 259 310
#     4  12  24  41  62  80 100 131 173 220 266 311
#     4  12  24  37  55  78 105 136 174 217 264 311
#     4  10  20  33  50  75 109 145 177 214 262 312
#
# _framework density 16.637622
#
# number of rings (size 3 to 8) (size 9 to 14) (size 15 to 20)
#    0.000    1.750    1.250    5.250    0.000    6.500 
#    0.000    0.000    0.000    0.000    0.000    0.875 
#    0.000    0.000    0.000    0.000    0.000    0.000 
#
# Total GULP energy -178563.260202 kJ/mol
# GULP energy per Si atom -5580.101881 kJ/mol
# Density = 1.659975 g / cm^3
# Si number density = 16.637622 Si / 1000 Ang^3
#
#
#
# Elastic Constant Matrix: (Units=GPa)
#
#
# Indices 1 2 3 4 5 6 
#
# 1 21.6885 26.9995 53.9806 0.0000 -3.6325 0.0000
# 2 26.9995 91.5914 62.5986 0.0000 -3.0338 0.0000
# 3 53.9806 62.5986 107.4749 0.0000 -13.3178 0.0000
# 4 0.0000 0.0000 0.0000 30.0513 0.0000 -1.8759
# 5 -3.6325 -3.0338 -13.3178 0.0000 30.6320 0.0000
# 6 0.0000 0.0000 0.0000 -1.8759 0.0000 23.1513
#
#
#
# Elastic Compliance Matrix: (Units=1/GPa)
#
#
# Indices 1 2 3 4 5 6 
#
# 1 -0.161416 -0.014667 0.092022 0.000000 0.019414 0.000000
# 2 -0.014667 0.017063 -0.002724 0.000000 -0.001234 0.000000
# 3 0.092022 -0.002724 -0.035946 0.000000 -0.004985 0.000000
# 4 0.000000 0.000000 0.000000 0.033446 0.000000 0.002710
# 5 0.019414 -0.001234 -0.004985 0.000000 0.032658 0.000000
# 6 0.000000 0.000000 0.000000 0.002710 0.000000 0.043414
#
#
# Mechanical properties :
#
#
# Convention : Reuss Voigt Hill
#
# Bulk Modulus (GPa) = -32.21825 56.43469 12.10822
# Shear Modulus (GPa) = -21.70250 21.91201 0.10475
#
# Velocity S-wave (km/s) = -3.61560 3.63301 0.25119
# Velocity P-wave (km/s) = 6.06933 7.18275 2.71616
#
# Compressibility (1/GPa) = -0.03103831
#
# Stress axis : x y z
#
# Youngs Moduli (GPa) = -6.19517 58.60734 -27.81982
#
# Poissons Ratio (x) = 0.85961 2.56003
# Poissons Ratio (y) = -0.09087 -0.07579
# Poissons Ratio (z) = 0.57009 0.15966
#
# Static dielectric constant tensor:
#      x y z
#    x 1.555740 0.000000 -0.024440 
#    y 0.000000 1.557780 0.000000 
#    z -0.024440 0.000000 1.568320 
# 
# From -- ./inp_files/64202.got.cif
#   From: 2010.05.17/outbox.cif.g08.bks.cpg/sg11_33_cif.got.tgz:64202.got - 2010.06.03 12:22:45.
