data_PCOD9161635
_publ_section_title
;
Structure prediction by ZEFSAII (Michael W. Deem and Ramdas Pophale) SiO2 
 PCOD9161635
Probable space group: P 21/M
;
_chemical_formula_sum "Si O2"
_cell_formula_units_Z 24
_cell_length_a 7.725086
_cell_length_b 7.429837
_cell_length_c 27.581426
_cell_angle_alpha 90.000000
_cell_angle_beta 34.384313
_cell_angle_gamma 90.000000
_cell_volume 894.023019
_symmetry_space_group_name_H-M "P 21/M"
_symmetry_group_IT_number 11
_symmetry_cell_setting 'monoclinic'
loop_
_space_group_symop_operation_xyz
x,y,z
-x,1/2+y,-z
-x,-y,-z
x,1/2-y,z
loop_
_atom_site_type_symbol
_atom_site_label
_atom_site_fract_x
_atom_site_fract_y
_atom_site_fract_z
Si Si1 0.296125 0.530985 0.620697
Si Si2 0.059701 0.030530 0.202167
Si Si3 0.330821 0.952118 0.886177
Si Si4 0.141061 0.464636 0.075904
Si Si5 0.324044 0.954646 0.287829
Si Si6 0.964463 0.964802 0.452192
O O1 0.295765 0.750000 0.620005
O O2 0.619145 0.466309 0.525218
O O3 0.189631 0.476406 0.699826
O O4 0.026043 0.458569 0.650022
O O5 0.073551 0.250000 0.199456
O O6 0.399873 0.967181 0.142249
O O7 0.000177 0.974075 0.160449
O O8 0.275374 0.750000 0.915865
O O9 0.010236 0.033480 0.939761
O O10 0.495912 0.943765 0.795196
O O11 0.106972 0.250000 0.081248
O O12 0.500000 0.500000 0.000000
O O13 0.435665 0.750000 0.262456
O O14 0.258670 0.038241 0.355214
O O15 0.972100 0.750000 0.442184
O O16 0.000000 0.000000 0.500000
#
# Coordination Sequence:
#
# PCOD9161635 Si02
#       6
#     4   4   4   4   4   4
#     4   9  18  35  56  75 100 142 187 220 260 320
#     4   8  16  33  55  78 103 134 180 223 253 312
#     4   9  19  36  58  79 103 144 186 215 262 329
#     4  10  21  36  56  81 107 138 174 219 271 324
#     4  10  20  34  52  79 110 138 175 227 276 311
#     4  10  22  34  49  77 110 144 182 223 267 315
#
# _framework density 26.844947999999999
#
# number of rings (size 3 to 8) (size 9 to 14) (size 15 to 20)
#    0.000    2.667    0.000    2.000    2.333    3.333 
#    0.000    3.333    0.000    0.000    0.000    0.000 
#    0.000    0.000    0.000    0.000    0.000    0.000 
#
# Total GULP energy -134047.805931 kJ/mol
# GULP energy per Si atom -5585.325247 kJ/mol
# Density = 2.678385 g / cm^3
# Si number density = 26.844948 Si / 1000 Ang^3
#
#
#
# Elastic Constant Matrix: (Units=GPa)
#
#
# Indices 1 2 3 4 5 6 
#
# 1 123.9353 14.8590 -19.2005 0.0000 -9.9563 0.0000
# 2 14.8590 111.3360 37.1888 0.0000 5.1585 0.0000
# 3 -19.2005 37.1888 89.3636 0.0000 2.8317 0.0000
# 4 0.0000 0.0000 0.0000 19.7188 0.0000 -1.4701
# 5 -9.9563 5.1585 2.8317 0.0000 52.3412 0.0000
# 6 0.0000 0.0000 0.0000 -1.4701 0.0000 21.0410
#
#
#
# Elastic Compliance Matrix: (Units=1/GPa)
#
#
# Indices 1 2 3 4 5 6 
#
# 1 0.008903 -0.002195 0.002771 0.000000 0.001760 0.000000
# 2 -0.002195 0.011006 -0.005013 0.000000 -0.001231 0.000000
# 3 0.002771 -0.005013 0.013863 0.000000 0.000271 0.000000
# 4 0.000000 0.000000 0.000000 0.050979 0.000000 0.003562
# 5 0.001760 -0.001231 0.000271 0.000000 0.019547 0.000000
# 6 0.000000 0.000000 0.000000 0.003562 0.000000 0.047775
#
#
# Mechanical properties :
#
#
# Convention : Reuss Voigt Hill
#
# Bulk Modulus (GPa) = 40.16575 43.36994 41.76784
# Shear Modulus (GPa) = 29.54275 38.07269 33.80772
#
# Velocity S-wave (km/s) = 3.32097 3.77004 3.55261
# Velocity P-wave (km/s) = 5.44975 5.92805 5.69392
#
# Compressibility (1/GPa) = 0.02489683
#
# Stress axis : x y z
#
# Youngs Moduli (GPa) = 112.32796 90.85750 72.13419
#
# Poissons Ratio (x) = 0.19944 -0.19985
# Poissons Ratio (y) = 0.24657 0.36160
# Poissons Ratio (z) = -0.31121 0.45546
#
# Static dielectric constant tensor:
#      x y z
#    x 2.246730 0.000000 0.000390 
#    y 0.000000 1.980140 0.000000 
#    z 0.000390 0.000000 2.348020 
# 
# From -- ./inp_files/25510.got.cif
#   From: 2010.05.17/outbox.cif.g08.bks.cpg/sg11_13_cif.got.tgz:25510.got - 2010.06.03 12:22:45.
