data_PCOD9161918
_publ_section_title
;
Structure prediction by ZEFSAII (Michael W. Deem and Ramdas Pophale) SiO2 
 PCOD9161918
Probable space group: P 21/M
;
_chemical_formula_sum "Si O2"
_cell_formula_units_Z 28
_cell_length_a 26.042788
_cell_length_b 8.080651
_cell_length_c 9.708998
_cell_angle_alpha 90.000000
_cell_angle_beta 141.307577
_cell_angle_gamma 90.000000
_cell_volume 1277.277140
_symmetry_space_group_name_H-M "P 21/M"
_symmetry_group_IT_number 11
_symmetry_cell_setting 'monoclinic'
loop_
_space_group_symop_operation_xyz
x,y,z
-x,1/2+y,-z
-x,-y,-z
x,1/2-y,z
loop_
_atom_site_type_symbol
_atom_site_label
_atom_site_fract_x
_atom_site_fract_y
_atom_site_fract_z
Si Si1 0.297399 0.448605 0.103237
Si Si2 0.250905 0.943748 0.484802
Si Si3 0.082081 0.059489 0.250786
Si Si4 0.994741 0.440145 0.645185
Si Si5 0.372232 0.549243 0.966424
Si Si6 0.462960 0.449093 0.569888
Si Si7 0.173671 0.553265 0.051424
O O1 0.293183 0.250000 0.097589
O O2 0.369620 0.508668 0.359675
O O3 0.213158 0.520134 0.985634
O O4 0.324490 0.500559 0.006848
O O5 0.270068 0.750000 0.508753
O O6 0.321974 0.015912 0.730165
O O7 0.234942 0.010340 0.298662
O O8 0.163110 0.961131 0.376895
O O9 0.096362 0.250000 0.246528
O O10 0.063483 0.039505 0.373782
O O11 0.000000 0.000000 0.000000
O O12 0.969705 0.250000 0.597752
O O13 0.000000 0.500000 0.500000
O O14 0.087763 0.463104 0.892133
O O15 0.372787 0.750000 0.964149
O O16 0.467307 0.492101 0.177638
O O17 0.500000 0.500000 0.500000
O O18 0.459678 0.250000 0.572664
O O19 0.159781 0.750000 0.039328
#
# Coordination Sequence:
#
# PCOD9161918 Si02
#       7
#     4   4   4   4   4   4   4
#     4  10  20  34  55  84 117 151 190 238 292 346
#     4  10  22  39  60  84 114 151 196 242 289 343
#     4  12  24  41  64  88 117 155 197 239 289 346
#     4  12  26  44  65  89 118 152 193 242 293 346
#     4   9  18  35  59  85 112 147 193 240 287 343
#     4   8  15  30  53  80 111 147 187 234 286 340
#     4  11  23  40  59  82 116 155 194 237 290 346
#
# _framework density 21.92163
#
# number of rings (size 3 to 8) (size 9 to 14) (size 15 to 20)
#    0.000    1.714    1.429    3.429    2.000    1.714 
#    0.000    0.714    0.000    0.000    0.000    0.000 
#    0.000    0.000    0.000    0.000    0.000    0.000 
#
# Total GULP energy -156350.791461 kJ/mol
# GULP energy per Si atom -5583.956838 kJ/mol
# Density = 2.187174 g / cm^3
# Si number density = 21.921630 Si / 1000 Ang^3
#
#
#
# Elastic Constant Matrix: (Units=GPa)
#
#
# Indices 1 2 3 4 5 6 
#
# 1 44.2922 -13.1085 -22.5090 0.0000 -7.3846 0.0000
# 2 -13.1085 38.0564 1.2967 0.0000 -5.2755 0.0000
# 3 -22.5090 1.2967 88.3313 0.0000 -17.0024 0.0000
# 4 0.0000 0.0000 0.0000 21.0206 0.0000 -2.2779
# 5 -7.3846 -5.2755 -17.0024 0.0000 27.1384 0.0000
# 6 0.0000 0.0000 0.0000 -2.2779 0.0000 14.6272
#
#
#
# Elastic Compliance Matrix: (Units=1/GPa)
#
#
# Indices 1 2 3 4 5 6 
#
# 1 0.037710 0.015547 0.013575 0.000000 0.021788 0.000000
# 2 0.015547 0.033452 0.006296 0.000000 0.014678 0.000000
# 3 0.013575 0.006296 0.017778 0.000000 0.016056 0.000000
# 4 0.000000 0.000000 0.000000 0.048389 0.000000 0.007536
# 5 0.021788 0.014678 0.016056 0.000000 0.055689 0.000000
# 6 0.000000 0.000000 0.000000 0.007536 0.000000 0.069539
#
#
# Mechanical properties :
#
#
# Convention : Reuss Voigt Hill
#
# Bulk Modulus (GPa) = 6.25875 11.33761 8.79818
# Shear Modulus (GPa) = 20.40975 26.22396 23.31685
#
# Velocity S-wave (km/s) = 3.05459 3.46245 3.26490
# Velocity P-wave (km/s) = 3.91177 4.60085 4.27024
#
# Compressibility (1/GPa) = 0.15977628
#
# Stress axis : x y z
#
# Youngs Moduli (GPa) = 26.51822 29.89353 56.24809
#
# Poissons Ratio (x) = -0.46475 -0.76357
# Poissons Ratio (y) = -0.41228 -0.35413
# Poissons Ratio (z) = -0.35999 -0.18821
#
# Static dielectric constant tensor:
#      x y z
#    x 1.775140 0.000000 0.014340 
#    y 0.000000 1.752440 0.000000 
#    z 0.014340 0.000000 1.893790 
# 
# From -- ./inp_files/28543.got.cif
#   From: 2010.05.17/outbox.cif.g08.bks.cpg/sg11_15_cif.got.tgz:28543.got - 2010.06.03 12:22:45.
