data_PCOD9161357
_publ_section_title
;
Structure prediction by ZEFSAII (Michael W. Deem and Ramdas Pophale) SiO2 
 PCOD9161357
Probable space group: P 21/M
;
_chemical_formula_sum "Si O2"
_cell_formula_units_Z 24
_cell_length_a 16.877725
_cell_length_b 8.754118
_cell_length_c 9.175457
_cell_angle_alpha 90.000000
_cell_angle_beta 74.227159
_cell_angle_gamma 90.000000
_cell_volume 1304.624954
_symmetry_space_group_name_H-M "P 21/M"
_symmetry_group_IT_number 11
_symmetry_cell_setting 'monoclinic'
loop_
_space_group_symop_operation_xyz
x,y,z
-x,1/2+y,-z
-x,-y,-z
x,1/2-y,z
loop_
_atom_site_type_symbol
_atom_site_label
_atom_site_fract_x
_atom_site_fract_y
_atom_site_fract_z
Si Si1 0.410113 0.933100 0.709436
Si Si2 0.241785 0.067233 0.792056
Si Si3 0.241829 0.567225 0.466038
Si Si4 0.410159 0.066884 0.380575
Si Si5 0.076833 0.433244 0.049971
Si Si6 0.076839 0.566756 0.373204
O O1 0.403189 0.750000 0.706119
O O2 0.499994 0.971240 0.730414
O O3 0.326866 0.002451 0.816157
O O4 0.411731 0.999814 0.544140
O O5 0.247935 0.250000 0.778287
O O6 0.232494 0.999886 0.633746
O O7 0.161929 0.026668 0.925877
O O8 0.248064 0.750000 0.473377
O O9 0.326878 0.502182 0.356974
O O10 0.161943 0.526649 0.412164
O O11 0.403333 0.250000 0.391112
O O12 0.070424 0.250000 0.058072
O O13 0.076676 0.500016 0.211661
O O14 0.000000 0.500000 0.000000
O O15 0.070436 0.750000 0.371545
O O16 0.000000 0.500000 0.500000
#
# Coordination Sequence:
#
# PCOD9161357 Si02
#       6
#     4   4   4   4   4   4
#     4   9  16  26  44  72 104 138 175 215 259 306
#     4  10  20  33  52  79 108 140 177 217 263 313
#     4  10  20  33  52  79 108 140 177 217 263 313
#     4   9  16  26  44  72 104 138 175 215 259 306
#     4  11  24  40  59  82 108 140 178 220 268 321
#     4  11  24  40  59  82 108 140 178 220 268 321
#
# _framework density 18.396091999999999
#
# number of rings (size 3 to 8) (size 9 to 14) (size 15 to 20)
#    0.000    2.000    0.000    6.000    0.000   10.000 
#    0.000    0.000    0.000    1.000    0.000    0.000 
#    0.000    0.000    0.000    0.000    0.000    0.000 
#
# Total GULP energy -133910.829316 kJ/mol
# GULP energy per Si atom -5579.617888 kJ/mol
# Density = 1.835422 g / cm^3
# Si number density = 18.396092 Si / 1000 Ang^3
#
#
#
# Elastic Constant Matrix: (Units=GPa)
#
#
# Indices 1 2 3 4 5 6 
#
# 1 220.3284 76.1758 87.8953 0.0000 -33.5706 0.0000
# 2 76.1758 68.3732 39.1866 0.0000 -13.0282 0.0000
# 3 87.8953 39.1866 87.3324 0.0000 -12.1661 0.0000
# 4 0.0000 0.0000 0.0000 24.6204 0.0000 -2.8217
# 5 -33.5706 -13.0282 -12.1661 0.0000 24.8431 0.0000
# 6 0.0000 0.0000 0.0000 -2.8217 0.0000 32.9093
#
#
#
# Elastic Compliance Matrix: (Units=1/GPa)
#
#
# Indices 1 2 3 4 5 6 
#
# 1 0.010651 -0.006562 -0.006708 0.000000 0.007667 0.000000
# 2 -0.006562 0.024740 -0.004212 0.000000 0.002044 0.000000
# 3 -0.006708 -0.004212 0.019877 0.000000 -0.001539 0.000000
# 4 0.000000 0.000000 0.000000 0.041020 0.000000 0.003517
# 5 0.007667 0.002044 -0.001539 0.000000 0.050932 0.000000
# 6 0.000000 0.000000 0.000000 0.003517 0.000000 0.030688
#
#
# Mechanical properties :
#
#
# Convention : Reuss Voigt Hill
#
# Bulk Modulus (GPa) = 49.24835 86.94994 68.09915
# Shear Modulus (GPa) = 22.76458 27.99299 25.37878
#
# Velocity S-wave (km/s) = 3.52158 3.90511 3.71829
# Velocity P-wave (km/s) = 6.58518 8.22807 7.45204
#
# Compressibility (1/GPa) = 0.02030525
#
# Stress axis : x y z
#
# Youngs Moduli (GPa) = 93.88435 40.42100 50.30914
#
# Poissons Ratio (x) = 0.26522 0.33746
# Poissons Ratio (y) = 0.61603 0.21191
# Poissons Ratio (z) = 0.62975 0.17026
#
# Static dielectric constant tensor:
#      x y z
#    x 1.679710 0.000000 -0.025090 
#    y 0.000000 1.615520 0.000000 
#    z -0.025090 0.000000 1.605640 
# 
# From -- ./inp_files/23710.got.cif
#   From: 2010.05.17/outbox.cif.g08.bks.cpg/sg11_12_cif.got.tgz:23710.got - 2010.06.03 12:22:45.
