data_PCOD9161513
_publ_section_title
;
Structure prediction by ZEFSAII (Michael W. Deem and Ramdas Pophale) SiO2 
 PCOD9161513
Probable space group: P 21/M
;
_chemical_formula_sum "Si O2"
_cell_formula_units_Z 32
_cell_length_a 16.409373
_cell_length_b 8.647398
_cell_length_c 12.507975
_cell_angle_alpha 90.000000
_cell_angle_beta 97.934756
_cell_angle_gamma 90.000000
_cell_volume 1757.868691
_symmetry_space_group_name_H-M "P 21/M"
_symmetry_group_IT_number 11
_symmetry_cell_setting 'monoclinic'
loop_
_space_group_symop_operation_xyz
x,y,z
-x,1/2+y,-z
-x,-y,-z
x,1/2-y,z
loop_
_atom_site_type_symbol
_atom_site_label
_atom_site_fract_x
_atom_site_fract_y
_atom_site_fract_z
Si Si1 0.068991 0.573398 0.085773
Si Si2 0.281179 0.564996 0.272982
Si Si3 0.196527 0.063212 0.803861
Si Si4 0.854048 0.933813 0.588795
Si Si5 0.015343 0.073545 0.698977
Si Si6 0.591041 0.064381 0.525229
Si Si7 0.734072 0.064339 0.391122
Si Si8 0.235112 0.068922 0.051440
O O1 0.090993 0.750000 0.058477
O O2 0.032368 0.580314 0.196903
O O3 0.145599 0.461800 0.085266
O O4 0.000000 0.500000 0.000000
O O5 0.270592 0.750000 0.274978
O O6 0.202355 0.494981 0.322271
O O7 0.360209 0.519542 0.358014
O O8 0.289842 0.513485 0.151635
O O9 0.191005 0.250000 0.808229
O O10 0.225168 0.011159 0.927293
O O11 0.105592 0.009732 0.747077
O O12 0.258431 0.008510 0.723997
O O13 0.848183 0.750000 0.584778
O O14 0.949541 0.983016 0.615154
O O15 0.810346 0.005780 0.476945
O O16 0.025611 0.250000 0.660076
O O17 0.587066 0.250000 0.523355
O O18 0.651453 0.017105 0.439261
O O19 0.500000 0.000000 0.500000
O O20 0.736906 0.250000 0.386307
O O21 0.255018 0.250000 0.051939
#
# Coordination Sequence:
#
# PCOD9161513 Si02
#       8
#     4   4   4   4   4   4   4   4
#     4  11  20  31  48  70 103 144 188 241 283 317
#     4  10  20  35  54  83 117 144 174 222 276 322
#     4  10  22  38  53  74 107 148 192 231 269 317
#     4  11  21  33  53  78 104 142 189 234 278 324
#     4  10  20  34  49  70 105 146 188 239 282 316
#     4   9  20  38  63  91 115 135 165 211 266 327
#     4  10  22  40  58  80 110 142 177 220 272 329
#     4  11  21  34  52  78 109 145 189 232 272 321
#
# _framework density 18.203862000000001
#
# number of rings (size 3 to 8) (size 9 to 14) (size 15 to 20)
#    0.000    1.750    2.500    3.375    0.000    5.500 
#    0.000    0.000    0.000    0.750    0.000    0.000 
#    0.000    0.000    0.000    0.000    0.000    0.000 
#
# Total GULP energy -178481.473269 kJ/mol
# GULP energy per Si atom -5577.546040 kJ/mol
# Density = 1.816243 g / cm^3
# Si number density = 18.203862 Si / 1000 Ang^3
#
#
#
# Elastic Constant Matrix: (Units=GPa)
#
#
# Indices 1 2 3 4 5 6 
#
# 1 92.5741 13.4299 60.0051 0.0000 14.8272 0.0000
# 2 13.4299 19.9765 13.9003 0.0000 1.5988 0.0000
# 3 60.0051 13.9003 121.5837 0.0000 0.1188 0.0000
# 4 0.0000 0.0000 0.0000 23.3887 0.0000 0.4006
# 5 14.8272 1.5988 0.1188 0.0000 17.7687 0.0000
# 6 0.0000 0.0000 0.0000 0.4006 0.0000 24.8128
#
#
#
# Elastic Compliance Matrix: (Units=1/GPa)
#
#
# Indices 1 2 3 4 5 6 
#
# 1 0.020336 -0.005854 -0.009351 0.000000 -0.016381 0.000000
# 2 -0.005854 0.056492 -0.003569 0.000000 -0.000174 0.000000
# 3 -0.009351 -0.003569 0.013240 0.000000 0.008036 0.000000
# 4 0.000000 0.000000 0.000000 0.042768 0.000000 -0.000691
# 5 -0.016381 -0.000174 0.008036 0.000000 0.069910 0.000000
# 6 0.000000 0.000000 0.000000 -0.000691 0.000000 0.040313
#
#
# Mechanical properties :
#
#
# Convention : Reuss Voigt Hill
#
# Bulk Modulus (GPa) = 19.04057 45.42276 32.23167
# Shear Modulus (GPa) = 16.77210 22.98063 19.87636
#
# Velocity S-wave (km/s) = 3.03867 3.55689 3.30794
# Velocity P-wave (km/s) = 4.77427 6.47109 5.68633
#
# Compressibility (1/GPa) = 0.05251944
#
# Stress axis : x y z
#
# Youngs Moduli (GPa) = 49.17296 17.70163 75.52784
#
# Poissons Ratio (x) = 0.10362 0.70629
# Poissons Ratio (y) = 0.28785 0.26959
# Poissons Ratio (z) = 0.45983 0.06318
#
# Static dielectric constant tensor:
#      x y z
#    x 1.621150 0.000000 0.025900 
#    y 0.000000 1.625220 0.000000 
#    z 0.025900 0.000000 1.670420 
# 
# From -- ./inp_files/38124.got.cif
#   From: 2010.05.17/outbox.cif.g08.bks.cpg/sg11_20_cif.got.tgz:38124.got - 2010.06.03 12:22:45.
