data_PCOD9161010
_publ_section_title
;
Structure prediction by ZEFSAII (Michael W. Deem and Ramdas Pophale) SiO2 
 PCOD9161010
Probable space group: P 21/M
;
_chemical_formula_sum "Si O2"
_cell_formula_units_Z 28
_cell_length_a 25.703696
_cell_length_b 7.612264
_cell_length_c 9.725339
_cell_angle_alpha 90.000000
_cell_angle_beta 41.353988
_cell_angle_gamma 90.000000
_cell_volume 1257.258454
_symmetry_space_group_name_H-M "P 21/M"
_symmetry_group_IT_number 11
_symmetry_cell_setting 'monoclinic'
loop_
_space_group_symop_operation_xyz
x,y,z
-x,1/2+y,-z
-x,-y,-z
x,1/2-y,z
loop_
_atom_site_type_symbol
_atom_site_label
_atom_site_fract_x
_atom_site_fract_y
_atom_site_fract_z
Si Si1 0.340501 0.450830 0.644601
Si Si2 0.987846 0.039941 0.865636
Si Si3 0.414208 0.039804 0.227235
Si Si4 0.738165 0.452563 0.643821
Si Si5 0.248654 0.044749 0.069982
Si Si6 0.077540 0.461037 0.433829
Si Si7 0.813917 0.035402 0.217763
O O1 0.367641 0.250000 0.611805
O O2 0.398557 0.528877 0.413817
O O3 0.256109 0.458646 0.733965
O O4 0.318133 0.531980 0.836783
O O5 0.986527 0.250000 0.853249
O O6 0.055315 0.972755 0.630566
O O7 0.900235 0.977835 0.999737
O O8 0.000000 0.000000 0.000000
O O9 0.402785 0.250000 0.253087
O O10 0.346761 0.966493 0.260956
O O11 0.500000 0.000000 0.000000
O O12 0.757414 0.250000 0.629489
O O13 0.738200 0.537612 0.793016
O O14 0.797959 0.520217 0.407791
O O15 0.246429 0.250000 0.035078
O O16 0.161365 0.967556 0.216979
O O17 0.086485 0.250000 0.420965
O O18 0.000000 0.500000 0.500000
O O19 0.808482 0.250000 0.223878
#
# Coordination Sequence:
#
# PCOD9161010 Si02
#       7
#     4   4   4   4   4   4   4
#     4   9  19  34  54  77 101 132 169 205 249 304
#     4  10  20  32  46  69  98 131 172 218 262 303
#     4  10  20  37  60  84 108 134 165 206 253 307
#     4  10  20  34  54  80 106 138 176 213 256 307
#     4  10  20  35  52  75 107 140 175 217 260 306
#     4  10  21  34  50  73 103 139 180 222 265 309
#     4   9  18  32  49  70  99 132 172 217 257 300
#
# _framework density 22.270681
#
# number of rings (size 3 to 8) (size 9 to 14) (size 15 to 20)
#    0.000    2.286    0.000    2.571    0.000    3.429 
#    0.000    0.714    0.000    0.000    0.000    0.000 
#    0.000    0.000    0.000    0.000    0.000    0.000 
#
# Total GULP energy -156295.879102 kJ/mol
# GULP energy per Si atom -5581.995682 kJ/mol
# Density = 2.221999 g / cm^3
# Si number density = 22.270681 Si / 1000 Ang^3
#
#
#
# Elastic Constant Matrix: (Units=GPa)
#
#
# Indices 1 2 3 4 5 6 
#
# 1 30.0137 -7.9592 19.0439 0.0000 12.2705 0.0000
# 2 -7.9592 53.2844 8.8334 0.0000 1.1505 0.0000
# 3 19.0439 8.8334 156.5570 0.0000 8.2569 0.0000
# 4 0.0000 0.0000 0.0000 8.2384 0.0000 -1.5762
# 5 12.2705 1.1505 8.2569 0.0000 39.8070 0.0000
# 6 0.0000 0.0000 0.0000 -1.5762 0.0000 23.3597
#
#
#
# Elastic Compliance Matrix: (Units=1/GPa)
#
#
# Indices 1 2 3 4 5 6 
#
# 1 0.043746 0.007651 -0.005086 0.000000 -0.012651 0.000000
# 2 0.007651 0.020287 -0.001941 0.000000 -0.002542 0.000000
# 3 -0.005086 -0.001941 0.007108 0.000000 0.000149 0.000000
# 4 0.000000 0.000000 0.000000 0.122971 0.000000 0.008298
# 5 -0.012651 -0.002542 0.000149 0.000000 0.029063 0.000000
# 6 0.000000 0.000000 0.000000 0.008298 0.000000 0.043369
#
#
# Mechanical properties :
#
#
# Convention : Reuss Voigt Hill
#
# Bulk Modulus (GPa) = 13.81445 31.07679 22.44562
# Shear Modulus (GPa) = 17.27561 28.94348 23.10955
#
# Velocity S-wave (km/s) = 2.78818 3.60894 3.22478
# Velocity P-wave (km/s) = 4.07206 5.59914 4.89551
#
# Compressibility (1/GPa) = 0.07238799
#
# Stress axis : x y z
#
# Youngs Moduli (GPa) = 22.85920 49.29328 140.69169
#
# Poissons Ratio (x) = -0.37713 0.71553
# Poissons Ratio (y) = -0.17489 0.27311
# Poissons Ratio (z) = 0.11626 0.09569
#
# Static dielectric constant tensor:
#      x y z
#    x 1.792810 0.000000 0.031230 
#    y 0.000000 1.853130 0.000000 
#    z 0.031230 0.000000 1.945200 
# 
# From -- ./inp_files/28346.got.cif
#   From: 2010.05.17/outbox.cif.g08.bks.cpg/sg11_15_cif.got.tgz:28346.got - 2010.06.03 12:22:45.
