data_PCOD9161469
_publ_section_title
;
Structure prediction by ZEFSAII (Michael W. Deem and Ramdas Pophale) SiO2 
 PCOD9161469
Probable space group: P 21/M
;
_chemical_formula_sum "Si O2"
_cell_formula_units_Z 24
_cell_length_a 13.614746
_cell_length_b 14.097983
_cell_length_c 12.125266
_cell_angle_alpha 90.000000
_cell_angle_beta 31.410497
_cell_angle_gamma 90.000000
_cell_volume 1212.924800
_symmetry_space_group_name_H-M "P 21/M"
_symmetry_group_IT_number 11
_symmetry_cell_setting 'monoclinic'
loop_
_space_group_symop_operation_xyz
x,y,z
-x,1/2+y,-z
-x,-y,-z
x,1/2-y,z
loop_
_atom_site_type_symbol
_atom_site_label
_atom_site_fract_x
_atom_site_fract_y
_atom_site_fract_z
Si Si1 0.953161 0.638381 0.043728
Si Si2 0.207722 0.486239 0.348255
Si Si3 0.110766 0.356515 0.638945
Si Si4 0.682188 0.482204 0.250641
Si Si5 0.337560 0.853966 0.930705
Si Si6 0.508974 0.358393 0.969037
O O1 0.963606 0.750000 0.008565
O O2 0.872206 0.628278 0.246669
O O3 0.807182 0.576933 0.112258
O O4 0.160734 0.590173 0.847604
O O5 0.197838 0.432273 0.474012
O O6 0.324927 0.583094 0.248114
O O7 0.000000 0.500000 0.500000
O O8 0.320643 0.421020 0.151825
O O9 0.178533 0.250000 0.546602
O O10 0.886274 0.358800 0.834595
O O11 0.500000 0.500000 0.500000
O O12 0.615307 0.434898 0.201002
O O13 0.375515 0.750000 0.843502
O O14 0.432215 0.858264 0.958295
O O15 0.486909 0.250000 0.953733
#
# Coordination Sequence:
#
# PCOD9161469 Si02
#       6
#     4   4   4   4   4   4
#     4   9  20  37  56  84 117 147 187 234 276 326
#     4  11  21  34  57  88 112 144 183 233 280 327
#     4   9  17  33  58  85 111 144 186 230 275 322
#     4  10  20  33  55  88 114 145 183 233 280 328
#     4   9  18  35  58  86 114 140 183 235 276 325
#     4  10  22  37  56  86 117 145 185 232 276 330
#
# _framework density 19.786881999999999
#
# number of rings (size 3 to 8) (size 9 to 14) (size 15 to 20)
#    0.000    2.333    1.667    2.000    2.333    2.000 
#    0.000    0.000    0.000   15.000    0.000    0.000 
#    0.000    0.000    0.000    0.000    0.000    0.000 
#
# Total GULP energy -133955.984721 kJ/mol
# GULP energy per Si atom -5581.499363 kJ/mol
# Density = 1.974185 g / cm^3
# Si number density = 19.786882 Si / 1000 Ang^3
#
#
#
# Elastic Constant Matrix: (Units=GPa)
#
#
# Indices 1 2 3 4 5 6 
#
# 1 37.9908 19.2366 17.2767 0.0000 -8.4715 0.0000
# 2 19.2366 148.6634 53.8159 0.0000 -4.4938 0.0000
# 3 17.2767 53.8159 93.6972 0.0000 -14.8939 0.0000
# 4 0.0000 0.0000 0.0000 29.0169 0.0000 19.0386
# 5 -8.4715 -4.4938 -14.8939 0.0000 28.0542 0.0000
# 6 0.0000 0.0000 0.0000 19.0386 0.0000 17.7634
#
#
#
# Elastic Compliance Matrix: (Units=1/GPa)
#
#
# Indices 1 2 3 4 5 6 
#
# 1 0.030640 -0.002673 -0.002961 0.000000 0.007252 0.000000
# 2 -0.002673 0.008772 -0.004861 0.000000 -0.001983 0.000000
# 3 -0.002961 -0.004861 0.015011 0.000000 0.006297 0.000000
# 4 0.000000 0.000000 0.000000 0.116121 0.000000 -0.124457
# 5 0.007252 -0.001983 0.006297 0.000000 0.040860 0.000000
# 6 0.000000 0.000000 0.000000 -0.124457 0.000000 0.189686
#
#
# Mechanical properties :
#
#
# Convention : Reuss Voigt Hill
#
# Bulk Modulus (GPa) = 29.91107 51.22329 40.56718
# Shear Modulus (GPa) = 11.54132 27.63506 19.58819
#
# Velocity S-wave (km/s) = 2.41774 3.74121 3.14977
# Velocity P-wave (km/s) = 4.78993 6.67877 5.81160
#
# Compressibility (1/GPa) = 0.03343243
#
# Stress axis : x y z
#
# Youngs Moduli (GPa) = 32.63741 113.99744 66.61635
#
# Poissons Ratio (x) = 0.30477 0.19727
# Poissons Ratio (y) = 0.08726 0.32379
# Poissons Ratio (z) = 0.09665 0.55409
#
# Static dielectric constant tensor:
#      x y z
#    x 1.708690 0.000000 -0.024070 
#    y 0.000000 1.726810 0.000000 
#    z -0.024070 0.000000 1.716920 
# 
# From -- ./inp_files/39552.got.cif
#   From: 2010.05.17/outbox.cif.g08.bks.cpg/sg11_20_cif.got.tgz:39552.got - 2010.06.03 12:22:45.
