data_PCOD9161122
_publ_section_title
;
Structure prediction by ZEFSAII (Michael W. Deem and Ramdas Pophale) SiO2 
 PCOD9161122
Probable space group: P 21/M
;
_chemical_formula_sum "Si O2"
_cell_formula_units_Z 26
_cell_length_a 15.004831
_cell_length_b 19.956836
_cell_length_c 5.151206
_cell_angle_alpha 90.000000
_cell_angle_beta 133.469409
_cell_angle_gamma 90.000000
_cell_volume 1119.473573
_symmetry_space_group_name_H-M "P 21/M"
_symmetry_group_IT_number 11
_symmetry_cell_setting 'monoclinic'
loop_
_space_group_symop_operation_xyz
x,y,z
-x,1/2+y,-z
-x,-y,-z
x,1/2-y,z
loop_
_atom_site_type_symbol
_atom_site_label
_atom_site_fract_x
_atom_site_fract_y
_atom_site_fract_z
Si Si1 0.164477 0.465469 0.561879
Si Si2 0.255584 0.250000 0.787579
Si Si3 0.264109 0.673214 0.284941
Si Si4 0.427209 0.827804 0.131050
Si Si5 0.661678 0.632955 0.339021
Si Si6 0.122304 0.354164 0.847978
Si Si7 0.068029 0.599645 0.194213
O O1 0.288094 0.435076 0.685485
O O2 0.145519 0.430985 0.803635
O O3 0.148242 0.544292 0.505269
O O4 0.051824 0.435029 0.169453
O O5 0.354312 0.190136 0.909328
O O6 0.154340 0.308110 0.669867
O O7 0.231362 0.750000 0.156361
O O8 0.350384 0.648654 0.225133
O O9 0.144837 0.630918 0.116093
O O10 0.340021 0.672432 0.705234
O O11 0.467314 0.750000 0.254553
O O12 0.544827 0.871268 0.288220
O O13 0.771838 0.664804 0.734037
O O14 0.991006 0.348461 0.719935
#
# Coordination Sequence:
#
# PCOD9161122 Si02
#       7
#     4   2   4   4   4   4   4
#     4   9  21  39  62  88 117 165 200 252 315 365
#     4  10  20  32  56  90 120 150 194 260 314 346
#     4  10  24  41  62  91 121 169 207 252 311 372
#     4  10  22  40  63  87 124 164 208 252 317 372
#     4  10  20  36  58  91 118 152 205 259 304 367
#     4  10  21  34  60  89 119 156 198 251 315 364
#     4  10  21  41  60  85 125 159 209 250 304 380
#
# _framework density 23.225204000000002
#
# number of rings (size 3 to 8) (size 9 to 14) (size 15 to 20)
#    0.000    2.154    0.769    0.923    7.538    0.000 
#    5.538    1.538    0.000    0.000    0.000    0.000 
#    0.000    0.000    0.000    0.000    0.000    0.000 
#
# Total GULP energy -144833.580951 kJ/mol
# GULP energy per Si atom -5570.522344 kJ/mol
# Density = 2.317234 g / cm^3
# Si number density = 23.225204 Si / 1000 Ang^3
#
#
#
# Elastic Constant Matrix: (Units=GPa)
#
#
# Indices 1 2 3 4 5 6 
#
# 1 223.9297 34.1254 7.9577 0.0000 -0.8075 0.0000
# 2 34.1254 30.8030 -0.5714 0.0000 9.8319 0.0000
# 3 7.9577 -0.5714 37.3341 0.0000 -15.9204 0.0000
# 4 0.0000 0.0000 0.0000 1038.2923 0.0000 -520.9774
# 5 -0.8075 9.8319 -15.9204 0.0000 22.5038 0.0000
# 6 0.0000 0.0000 0.0000 -520.9774 0.0000 282.7308
#
#
#
# Elastic Compliance Matrix: (Units=1/GPa)
#
#
# Indices 1 2 3 4 5 6 
#
# 1 0.005586 -0.007316 0.000209 0.000000 0.003545 0.000000
# 2 -0.007316 0.049671 -0.010091 0.000000 -0.029103 0.000000
# 3 0.000209 -0.010091 0.040768 0.000000 0.033258 0.000000
# 4 0.000000 0.000000 0.000000 0.012770 0.000000 0.023531
# 5 0.003545 -0.029103 0.033258 0.000000 0.080807 0.000000
# 6 0.000000 0.000000 0.000000 0.023531 0.000000 0.046897
#
#
# Mechanical properties :
#
#
# Convention : Reuss Voigt Hill
#
# Bulk Modulus (GPa) = 16.22579 41.67669 28.95124
# Shear Modulus (GPa) = 17.15624 285.40906 151.28265
#
# Velocity S-wave (km/s) = 2.72083 11.09750 8.07952
# Velocity P-wave (km/s) = 4.10756 13.49776 9.97651
#
# Compressibility (1/GPa) = 0.06163028
#
# Stress axis : x y z
#
# Youngs Moduli (GPa) = 179.02083 20.13233 24.52882
#
# Poissons Ratio (x) = 0.14729 -0.00512
# Poissons Ratio (y) = 1.30970 0.24751
# Poissons Ratio (z) = -0.03740 0.20315
#
# Static dielectric constant tensor:
#      x y z
#    x 1.909720 0.000000 -0.068280 
#    y 0.000000 1.826110 0.000000 
#    z -0.068280 0.000000 2.002180 
# 
# From -- ./inp_files/4849.got.cif
#   From: 2010.05.17/outbox.cif.g08.bks.cpg/sg11_3_cif.got.tgz:4849.got - 2010.06.03 12:22:45.
