data_PCOD9161189
_publ_section_title
;
Structure prediction by ZEFSAII (Michael W. Deem and Ramdas Pophale) SiO2 
 PCOD9161189
Probable space group: P 21/M
;
_chemical_formula_sum "Si O2"
_cell_formula_units_Z 28
_cell_length_a 18.734921
_cell_length_b 7.705845
_cell_length_c 16.315644
_cell_angle_alpha 90.000000
_cell_angle_beta 148.734201
_cell_angle_gamma 90.000000
_cell_volume 1222.506634
_symmetry_space_group_name_H-M "P 21/M"
_symmetry_group_IT_number 11
_symmetry_cell_setting 'monoclinic'
loop_
_space_group_symop_operation_xyz
x,y,z
-x,1/2+y,-z
-x,-y,-z
x,1/2-y,z
loop_
_atom_site_type_symbol
_atom_site_label
_atom_site_fract_x
_atom_site_fract_y
_atom_site_fract_z
Si Si1 0.160391 0.457725 0.160817
Si Si2 0.938263 0.451223 0.352220
Si Si3 0.896306 0.050098 0.642831
Si Si4 0.839098 0.537509 0.015609
Si Si5 0.405723 0.952939 0.670832
Si Si6 0.328969 0.040120 0.989709
Si Si7 0.581178 0.957229 0.496057
O O1 0.171779 0.250000 0.174199
O O2 0.262293 0.521443 0.331257
O O3 0.213887 0.519695 0.124385
O O4 0.000000 0.500000 0.000000
O O5 0.962566 0.250000 0.360435
O O6 0.774537 0.484612 0.183453
O O7 0.000000 0.500000 0.500000
O O8 0.018886 0.549357 0.359071
O O9 0.874363 0.250000 0.645911
O O10 0.746953 0.967831 0.483150
O O11 0.004966 0.974179 0.814381
O O12 0.841549 0.750000 0.018483
O O13 0.748772 0.482422 0.003547
O O14 0.389280 0.750000 0.675709
O O15 0.464153 0.963994 0.635208
O O16 0.515514 0.023743 0.844139
O O17 0.331800 0.250000 0.991480
O O18 0.578835 0.750000 0.483230
O O19 0.500000 0.000000 0.500000
#
# Coordination Sequence:
#
# PCOD9161189 Si02
#       7
#     4   4   4   4   4   4   4
#     4  10  20  33  49  72 101 137 181 230 279 325
#     4  11  22  38  61  87 114 144 179 220 266 321
#     4   9  18  34  57  84 111 144 183 224 274 331
#     4   8  14  28  49  69  97 136 177 217 260 314
#     4  10  20  36  59  83 111 147 185 226 278 334
#     4   9  18  35  58  82 107 139 179 221 267 324
#     4  11  23  36  52  77 111 149 192 238 284 331
#
# _framework density 22.903760999999999
#
# number of rings (size 3 to 8) (size 9 to 14) (size 15 to 20)
#    0.000    2.286    0.000    4.286    0.000    5.714 
#    0.000    5.000    0.000    0.000    0.000    0.000 
#    0.000    0.000    0.000    0.000    0.000    0.000 
#
# Total GULP energy -156286.964931 kJ/mol
# GULP energy per Si atom -5581.677319 kJ/mol
# Density = 2.285163 g / cm^3
# Si number density = 22.903761 Si / 1000 Ang^3
#
#
#
# Elastic Constant Matrix: (Units=GPa)
#
#
# Indices 1 2 3 4 5 6 
#
# 1 18.9661 -8.9891 13.7482 0.0000 -3.3716 0.0000
# 2 -8.9891 58.0823 4.6507 0.0000 2.1564 0.0000
# 3 13.7482 4.6507 181.4299 0.0000 -8.0623 0.0000
# 4 0.0000 0.0000 0.0000 15.3416 0.0000 -1.5787
# 5 -3.3716 2.1564 -8.0623 0.0000 39.1933 0.0000
# 6 0.0000 0.0000 0.0000 -1.5787 0.0000 13.7414
#
#
#
# Elastic Compliance Matrix: (Units=1/GPa)
#
#
# Indices 1 2 3 4 5 6 
#
# 1 0.061453 0.009750 -0.004739 0.000000 0.003775 0.000000
# 2 0.009750 0.018842 -0.001242 0.000000 -0.000453 0.000000
# 3 -0.004739 -0.001242 0.005942 0.000000 0.000883 0.000000
# 4 0.000000 0.000000 0.000000 0.065962 0.000000 0.007578
# 5 0.003775 -0.000453 0.000883 0.000000 0.026046 0.000000
# 6 0.000000 0.000000 0.000000 0.007578 0.000000 0.073643
#
#
# Mechanical properties :
#
#
# Convention : Reuss Voigt Hill
#
# Bulk Modulus (GPa) = 10.66375 30.81086 20.73731
# Shear Modulus (GPa) = 18.14166 30.25982 24.20074
#
# Velocity S-wave (km/s) = 2.81745 3.63874 3.25411
# Velocity P-wave (km/s) = 3.90513 5.57991 4.81588
#
# Compressibility (1/GPa) = 0.09377562
#
# Stress axis : x y z
#
# Youngs Moduli (GPa) = 16.27258 53.07236 168.29518
#
# Poissons Ratio (x) = -0.51746 0.79753
# Poissons Ratio (y) = -0.15866 0.20902
# Poissons Ratio (z) = 0.07711 0.06591
#
# Static dielectric constant tensor:
#      x y z
#    x 1.892300 0.000000 0.040490 
#    y 0.000000 1.831730 0.000000 
#    z 0.040490 0.000000 1.947310 
# 
# From -- ./inp_files/61292.got.cif
#   From: 2010.05.17/outbox.cif.g08.bks.cpg/sg11_31_cif.got.tgz:61292.got - 2010.06.03 12:22:45.
