data_PCOD9161869
_publ_section_title
;
Structure prediction by ZEFSAII (Michael W. Deem and Ramdas Pophale) SiO2 
 PCOD9161869
Probable space group: P 21/M
;
_chemical_formula_sum "Si O2"
_cell_formula_units_Z 28
_cell_length_a 14.038166
_cell_length_b 12.863819
_cell_length_c 9.504772
_cell_angle_alpha 90.000000
_cell_angle_beta 62.463865
_cell_angle_gamma 90.000000
_cell_volume 1521.977490
_symmetry_space_group_name_H-M "P 21/M"
_symmetry_group_IT_number 11
_symmetry_cell_setting 'monoclinic'
loop_
_space_group_symop_operation_xyz
x,y,z
-x,1/2+y,-z
-x,-y,-z
x,1/2-y,z
loop_
_atom_site_type_symbol
_atom_site_label
_atom_site_fract_x
_atom_site_fract_y
_atom_site_fract_z
Si Si1 0.665044 0.013671 0.936685
Si Si2 0.057342 0.031307 0.605877
Si Si3 0.823298 0.126495 0.276364
Si Si4 0.871340 0.126488 0.923839
Si Si5 0.490277 0.868890 0.161025
Si Si6 0.606651 0.027265 0.511226
Si Si7 0.276258 0.371161 0.369656
O O1 0.764997 0.069631 0.939150
O O2 0.585198 0.096079 0.917095
O O3 0.704220 0.936037 0.786428
O O4 0.592424 0.945063 0.090100
O O5 0.154468 0.108949 0.502338
O O6 0.972256 0.081920 0.770004
O O7 0.111250 0.932089 0.645959
O O8 0.000000 0.000000 0.500000
O O9 0.816387 0.250000 0.306120
O O10 0.704762 0.075350 0.356298
O O11 0.877544 0.109441 0.087346
O O12 0.862293 0.250000 0.906031
O O13 0.522393 0.750000 0.126032
O O14 0.423299 0.890026 0.347356
O O15 0.500000 0.000000 0.500000
O O16 0.648962 0.925186 0.564143
O O17 0.298968 0.250000 0.335645
#
# Coordination Sequence:
#
# PCOD9161869 Si02
#       7
#     4   4   4   4   4   4   4
#     4  10  20  36  55  84 118 151 194 245 294 351
#     4  11  22  41  61  88 119 156 201 250 296 354
#     4  10  23  40  61  89 122 157 199 247 299 358
#     4  11  22  39  62  87 118 158 198 241 300 357
#     4  10  20  34  55  81 114 153 196 243 293 347
#     4  10  21  38  58  84 118 156 200 247 291 354
#     4  10  21  37  57  85 118 153 197 247 299 352
#
# _framework density 18.397117000000001
#
# number of rings (size 3 to 8) (size 9 to 14) (size 15 to 20)
#    0.000    1.714    1.429    3.000    0.000    2.286 
#    0.000    3.571    0.000    3.429    0.000    0.000 
#    0.000    0.000    0.000    0.000    0.000    0.000 
#
# Total GULP energy -156397.018280 kJ/mol
# GULP energy per Si atom -5585.607796 kJ/mol
# Density = 1.835524 g / cm^3
# Si number density = 18.397117 Si / 1000 Ang^3
#
#
#
# Elastic Constant Matrix: (Units=GPa)
#
#
# Indices 1 2 3 4 5 6 
#
# 1 107.9784 38.3497 23.7323 0.0000 1.5016 0.0000
# 2 38.3497 100.0566 27.8888 0.0000 10.6998 0.0000
# 3 23.7323 27.8888 92.5546 0.0000 -10.4786 0.0000
# 4 0.0000 0.0000 0.0000 19.0839 0.0000 0.1959
# 5 1.5016 10.6998 -10.4786 0.0000 29.3395 0.0000
# 6 0.0000 0.0000 0.0000 0.1959 0.0000 11.3979
#
#
#
# Elastic Compliance Matrix: (Units=1/GPa)
#
#
# Indices 1 2 3 4 5 6 
#
# 1 0.010957 -0.003763 -0.001650 0.000000 0.000222 0.000000
# 2 -0.003763 0.013081 -0.003642 0.000000 -0.005878 0.000000
# 3 -0.001650 -0.003642 0.013011 0.000000 0.006060 0.000000
# 4 0.000000 0.000000 0.000000 0.052410 0.000000 -0.000901
# 5 0.000222 -0.005878 0.006060 0.000000 0.038380 0.000000
# 6 0.000000 0.000000 0.000000 -0.000901 0.000000 0.087751
#
#
# Mechanical properties :
#
#
# Convention : Reuss Voigt Hill
#
# Bulk Modulus (GPa) = 52.80611 53.39235 53.09923
# Shear Modulus (GPa) = 20.83208 26.00550 23.41879
#
# Velocity S-wave (km/s) = 3.36870 3.76382 3.57173
# Velocity P-wave (km/s) = 6.62545 6.92630 6.77754
#
# Compressibility (1/GPa) = 0.01893720
#
# Stress axis : x y z
#
# Youngs Moduli (GPa) = 91.26247 76.44919 76.85752
#
# Poissons Ratio (x) = 0.28772 0.12685
# Poissons Ratio (y) = 0.34347 0.27992
# Poissons Ratio (z) = 0.15062 0.27843
#
# Static dielectric constant tensor:
#      x y z
#    x 1.607780 0.000000 -0.006020 
#    y 0.000000 1.598750 0.000000 
#    z -0.006020 0.000000 1.642580 
# 
# From -- ./inp_files/21410.got.cif
#   From: 2010.05.17/outbox.cif.g08.bks.cpg/sg11_11_cif.got.tgz:21410.got - 2010.06.03 12:22:45.
