data_PCOD9161296
_publ_section_title
;
Structure prediction by ZEFSAII (Michael W. Deem and Ramdas Pophale) SiO2 
 PCOD9161296
Probable space group: P 21/M
;
_chemical_formula_sum "Si O2"
_cell_formula_units_Z 28
_cell_length_a 24.278609
_cell_length_b 7.617054
_cell_length_c 25.586310
_cell_angle_alpha 90.000000
_cell_angle_beta 16.849646
_cell_angle_gamma 90.000000
_cell_volume 1371.540282
_symmetry_space_group_name_H-M "P 21/M"
_symmetry_group_IT_number 11
_symmetry_cell_setting 'monoclinic'
loop_
_space_group_symop_operation_xyz
x,y,z
-x,1/2+y,-z
-x,-y,-z
x,1/2-y,z
loop_
_atom_site_type_symbol
_atom_site_label
_atom_site_fract_x
_atom_site_fract_y
_atom_site_fract_z
Si Si1 0.120795 0.537133 0.727498
Si Si2 0.715243 0.537051 0.737475
Si Si3 0.914452 0.044113 0.659114
Si Si4 0.334058 0.534429 0.024361
Si Si5 0.718382 0.456512 0.045307
Si Si6 0.465316 0.455071 0.679614
Si Si7 0.926661 0.960608 0.009111
O O1 0.122240 0.750000 0.725053
O O2 0.326107 0.471389 0.522042
O O3 0.941085 0.481921 0.855764
O O4 0.067125 0.479174 0.835184
O O5 0.718920 0.750000 0.735993
O O6 0.749653 0.473976 0.765184
O O7 0.895890 0.471018 0.539684
O O8 0.524307 0.482323 0.882084
O O9 0.951456 0.250000 0.633371
O O10 0.841218 0.973166 0.780588
O O11 0.330407 0.750000 0.026955
O O12 0.327194 0.474237 0.970958
O O13 0.676987 0.250000 0.083304
O O14 0.597204 0.534144 0.203114
O O15 0.477020 0.250000 0.654708
O O16 0.285178 0.530521 0.811251
O O17 0.916996 0.750000 0.012792
O O18 0.000000 0.000000 0.000000
#
# Coordination Sequence:
#
# PCOD9161296 Si02
#       7
#     4   4   4   4   4   4   4
#     4   9  19  37  56  72  99 140 174 201 244 298
#     4   9  17  30  47  66  90 120 153 190 234 286
#     4   9  17  30  47  66  90 120 153 190 234 286
#     4   9  18  31  47  68  94 124 154 189 242 297
#     4  10  20  33  51  77 103 127 166 216 254 290
#     4   9  19  37  56  72  99 140 174 201 244 298
#     4   9  18  32  51  77 106 133 164 203 245 291
#
# _framework density 20.415002999999999
#
# number of rings (size 3 to 8) (size 9 to 14) (size 15 to 20)
#    0.000    2.857    0.000    1.714    0.000    4.571 
#    0.000    5.714    0.000    3.429    0.000    0.000 
#    0.000    0.000    0.000    0.000    0.000    0.000 
#
# Total GULP energy -156169.520941 kJ/mol
# GULP energy per Si atom -5577.482891 kJ/mol
# Density = 2.036854 g / cm^3
# Si number density = 20.415003 Si / 1000 Ang^3
#
#
#
# Elastic Constant Matrix: (Units=GPa)
#
#
# Indices 1 2 3 4 5 6 
#
# 1 87.8622 -19.9775 31.4623 0.0000 6.9875 0.0000
# 2 -19.9775 37.8648 -8.5735 0.0000 -0.2325 0.0000
# 3 31.4623 -8.5735 113.9280 0.0000 11.0803 0.0000
# 4 0.0000 0.0000 0.0000 10.5191 0.0000 -3.1143
# 5 6.9875 -0.2325 11.0803 0.0000 9.2912 0.0000
# 6 0.0000 0.0000 0.0000 -3.1143 0.0000 22.3902
#
#
#
# Elastic Compliance Matrix: (Units=1/GPa)
#
#
# Indices 1 2 3 4 5 6 
#
# 1 0.014560 0.007010 -0.002766 0.000000 -0.007476 0.000000
# 2 0.007010 0.030274 0.000884 0.000000 -0.005568 0.000000
# 3 -0.002766 0.000884 0.010637 0.000000 -0.010583 0.000000
# 4 0.000000 0.000000 0.000000 0.099148 0.000000 0.013791
# 5 -0.007476 -0.005568 -0.010583 0.000000 0.125732 0.000000
# 6 0.000000 0.000000 0.000000 0.013791 0.000000 0.046581
#
#
# Mechanical properties :
#
#
# Convention : Reuss Voigt Hill
#
# Bulk Modulus (GPa) = 15.21454 27.27528 21.24491
# Shear Modulus (GPa) = 14.76728 24.22302 19.49515
#
# Velocity S-wave (km/s) = 2.69244 3.44834 3.09357
# Velocity P-wave (km/s) = 4.13938 5.40779 4.81553
#
# Compressibility (1/GPa) = 0.06572661
#
# Stress axis : x y z
#
# Youngs Moduli (GPa) = 68.67917 33.03151 94.00942
#
# Poissons Ratio (x) = -0.23155 0.26007
# Poissons Ratio (y) = -0.48143 -0.08310
# Poissons Ratio (z) = 0.19000 -0.02920
#
# Static dielectric constant tensor:
#      x y z
#    x 1.697240 0.000000 0.010360 
#    y 0.000000 1.756920 0.000000 
#    z 0.010360 0.000000 1.738070 
# 
# From -- ./inp_files/69781.got.cif
#   From: 2010.05.17/outbox.cif.g08.bks.cpg/sg11_35_cif.got.tgz:69781.got - 2010.06.03 12:22:45.
