data_PCOD9161947
_publ_section_title
;
Structure prediction by ZEFSAII (Michael W. Deem and Ramdas Pophale) SiO2 
 PCOD9161947
Probable space group: P 21/M
;
_chemical_formula_sum "Si O2"
_cell_formula_units_Z 28
_cell_length_a 15.513684
_cell_length_b 8.545585
_cell_length_c 12.679615
_cell_angle_alpha 90.000000
_cell_angle_beta 105.613826
_cell_angle_gamma 90.000000
_cell_volume 1618.948850
_symmetry_space_group_name_H-M "P 21/M"
_symmetry_group_IT_number 11
_symmetry_cell_setting 'monoclinic'
loop_
_space_group_symop_operation_xyz
x,y,z
-x,1/2+y,-z
-x,-y,-z
x,1/2-y,z
loop_
_atom_site_type_symbol
_atom_site_label
_atom_site_fract_x
_atom_site_fract_y
_atom_site_fract_z
Si Si1 0.898892 0.438895 0.084199
Si Si2 0.589133 0.435655 0.472860
Si Si3 0.614555 0.935575 0.874532
Si Si4 0.716877 0.561469 0.689740
Si Si5 0.578968 0.934459 0.235745
Si Si6 0.900851 0.938850 0.847565
Si Si7 0.287010 0.936136 0.888969
O O1 0.897531 0.250000 0.079772
O O2 0.815740 0.488574 0.128500
O O3 0.998787 0.488421 0.151254
O O4 0.885041 0.500418 0.960888
O O5 0.500000 0.500000 0.500000
O O6 0.580955 0.250000 0.457882
O O7 0.671079 0.479565 0.575911
O O8 0.597156 0.512850 0.361098
O O9 0.625541 0.750000 0.895869
O O10 0.660354 0.973928 0.777334
O O11 0.510419 0.978387 0.833427
O O12 0.662303 0.025796 0.985027
O O13 0.713350 0.750000 0.673773
O O14 0.818918 0.512577 0.746615
O O15 0.562046 0.750000 0.226442
O O16 0.660665 0.979131 0.187010
O O17 0.898995 0.750000 0.851065
O O18 0.288945 0.750000 0.871091
#
# Coordination Sequence:
#
# PCOD9161947 Si02
#       7
#     4   4   4   4   4   4   4
#     4   9  18  31  52  80 111 144 178 219 268 319
#     4  12  24  39  59  81 108 141 182 227 272 320
#     4  11  21  35  55  81 113 148 183 221 269 323
#     4  10  20  34  56  82 113 146 180 222 269 318
#     4  12  25  40  57  77 106 146 189 228 272 323
#     4   9  17  32  53  80 111 143 178 219 267 319
#     4  11  22  36  54  80 115 149 184 224 271 325
#
# _framework density 17.295173999999999
#
# number of rings (size 3 to 8) (size 9 to 14) (size 15 to 20)
#    0.000    1.429    2.857    3.857    0.000    1.714 
#    0.000    0.000    0.000    0.857    0.000    0.000 
#    0.000    0.000    0.000    0.000    0.000    0.000 
#
# Total GULP energy -156420.621711 kJ/mol
# GULP energy per Si atom -5586.450775 kJ/mol
# Density = 1.725581 g / cm^3
# Si number density = 17.295174 Si / 1000 Ang^3
#
#
#
# Elastic Constant Matrix: (Units=GPa)
#
#
# Indices 1 2 3 4 5 6 
#
# 1 115.3367 -4.2389 33.5723 0.0000 11.1014 0.0000
# 2 -4.2389 16.0337 -4.4624 0.0000 -2.4574 0.0000
# 3 33.5723 -4.4624 43.2358 0.0000 2.6269 0.0000
# 4 0.0000 0.0000 0.0000 26.2731 0.0000 -3.2012
# 5 11.1014 -2.4574 2.6269 0.0000 29.5007 0.0000
# 6 0.0000 0.0000 0.0000 -3.2012 0.0000 17.4623
#
#
#
# Elastic Compliance Matrix: (Units=1/GPa)
#
#
# Indices 1 2 3 4 5 6 
#
# 1 0.011565 0.000074 -0.008756 0.000000 -0.003566 0.000000
# 2 0.000074 0.064893 0.006348 0.000000 0.004812 0.000000
# 3 -0.008756 0.006348 0.030516 0.000000 0.001106 0.000000
# 4 0.000000 0.000000 0.000000 0.038931 0.000000 0.007137
# 5 -0.003566 0.004812 0.001106 0.000000 0.035542 0.000000
# 6 0.000000 0.000000 0.000000 0.007137 0.000000 0.058575
#
#
# Mechanical properties :
#
#
# Convention : Reuss Voigt Hill
#
# Bulk Modulus (GPa) = 9.77468 24.92757 17.35113
# Shear Modulus (GPa) = 17.93461 24.62955 21.28208
#
# Velocity S-wave (km/s) = 3.22370 3.77778 3.51168
# Velocity P-wave (km/s) = 4.41817 5.78560 5.14749
#
# Compressibility (1/GPa) = 0.10230514
#
# Stress axis : x y z
#
# Youngs Moduli (GPa) = 86.46878 15.41008 32.77007
#
# Poissons Ratio (x) = -0.00114 0.28693
# Poissons Ratio (y) = -0.00641 -0.20801
# Poissons Ratio (z) = 0.75710 -0.09782
#
# Static dielectric constant tensor:
#      x y z
#    x 1.606830 0.000000 0.017160 
#    y 0.000000 1.577200 0.000000 
#    z 0.017160 0.000000 1.551340 
# 
# From -- ./inp_files/37690.got.cif
#   From: 2010.05.17/outbox.cif.g08.bks.cpg/sg11_19_cif.got.tgz:37690.got - 2010.06.03 12:22:45.
