data_PCOD9161465
_publ_section_title
;
Structure prediction by ZEFSAII (Michael W. Deem and Ramdas Pophale) SiO2 
 PCOD9161465
Probable space group: P 21/M
;
_chemical_formula_sum "Si O2"
_cell_formula_units_Z 32
_cell_length_a 9.901806
_cell_length_b 14.357695
_cell_length_c 10.046225
_cell_angle_alpha 90.000000
_cell_angle_beta 90.197824
_cell_angle_gamma 90.000000
_cell_volume 1428.234267
_symmetry_space_group_name_H-M "P 21/M"
_symmetry_group_IT_number 11
_symmetry_cell_setting 'monoclinic'
loop_
_space_group_symop_operation_xyz
x,y,z
-x,1/2+y,-z
-x,-y,-z
x,1/2-y,z
loop_
_atom_site_type_symbol
_atom_site_label
_atom_site_fract_x
_atom_site_fract_y
_atom_site_fract_z
Si Si1 0.860723 0.636389 0.972409
Si Si2 0.277810 0.643008 0.909336
Si Si3 0.451429 0.411619 0.671213
Si Si4 0.380033 0.101053 0.389374
Si Si5 0.722699 0.149295 0.784482
Si Si6 0.887795 0.528370 0.694847
Si Si7 0.844282 0.970642 0.231728
Si Si8 0.429750 0.353075 0.094669
O O1 0.874787 0.750000 0.967675
O O2 0.903913 0.588209 0.833531
O O3 0.701680 0.607929 0.974159
O O4 0.908674 0.591758 0.111589
O O5 0.280280 0.750000 0.856960
O O6 0.192561 0.572163 0.825125
O O7 0.427685 0.599195 0.915051
O O8 0.234988 0.648075 0.061519
O O9 0.527899 0.509230 0.639484
O O10 0.435954 0.361326 0.528179
O O11 0.560335 0.363307 0.767846
O O12 0.298229 0.427346 0.720554
O O13 0.218105 0.083754 0.398452
O O14 0.396894 0.153720 0.250809
O O15 0.758362 0.250000 0.726806
O O16 0.799201 0.063853 0.720440
O O17 0.037417 0.492269 0.661783
O O18 0.449967 0.250000 0.038241
#
# Coordination Sequence:
#
# PCOD9161465 Si02
#       8
#     4   4   4   4   4   4   4   4
#     4  10  21  35  55  83 118 153 193 235 286 350
#     4  10  20  33  55  85 117 149 188 235 289 343
#     4  10  21  35  59  83 108 144 194 239 288 332
#     4   9  19  38  56  79 108 148 191 237 282 332
#     4  10  21  38  59  85 116 152 190 235 290 350
#     4  10  22  38  57  83 118 157 194 227 289 345
#     4  12  22  35  57  87 118 154 187 237 287 347
#     4   9  17  32  54  80 106 143 188 240 287 329
#
# _framework density 22.405289
#
# number of rings (size 3 to 8) (size 9 to 14) (size 15 to 20)
#    0.000    2.000    2.500    1.125    0.000    4.500 
#    0.000    0.000    0.000    0.000    0.000    5.250 
#    0.000    0.000    0.000    0.000    0.000    0.000 
#
# Total GULP energy -178292.017731 kJ/mol
# GULP energy per Si atom -5571.625554 kJ/mol
# Density = 2.235429 g / cm^3
# Si number density = 22.405289 Si / 1000 Ang^3
#
#
#
# Elastic Constant Matrix: (Units=GPa)
#
#
# Indices 1 2 3 4 5 6 
#
# 1 107.2665 -3.2011 -7.5618 0.0000 5.2098 0.0000
# 2 -3.2011 80.0030 3.9064 0.0000 -2.0699 0.0000
# 3 -7.5618 3.9064 52.2704 0.0000 9.8961 0.0000
# 4 0.0000 0.0000 0.0000 1.6862 0.0000 -7.2828
# 5 5.2098 -2.0699 9.8961 0.0000 15.6001 0.0000
# 6 0.0000 0.0000 0.0000 -7.2828 0.0000 8.7320
#
#
#
# Elastic Compliance Matrix: (Units=1/GPa)
#
#
# Indices 1 2 3 4 5 6 
#
# 1 0.009715 0.000157 0.002277 0.000000 -0.004668 0.000000
# 2 0.000157 0.012639 -0.001397 0.000000 0.002511 0.000000
# 3 0.002277 -0.001397 0.022439 0.000000 -0.015181 0.000000
# 4 0.000000 0.000000 0.000000 -0.227899 0.000000 -0.190077
# 5 -0.004668 0.002511 -0.015181 0.000000 0.075624 0.000000
# 6 0.000000 0.000000 0.000000 -0.190077 0.000000 -0.044010
#
#
# Mechanical properties :
#
#
# Convention : Reuss Voigt Hill
#
# Bulk Modulus (GPa) = 21.33720 25.09189 23.21454
# Shear Modulus (GPa) = -36.24668 21.63009 -7.30829
#
# Velocity S-wave (km/s) = -4.02652 3.11046 -1.80802
# Velocity P-wave (km/s) = 3.47465 4.91155 2.45461
#
# Compressibility (1/GPa) = 0.04686651
#
# Stress axis : x y z
#
# Youngs Moduli (GPa) = 102.93858 79.12022 44.56479
#
# Poissons Ratio (x) = -0.01240 -0.10149
# Poissons Ratio (y) = -0.01613 0.06227
# Poissons Ratio (z) = -0.23444 0.11055
#
# Static dielectric constant tensor:
#      x y z
#    x 1.907340 0.000000 -0.010960 
#    y 0.000000 1.835980 0.000000 
#    z -0.010960 0.000000 1.821350 
# 
# From -- ./inp_files/31893.got.cif
#   From: 2010.05.17/outbox.cif.g08.bks.cpg/sg11_16_cif.got.tgz:31893.got - 2010.06.03 12:22:45.
