data_PCOD9161530
_publ_section_title
;
Structure prediction by ZEFSAII (Michael W. Deem and Ramdas Pophale) SiO2 
 PCOD9161530
Probable space group: P 21/M
;
_chemical_formula_sum "Si O2"
_cell_formula_units_Z 24
_cell_length_a 9.706735
_cell_length_b 19.479591
_cell_length_c 12.074316
_cell_angle_alpha 90.000000
_cell_angle_beta 142.634236
_cell_angle_gamma 90.000000
_cell_volume 1385.585818
_symmetry_space_group_name_H-M "P 21/M"
_symmetry_group_IT_number 11
_symmetry_cell_setting 'monoclinic'
loop_
_space_group_symop_operation_xyz
x,y,z
-x,1/2+y,-z
-x,-y,-z
x,1/2-y,z
loop_
_atom_site_type_symbol
_atom_site_label
_atom_site_fract_x
_atom_site_fract_y
_atom_site_fract_z
Si Si1 0.330415 0.535160 0.479224
Si Si2 0.958676 0.327816 0.167012
Si Si3 0.488269 0.172747 0.739102
Si Si4 0.392677 0.028491 0.759866
Si Si5 0.530964 0.828415 0.538516
Si Si6 0.143659 0.970219 0.807870
O O1 0.500000 0.500000 0.500000
O O2 0.382772 0.508191 0.635507
O O3 0.375405 0.615784 0.497040
O O4 0.074664 0.511847 0.290665
O O5 0.966386 0.250000 0.218887
O O6 0.918574 0.389387 0.227496
O O7 0.202064 0.339617 0.265297
O O8 0.748321 0.330501 0.948071
O O9 0.403848 0.250000 0.709797
O O10 0.361513 0.109857 0.717223
O O11 0.483114 0.162977 0.603798
O O12 0.215309 0.996882 0.733024
O O13 0.639825 0.019782 0.974156
O O14 0.471508 0.750000 0.527031
#
# Coordination Sequence:
#
# PCOD9161530 Si02
#       6
#     4   4   4   4   4   4
#     4  12  21  34  55  82 104 138 173 217 266 311
#     4   9  17  31  52  75 101 137 178 215 254 308
#     4   9  17  31  52  75 101 137 178 215 254 308
#     4  10  21  36  54  79 109 140 176 218 262 312
#     4  10  20  34  50  76 109 136 171 215 263 312
#     4  10  21  36  54  79 109 140 176 218 262 312
#
# _framework density 17.321193999999998
#
# number of rings (size 3 to 8) (size 9 to 14) (size 15 to 20)
#    0.000    2.000    3.333    0.500    0.000    2.000 
#    0.000    1.667    0.000    2.000    0.000    0.000 
#    0.000    0.000    0.000    0.000    0.000    0.000 
#
# Total GULP energy -133833.120149 kJ/mol
# GULP energy per Si atom -5576.380006 kJ/mol
# Density = 1.728177 g / cm^3
# Si number density = 17.321194 Si / 1000 Ang^3
#
#
#
# Elastic Constant Matrix: (Units=GPa)
#
#
# Indices 1 2 3 4 5 6 
#
# 1 55.3038 27.0273 5.4991 0.0000 12.9440 0.0000
# 2 27.0273 115.0540 7.6281 0.0000 11.1564 0.0000
# 3 5.4991 7.6281 34.2076 0.0000 5.5229 0.0000
# 4 0.0000 0.0000 0.0000 22.2399 0.0000 0.6021
# 5 12.9440 11.1564 5.5229 0.0000 23.6385 0.0000
# 6 0.0000 0.0000 0.0000 0.6021 0.0000 27.1424
#
#
#
# Elastic Compliance Matrix: (Units=1/GPa)
#
#
# Indices 1 2 3 4 5 6 
#
# 1 0.022645 -0.004267 -0.001052 0.000000 -0.010141 0.000000
# 2 -0.004267 0.009976 -0.001201 0.000000 -0.002092 0.000000
# 3 -0.001052 -0.001201 0.030642 0.000000 -0.006016 0.000000
# 4 0.000000 0.000000 0.000000 0.044991 0.000000 -0.000998
# 5 -0.010141 -0.002092 -0.006016 0.000000 0.050249 0.000000
# 6 0.000000 0.000000 0.000000 -0.000998 0.000000 0.036865
#
#
# Mechanical properties :
#
#
# Convention : Reuss Voigt Hill
#
# Bulk Modulus (GPa) = 19.91071 31.65272 25.78171
# Shear Modulus (GPa) = 22.20759 25.56491 23.88625
#
# Velocity S-wave (km/s) = 3.58453 3.84595 3.71754
# Velocity P-wave (km/s) = 5.35274 6.16729 5.77439
#
# Compressibility (1/GPa) = 0.05022424
#
# Stress axis : x y z
#
# Youngs Moduli (GPa) = 44.15985 100.23804 32.63545
#
# Poissons Ratio (x) = 0.42767 0.03432
# Poissons Ratio (y) = 0.18841 0.03920
# Poissons Ratio (z) = 0.04644 0.12040
#
# Static dielectric constant tensor:
#      x y z
#    x 1.535470 0.000000 0.010090 
#    y 0.000000 1.620900 0.000000 
#    z 0.010090 0.000000 1.616280 
# 
# From -- ./inp_files/19259.got.cif
#   From: 2010.05.17/outbox.cif.g08.bks.cpg/sg11_10_cif.got.tgz:19259.got - 2010.06.03 12:22:45.
