data_PCOD9161056
_publ_section_title
;
Structure prediction by ZEFSAII (Michael W. Deem and Ramdas Pophale) SiO2 
 PCOD9161056
Probable space group: P 21/M
;
_chemical_formula_sum "Si O2"
_cell_formula_units_Z 24
_cell_length_a 21.993402
_cell_length_b 8.408894
_cell_length_c 10.450740
_cell_angle_alpha 90.000000
_cell_angle_beta 135.668882
_cell_angle_gamma 90.000000
_cell_volume 1350.621452
_symmetry_space_group_name_H-M "P 21/M"
_symmetry_group_IT_number 11
_symmetry_cell_setting 'monoclinic'
loop_
_space_group_symop_operation_xyz
x,y,z
-x,1/2+y,-z
-x,-y,-z
x,1/2-y,z
loop_
_atom_site_type_symbol
_atom_site_label
_atom_site_fract_x
_atom_site_fract_y
_atom_site_fract_z
Si Si1 0.266673 0.443998 0.506731
Si Si2 0.067722 0.441812 0.206587
Si Si3 0.401118 0.441949 0.494762
Si Si4 0.932326 0.558282 0.502808
Si Si5 0.267007 0.057937 0.798762
Si Si6 0.399664 0.559916 0.211121
O O1 0.267393 0.250000 0.506400
O O2 0.167247 0.492978 0.328780
O O3 0.335547 0.499955 0.505474
O O4 0.288129 0.491906 0.684677
O O5 0.067302 0.250000 0.205677
O O6 0.046175 0.494120 0.319498
O O7 0.000000 0.500000 0.000000
O O8 0.400752 0.250000 0.497487
O O9 0.374186 0.495115 0.312387
O O10 0.500973 0.495671 0.665363
O O11 0.932882 0.750000 0.503733
O O12 0.832802 0.507972 0.324899
O O13 0.000000 0.500000 0.500000
O O14 0.269062 0.250000 0.805222
O O15 0.334127 0.994232 0.003003
O O16 0.400698 0.750000 0.218436
#
# Coordination Sequence:
#
# PCOD9161056 Si02
#       6
#     4   4   4   4   4   4
#     4   8  16  33  54  71  91 125 166 200 232 282
#     4   9  18  33  51  72  97 124 158 199 240 283
#     4   9  18  34  53  71  95 129 165 198 237 287
#     4   9  19  34  51  72  98 128 162 199 239 286
#     4   9  18  34  53  71  95 129 164 197 239 289
#     4  10  20  32  48  74 103 127 157 200 243 283
#
# _framework density 17.769597000000001
#
# number of rings (size 3 to 8) (size 9 to 14) (size 15 to 20)
#    0.000    3.000    0.000    2.500    0.000    4.000 
#    0.000    9.167    0.000    0.000    0.000    0.000 
#    0.000    0.000    0.000    0.000    0.000    0.000 
#
# Total GULP energy -133782.352011 kJ/mol
# GULP energy per Si atom -5574.264667 kJ/mol
# Density = 1.772915 g / cm^3
# Si number density = 17.769597 Si / 1000 Ang^3
#
#
#
# Elastic Constant Matrix: (Units=GPa)
#
#
# Indices 1 2 3 4 5 6 
#
# 1 191.3891 20.0515 103.0867 0.0000 -19.6547 0.0000
# 2 20.0515 4.5622 16.0172 0.0000 -1.1526 0.0000
# 3 103.0867 16.0172 186.2428 0.0000 -6.9254 0.0000
# 4 0.0000 0.0000 0.0000 31.5383 0.0000 0.1898
# 5 -19.6547 -1.1526 -6.9254 0.0000 9.7328 0.0000
# 6 0.0000 0.0000 0.0000 0.1898 0.0000 22.0749
#
#
#
# Elastic Compliance Matrix: (Units=1/GPa)
#
#
# Indices 1 2 3 4 5 6 
#
# 1 0.013415 -0.043651 -0.002934 0.000000 0.019834 0.000000
# 2 -0.043651 0.459297 -0.017045 0.000000 -0.045885 0.000000
# 3 -0.002934 -0.017045 0.008386 0.000000 -0.001977 0.000000
# 4 0.000000 0.000000 0.000000 0.031709 0.000000 -0.000273
# 5 0.019834 -0.045885 -0.001977 0.000000 0.135958 0.000000
# 6 0.000000 0.000000 0.000000 -0.000273 0.000000 0.045303
#
#
# Mechanical properties :
#
#
# Convention : Reuss Voigt Hill
#
# Bulk Modulus (GPa) = 2.82615 73.38942 38.10778
# Shear Modulus (GPa) = 5.32326 28.87178 17.09752
#
# Velocity S-wave (km/s) = 1.73269 4.03524 3.10527
# Velocity P-wave (km/s) = 2.36577 7.94362 5.86080
#
# Compressibility (1/GPa) = 0.35383799
#
# Stress axis : x y z
#
# Youngs Moduli (GPa) = 74.54182 2.17724 119.25050
#
# Poissons Ratio (x) = 0.09504 0.34987
# Poissons Ratio (y) = 3.25380 2.03268
# Poissons Ratio (z) = 0.21870 0.03711
#
# Static dielectric constant tensor:
#      x y z
#    x 1.606200 0.000000 0.004920 
#    y 0.000000 1.633260 0.000000 
#    z 0.004920 0.000000 1.579250 
# 
# From -- ./inp_files/20376.got.cif
#   From: 2010.05.17/outbox.cif.g08.bks.cpg/sg11_11_cif.got.tgz:20376.got - 2010.06.03 12:22:45.
