data_PCOD9161094
_publ_section_title
;
Structure prediction by ZEFSAII (Michael W. Deem and Ramdas Pophale) SiO2 
 PCOD9161094
Probable space group: P 21/M
;
_chemical_formula_sum "Si O2"
_cell_formula_units_Z 28
_cell_length_a 13.977886
_cell_length_b 9.109956
_cell_length_c 14.099554
_cell_angle_alpha 90.000000
_cell_angle_beta 119.599568
_cell_angle_gamma 90.000000
_cell_volume 1561.104813
_symmetry_space_group_name_H-M "P 21/M"
_symmetry_group_IT_number 11
_symmetry_cell_setting 'monoclinic'
loop_
_space_group_symop_operation_xyz
x,y,z
-x,1/2+y,-z
-x,-y,-z
x,1/2-y,z
loop_
_atom_site_type_symbol
_atom_site_label
_atom_site_fract_x
_atom_site_fract_y
_atom_site_fract_z
Si Si1 0.671757 0.077064 0.611785
Si Si2 0.124536 0.075923 0.352282
Si Si3 0.880278 0.574100 0.435573
Si Si4 0.515126 0.924585 0.153141
Si Si5 0.540351 0.575557 0.378133
Si Si6 0.866728 0.073830 0.236428
Si Si7 0.327811 0.423651 0.951264
O O1 0.684198 0.250000 0.605948
O O2 0.587923 0.051261 0.657558
O O3 0.791274 0.004483 0.675227
O O4 0.609938 0.010889 0.489796
O O5 0.130224 0.250000 0.340266
O O6 0.164793 0.048069 0.480821
O O7 0.995531 0.034149 0.283033
O O8 0.886160 0.750000 0.424885
O O9 0.830030 0.498864 0.318533
O O10 0.000000 0.500000 0.500000
O O11 0.491005 0.750000 0.144185
O O12 0.559329 0.966051 0.278477
O O13 0.602503 0.947980 0.111840
O O14 0.405688 0.012256 0.071211
O O15 0.563482 0.750000 0.400305
O O16 0.859943 0.250000 0.239721
O O17 0.785975 0.009574 0.117864
O O18 0.310118 0.250000 0.953282
#
# Coordination Sequence:
#
# PCOD9161094 Si02
#       7
#     4   4   4   4   4   4   4
#     4  10  20  32  51  79 103 130 171 213 249 293
#     4   9  19  33  48  68 100 138 168 201 251 302
#     4   9  17  29  44  65  95 131 168 202 243 293
#     4   9  19  36  55  73  99 136 168 203 254 306
#     4   9  19  36  54  73 102 136 168 206 256 304
#     4  10  20  33  49  71 101 137 170 205 250 303
#     4  10  20  33  52  79 104 130 167 210 251 299
#
# _framework density 17.936017
#
# number of rings (size 3 to 8) (size 9 to 14) (size 15 to 20)
#    0.000    2.571    0.000    2.571    2.000    5.143 
#    0.000    0.000    0.000    0.857    0.000    0.000 
#    0.000    0.000    0.000    0.000    0.000    0.000 
#
# Total GULP energy -156105.472121 kJ/mol
# GULP energy per Si atom -5575.195433 kJ/mol
# Density = 1.789519 g / cm^3
# Si number density = 17.936017 Si / 1000 Ang^3
#
#
#
# Elastic Constant Matrix: (Units=GPa)
#
#
# Indices 1 2 3 4 5 6 
#
# 1 60.3708 28.7230 -1.1283 0.0000 10.5947 0.0000
# 2 28.7230 31.6262 5.8259 0.0000 7.9606 0.0000
# 3 -1.1283 5.8259 37.7618 0.0000 7.6929 0.0000
# 4 0.0000 0.0000 0.0000 26.3158 0.0000 4.6656
# 5 10.5947 7.9606 7.6929 0.0000 26.7841 0.0000
# 6 0.0000 0.0000 0.0000 4.6656 0.0000 25.9423
#
#
#
# Elastic Compliance Matrix: (Units=1/GPa)
#
#
# Indices 1 2 3 4 5 6 
#
# 1 0.030936 -0.027813 0.006399 0.000000 -0.005808 0.000000
# 2 -0.027813 0.059598 -0.009197 0.000000 -0.004070 0.000000
# 3 0.006399 -0.009197 0.029794 0.000000 -0.008355 0.000000
# 4 0.000000 0.000000 0.000000 0.039252 0.000000 -0.007059
# 5 -0.005808 -0.004070 -0.008355 0.000000 0.043243 0.000000
# 6 0.000000 0.000000 0.000000 -0.007059 0.000000 0.039817
#
#
# Mechanical properties :
#
#
# Convention : Reuss Voigt Hill
#
# Bulk Modulus (GPa) = 16.91876 21.84447 19.38162
# Shear Modulus (GPa) = 15.45300 22.23098 18.84199
#
# Velocity S-wave (km/s) = 2.93842 3.52442 3.24468
# Velocity P-wave (km/s) = 4.57884 5.36354 4.98665
#
# Compressibility (1/GPa) = 0.05910597
#
# Stress axis : x y z
#
# Youngs Moduli (GPa) = 32.32492 16.77920 33.56391
#
# Poissons Ratio (x) = 0.46668 -0.21476
# Poissons Ratio (y) = 0.89904 0.30867
# Poissons Ratio (z) = -0.20683 0.15431
#
# Static dielectric constant tensor:
#      x y z
#    x 1.625640 0.000000 -0.015880 
#    y 0.000000 1.594080 0.000000 
#    z -0.015880 0.000000 1.588690 
# 
# From -- ./inp_files/51441.got.cif
#   From: 2010.05.17/outbox.cif.g08.bks.cpg/sg11_26_cif.got.tgz:51441.got - 2010.06.03 12:22:45.
