data_PCOD9161265
_publ_section_title
;
Structure prediction by ZEFSAII (Michael W. Deem and Ramdas Pophale) SiO2 
 PCOD9161265
Probable space group: P 21/M
;
_chemical_formula_sum "Si O2"
_cell_formula_units_Z 32
_cell_length_a 11.458631
_cell_length_b 9.162207
_cell_length_c 15.226247
_cell_angle_alpha 90.000000
_cell_angle_beta 113.352199
_cell_angle_gamma 90.000000
_cell_volume 1467.604042
_symmetry_space_group_name_H-M "P 21/M"
_symmetry_group_IT_number 11
_symmetry_cell_setting 'monoclinic'
loop_
_space_group_symop_operation_xyz
x,y,z
-x,1/2+y,-z
-x,-y,-z
x,1/2-y,z
loop_
_atom_site_type_symbol
_atom_site_label
_atom_site_fract_x
_atom_site_fract_y
_atom_site_fract_z
Si Si1 0.394776 0.914821 0.526340
Si Si2 0.004647 0.582197 0.639127
Si Si3 0.512879 0.916024 0.142677
Si Si4 0.191955 0.913234 0.313387
Si Si5 0.690797 0.415942 0.080929
Si Si6 0.327627 0.076877 0.200286
Si Si7 0.797357 0.918393 0.416959
Si Si8 0.129212 0.575200 0.011642
O O1 0.438602 0.750000 0.564137
O O2 0.275415 0.897653 0.425614
O O3 0.500000 0.000000 0.500000
O O4 0.331809 0.006417 0.586709
O O5 0.027738 0.750000 0.670995
O O6 0.937699 0.492434 0.697189
O O7 0.900103 0.583393 0.528407
O O8 0.130310 0.507059 0.637578
O O9 0.518525 0.750000 0.174738
O O10 0.642437 0.973512 0.139207
O O11 0.461429 0.019028 0.204046
O O12 0.411576 0.919845 0.030705
O O13 0.171002 0.750000 0.270240
O O14 0.279299 0.011157 0.276835
O O15 0.689390 0.250000 0.113949
O O16 0.824294 0.448565 0.074349
O O17 0.321956 0.250000 0.198097
O O18 0.230232 0.004941 0.102987
O O19 0.775072 0.750000 0.386044
O O20 0.129053 0.750000 0.025370
O O21 0.000000 0.500000 0.000000
#
# Coordination Sequence:
#
# PCOD9161265 Si02
#       8
#     4   4   4   4   4   4   4   4
#     4  10  20  33  51  74 101 132 165 204 249 297
#     4   9  16  27  45  70  97 125 161 203 245 288
#     4   9  16  27  45  69  96 125 160 203 245 286
#     4  10  20  34  51  73 101 132 166 204 247 294
#     4   8  15  27  44  68  96 125 159 200 242 285
#     4  11  21  33  51  74 101 133 167 204 247 294
#     4   9  16  27  45  69  97 127 161 202 244 287
#     4  10  20  34  52  75 103 133 166 204 247 295
#
# _framework density 21.804245999999999
#
# number of rings (size 3 to 8) (size 9 to 14) (size 15 to 20)
#    0.000    2.500    0.000    4.125    0.000    8.000 
#    0.000    0.000    0.000    1.500    0.000    3.500 
#    0.000    0.000    0.000    0.000    0.000    0.000 
#
# Total GULP energy -178673.298939 kJ/mol
# GULP energy per Si atom -5583.540592 kJ/mol
# Density = 2.175462 g / cm^3
# Si number density = 21.804246 Si / 1000 Ang^3
#
#
#
# Elastic Constant Matrix: (Units=GPa)
#
#
# Indices 1 2 3 4 5 6 
#
# 1 134.0985 93.1559 31.2715 0.0000 -42.1680 0.0000
# 2 93.1559 203.8320 32.5254 0.0000 -43.0465 0.0000
# 3 31.2715 32.5254 34.8510 0.0000 -8.8779 0.0000
# 4 0.0000 0.0000 0.0000 19.9150 0.0000 -16.5548
# 5 -42.1680 -43.0465 -8.8779 0.0000 40.5507 0.0000
# 6 0.0000 0.0000 0.0000 -16.5548 0.0000 36.3325
#
#
#
# Elastic Compliance Matrix: (Units=1/GPa)
#
#
# Indices 1 2 3 4 5 6 
#
# 1 0.014738 -0.003419 -0.007471 0.000000 0.010061 0.000000
# 2 -0.003419 0.007839 -0.003214 0.000000 0.004063 0.000000
# 3 -0.007471 -0.003214 0.037648 0.000000 -0.002938 0.000000
# 4 0.000000 0.000000 0.000000 0.080829 0.000000 0.036830
# 5 0.010061 0.004063 -0.002938 0.000000 0.038793 0.000000
# 6 0.000000 0.000000 0.000000 0.036830 0.000000 0.044305
#
#
# Mechanical properties :
#
#
# Convention : Reuss Voigt Hill
#
# Bulk Modulus (GPa) = 31.23144 76.29857 53.76500
# Shear Modulus (GPa) = 19.00916 33.74821 26.37868
#
# Velocity S-wave (km/s) = 2.95585 3.93845 3.48199
# Velocity P-wave (km/s) = 5.09941 7.46662 6.39353
#
# Compressibility (1/GPa) = 0.03201902
#
# Stress axis : x y z
#
# Youngs Moduli (GPa) = 67.85119 127.56209 26.56201
#
# Poissons Ratio (x) = 0.43611 0.19844
# Poissons Ratio (y) = 0.23197 0.08536
# Poissons Ratio (z) = 0.50690 0.40992
#
# Static dielectric constant tensor:
#      x y z
#    x 1.789830 0.000000 0.010970 
#    y 0.000000 1.751100 0.000000 
#    z 0.010970 0.000000 1.827670 
# 
# From -- ./inp_files/42440.got.cif
#   From: 2010.05.17/outbox.cif.g08.bks.cpg/sg11_22_cif.got.tgz:42440.got - 2010.06.03 12:22:45.
