data_PCOD9161578
_publ_section_title
;
Structure prediction by ZEFSAII (Michael W. Deem and Ramdas Pophale) SiO2 
 PCOD9161578
Probable space group: P 21/M
;
_chemical_formula_sum "Si O2"
_cell_formula_units_Z 32
_cell_length_a 18.199408
_cell_length_b 7.783004
_cell_length_c 25.163983
_cell_angle_alpha 90.000000
_cell_angle_beta 153.089142
_cell_angle_gamma 90.000000
_cell_volume 1613.251218
_symmetry_space_group_name_H-M "P 21/M"
_symmetry_group_IT_number 11
_symmetry_cell_setting 'monoclinic'
loop_
_space_group_symop_operation_xyz
x,y,z
-x,1/2+y,-z
-x,-y,-z
x,1/2-y,z
loop_
_atom_site_type_symbol
_atom_site_label
_atom_site_fract_x
_atom_site_fract_y
_atom_site_fract_z
Si Si1 0.542989 0.453060 0.967111
Si Si2 0.839096 0.546117 0.862548
Si Si3 0.918711 0.542975 0.195725
Si Si4 0.971572 0.545705 0.113702
Si Si5 0.657650 0.960469 0.845225
Si Si6 0.045764 0.949832 0.388538
Si Si7 0.775548 0.051507 0.294546
Si Si8 0.294438 0.538718 0.635080
O O1 0.525940 0.250000 0.949414
O O2 0.411391 0.541122 0.844349
O O3 0.500000 0.500000 0.000000
O O4 0.727122 0.505147 0.074342
O O5 0.825981 0.750000 0.850500
O O6 0.695600 0.484678 0.808875
O O7 0.877123 0.481945 0.828110
O O8 0.000000 0.500000 0.000000
O O9 0.935717 0.750000 0.208144
O O10 0.986182 0.478066 0.182882
O O11 0.003210 0.473494 0.303675
O O12 0.949141 0.750000 0.103329
O O13 0.806976 0.479676 0.978686
O O14 0.660327 0.750000 0.847513
O O15 0.481545 0.014726 0.751310
O O16 0.086740 0.750000 0.406363
O O17 0.190531 0.022460 0.517812
O O18 0.886003 0.958513 0.322489
O O19 0.826997 0.250000 0.327348
O O20 0.784141 0.982305 0.359939
O O21 0.291677 0.750000 0.634342
#
# Coordination Sequence:
#
# PCOD9161578 Si02
#       8
#     4   4   4   4   4   4   4   4
#     4  12  23  35  52  74 101 132 167 207 255 306
#     4   9  16  27  47  74 101 129 160 201 252 306
#     4  10  20  34  52  74 102 135 170 208 253 302
#     4   9  17  30  49  73 101 133 164 200 251 309
#     4   8  14  27  47  70  96 125 161 201 246 300
#     4  10  20  34  52  72  97 132 175 217 252 298
#     4  11  21  34  53  74 100 133 169 212 262 307
#     4   9  18  32  51  74  98 130 172 214 255 302
#
# _framework density 19.835719999999998
#
# number of rings (size 3 to 8) (size 9 to 14) (size 15 to 20)
#    0.000    2.250    1.250    3.750    0.000    2.500 
#    0.000    0.625    0.000    6.750    0.000    0.000 
#    0.000    0.000    0.000    0.000    0.000    0.500 
#
# Total GULP energy -178530.827167 kJ/mol
# GULP energy per Si atom -5579.088349 kJ/mol
# Density = 1.979057 g / cm^3
# Si number density = 19.835720 Si / 1000 Ang^3
#
#
#
# Elastic Constant Matrix: (Units=GPa)
#
#
# Indices 1 2 3 4 5 6 
#
# 1 145.8884 4.7660 32.6462 0.0000 -30.0152 0.0000
# 2 4.7660 30.2355 5.3009 0.0000 -7.0782 0.0000
# 3 32.6462 5.3009 60.1610 0.0000 -15.2899 0.0000
# 4 0.0000 0.0000 0.0000 6.0810 0.0000 4.0197
# 5 -30.0152 -7.0782 -15.2899 0.0000 15.4394 0.0000
# 6 0.0000 0.0000 0.0000 4.0197 0.0000 17.9373
#
#
#
# Elastic Compliance Matrix: (Units=1/GPa)
#
#
# Indices 1 2 3 4 5 6 
#
# 1 0.011846 0.003908 -0.000620 0.000000 0.024207 0.000000
# 2 0.003908 0.038429 0.001205 0.000000 0.026409 0.000000
# 3 -0.000620 0.001205 0.022299 0.000000 0.021429 0.000000
# 4 0.000000 0.000000 0.000000 0.193040 0.000000 -0.043259
# 5 0.024207 0.026409 0.021429 0.000000 0.145158 0.000000
# 6 0.000000 0.000000 0.000000 -0.043259 0.000000 0.065444
#
#
# Mechanical properties :
#
#
# Convention : Reuss Voigt Hill
#
# Bulk Modulus (GPa) = 12.26098 35.74569 24.00333
# Shear Modulus (GPa) = 10.11293 20.79634 15.45463
#
# Velocity S-wave (km/s) = 2.26040 3.24146 2.79432
# Velocity P-wave (km/s) = 3.60655 5.66298 4.74745
#
# Compressibility (1/GPa) = 0.08155955
#
# Stress axis : x y z
#
# Youngs Moduli (GPa) = 84.41629 26.02216 44.84543
#
# Poissons Ratio (x) = -0.10170 0.02782
# Poissons Ratio (y) = -0.32993 -0.05404
# Poissons Ratio (z) = 0.05237 -0.03136
#
# Static dielectric constant tensor:
#      x y z
#    x 1.724140 0.000000 -0.028650 
#    y 0.000000 1.736020 0.000000 
#    z -0.028650 0.000000 1.689680 
# 
# From -- ./inp_files/69470.got.cif
#   From: 2010.05.17/outbox.cif.g08.bks.cpg/sg11_35_cif.got.tgz:69470.got - 2010.06.03 12:22:45.
