data_PCOD9161704
_publ_section_title
;
Structure prediction by ZEFSAII (Michael W. Deem and Ramdas Pophale) SiO2 
 PCOD9161704
Probable space group: P 21/M
;
_chemical_formula_sum "Si O2"
_cell_formula_units_Z 32
_cell_length_a 12.996918
_cell_length_b 9.631959
_cell_length_c 12.237538
_cell_angle_alpha 90.000000
_cell_angle_beta 84.423949
_cell_angle_gamma 90.000000
_cell_volume 1524.716649
_symmetry_space_group_name_H-M "P 21/M"
_symmetry_group_IT_number 11
_symmetry_cell_setting 'monoclinic'
loop_
_space_group_symop_operation_xyz
x,y,z
-x,1/2+y,-z
-x,-y,-z
x,1/2-y,z
loop_
_atom_site_type_symbol
_atom_site_label
_atom_site_fract_x
_atom_site_fract_y
_atom_site_fract_z
Si Si1 0.845495 0.913209 0.990204
Si Si2 0.625956 0.091770 0.639203
Si Si3 0.924356 0.417808 0.426166
Si Si4 0.607416 0.899519 0.242598
Si Si5 0.699487 0.595177 0.809698
Si Si6 0.282762 0.089110 0.541381
Si Si7 0.532186 0.399687 0.092074
Si Si8 0.057844 0.586849 0.834122
O O1 0.840803 0.750000 0.017715
O O2 0.749256 0.945599 0.920512
O O3 0.945757 0.935436 0.901752
O O4 0.863911 0.998359 0.099023
O O5 0.654250 0.250000 0.606275
O O6 0.510126 0.099766 0.699424
O O7 0.705973 0.024658 0.718624
O O8 0.628830 0.982346 0.540395
O O9 0.927301 0.250000 0.441821
O O10 0.813673 0.487213 0.460839
O O11 0.946252 0.445705 0.294599
O O12 0.000000 0.500000 0.500000
O O13 0.622529 0.750000 0.184362
O O14 0.682281 0.909641 0.336920
O O15 0.614389 0.026786 0.160497
O O16 0.742626 0.750000 0.776405
O O17 0.576596 0.613545 0.833673
O O18 0.263902 0.250000 0.510899
O O19 0.566251 0.250000 0.048729
O O20 0.500000 0.500000 0.000000
O O21 0.083276 0.750000 0.841140
#
# Coordination Sequence:
#
# PCOD9161704 Si02
#       8
#     4   4   4   4   4   4   4   4
#     4   9  18  35  60  85 109 144 186 234 287 344
#     4  10  20  35  57  87 118 148 190 243 289 343
#     4  11  25  43  61  87 120 156 199 245 296 354
#     4   9  20  38  58  82 114 150 192 239 289 346
#     4   9  19  34  54  81 111 146 189 232 283 345
#     4  11  23  39  60  84 113 156 196 235 291 349
#     4  10  20  34  53  79 112 150 187 231 286 344
#     4   9  20  38  58  82 113 145 183 236 292 344
#
# _framework density 20.987504999999999
#
# number of rings (size 3 to 8) (size 9 to 14) (size 15 to 20)
#    0.000    2.250    0.000    1.875    1.750    4.500 
#    0.000    3.750    0.000    0.000    0.000    0.000 
#    0.000    0.000    0.000    0.000    0.000    0.000 
#
# Total GULP energy -178523.778647 kJ/mol
# GULP energy per Si atom -5578.868083 kJ/mol
# Density = 2.093974 g / cm^3
# Si number density = 20.987505 Si / 1000 Ang^3
#
#
#
# Elastic Constant Matrix: (Units=GPa)
#
#
# Indices 1 2 3 4 5 6 
#
# 1 65.2912 26.4777 14.1069 0.0000 18.3613 0.0000
# 2 26.4777 139.4355 49.9277 0.0000 12.9191 0.0000
# 3 14.1069 49.9277 71.8032 0.0000 11.7850 0.0000
# 4 0.0000 0.0000 0.0000 38.9863 0.0000 6.9504
# 5 18.3613 12.9191 11.7850 0.0000 34.6390 0.0000
# 6 0.0000 0.0000 0.0000 6.9504 0.0000 14.9994
#
#
#
# Elastic Compliance Matrix: (Units=1/GPa)
#
#
# Indices 1 2 3 4 5 6 
#
# 1 0.018987 -0.002619 -0.000442 0.000000 -0.008937 0.000000
# 2 -0.002619 0.009973 -0.006395 0.000000 -0.000156 0.000000
# 3 -0.000442 -0.006395 0.019097 0.000000 -0.003878 0.000000
# 4 0.000000 0.000000 0.000000 0.027960 0.000000 -0.012956
# 5 -0.008937 -0.000156 -0.003878 0.000000 0.034984 0.000000
# 6 0.000000 0.000000 0.000000 -0.012956 0.000000 0.072673
#
#
# Mechanical properties :
#
#
# Convention : Reuss Voigt Hill
#
# Bulk Modulus (GPa) = 34.31121 50.83938 42.57529
# Shear Modulus (GPa) = 23.55148 30.12612 26.83880
#
# Velocity S-wave (km/s) = 3.35351 3.79282 3.57991
# Velocity P-wave (km/s) = 5.60166 6.59218 6.11700
#
# Compressibility (1/GPa) = 0.02914499
#
# Stress axis : x y z
#
# Youngs Moduli (GPa) = 52.66751 100.26775 52.36477
#
# Poissons Ratio (x) = 0.26261 0.02316
# Poissons Ratio (y) = 0.13794 0.33486
# Poissons Ratio (z) = 0.02330 0.64118
#
# Static dielectric constant tensor:
#      x y z
#    x 1.780020 0.000000 -0.053760 
#    y 0.000000 1.771090 0.000000 
#    z -0.053760 0.000000 1.793070 
# 
# From -- ./inp_files/38247.got.cif
#   From: 2010.05.17/outbox.cif.g08.bks.cpg/sg11_20_cif.got.tgz:38247.got - 2010.06.03 12:22:45.
