data_PCOD9161912
_publ_section_title
;
Structure prediction by ZEFSAII (Michael W. Deem and Ramdas Pophale) SiO2 
 PCOD9161912
Probable space group: P 21/M
;
_chemical_formula_sum "Si O2"
_cell_formula_units_Z 28
_cell_length_a 16.248542
_cell_length_b 8.275595
_cell_length_c 20.756941
_cell_angle_alpha 90.000000
_cell_angle_beta 149.710129
_cell_angle_gamma 90.000000
_cell_volume 1407.766131
_symmetry_space_group_name_H-M "P 21/M"
_symmetry_group_IT_number 11
_symmetry_cell_setting 'monoclinic'
loop_
_space_group_symop_operation_xyz
x,y,z
-x,1/2+y,-z
-x,-y,-z
x,1/2-y,z
loop_
_atom_site_type_symbol
_atom_site_label
_atom_site_fract_x
_atom_site_fract_y
_atom_site_fract_z
Si Si1 0.607629 0.445064 0.133166
Si Si2 0.441850 0.443850 0.155234
Si Si3 0.458152 0.430330 0.541046
Si Si4 0.222238 0.433698 0.201740
Si Si5 0.027415 0.945307 0.592028
Si Si6 0.876060 0.440055 0.000068
Si Si7 0.695632 0.946757 0.436318
O O1 0.610107 0.250000 0.134511
O O2 0.525285 0.496780 0.144949
O O3 0.796558 0.501001 0.262510
O O4 0.500000 0.500000 0.000000
O O5 0.430975 0.250000 0.148436
O O6 0.261359 0.516476 0.041500
O O7 0.556148 0.496526 0.292246
O O8 0.500000 0.500000 0.500000
O O9 0.398029 0.250000 0.489849
O O10 0.634388 0.440074 0.693705
O O11 0.341313 0.507300 0.516158
O O12 0.281355 0.250000 0.252069
O O13 0.161515 0.451351 0.087649
O O14 0.067594 0.465287 0.143427
O O15 0.028850 0.750000 0.593285
O O16 0.871559 0.998228 0.528478
O O17 0.000000 0.000000 0.500000
O O18 0.861845 0.250000 0.973767
O O19 0.689257 0.750000 0.433259
#
# Coordination Sequence:
#
# PCOD9161912 Si02
#       7
#     4   4   4   4   4   4   4
#     4  10  23  41  60  87 123 160 197 244 301 362
#     4  11  21  35  59  88 118 149 194 247 294 353
#     4  11  23  39  58  82 116 156 200 247 302 359
#     4  10  20  35  56  81 111 147 188 236 287 340
#     4  10  20  38  63  92 122 155 200 250 299 361
#     4  10  20  34  55  84 113 146 188 233 286 345
#     4  10  21  37  61  88 115 151 200 247 295 361
#
# _framework density 19.889666999999999
#
# number of rings (size 3 to 8) (size 9 to 14) (size 15 to 20)
#    0.000    1.714    2.857    1.714    0.000    4.000 
#    2.571    0.000    0.000    0.000    0.000    0.000 
#    0.000    0.000    0.000    0.000    0.000    0.000 
#
# Total GULP energy -156181.984632 kJ/mol
# GULP energy per Si atom -5577.928023 kJ/mol
# Density = 1.984440 g / cm^3
# Si number density = 19.889667 Si / 1000 Ang^3
#
#
#
# Elastic Constant Matrix: (Units=GPa)
#
#
# Indices 1 2 3 4 5 6 
#
# 1 176.2489 18.7244 52.6945 0.0000 20.0926 0.0000
# 2 18.7244 24.0539 4.3275 0.0000 6.4476 0.0000
# 3 52.6945 4.3275 68.7698 0.0000 16.7909 0.0000
# 4 0.0000 0.0000 0.0000 26.9005 0.0000 -2.2692
# 5 20.0926 6.4476 16.7909 0.0000 41.5931 0.0000
# 6 0.0000 0.0000 0.0000 -2.2692 0.0000 28.0282
#
#
#
# Elastic Compliance Matrix: (Units=1/GPa)
#
#
# Indices 1 2 3 4 5 6 
#
# 1 0.007968 -0.004977 -0.005592 0.000000 -0.000820 0.000000
# 2 -0.004977 0.046574 0.002283 0.000000 -0.005738 0.000000
# 3 -0.005592 0.002283 0.020089 0.000000 -0.005763 0.000000
# 4 0.000000 0.000000 0.000000 0.037430 0.000000 0.003030
# 5 -0.000820 -0.005738 -0.005763 0.000000 0.027654 0.000000
# 6 0.000000 0.000000 0.000000 0.003030 0.000000 0.035924
#
#
# Mechanical properties :
#
#
# Convention : Reuss Voigt Hill
#
# Bulk Modulus (GPa) = 17.22314 46.72948 31.97631
# Shear Modulus (GPa) = 23.63355 32.19275 27.91315
#
# Velocity S-wave (km/s) = 3.45081 4.02751 3.75026
# Velocity P-wave (km/s) = 4.95536 6.72109 5.90461
#
# Compressibility (1/GPa) = 0.05806141
#
# Stress axis : x y z
#
# Youngs Moduli (GPa) = 125.50420 21.47101 49.77759
#
# Poissons Ratio (x) = 0.10685 0.27835
# Poissons Ratio (y) = 0.62458 -0.11366
# Poissons Ratio (z) = 0.70181 -0.04903
#
# Static dielectric constant tensor:
#      x y z
#    x 1.737790 0.000000 0.010960 
#    y 0.000000 1.713020 0.000000 
#    z 0.010960 0.000000 1.723090 
# 
# From -- ./inp_files/60068.got.cif
#   From: 2010.05.17/outbox.cif.g08.bks.cpg/sg11_31_cif.got.tgz:60068.got - 2010.06.03 12:22:45.
