data_PCOD9161073
_publ_section_title
;
Structure prediction by ZEFSAII (Michael W. Deem and Ramdas Pophale) SiO2 
 PCOD9161073
Probable space group: P 21/M
;
_chemical_formula_sum "Si O2"
_cell_formula_units_Z 28
_cell_length_a 14.350554
_cell_length_b 7.969974
_cell_length_c 16.676184
_cell_angle_alpha 90.000000
_cell_angle_beta 131.125162
_cell_angle_gamma 90.000000
_cell_volume 1436.731419
_symmetry_space_group_name_H-M "P 21/M"
_symmetry_group_IT_number 11
_symmetry_cell_setting 'monoclinic'
loop_
_space_group_symop_operation_xyz
x,y,z
-x,1/2+y,-z
-x,-y,-z
x,1/2-y,z
loop_
_atom_site_type_symbol
_atom_site_label
_atom_site_fract_x
_atom_site_fract_y
_atom_site_fract_z
Si Si1 0.498580 0.548491 0.369511
Si Si2 0.302680 0.046710 0.389589
Si Si3 0.547346 0.451670 0.835126
Si Si4 0.666712 0.551280 0.173307
Si Si5 0.231957 0.450272 0.938784
Si Si6 0.972252 0.548390 0.733957
Si Si7 0.075359 0.549129 0.621069
O O1 0.509186 0.750000 0.371133
O O2 0.616216 0.487861 0.487916
O O3 0.377814 0.507142 0.353615
O O4 0.487028 0.483564 0.272555
O O5 0.301979 0.250000 0.390613
O O6 0.161770 0.986081 0.314550
O O7 0.533276 0.250000 0.825368
O O8 0.453267 0.519087 0.849857
O O9 0.686093 0.490855 0.940779
O O10 0.647417 0.750000 0.151586
O O11 0.703768 0.480784 0.107003
O O12 0.786822 0.524853 0.296933
O O13 0.235618 0.250000 0.937753
O O14 0.089086 0.502482 0.854916
O O15 0.965423 0.750000 0.727072
O O16 0.006427 0.489758 0.663246
O O17 0.085547 0.750000 0.630402
O O18 0.000000 0.500000 0.500000
#
# Coordination Sequence:
#
# PCOD9161073 Si02
#       7
#     4   4   4   4   4   4   4
#     4   9  19  34  54  80 105 132 169 214 261 311
#     4   9  18  35  57  78 102 133 170 213 262 312
#     4  10  20  34  55  77 104 142 178 211 255 314
#     4   9  19  34  52  74 104 142 176 212 256 304
#     4  10  20  34  52  78 109 137 173 220 259 299
#     4   9  19  35  56  75  99 140 178 208 255 317
#     4  10  20  32  49  75 107 139 173 214 253 305
#
# _framework density 19.488682000000001
#
# number of rings (size 3 to 8) (size 9 to 14) (size 15 to 20)
#    0.000    2.571    0.000    1.286    2.000    2.857 
#    0.000    0.714    0.000    0.000    0.000    0.000 
#    0.000    0.000    0.000    0.000    0.000    0.000 
#
# Total GULP energy -156221.360508 kJ/mol
# GULP energy per Si atom -5579.334304 kJ/mol
# Density = 1.944432 g / cm^3
# Si number density = 19.488682 Si / 1000 Ang^3
#
#
#
# Elastic Constant Matrix: (Units=GPa)
#
#
# Indices 1 2 3 4 5 6 
#
# 1 80.8222 5.9764 51.4631 0.0000 27.2580 0.0000
# 2 5.9764 12.9338 -6.1845 0.0000 -0.0413 0.0000
# 3 51.4631 -6.1845 89.5057 0.0000 10.9600 0.0000
# 4 0.0000 0.0000 0.0000 22.4562 0.0000 2.3748
# 5 27.2580 -0.0413 10.9600 0.0000 26.3051 0.0000
# 6 0.0000 0.0000 0.0000 2.3748 0.0000 19.2041
#
#
#
# Elastic Compliance Matrix: (Units=1/GPa)
#
#
# Indices 1 2 3 4 5 6 
#
# 1 0.036696 -0.026249 -0.019233 0.000000 -0.030053 0.000000
# 2 -0.026249 0.098866 0.019572 0.000000 0.019200 0.000000
# 3 -0.019233 0.019572 0.022275 0.000000 0.010679 0.000000
# 4 0.000000 0.000000 0.000000 0.045121 0.000000 -0.005580
# 5 -0.030053 0.019200 0.010679 0.000000 0.064738 0.000000
# 6 0.000000 0.000000 0.000000 -0.005580 0.000000 0.052762
#
#
# Mechanical properties :
#
#
# Convention : Reuss Voigt Hill
#
# Bulk Modulus (GPa) = 9.43224 31.75243 20.59233
# Shear Modulus (GPa) = 12.26644 22.39351 17.32997
#
# Velocity S-wave (km/s) = 2.51153 3.39344 2.98524
# Velocity P-wave (km/s) = 3.64153 5.62868 4.74040
#
# Compressibility (1/GPa) = 0.10601933
#
# Stress axis : x y z
#
# Youngs Moduli (GPa) = 27.25110 10.11470 44.89251
#
# Poissons Ratio (x) = 0.26550 0.86340
# Poissons Ratio (y) = 0.71531 -0.87866
# Poissons Ratio (z) = 0.52411 -0.19797
#
# Static dielectric constant tensor:
#      x y z
#    x 1.682010 0.000000 0.000390 
#    y 0.000000 1.701110 0.000000 
#    z 0.000390 0.000000 1.673470 
# 
# From -- ./inp_files/37644.got.cif
#   From: 2010.05.17/outbox.cif.g08.bks.cpg/sg11_19_cif.got.tgz:37644.got - 2010.06.03 12:22:45.
