data_PCOD9161297
_publ_section_title
;
Structure prediction by ZEFSAII (Michael W. Deem and Ramdas Pophale) SiO2 
 PCOD9161297
Probable space group: P 21/M
;
_chemical_formula_sum "Si O2"
_cell_formula_units_Z 28
_cell_length_a 19.253585
_cell_length_b 8.994572
_cell_length_c 23.806934
_cell_angle_alpha 90.000000
_cell_angle_beta 156.412395
_cell_angle_gamma 90.000000
_cell_volume 1649.754222
_symmetry_space_group_name_H-M "P 21/M"
_symmetry_group_IT_number 11
_symmetry_cell_setting 'monoclinic'
loop_
_space_group_symop_operation_xyz
x,y,z
-x,1/2+y,-z
-x,-y,-z
x,1/2-y,z
loop_
_atom_site_type_symbol
_atom_site_label
_atom_site_fract_x
_atom_site_fract_y
_atom_site_fract_z
Si Si1 0.343845 0.571393 0.848276
Si Si2 0.251127 0.070829 0.475984
Si Si3 0.427266 0.072233 0.082368
Si Si4 0.501355 0.071479 0.561825
Si Si5 0.429593 0.928602 0.205735
Si Si6 0.113953 0.428216 0.764870
Si Si7 0.816234 0.429120 0.877078
O O1 0.343379 0.750000 0.854174
O O2 0.174007 0.501645 0.750527
O O3 0.500000 0.500000 0.000000
O O4 0.400054 0.536144 0.826144
O O5 0.226683 0.250000 0.458615
O O6 0.339462 0.030253 0.481894
O O7 0.394488 0.033972 0.629817
O O8 0.071548 0.989305 0.354045
O O9 0.422591 0.250000 0.085696
O O10 0.260183 0.031576 0.920087
O O11 0.424052 0.996950 0.140202
O O12 0.499216 0.250000 0.555237
O O13 0.674788 0.030733 0.724808
O O14 0.500000 0.000000 0.500000
O O15 0.423987 0.750000 0.197523
O O16 0.269041 0.975113 0.126664
O O17 0.114054 0.250000 0.759569
O O18 0.830713 0.250000 0.888304
O O19 0.000000 0.500000 0.000000
#
# Coordination Sequence:
#
# PCOD9161297 Si02
#       7
#     4   4   4   4   4   4   4
#     4   9  17  31  50  73 102 133 165 205 249 293
#     4   9  19  36  53  71  99 134 167 204 249 295
#     4   9  19  33  50  75 103 128 161 204 247 290
#     4   9  19  35  53  73 100 131 165 205 249 295
#     4   9  19  35  53  72  98 132 168 202 244 296
#     4  10  20  33  51  77 103 130 167 208 248 295
#     4   9  19  35  52  73 100 130 164 204 246 292
#
# _framework density 16.972225999999999
#
# number of rings (size 3 to 8) (size 9 to 14) (size 15 to 20)
#    0.000    2.857    0.000    3.429    0.000    6.857 
#    0.000    9.286    0.000    0.000    0.000    0.000 
#    0.000    0.000    0.000    0.000    0.000    0.000 
#
# Total GULP energy -156031.532303 kJ/mol
# GULP energy per Si atom -5572.554725 kJ/mol
# Density = 1.693360 g / cm^3
# Si number density = 16.972226 Si / 1000 Ang^3
#
#
#
# Elastic Constant Matrix: (Units=GPa)
#
#
# Indices 1 2 3 4 5 6 
#
# 1 199.8540 62.9703 94.6117 0.0000 11.5908 0.0000
# 2 62.9703 38.3534 41.3480 0.0000 8.1459 0.0000
# 3 94.6117 41.3480 85.7677 0.0000 27.2710 0.0000
# 4 0.0000 0.0000 0.0000 31.3953 0.0000 1.4971
# 5 11.5908 8.1459 27.2710 0.0000 28.4204 0.0000
# 6 0.0000 0.0000 0.0000 1.4971 0.0000 37.8757
#
#
#
# Elastic Compliance Matrix: (Units=1/GPa)
#
#
# Indices 1 2 3 4 5 6 
#
# 1 0.014534 -0.010740 -0.014317 0.000000 0.010889 0.000000
# 2 -0.010740 0.066234 -0.022219 0.000000 0.006716 0.000000
# 3 -0.014317 -0.022219 0.049335 0.000000 -0.035133 0.000000
# 4 0.000000 0.000000 0.000000 0.031912 0.000000 -0.001261
# 5 0.010889 0.006716 -0.035133 0.000000 0.062532 0.000000
# 6 0.000000 0.000000 0.000000 -0.001261 0.000000 0.026452
#
#
# Mechanical properties :
#
#
# Convention : Reuss Voigt Hill
#
# Bulk Modulus (GPa) = 28.12870 80.20389 54.16630
# Shear Modulus (GPa) = 13.98984 27.87464 20.93224
#
# Velocity S-wave (km/s) = 2.87414 4.05701 3.51568
# Velocity P-wave (km/s) = 5.25582 8.32492 6.96161
#
# Compressibility (1/GPa) = 0.03555087
#
# Stress axis : x y z
#
# Youngs Moduli (GPa) = 68.80439 15.09795 20.26941
#
# Poissons Ratio (x) = 0.16215 0.29020
# Poissons Ratio (y) = 0.73897 0.45037
# Poissons Ratio (z) = 0.98509 0.33546
#
# Static dielectric constant tensor:
#      x y z
#    x 1.579020 0.000000 0.012190 
#    y 0.000000 1.564650 0.000000 
#    z 0.012190 0.000000 1.565620 
# 
# From -- ./inp_files/28360.got.cif
#   From: 2010.05.17/outbox.cif.g08.bks.cpg/sg11_15_cif.got.tgz:28360.got - 2010.06.03 12:22:45.
