data_PCOD9161932
_publ_section_title
;
Structure prediction by ZEFSAII (Michael W. Deem and Ramdas Pophale) SiO2 
 PCOD9161932
Probable space group: P 21/M
;
_chemical_formula_sum "Si O2"
_cell_formula_units_Z 32
_cell_length_a 14.149674
_cell_length_b 14.369316
_cell_length_c 8.862106
_cell_angle_alpha 90.000000
_cell_angle_beta 63.389079
_cell_angle_gamma 90.000000
_cell_volume 1610.981102
_symmetry_space_group_name_H-M "P 21/M"
_symmetry_group_IT_number 11
_symmetry_cell_setting 'monoclinic'
loop_
_space_group_symop_operation_xyz
x,y,z
-x,1/2+y,-z
-x,-y,-z
x,1/2-y,z
loop_
_atom_site_type_symbol
_atom_site_label
_atom_site_fract_x
_atom_site_fract_y
_atom_site_fract_z
Si Si1 0.152555 0.039256 0.595214
Si Si2 0.631645 0.639952 0.521865
Si Si3 0.374803 0.861355 0.208374
Si Si4 0.401748 0.358594 0.096848
Si Si5 0.190424 0.855937 0.750874
Si Si6 0.419196 0.862247 0.519085
Si Si7 0.049909 0.563631 0.094686
Si Si8 0.786299 0.508749 0.787028
O O1 0.259586 0.086059 0.580866
O O2 0.049655 0.092120 0.731692
O O3 0.150954 0.933172 0.659463
O O4 0.160362 0.040022 0.408811
O O5 0.647319 0.750000 0.480502
O O6 0.602328 0.630997 0.719481
O O7 0.531447 0.603789 0.499340
O O8 0.361006 0.750000 0.213932
O O9 0.390217 0.892731 0.370712
O O10 0.276652 0.914074 0.206306
O O11 0.483560 0.885590 0.046153
O O12 0.386605 0.250000 0.070359
O O13 0.305120 0.418539 0.103512
O O14 0.186504 0.750000 0.694301
O O15 0.314203 0.879154 0.692886
O O16 0.120613 0.863672 0.951237
O O17 0.431113 0.750000 0.504931
O O18 0.128497 0.506502 0.145433
O O19 0.000000 0.500000 0.000000
#
# Coordination Sequence:
#
# PCOD9161932 Si02
#       8
#     4   4   4   4   4   4   4   4
#     4  10  21  40  60  86 115 158 201 248 291 351
#     4   9  19  35  58  86 121 157 193 241 294 347
#     4  10  20  34  55  87 122 153 193 238 291 358
#     4   9  20  37  56  85 120 154 193 239 291 354
#     4  10  21  39  59  85 120 153 191 242 298 353
#     4   9  18  34  56  85 119 154 191 236 291 353
#     4  10  24  41  58  82 113 152 202 254 294 344
#     4  11  21  38  61  84 115 157 199 245 302 348
#
# _framework density 19.863672000000001
#
# number of rings (size 3 to 8) (size 9 to 14) (size 15 to 20)
#    0.000    2.250    1.250    0.750    1.750    3.500 
#    0.000    2.500    0.000    4.500    0.000    0.000 
#    0.000    0.000    0.000    0.000    0.000    0.000 
#
# Total GULP energy -178614.727229 kJ/mol
# GULP energy per Si atom -5581.710226 kJ/mol
# Density = 1.981846 g / cm^3
# Si number density = 19.863672 Si / 1000 Ang^3
#
#
#
# Elastic Constant Matrix: (Units=GPa)
#
#
# Indices 1 2 3 4 5 6 
#
# 1 137.3468 34.3614 42.9596 0.0000 5.1743 0.0000
# 2 34.3614 61.4156 28.6821 0.0000 -4.9048 0.0000
# 3 42.9596 28.6821 83.1719 0.0000 -24.6300 0.0000
# 4 0.0000 0.0000 0.0000 23.4451 0.0000 -4.9201
# 5 5.1743 -4.9048 -24.6300 0.0000 24.9455 0.0000
# 6 0.0000 0.0000 0.0000 -4.9201 0.0000 13.1501
#
#
#
# Elastic Compliance Matrix: (Units=1/GPa)
#
#
# Indices 1 2 3 4 5 6 
#
# 1 0.010866 -0.003403 -0.007496 0.000000 -0.010324 0.000000
# 2 -0.003403 0.020753 -0.005627 0.000000 -0.000769 0.000000
# 3 -0.007496 -0.005627 0.025393 0.000000 0.025521 0.000000
# 4 0.000000 0.000000 0.000000 0.046287 0.000000 0.017318
# 5 -0.010324 -0.000769 0.025521 0.000000 0.067276 0.000000
# 6 0.000000 0.000000 0.000000 0.017318 0.000000 0.082525
#
#
# Mechanical properties :
#
#
# Convention : Reuss Voigt Hill
#
# Bulk Modulus (GPa) = 41.73674 54.88228 48.30951
# Shear Modulus (GPa) = 16.99881 24.03688 20.51785
#
# Velocity S-wave (km/s) = 2.92853 3.48241 3.21741
# Velocity P-wave (km/s) = 5.70020 6.62262 6.17865
#
# Compressibility (1/GPa) = 0.02395971
#
# Stress axis : x y z
#
# Youngs Moduli (GPa) = 92.03166 48.18627 39.38073
#
# Poissons Ratio (x) = 0.16398 0.29521
# Poissons Ratio (y) = 0.31318 0.22159
# Poissons Ratio (z) = 0.68989 0.27114
#
# Static dielectric constant tensor:
#      x y z
#    x 1.676490 0.000000 -0.018150 
#    y 0.000000 1.726720 0.000000 
#    z -0.018150 0.000000 1.719530 
# 
# From -- ./inp_files/22181.got.cif
#   From: 2010.05.17/outbox.cif.g08.bks.cpg/sg11_12_cif.got.tgz:22181.got - 2010.06.03 12:22:45.
