data_PCOD9161292
_publ_section_title
;
Structure prediction by ZEFSAII (Michael W. Deem and Ramdas Pophale) SiO2 
 PCOD9161292
Probable space group: P 21/M
;
_chemical_formula_sum "Si O2"
_cell_formula_units_Z 32
_cell_length_a 17.243077
_cell_length_b 9.086923
_cell_length_c 26.052167
_cell_angle_alpha 90.000000
_cell_angle_beta 153.443932
_cell_angle_gamma 90.000000
_cell_volume 1824.963814
_symmetry_space_group_name_H-M "P 21/M"
_symmetry_group_IT_number 11
_symmetry_cell_setting 'monoclinic'
loop_
_space_group_symop_operation_xyz
x,y,z
-x,1/2+y,-z
-x,-y,-z
x,1/2-y,z
loop_
_atom_site_type_symbol
_atom_site_label
_atom_site_fract_x
_atom_site_fract_y
_atom_site_fract_z
Si Si1 0.569498 0.078457 0.990613
Si Si2 0.411207 0.073121 0.639788
Si Si3 0.161906 0.072996 0.922678
Si Si4 0.418636 0.078754 0.166783
Si Si5 0.542729 0.425642 0.443401
Si Si6 0.053178 0.079713 0.479531
Si Si7 0.240075 0.926245 0.329107
Si Si8 0.328181 0.583833 0.775654
O O1 0.597903 0.250000 0.015644
O O2 0.419381 0.044139 0.860679
O O3 0.500000 0.000000 0.000000
O O4 0.737551 0.003198 0.064687
O O5 0.416597 0.250000 0.639294
O O6 0.222476 0.025713 0.550143
O O7 0.549818 0.016481 0.763966
O O8 0.436457 0.002648 0.599035
O O9 0.178407 0.250000 0.927565
O O10 0.959155 0.035783 0.800622
O O11 0.264135 0.033600 0.036053
O O12 0.391453 0.250000 0.164610
O O13 0.593526 0.072288 0.235371
O O14 0.531595 0.250000 0.430435
O O15 0.699528 0.456941 0.576527
O O16 0.371605 0.487436 0.370273
O O17 0.087217 0.250000 0.512622
O O18 0.877312 0.073501 0.342520
O O19 0.000000 0.000000 0.500000
O O20 0.261532 0.750000 0.333912
O O21 0.380775 0.750000 0.824442
#
# Coordination Sequence:
#
# PCOD9161292 Si02
#       8
#     4   4   4   4   4   4   4   4
#     4  11  22  35  52  76 108 144 183 227 271 319
#     4  11  22  34  52  80 114 147 186 230 273 325
#     4   9  19  37  60  83 109 142 180 222 276 333
#     4   9  17  32  54  77 107 144 178 218 268 325
#     4  10  21  37  59  85 112 143 178 222 277 332
#     4  10  20  33  51  76 107 144 183 225 270 318
#     4   9  19  39  64  86 110 139 177 224 278 336
#     4   9  18  34  52  72 103 142 182 224 272 322
#
# _framework density 17.534593000000001
#
# number of rings (size 3 to 8) (size 9 to 14) (size 15 to 20)
#    0.000    2.250    1.250    2.625    0.000    5.000 
#    0.000    3.125    0.000    0.000    0.000    0.000 
#    0.000    0.000    0.000    0.000    0.000    0.000 
#
# Total GULP energy -178380.102996 kJ/mol
# GULP energy per Si atom -5574.378219 kJ/mol
# Density = 1.749468 g / cm^3
# Si number density = 17.534593 Si / 1000 Ang^3
#
#
#
# Elastic Constant Matrix: (Units=GPa)
#
#
# Indices 1 2 3 4 5 6 
#
# 1 125.1533 60.4222 67.7273 0.0000 -11.7935 0.0000
# 2 60.4222 60.6112 45.1141 0.0000 -4.6691 0.0000
# 3 67.7273 45.1141 123.8020 0.0000 8.3574 0.0000
# 4 0.0000 0.0000 0.0000 23.8002 0.0000 -1.8380
# 5 -11.7935 -4.6691 8.3574 0.0000 17.5771 0.0000
# 6 0.0000 0.0000 0.0000 -1.8380 0.0000 30.8871
#
#
#
# Elastic Compliance Matrix: (Units=1/GPa)
#
#
# Indices 1 2 3 4 5 6 
#
# 1 0.018997 -0.013228 -0.006401 0.000000 0.012276 0.000000
# 2 -0.013228 0.033797 -0.005255 0.000000 0.002601 0.000000
# 3 -0.006401 -0.005255 0.014338 0.000000 -0.012508 0.000000
# 4 0.000000 0.000000 0.000000 0.042211 0.000000 0.002512
# 5 0.012276 0.002601 -0.012508 0.000000 0.071767 0.000000
# 6 0.000000 0.000000 0.000000 0.002512 0.000000 0.032525
#
#
# Mechanical properties :
#
#
# Convention : Reuss Voigt Hill
#
# Bulk Modulus (GPa) = 57.58717 72.89931 65.24324
# Shear Modulus (GPa) = 18.57415 23.53973 21.05694
#
# Velocity S-wave (km/s) = 3.25820 3.66795 3.46913
# Velocity P-wave (km/s) = 6.86060 7.72032 7.30312
#
# Compressibility (1/GPa) = 0.01736498
#
# Stress axis : x y z
#
# Youngs Moduli (GPa) = 52.63946 29.58845 69.74254
#
# Poissons Ratio (x) = 0.39139 0.44642
# Poissons Ratio (y) = 0.69631 0.36649
# Poissons Ratio (z) = 0.33694 0.15548
#
# Static dielectric constant tensor:
#      x y z
#    x 1.586930 0.000000 -0.019100 
#    y 0.000000 1.593950 0.000000 
#    z -0.019100 0.000000 1.627820 
# 
# From -- ./inp_files/69148.got.cif
#   From: 2010.05.17/outbox.cif.g08.bks.cpg/sg11_35_cif.got.tgz:69148.got - 2010.06.03 12:22:45.
