data_PCOD9161729
_publ_section_title
;
Structure prediction by ZEFSAII (Michael W. Deem and Ramdas Pophale) SiO2 
 PCOD9161729
Probable space group: P 21/M
;
_chemical_formula_sum "Si O2"
_cell_formula_units_Z 28
_cell_length_a 27.451949
_cell_length_b 11.029425
_cell_length_c 8.877220
_cell_angle_alpha 90.000000
_cell_angle_beta 143.203118
_cell_angle_gamma 90.000000
_cell_volume 1609.961075
_symmetry_space_group_name_H-M "P 21/M"
_symmetry_group_IT_number 11
_symmetry_cell_setting 'monoclinic'
loop_
_space_group_symop_operation_xyz
x,y,z
-x,1/2+y,-z
-x,-y,-z
x,1/2-y,z
loop_
_atom_site_type_symbol
_atom_site_label
_atom_site_fract_x
_atom_site_fract_y
_atom_site_fract_z
Si Si1 0.399608 0.883695 0.797216
Si Si2 0.220543 0.391240 0.668646
Si Si3 0.785903 0.389313 0.578823
Si Si4 0.095907 0.886447 0.846313
Si Si5 0.486117 0.547773 0.712690
Si Si6 0.097463 0.114100 0.639788
Si Si7 0.393214 0.384673 0.246667
O O1 0.415986 0.750000 0.899180
O O2 0.303451 0.904763 0.568781
O O3 0.432296 0.888956 0.707517
O O4 0.448965 0.973527 0.026373
O O5 0.225900 0.250000 0.624409
O O6 0.204134 0.498391 0.509852
O O7 0.150589 0.392758 0.621078
O O8 0.306903 0.420418 0.961765
O O9 0.788305 0.250000 0.520903
O O10 0.854135 0.395279 0.876086
O O11 0.111857 0.750000 0.822228
O O12 0.998874 0.894366 0.632169
O O13 0.118673 0.999969 0.797528
O O14 0.426433 0.468254 0.461461
O O15 0.540855 0.616438 0.725275
O O16 0.111596 0.250000 0.741478
O O17 0.383275 0.250000 0.283924
#
# Coordination Sequence:
#
# PCOD9161729 Si02
#       7
#     4   4   4   4   4   4   4
#     4  10  20  35  52  75 104 137 174 220 264 309
#     4  10  21  37  54  78 111 141 177 219 264 313
#     4  10  21  37  54  78 111 141 177 219 264 313
#     4   9  19  36  58  82 109 139 174 217 263 314
#     4  10  20  34  54  74 100 136 178 218 258 320
#     4   9  19  36  58  82 109 139 174 217 263 314
#     4  10  20  35  52  75 104 137 174 220 264 309
#
# _framework density 17.391724
#
# number of rings (size 3 to 8) (size 9 to 14) (size 15 to 20)
#    0.000    2.286    1.429    0.857    2.000    1.714 
#    0.000    1.429    0.000    0.000    0.000    0.000 
#    0.000    0.000    0.000    0.000    0.000    0.000 
#
# Total GULP energy -155905.405647 kJ/mol
# GULP energy per Si atom -5568.050202 kJ/mol
# Density = 1.735214 g / cm^3
# Si number density = 17.391724 Si / 1000 Ang^3
#
#
#
# Elastic Constant Matrix: (Units=GPa)
#
#
# Indices 1 2 3 4 5 6 
#
# 1 59.9820 42.4163 14.2672 0.0000 -2.1821 0.0000
# 2 42.4163 125.1958 66.2753 0.0000 -8.4008 0.0000
# 3 14.2672 66.2753 69.6247 0.0000 -10.7195 0.0000
# 4 0.0000 0.0000 0.0000 27.6650 0.0000 1.6369
# 5 -2.1821 -8.4008 -10.7195 0.0000 12.2079 0.0000
# 6 0.0000 0.0000 0.0000 1.6369 0.0000 12.8378
#
#
#
# Elastic Compliance Matrix: (Units=1/GPa)
#
#
# Indices 1 2 3 4 5 6 
#
# 1 0.022932 -0.010699 0.005762 0.000000 0.001796 0.000000
# 2 -0.010699 0.021173 -0.018516 0.000000 -0.003601 0.000000
# 3 0.005762 -0.018516 0.033538 0.000000 0.017737 0.000000
# 4 0.000000 0.000000 0.000000 0.036421 0.000000 -0.004644
# 5 0.001796 -0.003601 0.017737 0.000000 0.095332 0.000000
# 6 0.000000 0.000000 0.000000 -0.004644 0.000000 0.078487
#
#
# Mechanical properties :
#
#
# Convention : Reuss Voigt Hill
#
# Bulk Modulus (GPa) = 32.53498 55.63557 44.08527
# Shear Modulus (GPa) = 14.49126 19.33174 16.91150
#
# Velocity S-wave (km/s) = 2.88970 3.33761 3.12170
# Velocity P-wave (km/s) = 5.46641 6.84923 6.19651
#
# Compressibility (1/GPa) = 0.03073615
#
# Stress axis : x y z
#
# Youngs Moduli (GPa) = 43.60655 47.23093 29.81666
#
# Poissons Ratio (x) = 0.50532 -0.17179
# Poissons Ratio (y) = 0.46655 0.55209
# Poissons Ratio (z) = -0.25124 0.87453
#
# Static dielectric constant tensor:
#      x y z
#    x 1.570720 0.000000 0.013430 
#    y 0.000000 1.626540 0.000000 
#    z 0.013430 0.000000 1.560790 
# 
# From -- ./inp_files/26431.got.cif
#   From: 2010.05.17/outbox.cif.g08.bks.cpg/sg11_14_cif.got.tgz:26431.got - 2010.06.03 12:22:45.
