data_PCOD9161314
_publ_section_title
;
Structure prediction by ZEFSAII (Michael W. Deem and Ramdas Pophale) SiO2 
 PCOD9161314
Probable space group: P 21/M
;
_chemical_formula_sum "Si O2"
_cell_formula_units_Z 28
_cell_length_a 10.027212
_cell_length_b 8.378323
_cell_length_c 28.003190
_cell_angle_alpha 90.000000
_cell_angle_beta 141.440883
_cell_angle_gamma 90.000000
_cell_volume 1466.415735
_symmetry_space_group_name_H-M "P 21/M"
_symmetry_group_IT_number 11
_symmetry_cell_setting 'monoclinic'
loop_
_space_group_symop_operation_xyz
x,y,z
-x,1/2+y,-z
-x,-y,-z
x,1/2-y,z
loop_
_atom_site_type_symbol
_atom_site_label
_atom_site_fract_x
_atom_site_fract_y
_atom_site_fract_z
Si Si1 0.813866 0.941242 0.982301
Si Si2 0.256278 0.559371 0.933824
Si Si3 0.679903 0.443393 0.317040
Si Si4 0.387740 0.944764 0.808133
Si Si5 0.893190 0.942240 0.519270
Si Si6 0.531102 0.058968 0.643495
Si Si7 0.989869 0.442785 0.229979
O O1 0.811737 0.750000 0.983407
O O2 0.586849 0.995531 0.896498
O O3 0.840403 0.005663 0.043020
O O4 0.000000 0.000000 0.000000
O O5 0.260435 0.750000 0.932776
O O6 0.119567 0.501731 0.850207
O O7 0.500000 0.500000 0.000000
O O8 0.670660 0.250000 0.315971
O O9 0.594079 0.497282 0.241654
O O10 0.550046 0.504082 0.326724
O O11 0.930759 0.492450 0.392490
O O12 0.389476 0.750000 0.808234
O O13 0.166341 0.994785 0.770926
O O14 0.888701 0.750000 0.519243
O O15 0.647966 0.997169 0.445375
O O16 0.000000 0.000000 0.500000
O O17 0.532504 0.250000 0.643813
O O18 0.767241 0.998289 0.698918
O O19 0.989923 0.250000 0.229573
#
# Coordination Sequence:
#
# PCOD9161314 Si02
#       7
#     4   4   4   4   4   4   4
#     4  11  23  40  58  83 114 145 183 229 275 324
#     4  11  22  39  61  82 107 145 187 228 274 328
#     4   9  17  33  58  80 102 141 182 218 265 321
#     4   9  19  37  57  77 105 140 180 221 262 316
#     4   8  15  29  50  76 106 137 173 216 264 314
#     4  10  20  33  51  81 113 138 173 224 269 312
#     4  10  21  38  56  76 105 144 183 217 261 324
#
# _framework density 19.094176999999998
#
# number of rings (size 3 to 8) (size 9 to 14) (size 15 to 20)
#    0.000    2.286    1.429    1.286    2.000    1.714 
#    0.000    2.143    0.000    0.000    0.000    0.000 
#    0.000    0.000    0.000    0.000    0.000    0.000 
#
# Total GULP energy -156148.343266 kJ/mol
# GULP energy per Si atom -5576.726545 kJ/mol
# Density = 1.905072 g / cm^3
# Si number density = 19.094177 Si / 1000 Ang^3
#
#
#
# Elastic Constant Matrix: (Units=GPa)
#
#
# Indices 1 2 3 4 5 6 
#
# 1 70.9794 4.2823 -1.1467 0.0000 18.4666 0.0000
# 2 4.2823 16.5257 4.3474 0.0000 2.5424 0.0000
# 3 -1.1467 4.3474 42.8200 0.0000 22.4117 0.0000
# 4 0.0000 0.0000 0.0000 22.8352 0.0000 4.4431
# 5 18.4666 2.5424 22.4117 0.0000 37.9201 0.0000
# 6 0.0000 0.0000 0.0000 4.4431 0.0000 25.7321
#
#
#
# Elastic Compliance Matrix: (Units=1/GPa)
#
#
# Indices 1 2 3 4 5 6 
#
# 1 0.017867 -0.004671 0.007736 0.000000 -0.012960 0.000000
# 2 -0.004671 0.063404 -0.008004 0.000000 0.002754 0.000000
# 3 0.007736 -0.008004 0.037738 0.000000 -0.025535 0.000000
# 4 0.000000 0.000000 0.000000 0.045314 0.000000 -0.007824
# 5 -0.012960 0.002754 -0.025535 0.000000 0.047590 0.000000
# 6 0.000000 0.000000 0.000000 -0.007824 0.000000 0.040213
#
#
# Mechanical properties :
#
#
# Convention : Reuss Voigt Hill
#
# Bulk Modulus (GPa) = 9.16329 16.14345 12.65337
# Shear Modulus (GPa) = 16.75705 25.48695 21.12200
#
# Velocity S-wave (km/s) = 2.96564 3.65746 3.32957
# Velocity P-wave (km/s) = 4.06647 5.12923 4.62845
#
# Compressibility (1/GPa) = 0.10913117
#
# Stress axis : x y z
#
# Youngs Moduli (GPa) = 55.96846 15.77182 26.49842
#
# Poissons Ratio (x) = 0.07367 -0.20499
# Poissons Ratio (y) = 0.26144 0.21209
# Poissons Ratio (z) = -0.43297 0.12624
#
# Static dielectric constant tensor:
#      x y z
#    x 1.630940 0.000000 0.003410 
#    y 0.000000 1.661480 0.000000 
#    z 0.003410 0.000000 1.696300 
# 
# From -- ./inp_files/70831.got.cif
#   From: 2010.05.17/outbox.cif.g08.bks.cpg/sg11_36_cif.got.tgz:70831.got - 2010.06.03 12:22:45.
