data_PCOD9161760
_publ_section_title
;
Structure prediction by ZEFSAII (Michael W. Deem and Ramdas Pophale) SiO2 
 PCOD9161760
Probable space group: P 21/M
;
_chemical_formula_sum "Si O2"
_cell_formula_units_Z 32
_cell_length_a 28.274701
_cell_length_b 9.042487
_cell_length_c 23.191197
_cell_angle_alpha 90.000000
_cell_angle_beta 17.571635
_cell_angle_gamma 90.000000
_cell_volume 1790.066909
_symmetry_space_group_name_H-M "P 21/M"
_symmetry_group_IT_number 11
_symmetry_cell_setting 'monoclinic'
loop_
_space_group_symop_operation_xyz
x,y,z
-x,1/2+y,-z
-x,-y,-z
x,1/2-y,z
loop_
_atom_site_type_symbol
_atom_site_label
_atom_site_fract_x
_atom_site_fract_y
_atom_site_fract_z
Si Si1 0.419641 0.076201 0.329897
Si Si2 0.198009 0.074702 0.933118
Si Si3 0.445184 0.426047 0.936806
Si Si4 0.536865 0.075133 0.598900
Si Si5 0.074640 0.075995 0.677544
Si Si6 0.840343 0.072561 0.663693
Si Si7 0.787222 0.425778 0.591472
Si Si8 0.661306 0.072744 0.334768
O O1 0.455839 0.250000 0.283965
O O2 0.240080 0.055154 0.518186
O O3 0.525869 0.986716 0.161130
O O4 0.439943 0.017617 0.370710
O O5 0.180713 0.250000 0.945041
O O6 0.363656 0.049925 0.773524
O O7 0.060004 0.009717 0.132133
O O8 0.209186 0.994942 0.857979
O O9 0.419252 0.250000 0.966117
O O10 0.607069 0.456059 0.783169
O O11 0.303321 0.507570 0.132860
O O12 0.549708 0.250000 0.597013
O O13 0.660459 0.040149 0.404033
O O14 0.039272 0.250000 0.716740
O O15 0.103295 0.013035 0.580240
O O16 0.845811 0.250000 0.663032
O O17 0.815926 0.036857 0.624507
O O18 0.000000 0.000000 0.500000
O O19 0.813078 0.250000 0.553511
O O20 0.653891 0.250000 0.336844
O O21 0.500000 0.000000 0.500000
#
# Coordination Sequence:
#
# PCOD9161760 Si02
#       8
#     4   4   4   4   4   4   4   4
#     4  10  21  36  55  80 108 139 177 219 263 314
#     4  10  20  34  54  79 106 139 179 220 265 316
#     4  10  20  37  60  81 104 139 179 217 262 314
#     4   9  19  34  53  78 106 138 176 219 265 315
#     4  10  21  36  55  80 108 138 176 221 265 313
#     4  11  23  38  56  82 114 142 173 216 263 310
#     4   9  20  38  59  80 104 139 179 217 260 314
#     4   9  17  31  51  76 106 138 176 219 263 314
#
# _framework density 17.876425999999999
#
# number of rings (size 3 to 8) (size 9 to 14) (size 15 to 20)
#    0.000    2.250    0.000    3.375    0.000    7.000 
#    0.000    1.875    0.000    0.000    0.000    0.000 
#    0.000    0.000    0.000    0.000    0.000    0.000 
#
# Total GULP energy -178600.494786 kJ/mol
# GULP energy per Si atom -5581.265462 kJ/mol
# Density = 1.783574 g / cm^3
# Si number density = 17.876426 Si / 1000 Ang^3
#
#
#
# Elastic Constant Matrix: (Units=GPa)
#
#
# Indices 1 2 3 4 5 6 
#
# 1 115.5731 73.0675 62.6920 0.0000 35.3024 0.0000
# 2 73.0675 92.0916 79.8533 0.0000 22.8472 0.0000
# 3 62.6920 79.8533 133.0466 0.0000 39.4078 0.0000
# 4 0.0000 0.0000 0.0000 37.7818 0.0000 6.7524
# 5 35.3024 22.8472 39.4078 0.0000 23.9141 0.0000
# 6 0.0000 0.0000 0.0000 6.7524 0.0000 32.1369
#
#
#
# Elastic Compliance Matrix: (Units=1/GPa)
#
#
# Indices 1 2 3 4 5 6 
#
# 1 0.030404 -0.025186 0.013590 0.000000 -0.043215 0.000000
# 2 -0.025186 0.043533 -0.025305 0.000000 0.037289 0.000000
# 3 0.013590 -0.025305 0.029462 0.000000 -0.044436 0.000000
# 4 0.000000 0.000000 0.000000 0.027500 0.000000 -0.005778
# 5 -0.043215 0.037289 -0.044436 0.000000 0.143211 0.000000
# 6 0.000000 0.000000 0.000000 -0.005778 0.000000 0.032331
#
#
# Mechanical properties :
#
#
# Convention : Reuss Voigt Hill
#
# Bulk Modulus (GPa) = 33.78725 85.77076 59.77900
# Shear Modulus (GPa) = 12.81695 27.10645 19.96170
#
# Velocity S-wave (km/s) = 2.68054 3.89822 3.34526
# Velocity P-wave (km/s) = 5.34059 8.26713 6.95943
#
# Compressibility (1/GPa) = 0.02959696
#
# Stress axis : x y z
#
# Youngs Moduli (GPa) = 32.89054 22.97117 33.94194
#
# Poissons Ratio (x) = 0.57854 -0.46127
# Poissons Ratio (y) = 0.82837 0.85891
# Poissons Ratio (z) = -0.44698 0.58129
#
# Static dielectric constant tensor:
#      x y z
#    x 1.598880 0.000000 0.002300 
#    y 0.000000 1.592370 0.000000 
#    z 0.002300 0.000000 1.599040 
# 
# From -- ./inp_files/66970.got.cif
#   From: 2010.05.17/outbox.cif.g08.bks.cpg/sg11_34_cif.got.tgz:66970.got - 2010.06.03 12:22:45.
