data_PCOD9161765
_publ_section_title
;
Structure prediction by ZEFSAII (Michael W. Deem and Ramdas Pophale) SiO2 
 PCOD9161765
Probable space group: P 21/M
;
_chemical_formula_sum "Si O2"
_cell_formula_units_Z 24
_cell_length_a 11.650032
_cell_length_b 8.627807
_cell_length_c 27.153517
_cell_angle_alpha 90.000000
_cell_angle_beta 29.341745
_cell_angle_gamma 90.000000
_cell_volume 1337.412557
_symmetry_space_group_name_H-M "P 21/M"
_symmetry_group_IT_number 11
_symmetry_cell_setting 'monoclinic'
loop_
_space_group_symop_operation_xyz
x,y,z
-x,1/2+y,-z
-x,-y,-z
x,1/2-y,z
loop_
_atom_site_type_symbol
_atom_site_label
_atom_site_fract_x
_atom_site_fract_y
_atom_site_fract_z
Si Si1 0.261541 0.926980 0.107554
Si Si2 0.586045 0.062477 0.391289
Si Si3 0.107621 0.566317 0.009765
Si Si4 0.130892 0.062180 0.621106
Si Si5 0.627991 0.426613 0.819021
Si Si6 0.143515 0.931136 0.800484
O O1 0.223484 0.750000 0.103646
O O2 0.287369 0.920001 0.156131
O O3 0.065043 0.039275 0.160265
O O4 0.500000 0.000000 0.000000
O O5 0.605879 0.250000 0.384898
O O6 0.328730 0.019212 0.507236
O O7 0.641377 0.012053 0.314412
O O8 0.766593 0.996833 0.364824
O O9 0.104425 0.750000 0.010045
O O10 0.379016 0.511490 0.911378
O O11 0.000000 0.500000 0.000000
O O12 0.949045 0.510350 0.115208
O O13 0.119986 0.250000 0.628033
O O14 0.867986 0.007475 0.705564
O O15 0.586880 0.250000 0.816804
O O16 0.174679 0.750000 0.799664
#
# Coordination Sequence:
#
# PCOD9161765 Si02
#       6
#     4   4   4   4   4   4
#     4  11  20  30  48  77 110 145 178 216 266 320
#     4   9  18  30  49  78 113 149 180 214 256 308
#     4  12  26  42  60  78 102 136 180 228 278 326
#     4   9  17  31  50  77 113 149 180 213 257 310
#     4  10  20  34  54  79 112 145 178 219 265 318
#     4  11  21  34  53  79 113 145 180 220 263 319
#
# _framework density 17.945098000000002
#
# number of rings (size 3 to 8) (size 9 to 14) (size 15 to 20)
#    0.000    1.667    3.333    2.500    0.000    2.000 
#    0.000    0.000    0.000    1.000    0.000    0.000 
#    0.000    0.000    0.000    0.000    0.000    0.000 
#
# Total GULP energy -133690.037510 kJ/mol
# GULP energy per Si atom -5570.418230 kJ/mol
# Density = 1.790425 g / cm^3
# Si number density = 17.945098 Si / 1000 Ang^3
#
#
#
# Elastic Constant Matrix: (Units=GPa)
#
#
# Indices 1 2 3 4 5 6 
#
# 1 70.6851 23.0267 52.8316 0.0000 14.2915 0.0000
# 2 23.0267 54.3765 43.0119 0.0000 4.5592 0.0000
# 3 52.8316 43.0119 171.0201 0.0000 16.0610 0.0000
# 4 0.0000 0.0000 0.0000 12.4262 0.0000 0.8426
# 5 14.2915 4.5592 16.0610 0.0000 11.1895 0.0000
# 6 0.0000 0.0000 0.0000 0.8426 0.0000 26.2829
#
#
#
# Elastic Compliance Matrix: (Units=1/GPa)
#
#
# Indices 1 2 3 4 5 6 
#
# 1 0.023035 -0.004889 -0.003826 0.000000 -0.021937 0.000000
# 2 -0.004889 0.024010 -0.004850 0.000000 0.003422 0.000000
# 3 -0.003826 -0.004850 0.008789 0.000000 -0.005753 0.000000
# 4 0.000000 0.000000 0.000000 0.080651 0.000000 -0.002585
# 5 -0.021937 0.003422 -0.005753 0.000000 0.124250 0.000000
# 6 0.000000 0.000000 0.000000 -0.002585 0.000000 0.038130
#
#
# Mechanical properties :
#
#
# Convention : Reuss Voigt Hill
#
# Bulk Modulus (GPa) = 34.83765 59.31359 47.07562
# Shear Modulus (GPa) = 14.90034 21.79381 18.34707
#
# Velocity S-wave (km/s) = 2.88467 3.48871 3.20097
# Velocity P-wave (km/s) = 5.52727 7.02515 6.32073
#
# Compressibility (1/GPa) = 0.02870458
#
# Stress axis : x y z
#
# Youngs Moduli (GPa) = 43.41226 41.64991 113.77540
#
# Poissons Ratio (x) = 0.20361 0.43534
# Poissons Ratio (y) = 0.21223 0.55177
# Poissons Ratio (z) = 0.16611 0.20199
#
# Static dielectric constant tensor:
#      x y z
#    x 1.586070 0.000000 0.012470 
#    y 0.000000 1.622670 0.000000 
#    z 0.012470 0.000000 1.718060 
# 
# From -- ./inp_files/44436.got.cif
#   From: 2010.05.17/outbox.cif.g08.bks.cpg/sg11_23_cif.got.tgz:44436.got - 2010.06.03 12:22:45.
