data_PCOD9161997
_publ_section_title
;
Structure prediction by ZEFSAII (Michael W. Deem and Ramdas Pophale) SiO2 
 PCOD9161997
Probable space group: P 21/M
;
_chemical_formula_sum "Si O2"
_cell_formula_units_Z 28
_cell_length_a 12.994448
_cell_length_b 8.503247
_cell_length_c 13.791932
_cell_angle_alpha 90.000000
_cell_angle_beta 112.168229
_cell_angle_gamma 90.000000
_cell_volume 1411.289866
_symmetry_space_group_name_H-M "P 21/M"
_symmetry_group_IT_number 11
_symmetry_cell_setting 'monoclinic'
loop_
_space_group_symop_operation_xyz
x,y,z
-x,1/2+y,-z
-x,-y,-z
x,1/2-y,z
loop_
_atom_site_type_symbol
_atom_site_label
_atom_site_fract_x
_atom_site_fract_y
_atom_site_fract_z
Si Si1 0.664371 0.559990 0.810353
Si Si2 0.227985 0.440125 0.730765
Si Si3 0.532852 0.061518 0.117230
Si Si4 0.180027 0.439847 0.492971
Si Si5 0.094898 0.561518 0.104782
Si Si6 0.619191 0.939672 0.574635
Si Si7 0.006595 0.939503 0.281717
O O1 0.667158 0.750000 0.812820
O O2 0.562190 0.507799 0.840911
O O3 0.784465 0.498438 0.884195
O O4 0.645121 0.507145 0.692896
O O5 0.234641 0.250000 0.734237
O O6 0.345540 0.504638 0.807612
O O7 0.199313 0.489977 0.610399
O O8 0.122360 0.488031 0.758461
O O9 0.532449 0.250000 0.116286
O O10 0.500000 0.000000 0.000000
O O11 0.174928 0.250000 0.490512
O O12 0.285058 0.491449 0.465285
O O13 0.071693 0.502708 0.399756
O O14 0.094275 0.750000 0.104933
O O15 0.066709 0.505526 0.204629
O O16 0.000000 0.500000 0.000000
O O17 0.618185 0.750000 0.574005
O O18 0.500000 0.000000 0.500000
O O19 0.009319 0.750000 0.283222
#
# Coordination Sequence:
#
# PCOD9161997 Si02
#       7
#     4   4   4   4   4   4   4
#     4  10  22  42  63  86 121 157 196 249 302 353
#     4  10  22  40  61  89 125 161 199 245 297 355
#     4  11  25  43  64  89 118 158 203 250 303 358
#     4  10  20  36  60  89 121 158 199 243 293 352
#     4  11  24  40  62  91 121 159 203 250 303 358
#     4  10  20  34  56  86 118 154 194 238 290 346
#     4  10  22  39  60  89 124 160 197 243 300 355
#
# _framework density 19.840007
#
# number of rings (size 3 to 8) (size 9 to 14) (size 15 to 20)
#    0.000    1.714    1.429    2.143    2.000    4.000 
#    0.000    0.000    0.000    0.000    0.000    0.000 
#    0.000    0.000    0.000    0.000    0.000    0.000 
#
# Total GULP energy -156493.372717 kJ/mol
# GULP energy per Si atom -5589.049026 kJ/mol
# Density = 1.979485 g / cm^3
# Si number density = 19.840007 Si / 1000 Ang^3
#
#
#
# Elastic Constant Matrix: (Units=GPa)
#
#
# Indices 1 2 3 4 5 6 
#
# 1 156.4512 20.8945 41.2221 0.0000 21.8753 0.0000
# 2 20.8945 7.8191 10.2962 0.0000 1.2988 0.0000
# 3 41.2221 10.2962 89.3550 0.0000 22.3113 0.0000
# 4 0.0000 0.0000 0.0000 33.5053 0.0000 11.2808
# 5 21.8753 1.2988 22.3113 0.0000 41.1407 0.0000
# 6 0.0000 0.0000 0.0000 11.2808 0.0000 28.5670
#
#
#
# Elastic Compliance Matrix: (Units=1/GPa)
#
#
# Indices 1 2 3 4 5 6 
#
# 1 0.010865 -0.027313 -0.000738 0.000000 -0.004515 0.000000
# 2 -0.027313 0.220467 -0.016993 0.000000 0.016778 0.000000
# 3 -0.000738 -0.016993 0.015334 0.000000 -0.007387 0.000000
# 4 0.000000 0.000000 0.000000 0.034423 0.000000 -0.013593
# 5 -0.004515 0.016778 -0.007387 0.000000 0.030184 0.000000
# 6 0.000000 0.000000 0.000000 -0.013593 0.000000 0.040373
#
#
# Mechanical properties :
#
#
# Convention : Reuss Voigt Hill
#
# Bulk Modulus (GPa) = 6.38654 44.27232 25.32943
# Shear Modulus (GPa) = 10.12295 32.72345 21.42320
#
# Velocity S-wave (km/s) = 2.26128 4.06565 3.28959
# Velocity P-wave (km/s) = 3.16920 6.66351 5.21758
#
# Compressibility (1/GPa) = 0.15657929
#
# Stress axis : x y z
#
# Youngs Moduli (GPa) = 92.03752 4.53582 65.21292
#
# Poissons Ratio (x) = 0.12388 0.04812
# Poissons Ratio (y) = 2.51378 1.10818
# Poissons Ratio (z) = 0.06792 0.07708
#
# Static dielectric constant tensor:
#      x y z
#    x 1.693860 0.000000 -0.024790 
#    y 0.000000 1.679990 0.000000 
#    z -0.024790 0.000000 1.669120 
# 
# From -- ./inp_files/49032.got.cif
#   From: 2010.05.17/outbox.cif.g08.bks.cpg/sg11_25_cif.got.tgz:49032.got - 2010.06.03 12:22:45.
