data_PCOD9161626
_publ_section_title
;
Structure prediction by ZEFSAII (Michael W. Deem and Ramdas Pophale) SiO2 
 PCOD9161626
Probable space group: P 21/M
;
_chemical_formula_sum "Si O2"
_cell_formula_units_Z 32
_cell_length_a 10.050072
_cell_length_b 13.077932
_cell_length_c 9.741099
_cell_angle_alpha 90.000000
_cell_angle_beta 98.984472
_cell_angle_gamma 90.000000
_cell_volume 1264.604601
_symmetry_space_group_name_H-M "P 21/M"
_symmetry_group_IT_number 11
_symmetry_cell_setting 'monoclinic'
loop_
_space_group_symop_operation_xyz
x,y,z
-x,1/2+y,-z
-x,-y,-z
x,1/2-y,z
loop_
_atom_site_type_symbol
_atom_site_label
_atom_site_fract_x
_atom_site_fract_y
_atom_site_fract_z
Si Si1 0.260952 0.990853 0.749392
Si Si2 0.499565 0.370631 0.845714
Si Si3 0.935234 0.872810 0.892463
Si Si4 0.416837 0.135408 0.432510
Si Si5 0.364485 0.130081 0.110500
Si Si6 0.779362 0.373239 0.974885
Si Si7 0.018861 0.529450 0.342857
Si Si8 0.288889 0.577051 0.467945
O O1 0.256448 0.925507 0.886394
O O2 0.129712 0.064681 0.725628
O O3 0.391499 0.060952 0.751889
O O4 0.254033 0.911426 0.622666
O O5 0.483555 0.250000 0.815964
O O6 0.458056 0.393267 0.997347
O O7 0.655574 0.401411 0.853837
O O8 0.933600 0.750000 0.868831
O O9 0.789176 0.909447 0.921190
O O10 0.957626 0.932057 0.752924
O O11 0.060766 0.893043 0.015710
O O12 0.364057 0.250000 0.445903
O O13 0.430296 0.118433 0.270237
O O14 0.317330 0.044459 0.456365
O O15 0.564084 0.126491 0.527050
O O16 0.343417 0.250000 0.092405
O O17 0.765993 0.250000 0.985297
O O18 0.153134 0.599436 0.361178
O O19 0.000000 0.500000 0.500000
#
# Coordination Sequence:
#
# PCOD9161626 Si02
#       8
#     4   4   4   4   4   4   4   4
#     4  10  20  34  54  78 107 141 174 214 266 324
#     4  10  20  34  52  77 110 143 176 216 263 320
#     4   9  16  30  53  77 100 132 178 228 269 304
#     4  10  20  34  55  79 103 136 178 222 268 313
#     4   9  17  31  54  78 101 132 178 226 264 306
#     4   9  18  32  52  76 105 136 176 226 266 307
#     4   9  18  33  50  75 108 135 170 218 262 311
#     4  10  20  34  54  78 107 139 175 221 261 315
#
# _framework density 25.304349999999999
#
# number of rings (size 3 to 8) (size 9 to 14) (size 15 to 20)
#    0.000    2.500    1.250    1.125    0.000    2.000 
#    0.000    6.875    5.500    0.000    0.000    0.000 
#    0.000    0.000    0.000    0.000    0.000    0.000 
#
# Total GULP energy -178859.546517 kJ/mol
# GULP energy per Si atom -5589.360829 kJ/mol
# Density = 2.524676 g / cm^3
# Si number density = 25.304350 Si / 1000 Ang^3
#
#
#
# Elastic Constant Matrix: (Units=GPa)
#
#
# Indices 1 2 3 4 5 6 
#
# 1 168.4942 29.6830 30.2663 0.0000 44.7495 0.0000
# 2 29.6830 90.5318 4.8736 0.0000 10.0292 0.0000
# 3 30.2663 4.8736 75.7677 0.0000 17.3843 0.0000
# 4 0.0000 0.0000 0.0000 20.1424 0.0000 2.5435
# 5 44.7495 10.0292 17.3843 0.0000 62.1182 0.0000
# 6 0.0000 0.0000 0.0000 2.5435 0.0000 33.7619
#
#
#
# Elastic Compliance Matrix: (Units=1/GPa)
#
#
# Indices 1 2 3 4 5 6 
#
# 1 0.007911 -0.001954 -0.001923 0.000000 -0.004846 0.000000
# 2 -0.001954 0.011737 0.000147 0.000000 -0.000529 0.000000
# 3 -0.001923 0.000147 0.014581 0.000000 -0.002719 0.000000
# 4 0.000000 0.000000 0.000000 0.050123 0.000000 -0.003776
# 5 -0.004846 -0.000529 -0.002719 0.000000 0.020436 0.000000
# 6 0.000000 0.000000 0.000000 -0.003776 0.000000 0.029904
#
#
# Mechanical properties :
#
#
# Convention : Reuss Voigt Hill
#
# Bulk Modulus (GPa) = 37.35548 51.60440 44.47994
# Shear Modulus (GPa) = 33.09627 41.20257 37.14942
#
# Velocity S-wave (km/s) = 3.62045 4.03957 3.83574
# Velocity P-wave (km/s) = 5.68079 6.49579 6.10191
#
# Compressibility (1/GPa) = 0.02676983
#
# Stress axis : x y z
#
# Youngs Moduli (GPa) = 126.39902 85.20027 68.58356
#
# Poissons Ratio (x) = 0.16645 0.13187
# Poissons Ratio (y) = 0.24694 -0.01006
# Poissons Ratio (z) = 0.24304 -0.01250
#
# Static dielectric constant tensor:
#      x y z
#    x 2.064470 0.000000 0.038610 
#    y 0.000000 1.989190 0.000000 
#    z 0.038610 0.000000 2.028100 
# 
# From -- ./inp_files/35536.got.cif
#   From: 2010.05.17/outbox.cif.g08.bks.cpg/sg11_18_cif.got.tgz:35536.got - 2010.06.03 12:22:45.
