data_PCOD9161389
_publ_section_title
;
Structure prediction by ZEFSAII (Michael W. Deem and Ramdas Pophale) SiO2 
 PCOD9161389
Probable space group: P 21/M
;
_chemical_formula_sum "Si O2"
_cell_formula_units_Z 24
_cell_length_a 23.745824
_cell_length_b 9.795046
_cell_length_c 5.288645
_cell_angle_alpha 90.000000
_cell_angle_beta 82.208387
_cell_angle_gamma 90.000000
_cell_volume 1218.736950
_symmetry_space_group_name_H-M "P 21/M"
_symmetry_group_IT_number 11
_symmetry_cell_setting 'monoclinic'
loop_
_space_group_symop_operation_xyz
x,y,z
-x,1/2+y,-z
-x,-y,-z
x,1/2-y,z
loop_
_atom_site_type_symbol
_atom_site_label
_atom_site_fract_x
_atom_site_fract_y
_atom_site_fract_z
Si Si1 0.630986 0.411716 0.437376
Si Si2 0.255459 0.084243 0.702635
Si Si3 0.086768 0.098370 0.968369
Si Si4 0.811367 0.586073 0.751040
Si Si5 0.029841 0.900876 0.678041
Si Si6 0.443434 0.588997 0.018347
O O1 0.646509 0.250000 0.425446
O O2 0.685757 0.507293 0.381409
O O3 0.597064 0.439257 0.717036
O O4 0.590325 0.436556 0.221262
O O5 0.262192 0.250000 0.690867
O O6 0.211846 0.040920 0.505855
O O7 0.230426 0.046888 0.992720
O O8 0.106758 0.250000 0.865675
O O9 0.082922 0.979177 0.766850
O O10 0.125883 0.054777 0.179728
O O11 0.021550 0.116246 0.090171
O O12 0.810517 0.750000 0.737491
O O13 0.043512 0.750000 0.570318
O O14 0.000000 0.000000 0.500000
O O15 0.457971 0.750000 0.017560
O O16 0.500000 0.500000 0.000000
#
# Coordination Sequence:
#
# PCOD9161389 Si02
#       6
#     4   4   4   4   4   4
#     4  10  21  37  55  78 112 148 178 216 270 323
#     4  10  20  35  56  82 106 139 185 228 264 315
#     4   9  19  35  54  75 102 140 177 223 278 330
#     4   9  19  34  56  81 106 136 182 230 272 317
#     4  10  20  33  53  78 105 138 177 219 276 339
#     4  10  21  36  56  82 111 144 181 220 265 316
#
# _framework density 19.692518
#
# number of rings (size 3 to 8) (size 9 to 14) (size 15 to 20)
#    0.000    2.333    0.000    2.000    2.333    2.000 
#    0.000    1.667    0.000    0.000    0.000    0.000 
#    0.000    0.000    0.000    0.000    0.000    0.000 
#
# Total GULP energy -133845.587196 kJ/mol
# GULP energy per Si atom -5576.899466 kJ/mol
# Density = 1.964770 g / cm^3
# Si number density = 19.692518 Si / 1000 Ang^3
#
#
#
# Elastic Constant Matrix: (Units=GPa)
#
#
# Indices 1 2 3 4 5 6 
#
# 1 84.7179 29.9279 6.9661 0.0000 3.1105 0.0000
# 2 29.9279 75.9413 20.3350 0.0000 8.5793 0.0000
# 3 6.9661 20.3350 77.0998 0.0000 5.8747 0.0000
# 4 0.0000 0.0000 0.0000 16.2917 0.0000 3.2162
# 5 3.1105 8.5793 5.8747 0.0000 26.6226 0.0000
# 6 0.0000 0.0000 0.0000 3.2162 0.0000 30.7279
#
#
#
# Elastic Compliance Matrix: (Units=1/GPa)
#
#
# Indices 1 2 3 4 5 6 
#
# 1 0.013716 -0.005471 0.000195 0.000000 0.000117 0.000000
# 2 -0.005471 0.016740 -0.003619 0.000000 -0.003957 0.000000
# 3 0.000195 -0.003619 0.014056 0.000000 -0.001958 0.000000
# 4 0.000000 0.000000 0.000000 0.062676 0.000000 -0.006560
# 5 0.000117 -0.003957 -0.001958 0.000000 0.039256 0.000000
# 6 0.000000 0.000000 0.000000 -0.006560 0.000000 0.033230
#
#
# Mechanical properties :
#
#
# Convention : Reuss Voigt Hill
#
# Bulk Modulus (GPa) = 37.42272 39.13522 38.27897
# Shear Modulus (GPa) = 24.22794 26.76377 25.49585
#
# Velocity S-wave (km/s) = 3.51139 3.69057 3.60209
# Velocity P-wave (km/s) = 5.95689 6.17063 6.06470
#
# Compressibility (1/GPa) = 0.02672173
#
# Stress axis : x y z
#
# Youngs Moduli (GPa) = 72.90631 59.73616 71.14174
#
# Poissons Ratio (x) = 0.32681 -0.01385
# Poissons Ratio (y) = 0.39886 0.25749
# Poissons Ratio (z) = -0.01419 0.21621
#
# Static dielectric constant tensor:
#      x y z
#    x 1.680000 0.000000 -0.019630 
#    y 0.000000 1.744070 0.000000 
#    z -0.019630 0.000000 1.744410 
# 
# From -- ./inp_files/9246.got.cif
#   From: 2010.05.17/outbox.cif.g08.bks.cpg/sg11_5_cif.got.tgz:9246.got - 2010.06.03 12:22:45.
