data_PCOD9161946
_publ_section_title
;
Structure prediction by ZEFSAII (Michael W. Deem and Ramdas Pophale) SiO2 
 PCOD9161946
Probable space group: P 21/M
;
_chemical_formula_sum "Si O2"
_cell_formula_units_Z 32
_cell_length_a 23.680154
_cell_length_b 8.757591
_cell_length_c 14.681361
_cell_angle_alpha 90.000000
_cell_angle_beta 143.986731
_cell_angle_gamma 90.000000
_cell_volume 1790.163027
_symmetry_space_group_name_H-M "P 21/M"
_symmetry_group_IT_number 11
_symmetry_cell_setting 'monoclinic'
loop_
_space_group_symop_operation_xyz
x,y,z
-x,1/2+y,-z
-x,-y,-z
x,1/2-y,z
loop_
_atom_site_type_symbol
_atom_site_label
_atom_site_fract_x
_atom_site_fract_y
_atom_site_fract_z
Si Si1 0.882178 0.933780 0.259732
Si Si2 0.709359 0.567691 0.898982
Si Si3 0.504279 0.067353 0.403594
Si Si4 0.814283 0.568859 0.546840
Si Si5 0.186084 0.570927 0.125761
Si Si6 0.099168 0.932360 0.515771
Si Si7 0.308589 0.933009 0.461745
Si Si8 0.991532 0.069867 0.888370
O O1 0.882696 0.750000 0.272415
O O2 0.986365 0.975290 0.352920
O O3 0.877526 0.012216 0.352081
O O4 0.790544 0.973442 0.078548
O O5 0.718724 0.750000 0.892476
O O6 0.598471 0.539529 0.778359
O O7 0.731624 0.471624 0.837805
O O8 0.516542 0.250000 0.429564
O O9 0.592919 0.012399 0.457169
O O10 0.500000 0.000000 0.500000
O O11 0.812365 0.750000 0.543431
O O12 0.831026 0.505855 0.467427
O O13 0.723606 0.506967 0.485682
O O14 0.907416 0.509303 0.723174
O O15 0.161461 0.750000 0.089125
O O16 0.225674 0.537284 0.278201
O O17 0.095085 0.468488 0.981488
O O18 0.105608 0.750000 0.517509
O O19 0.313842 0.750000 0.480461
O O20 0.974212 0.250000 0.869419
O O21 0.000000 0.000000 0.000000
#
# Coordination Sequence:
#
# PCOD9161946 Si02
#       8
#     4   4   4   4   4   4   4   4
#     4   9  19  36  57  84 113 143 181 226 275 330
#     4  10  20  34  56  82 111 146 184 231 283 331
#     4  10  20  35  55  79 109 147 189 233 281 328
#     4  12  24  37  56  80 108 147 187 227 276 334
#     4  11  21  33  51  76 109 147 184 225 270 323
#     4  10  20  36  59  84 114 148 180 223 275 332
#     4  10  21  36  52  74 109 148 187 230 273 323
#     4  12  23  35  50  72 105 143 182 222 264 320
#
# _framework density 17.875467
#
# number of rings (size 3 to 8) (size 9 to 14) (size 15 to 20)
#    0.000    1.500    2.500    3.750    0.000    3.000 
#    0.000    0.000    0.000    0.750    0.000    0.000 
#    0.000    0.000    0.000    0.000    0.000    0.000 
#
# Total GULP energy -178694.386002 kJ/mol
# GULP energy per Si atom -5584.199563 kJ/mol
# Density = 1.783478 g / cm^3
# Si number density = 17.875467 Si / 1000 Ang^3
#
#
#
# Elastic Constant Matrix: (Units=GPa)
#
#
# Indices 1 2 3 4 5 6 
#
# 1 140.8924 45.0002 35.9094 0.0000 12.1823 0.0000
# 2 45.0002 48.8737 23.7911 0.0000 -0.2482 0.0000
# 3 35.9094 23.7911 62.9976 0.0000 7.4021 0.0000
# 4 0.0000 0.0000 0.0000 19.2444 0.0000 -1.9517
# 5 12.1823 -0.2482 7.4021 0.0000 26.3090 0.0000
# 6 0.0000 0.0000 0.0000 -1.9517 0.0000 31.5608
#
#
#
# Elastic Compliance Matrix: (Units=1/GPa)
#
#
# Indices 1 2 3 4 5 6 
#
# 1 0.010943 -0.008968 -0.002322 0.000000 -0.004498 0.000000
# 2 -0.008968 0.032650 -0.008007 0.000000 0.006713 0.000000
# 3 -0.002322 -0.008007 0.020791 0.000000 -0.004850 0.000000
# 4 0.000000 0.000000 0.000000 0.052291 0.000000 0.003234
# 5 -0.004498 0.006713 -0.004850 0.000000 0.041521 0.000000
# 6 0.000000 0.000000 0.000000 0.003234 0.000000 0.031885
#
#
# Mechanical properties :
#
#
# Convention : Reuss Voigt Hill
#
# Bulk Modulus (GPa) = 38.77616 51.35166 45.06391
# Shear Modulus (GPa) = 21.07292 25.29370 23.18331
#
# Velocity S-wave (km/s) = 3.43720 3.76572 3.60520
# Velocity P-wave (km/s) = 6.12306 6.90633 6.52646
#
# Compressibility (1/GPa) = 0.02578904
#
# Stress axis : x y z
#
# Youngs Moduli (GPa) = 91.38513 30.62789 48.09742
#
# Poissons Ratio (x) = 0.27467 0.11169
# Poissons Ratio (y) = 0.81953 0.38513
# Poissons Ratio (z) = 0.21222 0.24525
#
# Static dielectric constant tensor:
#      x y z
#    x 1.618720 0.000000 0.030810 
#    y 0.000000 1.596480 0.000000 
#    z 0.030810 0.000000 1.608660 
# 
# From -- ./inp_files/54348.got.cif
#   From: 2010.05.17/outbox.cif.g08.bks.cpg/sg11_28_cif.got.tgz:54348.got - 2010.06.03 12:22:45.
