data_PCOD9161810
_publ_section_title
;
Structure prediction by ZEFSAII (Michael W. Deem and Ramdas Pophale) SiO2 
 PCOD9161810
Probable space group: P 21/M
;
_chemical_formula_sum "Si O2"
_cell_formula_units_Z 24
_cell_length_a 10.779831
_cell_length_b 12.212946
_cell_length_c 15.178023
_cell_angle_alpha 90.000000
_cell_angle_beta 27.788717
_cell_angle_gamma 90.000000
_cell_volume 931.604223
_symmetry_space_group_name_H-M "P 21/M"
_symmetry_group_IT_number 11
_symmetry_cell_setting 'monoclinic'
loop_
_space_group_symop_operation_xyz
x,y,z
-x,1/2+y,-z
-x,-y,-z
x,1/2-y,z
loop_
_atom_site_type_symbol
_atom_site_label
_atom_site_fract_x
_atom_site_fract_y
_atom_site_fract_z
Si Si1 0.119355 0.131848 0.984836
Si Si2 0.254212 0.094270 0.550302
Si Si3 0.725812 0.373540 0.790830
Si Si4 0.675897 0.873539 0.807463
Si Si5 0.340681 0.905731 0.854806
Si Si6 0.693226 0.368152 0.410965
O O1 0.242518 0.250000 0.914432
O O2 0.947867 0.124739 0.002669
O O3 0.902228 0.118452 0.199255
O O4 0.327965 0.036759 0.862090
O O5 0.442301 0.131079 0.352569
O O6 0.403743 0.124738 0.546795
O O7 0.961788 0.132733 0.714535
O O8 0.257788 0.963242 0.552156
O O9 0.736454 0.250000 0.740181
O O10 0.777666 0.499998 0.722335
O O11 0.442277 0.379147 0.019244
O O12 0.806562 0.750000 0.716805
O O13 0.432830 0.867267 0.890847
O O14 0.728342 0.250000 0.428607
#
# Coordination Sequence:
#
# PCOD9161810 Si02
#       6
#     4   4   4   4   4   4
#     4   9  18  33  53  78 111 150 187 224 272 333
#     4  10  20  34  54  82 113 143 181 230 282 333
#     4  10  22  40  60  81 108 147 193 236 280 334
#     4  10  22  40  60  81 108 147 193 236 280 334
#     4  10  20  34  54  82 113 143 181 230 282 333
#     4   9  18  33  53  78 111 150 187 224 272 333
#
# _framework density 25.762013
#
# number of rings (size 3 to 8) (size 9 to 14) (size 15 to 20)
#    0.000    2.333    0.000    2.000    0.000    6.000 
#    0.000    3.333    0.000    0.000    0.000    0.000 
#    0.000    0.000    0.000    0.000    0.000    0.000 
#
# Total GULP energy -133893.676215 kJ/mol
# GULP energy per Si atom -5578.903176 kJ/mol
# Density = 2.570338 g / cm^3
# Si number density = 25.762013 Si / 1000 Ang^3
#
#
#
# Elastic Constant Matrix: (Units=GPa)
#
#
# Indices 1 2 3 4 5 6 
#
# 1 79.7883 23.6344 13.2551 0.0000 -19.3161 0.0000
# 2 23.6344 290.5002 19.5959 0.0000 -2.0475 0.0000
# 3 13.2551 19.5959 52.4331 0.0000 5.4505 0.0000
# 4 0.0000 0.0000 0.0000 -8.8855 0.0000 0.9772
# 5 -19.3161 -2.0475 5.4505 0.0000 26.7558 0.0000
# 6 0.0000 0.0000 0.0000 0.9772 0.0000 -10.8142
#
#
#
# Elastic Compliance Matrix: (Units=1/GPa)
#
#
# Indices 1 2 3 4 5 6 
#
# 1 0.016880 -0.000923 -0.005294 0.000000 0.013195 0.000000
# 2 -0.000923 0.003590 -0.001091 0.000000 -0.000170 0.000000
# 3 -0.005294 -0.001091 0.021683 0.000000 -0.008323 0.000000
# 4 0.000000 0.000000 0.000000 -0.113673 0.000000 -0.010272
# 5 0.013195 -0.000170 -0.008323 0.000000 0.048583 0.000000
# 6 0.000000 0.000000 0.000000 -0.010272 0.000000 -0.093400
#
#
# Mechanical properties :
#
#
# Convention : Reuss Voigt Hill
#
# Bulk Modulus (GPa) = 36.31392 59.52138 47.91765
# Shear Modulus (GPa) = -54.03011 25.82696 -14.10157
#
# Velocity S-wave (km/s) = -4.58457 3.16970 -2.34215
# Velocity P-wave (km/s) = 3.72799 6.04570 3.36545
#
# Compressibility (1/GPa) = 0.02753765
#
# Stress axis : x y z
#
# Youngs Moduli (GPa) = 59.24025 278.56522 46.11916
#
# Poissons Ratio (x) = 0.25718 0.24415
# Poissons Ratio (y) = 0.05469 0.05030
# Poissons Ratio (z) = 0.31361 0.30380
#
# Static dielectric constant tensor:
#      x y z
#    x 1.974790 0.000000 0.026340 
#    y 0.000000 2.129760 0.000000 
#    z 0.026340 0.000000 2.026770 
# 
# From -- ./inp_files/59128.got.cif
#   From: 2010.05.17/outbox.cif.g08.bks.cpg/sg11_30_cif.got.tgz:59128.got - 2010.06.03 12:22:45.
