data_PCOD9161322
_publ_section_title
;
Structure prediction by ZEFSAII (Michael W. Deem and Ramdas Pophale) SiO2 
 PCOD9161322
Probable space group: P 21/M
;
_chemical_formula_sum "Si O2"
_cell_formula_units_Z 32
_cell_length_a 23.314489
_cell_length_b 7.808118
_cell_length_c 28.389908
_cell_angle_alpha 90.000000
_cell_angle_beta 17.732804
_cell_angle_gamma 90.000000
_cell_volume 1574.111242
_symmetry_space_group_name_H-M "P 21/M"
_symmetry_group_IT_number 11
_symmetry_cell_setting 'monoclinic'
loop_
_space_group_symop_operation_xyz
x,y,z
-x,1/2+y,-z
-x,-y,-z
x,1/2-y,z
loop_
_atom_site_type_symbol
_atom_site_label
_atom_site_fract_x
_atom_site_fract_y
_atom_site_fract_z
Si Si1 0.778149 0.959762 0.405614
Si Si2 0.508858 0.949158 0.047388
Si Si3 0.710260 0.543641 0.351729
Si Si4 0.966979 0.456253 0.971605
Si Si5 0.189311 0.542989 0.116238
Si Si6 0.489569 0.460195 0.208504
Si Si7 0.552568 0.459661 0.265809
Si Si8 0.200972 0.056494 0.361237
O O1 0.779562 0.750000 0.404168
O O2 0.752554 0.016834 0.371715
O O3 0.603382 0.014430 0.574514
O O4 0.977690 0.014871 0.271424
O O5 0.463194 0.750000 0.087515
O O6 0.353587 0.046746 0.199938
O O7 0.500000 0.000000 0.000000
O O8 0.710232 0.982309 0.914511
O O9 0.500000 0.500000 0.500000
O O10 0.724148 0.750000 0.341888
O O11 0.865603 0.479337 0.193026
O O12 0.965400 0.250000 0.968828
O O13 0.761706 0.517586 0.115863
O O14 0.000000 0.500000 0.000000
O O15 0.188552 0.750000 0.118255
O O16 0.327729 0.490563 0.965169
O O17 0.488044 0.250000 0.209539
O O18 0.502036 0.514800 0.252523
O O19 0.307364 0.526944 0.322536
O O20 0.553318 0.250000 0.265462
O O21 0.171106 0.250000 0.399438
O O22 0.000000 0.000000 0.500000
#
# Coordination Sequence:
#
# PCOD9161322 Si02
#       8
#     4   4   4   4   4   4   4   4
#     4   9  17  29  49  75 103 134 174 219 266 320
#     4  11  22  37  56  79 108 143 182 225 271 325
#     4  10  20  34  52  77 106 141 180 221 267 317
#     4  10  20  33  52  75 103 136 174 217 262 310
#     4   9  17  32  52  74 100 132 170 216 267 323
#     4   8  15  28  47  70  98 130 168 210 255 306
#     4   9  16  28  48  75 100 128 169 216 258 306
#     4  10  20  35  55  81 111 144 180 222 270 323
#
# _framework density 20.328931999999998
#
# number of rings (size 3 to 8) (size 9 to 14) (size 15 to 20)
#    0.000    2.500    0.000    3.750    0.000    5.500 
#    0.000    3.125    0.000    7.500    0.000    0.000 
#    0.000    0.000    0.000    0.000    0.000    0.000 
#
# Total GULP energy -178609.150590 kJ/mol
# GULP energy per Si atom -5581.535956 kJ/mol
# Density = 2.028266 g / cm^3
# Si number density = 20.328932 Si / 1000 Ang^3
#
#
#
# Elastic Constant Matrix: (Units=GPa)
#
#
# Indices 1 2 3 4 5 6 
#
# 1 214.6581 -3.0895 120.0295 0.0000 -6.9431 0.0000
# 2 -3.0895 23.8605 3.9693 0.0000 -2.1778 0.0000
# 3 120.0295 3.9693 186.4114 0.0000 -21.4652 0.0000
# 4 0.0000 0.0000 0.0000 18.2730 0.0000 -5.3746
# 5 -6.9431 -2.1778 -21.4652 0.0000 35.5562 0.0000
# 6 0.0000 0.0000 0.0000 -5.3746 0.0000 20.3966
#
#
#
# Elastic Compliance Matrix: (Units=1/GPa)
#
#
# Indices 1 2 3 4 5 6 
#
# 1 0.007421 0.001656 -0.004981 0.000000 -0.001457 0.000000
# 2 0.001656 0.042588 -0.001758 0.000000 0.001871 0.000000
# 3 -0.004981 -0.001758 0.009119 0.000000 0.004425 0.000000
# 4 0.000000 0.000000 0.000000 0.059323 0.000000 0.015632
# 5 -0.001457 0.001871 0.004425 0.000000 0.030626 0.000000
# 6 0.000000 0.000000 0.000000 0.015632 0.000000 0.053147
#
#
# Mechanical properties :
#
#
# Convention : Reuss Voigt Hill
#
# Bulk Modulus (GPa) = 20.42403 74.08319 47.25361
# Shear Modulus (GPa) = 21.86186 35.11320 28.48753
#
# Velocity S-wave (km/s) = 3.28290 4.16053 3.74749
# Velocity P-wave (km/s) = 4.94353 7.72019 6.48228
#
# Compressibility (1/GPa) = 0.04896193
#
# Stress axis : x y z
#
# Youngs Moduli (GPa) = 134.76132 23.48084 109.66507
#
# Poissons Ratio (x) = -0.03890 0.54625
# Poissons Ratio (y) = -0.22323 0.19280
# Poissons Ratio (z) = 0.67125 0.04128
#
# Static dielectric constant tensor:
#      x y z
#    x 1.697810 0.000000 -0.012130 
#    y 0.000000 1.766950 0.000000 
#    z -0.012130 0.000000 1.715070 
# 
# From -- ./inp_files/72085.got.cif
#   From: 2010.05.17/outbox.cif.g08.bks.cpg/sg11_37_cif.got.tgz:72085.got - 2010.06.03 12:22:45.
