data_PCOD9161361
_publ_section_title
;
Structure prediction by ZEFSAII (Michael W. Deem and Ramdas Pophale) SiO2 
 PCOD9161361
Probable space group: P 21/M
;
_chemical_formula_sum "Si O2"
_cell_formula_units_Z 28
_cell_length_a 15.387959
_cell_length_b 9.072684
_cell_length_c 12.123981
_cell_angle_alpha 90.000000
_cell_angle_beta 63.075325
_cell_angle_gamma 90.000000
_cell_volume 1509.153375
_symmetry_space_group_name_H-M "P 21/M"
_symmetry_group_IT_number 11
_symmetry_cell_setting 'monoclinic'
loop_
_space_group_symop_operation_xyz
x,y,z
-x,1/2+y,-z
-x,-y,-z
x,1/2-y,z
loop_
_atom_site_type_symbol
_atom_site_label
_atom_site_fract_x
_atom_site_fract_y
_atom_site_fract_z
Si Si1 0.779134 0.426241 0.934526
Si Si2 0.698637 0.925896 0.443932
Si Si3 0.083843 0.423068 0.304324
Si Si4 0.406150 0.573343 0.109272
Si Si5 0.139566 0.923222 0.497818
Si Si6 0.313967 0.426000 0.804013
Si Si7 0.456911 0.573741 0.325215
O O1 0.788035 0.250000 0.930894
O O2 0.874730 0.499913 0.828175
O O3 0.690351 0.467365 0.902507
O O4 0.749167 0.487458 0.070648
O O5 0.700928 0.750000 0.455340
O O6 0.712274 0.960261 0.307181
O O7 0.780984 0.001086 0.470951
O O8 0.595971 0.987843 0.546908
O O9 0.107396 0.250000 0.290560
O O10 0.132086 0.500986 0.382807
O O11 0.967663 0.438322 0.386507
O O12 0.417131 0.750000 0.096619
O O13 0.404714 0.535111 0.239441
O O14 0.500000 0.500000 0.000000
O O15 0.161718 0.750000 0.471181
O O16 0.303020 0.250000 0.827933
O O17 0.428823 0.460991 0.752378
O O18 0.448439 0.750000 0.348075
#
# Coordination Sequence:
#
# PCOD9161361 Si02
#       7
#     4   4   4   4   4   4   4
#     4  11  22  35  56  87 118 151 190 231 284 342
#     4  11  23  37  57  84 112 149 196 239 283 335
#     4  10  21  38  63  90 115 146 182 228 285 342
#     4  10  20  33  52  79 110 144 180 222 273 328
#     4  10  21  39  62  88 116 145 184 232 284 339
#     4  10  22  39  56  78 113 156 198 237 278 333
#     4  10  20  36  57  80 112 152 190 235 287 335
#
# _framework density 18.553447999999999
#
# number of rings (size 3 to 8) (size 9 to 14) (size 15 to 20)
#    0.000    1.714    1.429    3.000    0.000    5.714 
#    0.000    0.714    0.000    0.000    0.000    0.000 
#    0.000    0.000    0.000    0.000    0.000    0.000 
#
# Total GULP energy -156498.049199 kJ/mol
# GULP energy per Si atom -5589.216043 kJ/mol
# Density = 1.851122 g / cm^3
# Si number density = 18.553448 Si / 1000 Ang^3
#
#
#
# Elastic Constant Matrix: (Units=GPa)
#
#
# Indices 1 2 3 4 5 6 
#
# 1 36.7827 26.3270 30.0791 0.0000 6.3632 0.0000
# 2 26.3270 69.0427 73.6579 0.0000 -2.3029 0.0000
# 3 30.0791 73.6579 145.2633 0.0000 -1.8381 0.0000
# 4 0.0000 0.0000 0.0000 36.6783 0.0000 -2.6193
# 5 6.3632 -2.3029 -1.8381 0.0000 18.6924 0.0000
# 6 0.0000 0.0000 0.0000 -2.6193 0.0000 25.5474
#
#
#
# Elastic Compliance Matrix: (Units=1/GPa)
#
#
# Indices 1 2 3 4 5 6 
#
# 1 0.041874 -0.015335 -0.001100 0.000000 -0.016252 0.000000
# 2 -0.015335 0.037269 -0.015618 0.000000 0.008276 0.000000
# 3 -0.001100 -0.015618 0.015030 0.000000 -0.000072 0.000000
# 4 0.000000 0.000000 0.000000 0.027465 0.000000 0.002816
# 5 -0.016252 0.008276 -0.000072 0.000000 0.060043 0.000000
# 6 0.000000 0.000000 0.000000 0.002816 0.000000 0.039432
#
#
# Mechanical properties :
#
#
# Convention : Reuss Voigt Hill
#
# Bulk Modulus (GPa) = 33.25950 56.80185 45.03068
# Shear Modulus (GPa) = 16.93527 24.25195 20.59361
#
# Velocity S-wave (km/s) = 3.02451 3.61936 3.33522
# Velocity P-wave (km/s) = 5.49200 6.93888 6.25740
#
# Compressibility (1/GPa) = 0.03006660
#
# Stress axis : x y z
#
# Youngs Moduli (GPa) = 23.88105 26.83187 66.53295
#
# Poissons Ratio (x) = 0.41148 0.07321
# Poissons Ratio (y) = 0.36623 1.03909
# Poissons Ratio (z) = 0.02628 0.41905
#
# Static dielectric constant tensor:
#      x y z
#    x 1.634500 0.000000 -0.004940 
#    y 0.000000 1.613740 0.000000 
#    z -0.004940 0.000000 1.628110 
# 
# From -- ./inp_files/37432.got.cif
#   From: 2010.05.17/outbox.cif.g08.bks.cpg/sg11_19_cif.got.tgz:37432.got - 2010.06.03 12:22:45.
