data_PCOD9161259
_publ_section_title
;
Structure prediction by ZEFSAII (Michael W. Deem and Ramdas Pophale) SiO2 
 PCOD9161259
Probable space group: P 21/M
;
_chemical_formula_sum "Si O2"
_cell_formula_units_Z 32
_cell_length_a 12.754735
_cell_length_b 13.057365
_cell_length_c 11.129665
_cell_angle_alpha 90.000000
_cell_angle_beta 102.208098
_cell_angle_gamma 90.000000
_cell_volume 1811.653753
_symmetry_space_group_name_H-M "P 21/M"
_symmetry_group_IT_number 11
_symmetry_cell_setting 'monoclinic'
loop_
_space_group_symop_operation_xyz
x,y,z
-x,1/2+y,-z
-x,-y,-z
x,1/2-y,z
loop_
_atom_site_type_symbol
_atom_site_label
_atom_site_fract_x
_atom_site_fract_y
_atom_site_fract_z
Si Si1 0.011953 0.868438 0.585301
Si Si2 0.932211 0.130875 0.941061
Si Si3 0.843317 0.980792 0.716351
Si Si4 0.846852 0.956118 0.074467
Si Si5 0.850006 0.554956 0.358093
Si Si6 0.487091 0.128941 0.366890
Si Si7 0.307903 0.129815 0.139388
Si Si8 0.667825 0.975984 0.482855
O O1 0.028461 0.750000 0.615936
O O2 0.118414 0.936624 0.606549
O O3 0.937552 0.924800 0.666531
O O4 0.945536 0.881805 0.444942
O O5 0.781558 0.897799 0.782434
O O6 0.885749 0.069592 0.814113
O O7 0.885432 0.069803 0.044687
O O8 0.060241 0.114065 0.963207
O O9 0.754567 0.018458 0.599844
O O10 0.589979 0.901625 0.539826
O O11 0.845295 0.934751 0.214802
O O12 0.733146 0.931572 0.986009
O O13 0.739711 0.578917 0.399423
O O14 0.506168 0.250000 0.371584
O O15 0.420020 0.101736 0.230105
O O16 0.593960 0.063183 0.407895
O O17 0.308786 0.250000 0.114227
O O18 0.905904 0.250000 0.934948
#
# Coordination Sequence:
#
# PCOD9161259 Si02
#       8
#     4   4   4   4   4   4   4   4
#     4  10  20  34  52  74 110 148 173 209 257 314
#     4  10  20  33  51  73 104 144 181 219 255 299
#     4   9  17  33  51  78 106 134 177 211 260 316
#     4  10  20  35  48  73 107 140 181 217 250 314
#     4  10  21  36  48  78 110 140 180 210 258 323
#     4   9  18  35  56  78  97 126 174 222 270 319
#     4   9  17  30  52  74  97 132 177 223 260 297
#     4   9  19  34  55  76 106 133 162 220 270 316
#
# _framework density 17.663419999999999
#
# number of rings (size 3 to 8) (size 9 to 14) (size 15 to 20)
#    0.000    2.500    1.250    0.750    0.000    5.500 
#    0.000    0.625    0.000    0.000    0.000    0.000 
#    0.000    0.000    0.000    0.000    0.000    0.000 
#
# Total GULP energy -178385.018796 kJ/mol
# GULP energy per Si atom -5574.531837 kJ/mol
# Density = 1.762322 g / cm^3
# Si number density = 17.663420 Si / 1000 Ang^3
#
#
#
# Elastic Constant Matrix: (Units=GPa)
#
#
# Indices 1 2 3 4 5 6 
#
# 1 28.4061 -11.8274 6.3737 0.0000 8.3049 0.0000
# 2 -11.8274 50.0730 -9.4952 0.0000 10.3471 0.0000
# 3 6.3737 -9.4952 82.5936 0.0000 5.7040 0.0000
# 4 0.0000 0.0000 0.0000 14.1108 0.0000 3.9777
# 5 8.3049 10.3471 5.7040 0.0000 24.9096 0.0000
# 6 0.0000 0.0000 0.0000 3.9777 0.0000 9.7369
#
#
#
# Elastic Compliance Matrix: (Units=1/GPa)
#
#
# Indices 1 2 3 4 5 6 
#
# 1 0.048697 0.016170 -0.000319 0.000000 -0.022879 0.000000
# 2 0.016170 0.028074 0.003208 0.000000 -0.017787 0.000000
# 3 -0.000319 0.003208 0.012788 0.000000 -0.004155 0.000000
# 4 0.000000 0.000000 0.000000 0.080091 0.000000 -0.032718
# 5 -0.022879 -0.017787 -0.004155 0.000000 0.056113 0.000000
# 6 0.000000 0.000000 0.000000 -0.032718 0.000000 0.116068
#
#
# Mechanical properties :
#
#
# Convention : Reuss Voigt Hill
#
# Bulk Modulus (GPa) = 7.83229 14.57499 11.20364
# Shear Modulus (GPa) = 14.43955 21.48624 17.96290
#
# Velocity S-wave (km/s) = 2.86227 3.49151 3.19243
# Velocity P-wave (km/s) = 3.92011 4.95214 4.46603
#
# Compressibility (1/GPa) = 0.12767652
#
# Stress axis : x y z
#
# Youngs Moduli (GPa) = 20.53518 35.62003 78.19950
#
# Poissons Ratio (x) = -0.57596 0.02494
# Poissons Ratio (y) = -0.33205 -0.25087
# Poissons Ratio (z) = 0.00655 -0.11427
#
# Static dielectric constant tensor:
#      x y z
#    x 1.597160 0.000000 0.006080 
#    y 0.000000 1.582600 0.000000 
#    z 0.006080 0.000000 1.645410 
# 
# From -- ./inp_files/35120.got.cif
#   From: 2010.05.17/outbox.cif.g08.bks.cpg/sg11_18_cif.got.tgz:35120.got - 2010.06.03 12:22:45.
