data_PCOD9161462
_publ_section_title
;
Structure prediction by ZEFSAII (Michael W. Deem and Ramdas Pophale) SiO2 
 PCOD9161462
Probable space group: P 21/M
;
_chemical_formula_sum "Si O2"
_cell_formula_units_Z 24
_cell_length_a 5.512619
_cell_length_b 9.647278
_cell_length_c 23.153433
_cell_angle_alpha 90.000000
_cell_angle_beta 119.368642
_cell_angle_gamma 90.000000
_cell_volume 1073.091518
_symmetry_space_group_name_H-M "P 21/M"
_symmetry_group_IT_number 11
_symmetry_cell_setting 'monoclinic'
loop_
_space_group_symop_operation_xyz
x,y,z
-x,1/2+y,-z
-x,-y,-z
x,1/2-y,z
loop_
_atom_site_type_symbol
_atom_site_label
_atom_site_fract_x
_atom_site_fract_y
_atom_site_fract_z
Si Si1 0.268395 0.095149 0.035750
Si Si2 0.181102 0.596441 0.600219
Si Si3 0.746321 0.593963 0.100661
Si Si4 0.784017 0.581520 0.794765
Si Si5 0.129962 0.584019 0.721888
Si Si6 0.622345 0.903005 0.465192
O O1 0.224261 0.250000 0.054800
O O2 0.511318 0.011417 0.096116
O O3 0.337087 0.113246 0.975915
O O4 0.000000 0.000000 0.000000
O O5 0.315427 0.750000 0.623722
O O6 0.053301 0.551193 0.646492
O O7 0.379107 0.482018 0.595745
O O8 0.938620 0.613721 0.525011
O O9 0.757070 0.750000 0.127178
O O10 0.031983 0.509025 0.139733
O O11 0.814727 0.750000 0.805284
O O12 0.458213 0.546026 0.762636
O O13 0.925671 0.539025 0.749520
O O14 0.121979 0.750000 0.725089
O O15 0.494640 0.750000 0.448313
O O16 0.500000 0.000000 0.500000
#
# Coordination Sequence:
#
# PCOD9161462 Si02
#       6
#     4   4   4   4   4   4
#     4  10  21  37  60  87 116 152 195 243 299 355
#     4   9  19  36  57  81 111 149 192 243 293 350
#     4  10  22  39  57  84 118 153 193 242 298 357
#     4  10  21  38  60  88 116 154 201 247 291 351
#     4   9  20  37  61  87 114 152 203 248 293 348
#     4  10  20  33  55  84 114 149 191 240 299 353
#
# _framework density 22.365290000000002
#
# number of rings (size 3 to 8) (size 9 to 14) (size 15 to 20)
#    0.000    2.333    0.000    1.500    4.667    2.667 
#    0.000    1.667    0.000    0.000    0.000    0.000 
#    0.000    0.000    0.000    0.000    0.000    0.000 
#
# Total GULP energy -133774.734879 kJ/mol
# GULP energy per Si atom -5573.947287 kJ/mol
# Density = 2.231439 g / cm^3
# Si number density = 22.365290 Si / 1000 Ang^3
#
#
#
# Elastic Constant Matrix: (Units=GPa)
#
#
# Indices 1 2 3 4 5 6 
#
# 1 70.5750 27.8752 15.7313 0.0000 -13.3587 0.0000
# 2 27.8752 141.8384 6.5683 0.0000 -2.2271 0.0000
# 3 15.7313 6.5683 73.5216 0.0000 -15.5576 0.0000
# 4 0.0000 0.0000 0.0000 22.2601 0.0000 -4.6415
# 5 -13.3587 -2.2271 -15.5576 0.0000 44.3036 0.0000
# 6 0.0000 0.0000 0.0000 -4.6415 0.0000 15.4256
#
#
#
# Elastic Compliance Matrix: (Units=1/GPa)
#
#
# Indices 1 2 3 4 5 6 
#
# 1 0.016702 -0.003106 -0.002445 0.000000 0.004021 0.000000
# 2 -0.003106 0.007658 -0.000147 0.000000 -0.000603 0.000000
# 3 -0.002445 -0.000147 0.015102 0.000000 0.004559 0.000000
# 4 0.000000 0.000000 0.000000 0.047931 0.000000 0.014422
# 5 0.004021 -0.000603 0.004559 0.000000 0.025355 0.000000
# 6 0.000000 0.000000 0.000000 0.014422 0.000000 0.069167
#
#
# Mechanical properties :
#
#
# Convention : Reuss Voigt Hill
#
# Bulk Modulus (GPa) = 35.63083 42.92050 39.27567
# Shear Modulus (GPa) = 24.67096 32.11521 28.39308
#
# Velocity S-wave (km/s) = 3.32489 3.79349 3.56689
# Velocity P-wave (km/s) = 5.54127 6.19837 5.87901
#
# Compressibility (1/GPa) = 0.02806558
#
# Stress axis : x y z
#
# Youngs Moduli (GPa) = 59.87159 130.58140 66.21443
#
# Poissons Ratio (x) = 0.40560 0.16192
# Poissons Ratio (y) = 0.18597 0.00975
# Poissons Ratio (z) = 0.14641 0.01922
#
# Static dielectric constant tensor:
#      x y z
#    x 1.890190 0.000000 -0.015000 
#    y 0.000000 1.907120 0.000000 
#    z -0.015000 0.000000 1.893070 
# 
# From -- ./inp_files/67528.got.cif
#   From: 2010.05.17/outbox.cif.g08.bks.cpg/sg11_34_cif.got.tgz:67528.got - 2010.06.03 12:22:45.
