data_PCOD9161534
_publ_section_title
;
Structure prediction by ZEFSAII (Michael W. Deem and Ramdas Pophale) SiO2 
 PCOD9161534
Probable space group: P 21/M
;
_chemical_formula_sum "Si O2"
_cell_formula_units_Z 24
_cell_length_a 10.508445
_cell_length_b 20.457454
_cell_length_c 10.275688
_cell_angle_alpha 90.000000
_cell_angle_beta 28.172607
_cell_angle_gamma 90.000000
_cell_volume 1042.946325
_symmetry_space_group_name_H-M "P 21/M"
_symmetry_group_IT_number 11
_symmetry_cell_setting 'monoclinic'
loop_
_space_group_symop_operation_xyz
x,y,z
-x,1/2+y,-z
-x,-y,-z
x,1/2-y,z
loop_
_atom_site_type_symbol
_atom_site_label
_atom_site_fract_x
_atom_site_fract_y
_atom_site_fract_z
Si Si1 0.746381 0.176841 0.227290
Si Si2 0.225918 0.011281 0.528418
Si Si3 0.781651 0.591594 0.230603
Si Si4 0.163944 0.151875 0.068730
Si Si5 0.277995 0.868688 0.356382
Si Si6 0.641035 0.055174 0.962968
O O1 0.691436 0.250000 0.226178
O O2 0.475079 0.138452 0.509913
O O3 0.949120 0.130184 0.963240
O O4 0.942326 0.185034 0.176763
O O5 0.240855 0.025695 0.668044
O O6 0.934213 0.030093 0.737123
O O7 0.283403 0.938063 0.429815
O O8 0.444152 0.058810 0.263077
O O9 0.810171 0.586769 0.047935
O O10 0.471059 0.172097 0.813702
O O11 0.020863 0.152733 0.336783
O O12 0.326017 0.883435 0.162322
O O13 0.500000 0.000000 0.000000
#
# Coordination Sequence:
#
# PCOD9161534 Si02
#       6
#     4   4   4   4   4   4
#     4  10  20  38  55  76 105 131 173 223 268 322
#     4  11  21  34  52  77 113 146 176 215 243 304
#     4  10  21  35  52  83 107 128 184 203 274 323
#     4  10  20  34  50  83 105 132 181 204 269 320
#     4  11  19  33  52  75 114 144 172 211 245 303
#     4  10  20  34  51  74 103 153 193 201 237 293
#
# _framework density 23.011731999999999
#
# number of rings (size 3 to 8) (size 9 to 14) (size 15 to 20)
#    1.000    0.667    1.667    6.500    0.000    1.333 
#    0.000    0.000    0.000    0.000    0.000   23.333 
#    0.000    0.000    0.000    0.000    0.000    0.000 
#
# Total GULP energy -133671.294668 kJ/mol
# GULP energy per Si atom -5569.637278 kJ/mol
# Density = 2.295936 g / cm^3
# Si number density = 23.011732 Si / 1000 Ang^3
#
#
#
# Elastic Constant Matrix: (Units=GPa)
#
#
# Indices 1 2 3 4 5 6 
#
# 1 35.6653 3.7134 33.7426 0.0000 -14.3193 0.0000
# 2 3.7134 42.5905 20.5437 0.0000 -13.1440 0.0000
# 3 33.7426 20.5437 176.8854 0.0000 -22.1016 0.0000
# 4 0.0000 0.0000 0.0000 -30.0319 0.0000 11.3858
# 5 -14.3193 -13.1440 -22.1016 0.0000 42.5973 0.0000
# 6 0.0000 0.0000 0.0000 11.3858 0.0000 -0.8373
#
#
#
# Elastic Compliance Matrix: (Units=1/GPa)
#
#
# Indices 1 2 3 4 5 6 
#
# 1 0.037817 0.002921 -0.006258 0.000000 0.010367 0.000000
# 2 0.002921 0.026966 -0.002702 0.000000 0.007901 0.000000
# 3 -0.006258 -0.002702 0.007265 0.000000 0.000832 0.000000
# 4 0.000000 0.000000 0.000000 0.008014 0.000000 0.108966
# 5 0.010367 0.007901 0.000832 0.000000 0.029830 0.000000
# 6 0.000000 0.000000 0.000000 0.108966 0.000000 0.287414
#
#
# Mechanical properties :
#
#
# Convention : Reuss Voigt Hill
#
# Bulk Modulus (GPa) = 16.67503 41.23787 28.95645
# Shear Modulus (GPa) = 11.64486 15.48838 13.56662
#
# Velocity S-wave (km/s) = 2.25197 2.59716 2.43070
# Velocity P-wave (km/s) = 3.74485 5.19162 4.52641
#
# Compressibility (1/GPa) = 0.05996990
#
# Stress axis : x y z
#
# Youngs Moduli (GPa) = 26.44315 37.08338 137.64832
#
# Poissons Ratio (x) = -0.10831 0.86138
# Poissons Ratio (y) = -0.07723 0.37191
# Poissons Ratio (z) = 0.16548 0.10019
#
# Static dielectric constant tensor:
#      x y z
#    x 1.866890 0.000000 0.064280 
#    y 0.000000 1.949090 0.000000 
#    z 0.064280 0.000000 1.946410 
# 
# From -- ./inp_files/36665.got.cif
#   From: 2010.05.17/outbox.cif.g08.bks.cpg/sg11_19_cif.got.tgz:36665.got - 2010.06.03 12:22:45.
