data_PCOD9161002
_publ_section_title
;
Structure prediction by ZEFSAII (Michael W. Deem and Ramdas Pophale) SiO2 
 PCOD9161002
Probable space group: P 21/M
;
_chemical_formula_sum "Si O2"
_cell_formula_units_Z 32
_cell_length_a 12.733137
_cell_length_b 8.956194
_cell_length_c 25.952300
_cell_angle_alpha 90.000000
_cell_angle_beta 35.550783
_cell_angle_gamma 90.000000
_cell_volume 1720.790255
_symmetry_space_group_name_H-M "P 21/M"
_symmetry_group_IT_number 11
_symmetry_cell_setting 'monoclinic'
loop_
_space_group_symop_operation_xyz
x,y,z
-x,1/2+y,-z
-x,-y,-z
x,1/2-y,z
loop_
_atom_site_type_symbol
_atom_site_label
_atom_site_fract_x
_atom_site_fract_y
_atom_site_fract_z
Si Si1 0.968332 0.583510 0.733580
Si Si2 0.651243 0.579799 0.301568
Si Si3 0.121231 0.927791 0.378279
Si Si4 0.347453 0.574398 0.189619
Si Si5 0.317370 0.080559 0.587609
Si Si6 0.987488 0.581752 0.849147
Si Si7 0.243922 0.571770 0.446445
Si Si8 0.395761 0.572178 0.991890
O O1 0.917904 0.750000 0.735111
O O2 0.819756 0.459745 0.781423
O O3 0.992716 0.593375 0.784950
O O4 0.153199 0.523723 0.636129
O O5 0.653572 0.750000 0.280140
O O6 0.684553 0.588558 0.349565
O O7 0.448033 0.517881 0.375772
O O8 0.820002 0.488084 0.211660
O O9 0.098908 0.750000 0.380708
O O10 0.264981 0.976023 0.277455
O O11 0.199758 0.955997 0.403890
O O12 0.922830 0.000786 0.455874
O O13 0.390722 0.750000 0.174265
O O14 0.506861 0.483174 0.099217
O O15 0.304087 0.250000 0.572944
O O16 0.500000 0.000000 0.500000
O O17 0.963877 0.750000 0.879061
O O18 0.810955 0.482197 0.929242
O O19 0.242296 0.750000 0.456427
O O20 0.408281 0.750000 0.992280
O O21 0.500000 0.500000 0.000000
#
# Coordination Sequence:
#
# PCOD9161002 Si02
#       8
#     4   4   4   4   4   4   4   4
#     4  10  20  33  49  70 101 140 180 216 259 314
#     4   9  19  34  53  76 102 139 180 220 268 321
#     4   9  20  36  55  82 111 141 181 227 275 321
#     4  11  22  35  53  79 110 144 179 224 272 320
#     4  10  20  32  45  68 102 139 177 217 262 316
#     4  10  20  35  54  78 107 140 178 221 262 315
#     4   9  18  36  59  81 108 143 182 226 274 324
#     4  12  23  36  56  80 109 146 183 222 267 322
#
# _framework density 18.596105999999999
#
# number of rings (size 3 to 8) (size 9 to 14) (size 15 to 20)
#    0.000    2.000    1.250    2.625    1.750    3.000 
#    0.000    0.000    0.000    0.750    0.000    0.000 
#    0.000    0.000    0.000    0.000    0.000    0.000 
#
# Total GULP energy -178431.536726 kJ/mol
# GULP energy per Si atom -5575.985523 kJ/mol
# Density = 1.855378 g / cm^3
# Si number density = 18.596106 Si / 1000 Ang^3
#
#
#
# Elastic Constant Matrix: (Units=GPa)
#
#
# Indices 1 2 3 4 5 6 
#
# 1 38.1903 18.1333 23.7608 0.0000 -5.2877 0.0000
# 2 18.1333 91.2563 62.7667 0.0000 -1.6054 0.0000
# 3 23.7608 62.7667 133.6305 0.0000 -6.7338 0.0000
# 4 0.0000 0.0000 0.0000 32.3899 0.0000 -3.8553
# 5 -5.2877 -1.6054 -6.7338 0.0000 25.9348 0.0000
# 6 0.0000 0.0000 0.0000 -3.8553 0.0000 14.7667
#
#
#
# Elastic Compliance Matrix: (Units=1/GPa)
#
#
# Indices 1 2 3 4 5 6 
#
# 1 0.030801 -0.003606 -0.003524 0.000000 0.005142 0.000000
# 2 -0.003606 0.016635 -0.007252 0.000000 -0.001589 0.000000
# 3 -0.003524 -0.007252 0.011609 0.000000 0.001847 0.000000
# 4 0.000000 0.000000 0.000000 0.031864 0.000000 0.008319
# 5 0.005142 -0.001589 0.001847 0.000000 0.039988 0.000000
# 6 0.000000 0.000000 0.000000 0.008319 0.000000 0.069892
#
#
# Mechanical properties :
#
#
# Convention : Reuss Voigt Hill
#
# Bulk Modulus (GPa) = 33.02417 52.48873 42.75645
# Shear Modulus (GPa) = 20.86396 25.17937 23.02167
#
# Velocity S-wave (km/s) = 3.35319 3.68368 3.52232
# Velocity P-wave (km/s) = 5.72617 6.81026 6.29161
#
# Compressibility (1/GPa) = 0.03028085
#
# Stress axis : x y z
#
# Youngs Moduli (GPa) = 32.46620 60.11423 86.13713
#
# Poissons Ratio (x) = 0.21679 0.30353
# Poissons Ratio (y) = 0.11708 0.62469
# Poissons Ratio (z) = 0.11440 0.43597
#
# Static dielectric constant tensor:
#      x y z
#    x 1.650740 0.000000 -0.010690 
#    y 0.000000 1.657880 0.000000 
#    z -0.010690 0.000000 1.719050 
# 
# From -- ./inp_files/73298.got.cif
#   From: 2010.05.17/outbox.cif.g08.bks.cpg/sg11_37_cif.got.tgz:73298.got - 2010.06.03 12:22:45.
