data_PCOD9161461
_publ_section_title
;
Structure prediction by ZEFSAII (Michael W. Deem and Ramdas Pophale) SiO2 
 PCOD9161461
Probable space group: P 21/M
;
_chemical_formula_sum "Si O2"
_cell_formula_units_Z 32
_cell_length_a 29.132792
_cell_length_b 9.420896
_cell_length_c 5.249224
_cell_angle_alpha 90.000000
_cell_angle_beta 87.383101
_cell_angle_gamma 90.000000
_cell_volume 1439.183866
_symmetry_space_group_name_H-M "P 21/M"
_symmetry_group_IT_number 11
_symmetry_cell_setting 'monoclinic'
loop_
_space_group_symop_operation_xyz
x,y,z
-x,1/2+y,-z
-x,-y,-z
x,1/2-y,z
loop_
_atom_site_type_symbol
_atom_site_label
_atom_site_fract_x
_atom_site_fract_y
_atom_site_fract_z
Si Si1 0.326065 0.099687 0.263305
Si Si2 0.410733 0.080240 0.575641
Si Si3 0.280441 0.598373 0.953690
Si Si4 0.450450 0.573821 0.058484
Si Si5 0.767496 0.597268 0.435963
Si Si6 0.102324 0.579082 0.909881
Si Si7 0.817023 0.405902 0.758737
Si Si8 0.047449 0.921797 0.430248
O O1 0.341305 0.250000 0.136448
O O2 0.357331 0.081975 0.502921
O O3 0.272322 0.114964 0.341694
O O4 0.324256 0.962219 0.089034
O O5 0.424747 0.250000 0.585730
O O6 0.421336 0.994882 0.831273
O O7 0.433693 0.993758 0.332674
O O8 0.290879 0.750000 0.830976
O O9 0.260794 0.491040 0.757374
O O10 0.235396 0.615300 0.141622
O O11 0.451117 0.750000 0.058630
O O12 0.500000 0.500000 0.000000
O O13 0.780461 0.750000 0.330181
O O14 0.811120 0.515963 0.534647
O O15 0.104241 0.750000 0.893284
O O16 0.151625 0.539660 0.018885
O O17 0.066593 0.542395 0.145195
O O18 0.083729 0.532537 0.640820
O O19 0.834756 0.250000 0.670873
O O20 0.041918 0.750000 0.444232
O O21 0.000000 0.000000 0.500000
#
# Coordination Sequence:
#
# PCOD9161461 Si02
#       8
#     4   4   4   4   4   4   4   4
#     4   9  21  39  58  82 117 161 204 245 300 362
#     4  11  24  44  70  99 131 173 220 266 318 385
#     4  10  20  33  55  83 114 151 195 246 293 342
#     4  12  26  46  70 100 134 171 213 267 328 387
#     4  10  20  35  55  80 115 157 195 238 294 355
#     4   9  19  34  58  83 108 144 190 233 282 344
#     4   9  19  35  54  79 107 145 194 241 284 338
#     4  10  20  36  57  82 109 144 182 230 287 348
#
# _framework density 22.234824
#
# number of rings (size 3 to 8) (size 9 to 14) (size 15 to 20)
#    0.000    2.000    0.000    3.000    3.500    2.000 
#    0.000    1.250    0.000    0.000    0.000    0.000 
#    0.000    0.000    0.000    0.000    0.000    0.000 
#
# Total GULP energy -178336.126505 kJ/mol
# GULP energy per Si atom -5573.003953 kJ/mol
# Density = 2.218422 g / cm^3
# Si number density = 22.234824 Si / 1000 Ang^3
#
#
#
# Elastic Constant Matrix: (Units=GPa)
#
#
# Indices 1 2 3 4 5 6 
#
# 1 91.4074 24.0304 13.3011 0.0000 12.4654 0.0000
# 2 24.0304 149.5512 40.8973 0.0000 15.1870 0.0000
# 3 13.3011 40.8973 79.6694 0.0000 4.1909 0.0000
# 4 0.0000 0.0000 0.0000 41.2203 0.0000 20.3486
# 5 12.4654 15.1870 4.1909 0.0000 35.8608 0.0000
# 6 0.0000 0.0000 0.0000 20.3486 0.0000 42.1458
#
#
#
# Elastic Compliance Matrix: (Units=1/GPa)
#
#
# Indices 1 2 3 4 5 6 
#
# 1 0.011911 -0.001241 -0.001168 0.000000 -0.003478 0.000000
# 2 -0.001241 0.008208 -0.003870 0.000000 -0.002592 0.000000
# 3 -0.001168 -0.003870 0.014716 0.000000 0.000325 0.000000
# 4 0.000000 0.000000 0.000000 0.031851 0.000000 -0.015378
# 5 -0.003478 -0.002592 0.000325 0.000000 0.030154 0.000000
# 6 0.000000 0.000000 0.000000 -0.015378 0.000000 0.031152
#
#
# Mechanical properties :
#
#
# Convention : Reuss Voigt Hill
#
# Bulk Modulus (GPa) = 44.89139 53.00954 48.95046
# Shear Modulus (GPa) = 33.78916 40.00532 36.89724
#
# Velocity S-wave (km/s) = 3.90250 4.24632 4.07804
# Velocity P-wave (km/s) = 6.36706 6.92345 6.65108
#
# Compressibility (1/GPa) = 0.02227599
#
# Stress axis : x y z
#
# Youngs Moduli (GPa) = 83.95851 121.83865 67.95185
#
# Poissons Ratio (x) = 0.15122 0.07940
# Poissons Ratio (y) = 0.10420 0.26295
# Poissons Ratio (z) = 0.09810 0.47148
#
# Static dielectric constant tensor:
#      x y z
#    x 1.845070 0.000000 -0.065870 
#    y 0.000000 1.803290 0.000000 
#    z -0.065870 0.000000 1.878790 
# 
# From -- ./inp_files/9677.got.cif
#   From: 2010.05.17/outbox.cif.g08.bks.cpg/sg11_5_cif.got.tgz:9677.got - 2010.06.03 12:22:45.
