data_PCOD9161315
_publ_section_title
;
Structure prediction by ZEFSAII (Michael W. Deem and Ramdas Pophale) SiO2 
 PCOD9161315
Probable space group: P 21/M
;
_chemical_formula_sum "Si O2"
_cell_formula_units_Z 32
_cell_length_a 11.678835
_cell_length_b 8.553118
_cell_length_c 28.451903
_cell_angle_alpha 90.000000
_cell_angle_beta 144.447271
_cell_angle_gamma 90.000000
_cell_volume 1652.529141
_symmetry_space_group_name_H-M "P 21/M"
_symmetry_group_IT_number 11
_symmetry_cell_setting 'monoclinic'
loop_
_space_group_symop_operation_xyz
x,y,z
-x,1/2+y,-z
-x,-y,-z
x,1/2-y,z
loop_
_atom_site_type_symbol
_atom_site_label
_atom_site_fract_x
_atom_site_fract_y
_atom_site_fract_z
Si Si1 0.550638 0.438995 0.167515
Si Si2 0.091234 0.438963 0.460044
Si Si3 0.008820 0.059815 0.330919
Si Si4 0.272431 0.063499 0.222215
Si Si5 0.832193 0.435166 0.909541
Si Si6 0.608192 0.437647 0.081626
Si Si7 0.697208 0.563046 0.376798
Si Si8 0.062306 0.440405 0.245455
O O1 0.538835 0.250000 0.167078
O O2 0.381026 0.511324 0.142450
O O3 0.519868 0.485417 0.102614
O O4 0.776246 0.483367 0.255336
O O5 0.076732 0.250000 0.456123
O O6 0.115665 0.490305 0.414354
O O7 0.255739 0.482779 0.553253
O O8 0.885745 0.506990 0.410410
O O9 0.011207 0.250000 0.330630
O O10 0.097843 0.005761 0.310891
O O11 0.255656 0.250000 0.215461
O O12 0.198245 0.004851 0.248301
O O13 0.150179 0.996626 0.137774
O O14 0.498824 0.014759 0.292775
O O15 0.843308 0.250000 0.913042
O O16 0.000000 0.500000 0.000000
O O17 0.602738 0.250000 0.078908
O O18 0.837347 0.483854 0.158610
O O19 0.500000 0.500000 0.000000
O O20 0.680174 0.750000 0.368180
O O21 0.072368 0.250000 0.249440
#
# Coordination Sequence:
#
# PCOD9161315 Si02
#       8
#     4   4   4   4   4   4   4   4
#     4   9  18  34  55  80 108 136 175 222 273 328
#     4   9  17  31  56  84 110 143 185 230 276 326
#     4   8  14  30  56  81 105 136 177 226 272 318
#     4  11  22  38  58  78 108 148 186 221 269 329
#     4  12  26  41  57  79 108 141 180 225 275 329
#     4   9  18  32  52  78 104 133 174 225 274 320
#     4  10  20  33  51  82 117 147 182 226 276 327
#     4   8  17  33  53  77 103 137 181 223 267 323
#
# _framework density 19.364258
#
# number of rings (size 3 to 8) (size 9 to 14) (size 15 to 20)
#    0.000    2.500    0.000    4.125    1.750    2.000 
#    0.000    1.250    0.000    3.750    0.000    0.000 
#    0.000    0.000    0.000    0.000    0.000    0.000 
#
# Total GULP energy -178535.703948 kJ/mol
# GULP energy per Si atom -5579.240748 kJ/mol
# Density = 1.932018 g / cm^3
# Si number density = 19.364258 Si / 1000 Ang^3
#
#
#
# Elastic Constant Matrix: (Units=GPa)
#
#
# Indices 1 2 3 4 5 6 
#
# 1 80.8327 17.1333 35.2431 0.0000 -22.3301 0.0000
# 2 17.1333 31.8220 20.4310 0.0000 -6.9702 0.0000
# 3 35.2431 20.4310 74.9838 0.0000 -32.8311 0.0000
# 4 0.0000 0.0000 0.0000 18.0447 0.0000 -7.6136
# 5 -22.3301 -6.9702 -32.8311 0.0000 34.7931 0.0000
# 6 0.0000 0.0000 0.0000 -7.6136 0.0000 17.6437
#
#
#
# Elastic Compliance Matrix: (Units=1/GPa)
#
#
# Indices 1 2 3 4 5 6 
#
# 1 0.016847 -0.005299 -0.003758 0.000000 0.006205 0.000000
# 2 -0.005299 0.040034 -0.010897 0.000000 -0.005664 0.000000
# 3 -0.003758 -0.010897 0.027366 0.000000 0.021228 0.000000
# 4 0.000000 0.000000 0.000000 0.067754 0.000000 0.029237
# 5 0.006205 -0.005664 0.021228 0.000000 0.051620 0.000000
# 6 0.000000 0.000000 0.000000 0.029237 0.000000 0.069294
#
#
# Mechanical properties :
#
#
# Convention : Reuss Voigt Hill
#
# Bulk Modulus (GPa) = 22.55334 37.02813 29.79074
# Shear Modulus (GPa) = 15.26242 21.75170 18.50706
#
# Velocity S-wave (km/s) = 2.81049 3.35519 3.09485
# Velocity P-wave (km/s) = 4.71211 5.84578 5.30929
#
# Compressibility (1/GPa) = 0.04433933
#
# Stress axis : x y z
#
# Youngs Moduli (GPa) = 59.35842 24.97889 36.54147
#
# Poissons Ratio (x) = 0.13236 0.13731
# Poissons Ratio (y) = 0.31453 0.39820
# Poissons Ratio (z) = 0.22304 0.27220
#
# Static dielectric constant tensor:
#      x y z
#    x 1.710400 0.000000 -0.036630 
#    y 0.000000 1.651330 0.000000 
#    z -0.036630 0.000000 1.661570 
# 
# From -- ./inp_files/73196.got.cif
#   From: 2010.05.17/outbox.cif.g08.bks.cpg/sg11_37_cif.got.tgz:73196.got - 2010.06.03 12:22:45.
