data_PCOD9161539
_publ_section_title
;
Structure prediction by ZEFSAII (Michael W. Deem and Ramdas Pophale) SiO2 
 PCOD9161539
Probable space group: P 21/M
;
_chemical_formula_sum "Si O2"
_cell_formula_units_Z 32
_cell_length_a 11.507871
_cell_length_b 9.024487
_cell_length_c 21.655765
_cell_angle_alpha 90.000000
_cell_angle_beta 64.070056
_cell_angle_gamma 90.000000
_cell_volume 2022.599136
_symmetry_space_group_name_H-M "P 21/M"
_symmetry_group_IT_number 11
_symmetry_cell_setting 'monoclinic'
loop_
_space_group_symop_operation_xyz
x,y,z
-x,1/2+y,-z
-x,-y,-z
x,1/2-y,z
loop_
_atom_site_type_symbol
_atom_site_label
_atom_site_fract_x
_atom_site_fract_y
_atom_site_fract_z
Si Si1 0.473613 0.928454 0.439751
Si Si2 0.771129 0.421975 0.158110
Si Si3 0.295385 0.072485 0.704788
Si Si4 0.134972 0.571408 0.990972
Si Si5 0.040698 0.573411 0.396641
Si Si6 0.994417 0.928525 0.266399
Si Si7 0.207738 0.074363 0.461433
Si Si8 0.074993 0.077132 0.126305
O O1 0.473970 0.750000 0.444439
O O2 0.587752 0.974299 0.366231
O O3 0.500000 0.000000 0.500000
O O4 0.337088 0.986610 0.446793
O O5 0.734812 0.250000 0.170984
O O6 0.696661 0.512394 0.227413
O O7 0.765789 0.467552 0.087373
O O8 0.923376 0.433222 0.141234
O O9 0.295546 0.250000 0.706999
O O10 0.155906 0.027282 0.709201
O O11 0.123149 0.750000 0.995240
O O12 0.155077 0.507183 0.054595
O O13 0.000000 0.500000 0.000000
O O14 0.066905 0.750000 0.395703
O O15 0.036800 0.532501 0.325674
O O16 0.142806 0.483608 0.413558
O O17 0.900192 0.548596 0.460320
O O18 0.000851 0.750000 0.258523
O O19 0.077357 0.003145 0.192959
O O20 0.232739 0.250000 0.452945
O O21 0.108772 0.250000 0.120175
#
# Coordination Sequence:
#
# PCOD9161539 Si02
#       8
#     4   4   4   4   4   4   4   4
#     4  11  22  35  50  69  93 121 153 188 227 270
#     4   8  15  25  37  55  80 111 147 183 217 257
#     4   9  18  30  44  63  88 118 151 185 221 266
#     4   9  15  23  35  53  78 110 146 180 216 259
#     4   9  18  33  51  69  91 119 151 187 228 273
#     4   9  16  28  45  63  87 119 151 184 223 264
#     4  10  20  34  51  71  92 116 150 189 229 272
#     4   9  16  24  35  56  84 113 146 181 217 260
#
# _framework density 15.821225999999999
#
# number of rings (size 3 to 8) (size 9 to 14) (size 15 to 20)
#    0.000    2.750    0.000    3.000    0.000    7.500 
#    0.000    2.500    0.000    0.000    0.000    0.000 
#    0.000    1.000    0.000    3.250    0.000    5.000 
#
# Total GULP energy -178239.006260 kJ/mol
# GULP energy per Si atom -5569.968946 kJ/mol
# Density = 1.578522 g / cm^3
# Si number density = 15.821226 Si / 1000 Ang^3
#
#
#
# Elastic Constant Matrix: (Units=GPa)
#
#
# Indices 1 2 3 4 5 6 
#
# 1 50.4095 29.4548 51.9406 0.0000 13.2224 0.0000
# 2 29.4548 50.1652 58.2170 0.0000 10.7117 0.0000
# 3 51.9406 58.2170 154.3194 0.0000 31.1051 0.0000
# 4 0.0000 0.0000 0.0000 29.9947 0.0000 4.5221
# 5 13.2224 10.7117 31.1051 0.0000 23.4797 0.0000
# 6 0.0000 0.0000 0.0000 4.5221 0.0000 19.7904
#
#
#
# Elastic Compliance Matrix: (Units=1/GPa)
#
#
# Indices 1 2 3 4 5 6 
#
# 1 0.034582 -0.012318 -0.005730 0.000000 -0.006264 0.000000
# 2 -0.012318 0.039921 -0.011790 0.000000 0.004343 0.000000
# 3 -0.005730 -0.011790 0.015174 0.000000 -0.011496 0.000000
# 4 0.000000 0.000000 0.000000 0.034529 0.000000 -0.007890
# 5 -0.006264 0.004343 -0.011496 0.000000 0.059366 0.000000
# 6 0.000000 0.000000 0.000000 -0.007890 0.000000 0.052332
#
#
# Mechanical properties :
#
#
# Convention : Reuss Voigt Hill
#
# Bulk Modulus (GPa) = 33.33133 59.34654 46.33894
# Shear Modulus (GPa) = 16.36235 22.33841 19.35038
#
# Velocity S-wave (km/s) = 3.21939 3.76164 3.50103
# Velocity P-wave (km/s) = 5.91037 7.51390 6.75985
#
# Compressibility (1/GPa) = 0.03000180
#
# Stress axis : x y z
#
# Youngs Moduli (GPa) = 28.91668 25.04926 65.90417
#
# Poissons Ratio (x) = 0.30855 0.37764
# Poissons Ratio (y) = 0.35619 0.77700
# Poissons Ratio (z) = 0.16570 0.29532
#
# Static dielectric constant tensor:
#      x y z
#    x 1.506940 0.000000 0.014790 
#    y 0.000000 1.550850 0.000000 
#    z 0.014790 0.000000 1.548580 
# 
# From -- ./inp_files/42567.got.cif
#   From: 2010.05.17/outbox.cif.g08.bks.cpg/sg11_22_cif.got.tgz:42567.got - 2010.06.03 12:22:45.
