data_PCOD9161850
_publ_section_title
;
Structure prediction by ZEFSAII (Michael W. Deem and Ramdas Pophale) SiO2 
 PCOD9161850
Probable space group: P 21/M
;
_chemical_formula_sum "Si O2"
_cell_formula_units_Z 28
_cell_length_a 20.749829
_cell_length_b 10.357276
_cell_length_c 14.838290
_cell_angle_alpha 90.000000
_cell_angle_beta 29.794892
_cell_angle_gamma 90.000000
_cell_volume 1584.564596
_symmetry_space_group_name_H-M "P 21/M"
_symmetry_group_IT_number 11
_symmetry_cell_setting 'monoclinic'
loop_
_space_group_symop_operation_xyz
x,y,z
-x,1/2+y,-z
-x,-y,-z
x,1/2-y,z
loop_
_atom_site_type_symbol
_atom_site_label
_atom_site_fract_x
_atom_site_fract_y
_atom_site_fract_z
Si Si1 0.703876 0.459990 0.317769
Si Si2 0.588843 0.887309 0.311270
Si Si3 0.399180 0.600153 0.011581
Si Si4 0.838127 0.096462 0.339739
Si Si5 0.935535 0.105346 0.905072
Si Si6 0.281150 0.600645 0.967146
Si Si7 0.371060 0.601030 0.252516
O O1 0.564348 0.390909 0.484317
O O2 0.667856 0.590942 0.308107
O O3 0.754028 0.457661 0.358318
O O4 0.818493 0.398285 0.119585
O O5 0.624069 0.750000 0.227354
O O6 0.627069 0.003703 0.199177
O O7 0.443867 0.750000 0.951391
O O8 0.517505 0.500722 0.857743
O O9 0.299750 0.579571 0.050526
O O10 0.343069 0.582864 0.180187
O O11 0.864209 0.250000 0.293193
O O12 0.752469 0.084218 0.533830
O O13 0.964838 0.008028 0.194226
O O14 0.993373 0.250000 0.836113
O O15 0.862580 0.082882 0.898541
O O16 0.316593 0.750000 0.904601
O O17 0.416165 0.750000 0.209926
#
# Coordination Sequence:
#
# PCOD9161850 Si02
#       7
#     4   4   4   4   4   4   4
#     4  10  21  34  51  74 104 135 166 209 261 302
#     4  10  20  34  55  81 105 131 169 212 254 308
#     4   9  17  33  57  81 106 135 165 202 256 316
#     4  11  22  36  53  73 102 139 176 213 253 297
#     4  10  21  36  51  69  98 136 178 217 252 298
#     4   9  19  35  54  77 106 137 167 208 261 306
#     4   9  19  34  53  80 109 134 165 209 257 304
#
# _framework density 17.670468
#
# number of rings (size 3 to 8) (size 9 to 14) (size 15 to 20)
#    0.000    2.286    0.000    2.571    0.000    9.143 
#    0.000    0.714    0.000    0.000    0.000    0.000 
#    0.000    0.000    0.000    0.000    0.000    0.000 
#
# Total GULP energy -155991.900145 kJ/mol
# GULP energy per Si atom -5571.139291 kJ/mol
# Density = 1.763025 g / cm^3
# Si number density = 17.670468 Si / 1000 Ang^3
#
#
#
# Elastic Constant Matrix: (Units=GPa)
#
#
# Indices 1 2 3 4 5 6 
#
# 1 113.5516 70.8193 54.7622 0.0000 -2.3716 0.0000
# 2 70.8193 82.3579 40.3327 0.0000 -8.0523 0.0000
# 3 54.7622 40.3327 59.2269 0.0000 -5.1244 0.0000
# 4 0.0000 0.0000 0.0000 6.3915 0.0000 2.6247
# 5 -2.3716 -8.0523 -5.1244 0.0000 16.4716 0.0000
# 6 0.0000 0.0000 0.0000 2.6247 0.0000 11.2510
#
#
#
# Elastic Compliance Matrix: (Units=1/GPa)
#
#
# Indices 1 2 3 4 5 6 
#
# 1 0.024544 -0.015663 -0.012727 0.000000 -0.008083 0.000000
# 2 -0.015663 0.028655 -0.004125 0.000000 0.010469 0.000000
# 3 -0.012727 -0.004125 0.031989 0.000000 0.006103 0.000000
# 4 0.000000 0.000000 0.000000 0.173035 0.000000 -0.040366
# 5 -0.008083 0.010469 0.006103 0.000000 0.066564 0.000000
# 6 0.000000 0.000000 0.000000 -0.040366 0.000000 0.098298
#
#
# Mechanical properties :
#
#
# Convention : Reuss Voigt Hill
#
# Bulk Modulus (GPa) = 49.60972 65.21834 57.41403
# Shear Modulus (GPa) = 10.10440 12.77096 11.43768
#
# Velocity S-wave (km/s) = 2.39388 2.69128 2.54692
# Velocity P-wave (km/s) = 5.98137 6.82975 6.41959
#
# Compressibility (1/GPa) = 0.02015734
#
# Stress axis : x y z
#
# Youngs Moduli (GPa) = 40.74279 34.89848 31.26064
#
# Poissons Ratio (x) = 0.54662 0.39786
# Poissons Ratio (y) = 0.63815 0.12896
# Poissons Ratio (z) = 0.51853 0.14396
#
# Static dielectric constant tensor:
#      x y z
#    x 1.622840 0.000000 0.016140 
#    y 0.000000 1.630610 0.000000 
#    z 0.016140 0.000000 1.572120 
# 
# From -- ./inp_files/54492.got.cif
#   From: 2010.05.17/outbox.cif.g08.bks.cpg/sg11_28_cif.got.tgz:54492.got - 2010.06.03 12:22:45.
