data_PCOD9161209
_publ_section_title
;
Structure prediction by ZEFSAII (Michael W. Deem and Ramdas Pophale) SiO2 
 PCOD9161209
Probable space group: P 21/M
;
_chemical_formula_sum "Si O2"
_cell_formula_units_Z 28
_cell_length_a 15.423311
_cell_length_b 7.795510
_cell_length_c 19.240324
_cell_angle_alpha 90.000000
_cell_angle_beta 30.496450
_cell_angle_gamma 90.000000
_cell_volume 1173.971948
_symmetry_space_group_name_H-M "P 21/M"
_symmetry_group_IT_number 11
_symmetry_cell_setting 'monoclinic'
loop_
_space_group_symop_operation_xyz
x,y,z
-x,1/2+y,-z
-x,-y,-z
x,1/2-y,z
loop_
_atom_site_type_symbol
_atom_site_label
_atom_site_fract_x
_atom_site_fract_y
_atom_site_fract_z
Si Si1 0.096408 0.043683 0.254228
Si Si2 0.436434 0.455134 0.965659
Si Si3 0.669163 0.456528 0.339363
Si Si4 0.393253 0.955355 0.775345
Si Si5 0.032187 0.453769 0.059322
Si Si6 0.770516 0.543167 0.541164
Si Si7 0.214450 0.449317 0.321440
O O1 0.112040 0.250000 0.244248
O O2 0.238981 0.986256 0.100843
O O3 0.157104 0.971561 0.287876
O O4 0.897353 0.001668 0.390781
O O5 0.445656 0.250000 0.948942
O O6 0.500000 0.500000 0.000000
O O7 0.578299 0.541656 0.820374
O O8 0.500000 0.500000 0.500000
O O9 0.676898 0.250000 0.334933
O O10 0.638833 0.516111 0.281229
O O11 0.865926 0.517720 0.217623
O O12 0.406077 0.750000 0.763545
O O13 0.579259 0.023759 0.665943
O O14 0.228036 0.992781 0.936481
O O15 0.031686 0.250000 0.065956
O O16 0.000000 0.500000 0.000000
O O17 0.766480 0.750000 0.548397
O O18 0.841172 0.474701 0.566488
O O19 0.167990 0.250000 0.351443
#
# Coordination Sequence:
#
# PCOD9161209 Si02
#       7
#     4   4   4   4   4   4   4
#     4   9  18  31  47  70  98 126 164 209 250 293
#     4   9  17  30  48  69  92 120 157 204 251 296
#     4   9  18  32  52  77 101 124 157 196 234 282
#     4   9  19  35  51  72 101 131 165 203 242 290
#     4   9  17  31  52  76  99 126 159 194 233 285
#     4  10  20  33  50  71  98 131 166 205 248 293
#     4   9  18  32  49  71  96 126 168 211 249 297
#
# _framework density 23.850653999999999
#
# number of rings (size 3 to 8) (size 9 to 14) (size 15 to 20)
#    0.000    2.857    0.000    3.000    0.000    6.857 
#    0.000    1.429    0.000    8.571    0.000    0.000 
#    0.000    0.000    0.000    0.000    0.000    0.000 
#
# Total GULP energy -156036.511607 kJ/mol
# GULP energy per Si atom -5572.732557 kJ/mol
# Density = 2.379637 g / cm^3
# Si number density = 23.850654 Si / 1000 Ang^3
#
#
#
# Elastic Constant Matrix: (Units=GPa)
#
#
# Indices 1 2 3 4 5 6 
#
# 1 21.9347 0.9989 30.6225 0.0000 -1.5435 0.0000
# 2 0.9989 42.6892 3.5535 0.0000 -5.4023 0.0000
# 3 30.6225 3.5535 223.3227 0.0000 -10.4257 0.0000
# 4 0.0000 0.0000 0.0000 40.0020 0.0000 -4.1316
# 5 -1.5435 -5.4023 -10.4257 0.0000 34.3530 0.0000
# 6 0.0000 0.0000 0.0000 -4.1316 0.0000 5.2868
#
#
#
# Elastic Compliance Matrix: (Units=1/GPa)
#
#
# Indices 1 2 3 4 5 6 
#
# 1 0.056403 -0.000666 -0.007720 0.000000 0.000087 0.000000
# 2 -0.000666 0.023918 -0.000117 0.000000 0.003696 0.000000
# 3 -0.007720 -0.000117 0.005601 0.000000 0.001335 0.000000
# 4 0.000000 0.000000 0.000000 0.027194 0.000000 0.021252
# 5 0.000087 0.003696 0.001335 0.000000 0.030100 0.000000
# 6 0.000000 0.000000 0.000000 0.021252 0.000000 0.205758
#
#
# Mechanical properties :
#
#
# Convention : Reuss Voigt Hill
#
# Bulk Modulus (GPa) = 14.51017 39.81072 27.16044
# Shear Modulus (GPa) = 12.85511 32.77980 22.81745
#
# Velocity S-wave (km/s) = 2.32412 3.71128 3.09638
# Velocity P-wave (km/s) = 3.64678 5.92391 4.91893
#
# Compressibility (1/GPa) = 0.06891720
#
# Stress axis : x y z
#
# Youngs Moduli (GPa) = 17.72940 41.80927 178.55537
#
# Poissons Ratio (x) = 0.02786 1.37836
# Poissons Ratio (y) = 0.01181 0.02083
# Poissons Ratio (z) = 0.13686 0.00488
#
# Static dielectric constant tensor:
#      x y z
#    x 1.887810 0.000000 -0.076700 
#    y 0.000000 0.606630 0.000000 
#    z -0.076700 0.000000 2.012970 
# 
# From -- ./inp_files/71930.got.cif
#   From: 2010.05.17/outbox.cif.g08.bks.cpg/sg11_36_cif.got.tgz:71930.got - 2010.06.03 12:22:45.
