data_PCOD9161200
_publ_section_title
;
Structure prediction by ZEFSAII (Michael W. Deem and Ramdas Pophale) SiO2 
 PCOD9161200
Probable space group: P 21/M
;
_chemical_formula_sum "Si O2"
_cell_formula_units_Z 28
_cell_length_a 23.871805
_cell_length_b 11.485405
_cell_length_c 5.221483
_cell_angle_alpha 90.000000
_cell_angle_beta 112.371969
_cell_angle_gamma 90.000000
_cell_volume 1323.858273
_symmetry_space_group_name_H-M "P 21/M"
_symmetry_group_IT_number 11
_symmetry_cell_setting 'monoclinic'
loop_
_space_group_symop_operation_xyz
x,y,z
-x,1/2+y,-z
-x,-y,-z
x,1/2-y,z
loop_
_atom_site_type_symbol
_atom_site_label
_atom_site_fract_x
_atom_site_fract_y
_atom_site_fract_z
Si Si1 0.873939 0.883393 0.307999
Si Si2 0.746642 0.506084 0.002991
Si Si3 0.705014 0.379686 0.426942
Si Si4 0.519376 0.626942 0.952957
Si Si5 0.629136 0.624923 0.838151
Si Si6 0.408004 0.624145 0.450682
Si Si7 0.955976 0.887461 0.950950
O O1 0.852219 0.750000 0.254672
O O2 0.907731 0.898245 0.636386
O O3 0.816030 0.964531 0.170957
O O4 0.921957 0.899207 0.162787
O O5 0.723010 0.414558 0.173296
O O6 0.734249 0.463002 0.692891
O O7 0.701027 0.612854 0.977571
O O8 0.727211 0.250000 0.518521
O O9 0.632799 0.379407 0.359642
O O10 0.502659 0.750000 0.056973
O O11 0.590908 0.628409 0.032919
O O12 0.479313 0.631871 0.623432
O O13 0.500000 0.500000 0.000000
O O14 0.614502 0.750000 0.685817
O O15 0.606989 0.501129 0.690486
O O16 0.389573 0.750000 0.297268
O O17 0.979418 0.750000 0.978161
O O18 0.000000 0.000000 0.000000
#
# Coordination Sequence:
#
# PCOD9161200 Si02
#       7
#     4   4   4   4   4   4   4
#     4  10  21  38  61  88 122 163 202 240 289 353
#     4  11  21  38  60  86 120 160 199 244 295 353
#     4  10  21  37  57  82 115 158 206 254 302 357
#     4  10  20  33  49  74 106 143 193 250 308 366
#     4  10  21  35  54  82 112 144 193 254 302 348
#     4   9  19  35  54  75 105 150 197 243 308 377
#     4  10  21  40  65  93 125 160 200 243 288 342
#
# _framework density 21.150299
#
# number of rings (size 3 to 8) (size 9 to 14) (size 15 to 20)
#    0.000    2.000    0.000    3.429    0.000    1.714 
#    0.000   12.143    0.000    0.000    0.000    0.000 
#    0.000    0.000    0.000    0.000    0.000    0.000 
#
# Total GULP energy -155891.037019 kJ/mol
# GULP energy per Si atom -5567.537036 kJ/mol
# Density = 2.110216 g / cm^3
# Si number density = 21.150299 Si / 1000 Ang^3
#
#
#
# Elastic Constant Matrix: (Units=GPa)
#
#
# Indices 1 2 3 4 5 6 
#
# 1 47.1771 29.7518 -4.8745 0.0000 7.4483 0.0000
# 2 29.7518 184.9530 10.2839 0.0000 6.6417 0.0000
# 3 -4.8745 10.2839 39.3088 0.0000 0.8351 0.0000
# 4 0.0000 0.0000 0.0000 25.0150 0.0000 -1.5468
# 5 7.4483 6.6417 0.8351 0.0000 25.2727 0.0000
# 6 0.0000 0.0000 0.0000 -1.5468 0.0000 22.6264
#
#
#
# Elastic Compliance Matrix: (Units=1/GPa)
#
#
# Indices 1 2 3 4 5 6 
#
# 1 0.025237 -0.004067 0.004332 0.000000 -0.006512 0.000000
# 2 -0.004067 0.006192 -0.002116 0.000000 -0.000359 0.000000
# 3 0.004332 -0.002116 0.026564 0.000000 -0.001598 0.000000
# 4 0.000000 0.000000 0.000000 0.040146 0.000000 0.002745
# 5 -0.006512 -0.000359 -0.001598 0.000000 0.041635 0.000000
# 6 0.000000 0.000000 0.000000 0.002745 0.000000 0.044384
#
#
# Mechanical properties :
#
#
# Convention : Reuss Voigt Hill
#
# Bulk Modulus (GPa) = 18.41948 37.97349 28.19648
# Shear Modulus (GPa) = 24.27694 30.33467 27.30581
#
# Velocity S-wave (km/s) = 3.39164 3.79125 3.59700
# Velocity P-wave (km/s) = 4.90565 6.09572 5.53278
#
# Compressibility (1/GPa) = 0.05429034
#
# Stress axis : x y z
#
# Youngs Moduli (GPa) = 39.62423 161.51139 37.64430
#
# Poissons Ratio (x) = 0.65682 -0.16307
# Poissons Ratio (y) = 0.16114 0.07967
# Poissons Ratio (z) = -0.17164 0.34184
#
# Static dielectric constant tensor:
#      x y z
#    x 1.757020 0.000000 -0.019440 
#    y 0.000000 1.808970 0.000000 
#    z -0.019440 0.000000 1.803370 
# 
# From -- ./inp_files/8852.got.cif
#   From: 2010.05.17/outbox.cif.g08.bks.cpg/sg11_5_cif.got.tgz:8852.got - 2010.06.03 12:22:45.
