data_PCOD9161457
_publ_section_title
;
Structure prediction by ZEFSAII (Michael W. Deem and Ramdas Pophale) SiO2 
 PCOD9161457
Probable space group: P 21/M
;
_chemical_formula_sum "Si O2"
_cell_formula_units_Z 32
_cell_length_a 28.681578
_cell_length_b 8.790507
_cell_length_c 22.271519
_cell_angle_alpha 90.000000
_cell_angle_beta 18.845863
_cell_angle_gamma 90.000000
_cell_volume 1813.847276
_symmetry_space_group_name_H-M "P 21/M"
_symmetry_group_IT_number 11
_symmetry_cell_setting 'monoclinic'
loop_
_space_group_symop_operation_xyz
x,y,z
-x,1/2+y,-z
-x,-y,-z
x,1/2-y,z
loop_
_atom_site_type_symbol
_atom_site_label
_atom_site_fract_x
_atom_site_fract_y
_atom_site_fract_z
Si Si1 0.680424 0.070136 0.144230
Si Si2 0.585158 0.432226 0.952254
Si Si3 0.838486 0.932567 0.843568
Si Si4 0.918704 0.433324 0.541783
Si Si5 0.547151 0.567769 0.126455
Si Si6 0.660457 0.431478 0.304971
Si Si7 0.395023 0.932258 0.433870
Si Si8 0.159985 0.068347 0.804075
O O1 0.654500 0.250000 0.168550
O O2 0.718834 0.042020 0.166541
O O3 0.532956 0.984472 0.305351
O O4 0.801375 0.013969 0.950739
O O5 0.580018 0.250000 0.956348
O O6 0.752820 0.481781 0.743306
O O7 0.500000 0.500000 0.000000
O O8 0.526513 0.488702 0.087950
O O9 0.834734 0.750000 0.857062
O O10 0.988190 0.976546 0.630141
O O11 0.706339 0.969428 0.959073
O O12 0.922818 0.250000 0.540707
O O13 0.000000 0.500000 0.500000
O O14 0.541164 0.750000 0.125737
O O15 0.436093 0.526518 0.315170
O O16 0.500000 0.500000 0.500000
O O17 0.654564 0.250000 0.323088
O O18 0.754731 0.510138 0.241116
O O19 0.382809 0.750000 0.452388
O O20 0.253574 0.009026 0.633522
O O21 0.154570 0.250000 0.810040
O O22 0.000000 0.000000 0.000000
#
# Coordination Sequence:
#
# PCOD9161457 Si02
#       8
#     4   4   4   4   4   4   4   4
#     4  10  20  33  54  86 118 148 189 238 288 341
#     4  11  23  37  56  82 114 153 193 236 284 341
#     4   9  18  33  54  81 114 147 183 233 292 344
#     4  10  20  35  56  83 110 143 186 232 284 336
#     4   9  18  34  57  83 112 146 185 232 286 344
#     4  11  22  37  59  87 118 152 193 242 292 345
#     4  10  20  36  59  85 116 152 191 236 289 346
#     4  12  25  41  61  87 119 157 199 244 294 351
#
# _framework density 17.642057999999999
#
# number of rings (size 3 to 8) (size 9 to 14) (size 15 to 20)
#    0.000    1.750    2.500    3.375    0.000    5.000 
#    0.000    1.250    0.000    4.500    0.000    0.000 
#    0.000    0.000    0.000    0.000    0.000    0.000 
#
# Total GULP energy -178685.540009 kJ/mol
# GULP energy per Si atom -5583.923125 kJ/mol
# Density = 1.760190 g / cm^3
# Si number density = 17.642058 Si / 1000 Ang^3
#
#
#
# Elastic Constant Matrix: (Units=GPa)
#
#
# Indices 1 2 3 4 5 6 
#
# 1 131.5724 61.0748 80.9457 0.0000 12.5334 0.0000
# 2 61.0748 75.2771 56.5064 0.0000 10.0653 0.0000
# 3 80.9457 56.5064 144.4226 0.0000 12.5277 0.0000
# 4 0.0000 0.0000 0.0000 28.0492 0.0000 5.3389
# 5 12.5334 10.0653 12.5277 0.0000 30.3384 0.0000
# 6 0.0000 0.0000 0.0000 5.3389 0.0000 32.9259
#
#
#
# Elastic Compliance Matrix: (Units=1/GPa)
#
#
# Indices 1 2 3 4 5 6 
#
# 1 0.014348 -0.007806 -0.004872 0.000000 -0.001326 0.000000
# 2 -0.007806 0.023383 -0.004543 0.000000 -0.002657 0.000000
# 3 -0.004872 -0.004543 0.011541 0.000000 -0.001245 0.000000
# 4 0.000000 0.000000 0.000000 0.036787 0.000000 -0.005965
# 5 -0.001326 -0.002657 -0.001245 0.000000 0.034905 0.000000
# 6 0.000000 0.000000 0.000000 -0.005965 0.000000 0.031338
#
#
# Mechanical properties :
#
#
# Convention : Reuss Voigt Hill
#
# Bulk Modulus (GPa) = 67.43975 83.14730 75.29353
# Shear Modulus (GPa) = 26.08403 28.44571 27.26487
#
# Velocity S-wave (km/s) = 3.84932 4.01980 3.93548
# Velocity P-wave (km/s) = 7.62010 8.29322 7.96378
#
# Compressibility (1/GPa) = 0.01482805
#
# Stress axis : x y z
#
# Youngs Moduli (GPa) = 69.69714 42.76575 86.65053
#
# Poissons Ratio (x) = 0.33383 0.42220
# Poissons Ratio (y) = 0.54406 0.39367
# Poissons Ratio (z) = 0.33959 0.19429
#
# Static dielectric constant tensor:
#      x y z
#    x 1.580210 0.000000 0.025510 
#    y 0.000000 1.594910 0.000000 
#    z 0.025510 0.000000 1.603130 
# 
# From -- ./inp_files/66923.got.cif
#   From: 2010.05.17/outbox.cif.g08.bks.cpg/sg11_34_cif.got.tgz:66923.got - 2010.06.03 12:22:45.
