data_PCOD9161590
_publ_section_title
;
Structure prediction by ZEFSAII (Michael W. Deem and Ramdas Pophale) SiO2 
 PCOD9161590
Probable space group: P 21/M
;
_chemical_formula_sum "Si O2"
_cell_formula_units_Z 32
_cell_length_a 15.939189
_cell_length_b 8.827436
_cell_length_c 21.606440
_cell_angle_alpha 90.000000
_cell_angle_beta 138.075685
_cell_angle_gamma 90.000000
_cell_volume 2031.219808
_symmetry_space_group_name_H-M "P 21/M"
_symmetry_group_IT_number 11
_symmetry_cell_setting 'monoclinic'
loop_
_space_group_symop_operation_xyz
x,y,z
-x,1/2+y,-z
-x,-y,-z
x,1/2-y,z
loop_
_atom_site_type_symbol
_atom_site_label
_atom_site_fract_x
_atom_site_fract_y
_atom_site_fract_z
Si Si1 0.110326 0.931652 0.102320
Si Si2 0.789346 0.431212 0.103293
Si Si3 0.511127 0.070112 0.606520
Si Si4 0.055497 0.930035 0.216306
Si Si5 0.442480 0.931508 0.116249
Si Si6 0.602392 0.068432 0.103240
Si Si7 0.379892 0.430619 0.214268
Si Si8 0.304724 0.429902 0.393930
O O1 0.115355 0.750000 0.097708
O O2 0.081888 0.965946 0.158564
O O3 0.242831 0.002279 0.155235
O O4 0.000000 0.000000 0.000000
O O5 0.808908 0.250000 0.110358
O O6 0.733373 0.466289 0.140746
O O7 0.917216 0.515446 0.158318
O O8 0.680357 0.469000 0.993371
O O9 0.524392 0.250000 0.623660
O O10 0.381245 0.040277 0.499049
O O11 0.529442 0.984021 0.680622
O O12 0.619774 0.014965 0.619133
O O13 0.066724 0.750000 0.230002
O O14 0.162998 0.012657 0.314718
O O15 0.450365 0.750000 0.123870
O O16 0.564141 0.996859 0.147488
O O17 0.423945 0.002603 0.173126
O O18 0.589602 0.250000 0.098671
O O19 0.500000 0.000000 0.000000
O O20 0.372977 0.250000 0.207746
O O21 0.310232 0.250000 0.385199
#
# Coordination Sequence:
#
# PCOD9161590 Si02
#       8
#     4   4   4   4   4   4   4   4
#     4  11  23  36  48  67  99 138 175 210 245 290
#     4   9  19  33  50  72 101 135 170 207 249 295
#     4  10  20  35  53  74  98 126 165 211 254 300
#     4  11  22  33  49  72 100 133 170 209 249 295
#     4  10  20  34  52  74 102 135 170 214 255 297
#     4   9  17  31  50  73 100 132 169 210 254 299
#     4  12  23  34  51  74 100 135 171 207 252 303
#     4  10  20  34  54  74  96 128 165 208 257 302
#
# _framework density 15.754080999999999
#
# number of rings (size 3 to 8) (size 9 to 14) (size 15 to 20)
#    0.000    1.750    1.250    4.875    0.000    8.000 
#    0.000    0.000    0.000    0.000    0.000    0.875 
#    0.000    0.000    0.000    0.000    0.000    0.000 
#
# Total GULP energy -178627.842541 kJ/mol
# GULP energy per Si atom -5582.120079 kJ/mol
# Density = 1.571822 g / cm^3
# Si number density = 15.754081 Si / 1000 Ang^3
#
#
#
# Elastic Constant Matrix: (Units=GPa)
#
#
# Indices 1 2 3 4 5 6 
#
# 1 129.1668 61.6408 50.3226 0.0000 -13.9769 0.0000
# 2 61.6408 76.6841 47.0879 0.0000 -5.4792 0.0000
# 3 50.3226 47.0879 82.3355 0.0000 -7.8340 0.0000
# 4 0.0000 0.0000 0.0000 24.7640 0.0000 -0.1835
# 5 -13.9769 -5.4792 -7.8340 0.0000 6.7221 0.0000
# 6 0.0000 0.0000 0.0000 -0.1835 0.0000 29.7734
#
#
#
# Elastic Compliance Matrix: (Units=1/GPa)
#
#
# Indices 1 2 3 4 5 6 
#
# 1 0.015505 -0.009795 -0.001762 0.000000 0.022202 0.000000
# 2 -0.009795 0.026354 -0.010099 0.000000 -0.010655 0.000000
# 3 -0.001762 -0.010099 0.020095 0.000000 0.011522 0.000000
# 4 0.000000 0.000000 0.000000 0.040383 0.000000 0.000249
# 5 0.022202 -0.010655 0.011522 0.000000 0.199669 0.000000
# 6 0.000000 0.000000 0.000000 0.000249 0.000000 0.033589
#
#
# Mechanical properties :
#
#
# Convention : Reuss Voigt Hill
#
# Bulk Modulus (GPa) = 53.64580 67.36546 60.50563
# Shear Modulus (GPa) = 12.98291 20.86090 16.92190
#
# Velocity S-wave (km/s) = 2.87382 3.64285 3.28095
# Velocity P-wave (km/s) = 6.71846 7.78121 7.26928
#
# Compressibility (1/GPa) = 0.01864079
#
# Stress axis : x y z
#
# Youngs Moduli (GPa) = 64.49375 37.94467 49.76450
#
# Poissons Ratio (x) = 0.37167 0.08771
# Poissons Ratio (y) = 0.63172 0.50258
# Poissons Ratio (z) = 0.11367 0.38321
#
# Static dielectric constant tensor:
#      x y z
#    x 1.509160 0.000000 0.003680 
#    y 0.000000 1.518110 0.000000 
#    z 0.003680 0.000000 1.511360 
# 
# From -- ./inp_files/54287.got.cif
#   From: 2010.05.17/outbox.cif.g08.bks.cpg/sg11_28_cif.got.tgz:54287.got - 2010.06.03 12:22:45.
