data_PCOD9161032
_publ_section_title
;
Structure prediction by ZEFSAII (Michael W. Deem and Ramdas Pophale) SiO2 
 PCOD9161032
Probable space group: P 21/M
;
_chemical_formula_sum "Si O2"
_cell_formula_units_Z 28
_cell_length_a 14.586980
_cell_length_b 9.385782
_cell_length_c 18.970968
_cell_angle_alpha 90.000000
_cell_angle_beta 40.586945
_cell_angle_gamma 90.000000
_cell_volume 1689.819046
_symmetry_space_group_name_H-M "P 21/M"
_symmetry_group_IT_number 11
_symmetry_cell_setting 'monoclinic'
loop_
_space_group_symop_operation_xyz
x,y,z
-x,1/2+y,-z
-x,-y,-z
x,1/2-y,z
loop_
_atom_site_type_symbol
_atom_site_label
_atom_site_fract_x
_atom_site_fract_y
_atom_site_fract_z
Si Si1 0.928342 0.578895 0.322368
Si Si2 0.915752 0.914135 0.881922
Si Si3 0.120046 0.584139 0.887620
Si Si4 0.420280 0.418096 0.325881
Si Si5 0.395922 0.420814 0.506894
Si Si6 0.318468 0.079714 0.863811
Si Si7 0.091229 0.080567 0.504219
O O1 0.933654 0.750000 0.315866
O O2 0.769772 0.538850 0.389309
O O3 0.942973 0.536222 0.395484
O O4 0.050123 0.512096 0.203777
O O5 0.892279 0.750000 0.875035
O O6 0.059269 0.918940 0.844763
O O7 0.786734 0.955106 0.009438
O O8 0.131002 0.750000 0.902364
O O9 0.257553 0.498743 0.829693
O O10 0.000000 0.500000 0.000000
O O11 0.453175 0.250000 0.297326
O O12 0.430441 0.448203 0.404132
O O13 0.526604 0.516093 0.220268
O O14 0.258781 0.442117 0.398248
O O15 0.500000 0.500000 0.500000
O O16 0.407345 0.250000 0.510993
O O17 0.315225 0.250000 0.857249
O O18 0.066610 0.250000 0.513421
O O19 0.000000 0.000000 0.500000
#
# Coordination Sequence:
#
# PCOD9161032 Si02
#       7
#     4   4   4   4   4   4   4
#     4   9  19  34  51  74 102 131 166 206 251 305
#     4   9  19  32  46  69 101 135 172 213 250 289
#     4   9  17  29  43  63  94 134 178 215 247 284
#     4   9  19  35  52  73 103 134 166 207 257 306
#     4   9  19  33  47  68  99 134 167 205 250 293
#     4  10  20  32  47  71 102 136 177 216 250 294
#     4   9  19  37  59  81 103 126 160 208 261 313
#
# _framework density 16.56982
#
# number of rings (size 3 to 8) (size 9 to 14) (size 15 to 20)
#    0.000    2.857    0.000    3.429    2.000    5.714 
#    0.000    2.857    0.000    0.857    0.000    0.000 
#    0.000    0.000    0.000    0.000    0.000    0.000 
#
# Total GULP energy -155919.536236 kJ/mol
# GULP energy per Si atom -5568.554866 kJ/mol
# Density = 1.653211 g / cm^3
# Si number density = 16.569820 Si / 1000 Ang^3
#
#
#
# Elastic Constant Matrix: (Units=GPa)
#
#
# Indices 1 2 3 4 5 6 
#
# 1 101.3644 50.5473 39.9689 0.0000 1.5486 0.0000
# 2 50.5473 64.0562 57.7039 0.0000 0.3728 0.0000
# 3 39.9689 57.7039 101.5078 0.0000 -2.9670 0.0000
# 4 0.0000 0.0000 0.0000 27.6043 0.0000 -1.3562
# 5 1.5486 0.3728 -2.9670 0.0000 9.4525 0.0000
# 6 0.0000 0.0000 0.0000 -1.3562 0.0000 30.9535
#
#
#
# Elastic Compliance Matrix: (Units=1/GPa)
#
#
# Indices 1 2 3 4 5 6 
#
# 1 0.016456 -0.014548 0.001744 0.000000 -0.001575 0.000000
# 2 -0.014548 0.045328 -0.020207 0.000000 -0.005747 0.000000
# 3 0.001744 -0.020207 0.020858 0.000000 0.007058 0.000000
# 4 0.000000 0.000000 0.000000 0.036304 0.000000 0.001591
# 5 -0.001575 -0.005747 0.007058 0.000000 0.108492 0.000000
# 6 0.000000 0.000000 0.000000 0.001591 0.000000 0.032376
#
#
# Mechanical properties :
#
#
# Convention : Reuss Voigt Hill
#
# Bulk Modulus (GPa) = 60.16606 62.59651 61.38129
# Shear Modulus (GPa) = 15.08856 21.51595 18.30225
#
# Velocity S-wave (km/s) = 3.02090 3.60738 3.32709
# Velocity P-wave (km/s) = 6.96830 7.43037 7.20304
#
# Compressibility (1/GPa) = 0.01662067
#
# Stress axis : x y z
#
# Youngs Moduli (GPa) = 60.76711 22.06143 47.94304
#
# Poissons Ratio (x) = 0.32095 -0.08363
# Poissons Ratio (y) = 0.88404 0.96879
# Poissons Ratio (z) = -0.10600 0.44580
#
# Static dielectric constant tensor:
#      x y z
#    x 1.584250 0.000000 -0.040050 
#    y 0.000000 1.552070 0.000000 
#    z -0.040050 0.000000 1.612330 
# 
# From -- ./inp_files/37139.got.cif
#   From: 2010.05.17/outbox.cif.g08.bks.cpg/sg11_19_cif.got.tgz:37139.got - 2010.06.03 12:22:45.
