data_PCOD9161508
_publ_section_title
;
Structure prediction by ZEFSAII (Michael W. Deem and Ramdas Pophale) SiO2 
 PCOD9161508
Probable space group: P 21/M
;
_chemical_formula_sum "Si O2"
_cell_formula_units_Z 32
_cell_length_a 21.650280
_cell_length_b 8.990841
_cell_length_c 31.050936
_cell_angle_alpha 90.000000
_cell_angle_beta 160.270437
_cell_angle_gamma 90.000000
_cell_volume 2040.405605
_symmetry_space_group_name_H-M "P 21/M"
_symmetry_group_IT_number 11
_symmetry_cell_setting 'monoclinic'
loop_
_space_group_symop_operation_xyz
x,y,z
-x,1/2+y,-z
-x,-y,-z
x,1/2-y,z
loop_
_atom_site_type_symbol
_atom_site_label
_atom_site_fract_x
_atom_site_fract_y
_atom_site_fract_z
Si Si1 0.788746 0.427359 0.955781
Si Si2 0.117718 0.072193 0.115770
Si Si3 0.464250 0.427594 0.142698
Si Si4 0.152942 0.428726 0.470850
Si Si5 0.209984 0.072611 0.799053
Si Si6 0.565159 0.071847 0.720903
Si Si7 0.838896 0.928851 0.422520
Si Si8 0.478242 0.072050 0.051771
O O1 0.773831 0.250000 0.953630
O O2 0.706520 0.516189 0.941482
O O3 0.663159 0.460546 0.831202
O O4 0.997725 0.462048 0.079393
O O5 0.119191 0.250000 0.111844
O O6 0.318903 0.007163 0.240418
O O7 0.000000 0.000000 0.000000
O O8 0.485480 0.250000 0.160931
O O9 0.645188 0.507967 0.279413
O O10 0.443723 0.463545 0.078764
O O11 0.139392 0.250000 0.458696
O O12 0.353995 0.472521 0.586098
O O13 0.137687 0.466140 0.511591
O O14 0.988507 0.503025 0.337254
O O15 0.200181 0.250000 0.789470
O O16 0.343334 0.009489 0.849499
O O17 0.310485 0.033525 0.909956
O O18 0.576585 0.250000 0.722697
O O19 0.841322 0.750000 0.420056
O O20 0.000000 0.000000 0.500000
O O21 0.508571 0.250000 0.068226
#
# Coordination Sequence:
#
# PCOD9161508 Si02
#       8
#     4   4   4   4   4   4   4   4
#     4   9  17  31  46  66  98 130 157 191 236 279
#     4   9  17  28  44  66  94 127 159 193 233 275
#     4  11  21  32  49  71  95 127 162 195 236 284
#     4  10  20  34  49  67  98 131 155 192 244 284
#     4  10  20  34  53  73  91 119 163 206 241 284
#     4   9  17  31  47  66  95 130 159 189 235 283
#     4  11  22  35  47  65  97 130 159 193 235 283
#     4   9  20  37  51  68  96 124 155 203 252 282
#
# _framework density 15.683156
#
# number of rings (size 3 to 8) (size 9 to 14) (size 15 to 20)
#    0.000    2.250    1.250    3.000    0.000    8.500 
#    0.000    0.000    0.000    0.000    0.000    0.875 
#    0.000    0.000    0.000    0.000    0.000    0.000 
#
# Total GULP energy -178463.580803 kJ/mol
# GULP energy per Si atom -5576.986900 kJ/mol
# Density = 1.564746 g / cm^3
# Si number density = 15.683156 Si / 1000 Ang^3
#
#
#
# Elastic Constant Matrix: (Units=GPa)
#
#
# Indices 1 2 3 4 5 6 
#
# 1 64.2460 28.3043 45.7456 0.0000 19.0945 0.0000
# 2 28.3043 28.7548 32.0936 0.0000 8.2791 0.0000
# 3 45.7456 32.0936 95.1715 0.0000 22.5616 0.0000
# 4 0.0000 0.0000 0.0000 27.8099 0.0000 6.4586
# 5 19.0945 8.2791 22.5616 0.0000 24.9917 0.0000
# 6 0.0000 0.0000 0.0000 6.4586 0.0000 26.1622
#
#
#
# Elastic Compliance Matrix: (Units=1/GPa)
#
#
# Indices 1 2 3 4 5 6 
#
# 1 0.033407 -0.023497 -0.004998 0.000000 -0.013228 0.000000
# 2 -0.023497 0.072363 -0.014862 0.000000 0.007397 0.000000
# 3 -0.004998 -0.014862 0.020164 0.000000 -0.009462 0.000000
# 4 0.000000 0.000000 0.000000 0.038145 0.000000 -0.009417
# 5 -0.013228 0.007397 -0.009462 0.000000 0.056211 0.000000
# 6 0.000000 0.000000 0.000000 -0.009417 0.000000 0.040548
#
#
# Mechanical properties :
#
#
# Convention : Reuss Voigt Hill
#
# Bulk Modulus (GPa) = 25.49623 44.49549 34.99586
# Shear Modulus (GPa) = 13.86476 21.26135 17.56306
#
# Velocity S-wave (km/s) = 2.97653 3.68595 3.35007
# Velocity P-wave (km/s) = 5.30145 6.82262 6.10956
#
# Compressibility (1/GPa) = 0.03922148
#
# Stress axis : x y z
#
# Youngs Moduli (GPa) = 29.93342 13.81924 49.59212
#
# Poissons Ratio (x) = 0.32471 0.24788
# Poissons Ratio (y) = 0.70334 0.73702
# Poissons Ratio (z) = 0.14962 0.20538
#
# Static dielectric constant tensor:
#      x y z
#    x 1.520810 0.000000 0.017170 
#    y 0.000000 1.522060 0.000000 
#    z 0.017170 0.000000 1.520670 
# 
# From -- ./inp_files/67427.got.cif
#   From: 2010.05.17/outbox.cif.g08.bks.cpg/sg11_34_cif.got.tgz:67427.got - 2010.06.03 12:22:45.
