data_PCOD9161679
_publ_section_title
;
Structure prediction by ZEFSAII (Michael W. Deem and Ramdas Pophale) SiO2 
 PCOD9161679
Probable space group: P 21/M
;
_chemical_formula_sum "Si O2"
_cell_formula_units_Z 32
_cell_length_a 19.965495
_cell_length_b 9.232883
_cell_length_c 19.272755
_cell_angle_alpha 90.000000
_cell_angle_beta 157.146337
_cell_angle_gamma 90.000000
_cell_volume 1379.801979
_symmetry_space_group_name_H-M "P 21/M"
_symmetry_group_IT_number 11
_symmetry_cell_setting 'monoclinic'
loop_
_space_group_symop_operation_xyz
x,y,z
-x,1/2+y,-z
-x,-y,-z
x,1/2-y,z
loop_
_atom_site_type_symbol
_atom_site_label
_atom_site_fract_x
_atom_site_fract_y
_atom_site_fract_z
Si Si1 0.423221 0.084824 0.823685
Si Si2 0.225621 0.584882 0.751111
Si Si3 0.249123 0.922608 0.222075
Si Si4 0.167106 0.915529 0.938369
Si Si5 0.943714 0.916102 0.294835
Si Si6 0.513159 0.914742 0.363405
Si Si7 0.029397 0.580412 0.137298
Si Si8 0.330862 0.583718 0.604892
O O1 0.364804 0.250000 0.760878
O O2 0.292314 0.995118 0.746541
O O3 0.431762 0.013237 0.756755
O O4 0.605472 0.085186 0.037463
O O5 0.177012 0.750000 0.689192
O O6 0.082809 0.502509 0.659401
O O7 0.206846 0.750000 0.166898
O O8 0.435641 0.945265 0.365702
O O9 0.203858 0.941299 0.259746
O O10 0.121770 0.033660 0.061094
O O11 0.134977 0.750000 0.886941
O O12 0.173203 0.013537 0.876471
O O13 0.338583 0.919196 0.149046
O O14 0.013938 0.977769 0.840060
O O15 0.896250 0.750000 0.261605
O O16 0.135056 0.923041 0.445512
O O17 0.580980 0.750000 0.426868
O O18 0.638414 0.022884 0.442754
O O19 0.015098 0.750000 0.143158
O O20 0.387721 0.750000 0.661663
#
# Coordination Sequence:
#
# PCOD9161679 Si02
#       8
#     4   4   4   4   4   4   4   4
#     4  10  21  38  61  86 110 138 172 211 257 309
#     4  10  21  38  61  87 111 137 172 213 257 307
#     4   8  15  27  44  71 105 136 170 214 262 313
#     4  10  20  34  53  78 106 137 176 220 265 315
#     4  11  24  39  54  76 107 142 179 218 261 309
#     4   9  18  33  53  77 105 137 174 216 262 313
#     4   9  15  25  45  73 104 136 169 212 265 314
#     4  11  24  38  53  77 108 141 178 219 261 308
#
# _framework density 23.191731999999998
#
# number of rings (size 3 to 8) (size 9 to 14) (size 15 to 20)
#    0.000    2.250    0.000    3.750    0.000   10.000 
#    0.000    0.000    0.000    0.750    0.000    0.000 
#    0.000    0.000    0.000    0.000    0.000    0.000 
#
# Total GULP energy -178930.664993 kJ/mol
# GULP energy per Si atom -5591.583281 kJ/mol
# Density = 2.313895 g / cm^3
# Si number density = 23.191732 Si / 1000 Ang^3
#
#
#
# Elastic Constant Matrix: (Units=GPa)
#
#
# Indices 1 2 3 4 5 6 
#
# 1 148.9850 63.8988 0.1043 0.0000 11.4094 0.0000
# 2 63.8988 141.2648 22.5810 0.0000 20.5832 0.0000
# 3 0.1043 22.5810 45.5087 0.0000 2.4749 0.0000
# 4 0.0000 0.0000 0.0000 11.7461 0.0000 9.0186
# 5 11.4094 20.5832 2.4749 0.0000 31.9571 0.0000
# 6 0.0000 0.0000 0.0000 9.0186 0.0000 34.2415
#
#
#
# Elastic Compliance Matrix: (Units=1/GPa)
#
#
# Indices 1 2 3 4 5 6 
#
# 1 0.008509 -0.004094 0.002042 0.000000 -0.000559 0.000000
# 2 -0.004094 0.010424 -0.004898 0.000000 -0.004873 0.000000
# 3 0.002042 -0.004898 0.024370 0.000000 0.000538 0.000000
# 4 0.000000 0.000000 0.000000 0.106714 0.000000 -0.028107
# 5 -0.000559 -0.004873 0.000538 0.000000 0.034588 0.000000
# 6 0.000000 0.000000 0.000000 -0.028107 0.000000 0.036607
#
#
# Mechanical properties :
#
#
# Convention : Reuss Voigt Hill
#
# Bulk Modulus (GPa) = 34.00865 56.54739 45.27802
# Shear Modulus (GPa) = 20.41537 32.20058 26.30797
#
# Velocity S-wave (km/s) = 2.97018 3.73023 3.37169
# Velocity P-wave (km/s) = 5.14379 6.55655 5.89266
#
# Compressibility (1/GPa) = 0.02940428
#
# Stress axis : x y z
#
# Youngs Moduli (GPa) = 117.51697 95.93537 41.03385
#
# Poissons Ratio (x) = 0.39277 -0.08381
# Poissons Ratio (y) = 0.48112 0.20097
# Poissons Ratio (z) = -0.24001 0.46987
#
# Static dielectric constant tensor:
#      x y z
#    x 1.865070 0.000000 -0.000470 
#    y 0.000000 1.805880 0.000000 
#    z -0.000470 0.000000 1.929380 
# 
# From -- ./inp_files/66461.got.cif
#   From: 2010.05.17/outbox.cif.g08.bks.cpg/sg11_34_cif.got.tgz:66461.got - 2010.06.03 12:22:45.
