data_PCOD9161192
_publ_section_title
;
Structure prediction by ZEFSAII (Michael W. Deem and Ramdas Pophale) SiO2 
 PCOD9161192
Probable space group: P 21/M
;
_chemical_formula_sum "Si O2"
_cell_formula_units_Z 32
_cell_length_a 15.374490
_cell_length_b 8.875393
_cell_length_c 31.645388
_cell_angle_alpha 90.000000
_cell_angle_beta 28.673521
_cell_angle_gamma 90.000000
_cell_volume 2071.931254
_symmetry_space_group_name_H-M "P 21/M"
_symmetry_group_IT_number 11
_symmetry_cell_setting 'monoclinic'
loop_
_space_group_symop_operation_xyz
x,y,z
-x,1/2+y,-z
-x,-y,-z
x,1/2-y,z
loop_
_atom_site_type_symbol
_atom_site_label
_atom_site_fract_x
_atom_site_fract_y
_atom_site_fract_z
Si Si1 0.949658 0.069391 0.919686
Si Si2 0.278924 0.930846 0.393761
Si Si3 0.271223 0.429396 0.058274
Si Si4 0.365931 0.930510 0.878494
Si Si5 0.261544 0.569059 0.244708
Si Si6 0.662704 0.570470 0.874165
Si Si7 0.977126 0.069067 0.575818
Si Si8 0.325345 0.067793 0.803307
O O1 0.946258 0.250000 0.914796
O O2 0.146731 0.026856 0.853189
O O3 0.889308 0.988827 0.902550
O O4 0.798613 0.033145 0.019559
O O5 0.271322 0.750000 0.399966
O O6 0.487674 0.975590 0.299603
O O7 0.171025 0.975019 0.396865
O O8 0.166543 0.999998 0.480220
O O9 0.292819 0.250000 0.044396
O O10 0.251717 0.462803 0.116443
O O11 0.456879 0.508945 0.964105
O O12 0.386444 0.750000 0.868543
O O13 0.550214 0.004150 0.817215
O O14 0.324366 0.993487 0.849802
O O15 0.272847 0.750000 0.239348
O O16 0.240366 0.506212 0.206671
O O17 0.102541 0.524060 0.344935
O O18 0.657104 0.750000 0.870585
O O19 0.990803 0.250000 0.569077
O O20 0.326643 0.250000 0.808088
#
# Coordination Sequence:
#
# PCOD9161192 Si02
#       8
#     4   4   4   4   4   4   4   4
#     4  10  21  34  49  69  97 131 168 205 237 278
#     4   9  17  31  48  67  92 125 161 197 239 284
#     4  10  20  33  50  70  96 129 161 199 242 283
#     4  11  21  31  45  70  99 131 169 202 231 276
#     4  11  20  32  50  72  98 131 160 193 243 292
#     4  10  20  33  49  72  98 124 161 201 239 286
#     4   9  18  31  47  69  95 122 157 197 240 289
#     4  10  20  35  50  67  96 133 168 202 239 282
#
# _framework density 15.444527000000001
#
# number of rings (size 3 to 8) (size 9 to 14) (size 15 to 20)
#    0.000    2.000    2.500    1.875    0.000    4.000 
#    0.000    0.000    0.000    0.000    0.000    0.875 
#    0.000    0.000    0.000    0.000    0.000    0.000 
#
# Total GULP energy -178560.170717 kJ/mol
# GULP energy per Si atom -5580.005335 kJ/mol
# Density = 1.540937 g / cm^3
# Si number density = 15.444527 Si / 1000 Ang^3
#
#
#
# Elastic Constant Matrix: (Units=GPa)
#
#
# Indices 1 2 3 4 5 6 
#
# 1 106.3970 41.4923 69.9634 0.0000 10.9636 0.0000
# 2 41.4923 34.1067 41.1565 0.0000 7.2848 0.0000
# 3 69.9634 41.1565 111.9819 0.0000 15.4618 0.0000
# 4 0.0000 0.0000 0.0000 23.6421 0.0000 4.1687
# 5 10.9636 7.2848 15.4618 0.0000 23.5980 0.0000
# 6 0.0000 0.0000 0.0000 4.1687 0.0000 26.5903
#
#
#
# Elastic Compliance Matrix: (Units=1/GPa)
#
#
# Indices 1 2 3 4 5 6 
#
# 1 0.020174 -0.016773 -0.006443 0.000000 0.000027 0.000000
# 2 -0.016773 0.066966 -0.013583 0.000000 -0.003980 0.000000
# 3 -0.006443 -0.013583 0.018642 0.000000 -0.005028 0.000000
# 4 0.000000 0.000000 0.000000 0.043500 0.000000 -0.006820
# 5 0.000027 -0.003980 -0.005028 0.000000 0.046887 0.000000
# 6 0.000000 0.000000 0.000000 -0.006820 0.000000 0.038677
#
#
# Mechanical properties :
#
#
# Convention : Reuss Voigt Hill
#
# Bulk Modulus (GPa) = 31.07232 61.96777 46.52005
# Shear Modulus (GPa) = 15.66555 21.42429 18.54492
#
# Velocity S-wave (km/s) = 3.18828 3.72852 3.46893
# Velocity P-wave (km/s) = 5.80653 7.66458 6.79932
#
# Compressibility (1/GPa) = 0.03218298
#
# Stress axis : x y z
#
# Youngs Moduli (GPa) = 49.56836 14.93305 53.64277
#
# Poissons Ratio (x) = 0.25048 0.34564
# Poissons Ratio (y) = 0.83143 0.72861
# Poissons Ratio (z) = 0.31939 0.20283
#
# Static dielectric constant tensor:
#      x y z
#    x 1.503910 0.000000 0.010880 
#    y 0.000000 1.517680 0.000000 
#    z 0.010880 0.000000 1.504640 
# 
# From -- ./inp_files/51239.got.cif
#   From: 2010.05.17/outbox.cif.g08.bks.cpg/sg11_26_cif.got.tgz:51239.got - 2010.06.03 12:22:45.
