data_PCOD9161051
_publ_section_title
;
Structure prediction by ZEFSAII (Michael W. Deem and Ramdas Pophale) SiO2 
 PCOD9161051
Probable space group: P 21/M
;
_chemical_formula_sum "Si O2"
_cell_formula_units_Z 32
_cell_length_a 17.877307
_cell_length_b 9.155727
_cell_length_c 11.755277
_cell_angle_alpha 90.000000
_cell_angle_beta 90.835278
_cell_angle_gamma 90.000000
_cell_volume 1923.896252
_symmetry_space_group_name_H-M "P 21/M"
_symmetry_group_IT_number 11
_symmetry_cell_setting 'monoclinic'
loop_
_space_group_symop_operation_xyz
x,y,z
-x,1/2+y,-z
-x,-y,-z
x,1/2-y,z
loop_
_atom_site_type_symbol
_atom_site_label
_atom_site_fract_x
_atom_site_fract_y
_atom_site_fract_z
Si Si1 0.401753 0.422548 0.058269
Si Si2 0.051790 0.918051 0.837437
Si Si3 0.319814 0.421121 0.278121
Si Si4 0.826996 0.077217 0.734951
Si Si5 0.542831 0.578363 0.171890
Si Si6 0.515092 0.923815 0.619225
Si Si7 0.112304 0.417263 0.047109
Si Si8 0.014591 0.574861 0.379342
O O1 0.424682 0.250000 0.072175
O O2 0.333691 0.443349 0.142974
O O3 0.466795 0.527583 0.106499
O O4 0.394320 0.447807 0.923447
O O5 0.073836 0.750000 0.817188
O O6 0.971402 0.914406 0.900362
O O7 0.037425 0.005042 0.720388
O O8 0.106058 0.999944 0.926997
O O9 0.304414 0.250000 0.296538
O O10 0.250034 0.515307 0.316272
O O11 0.399667 0.455594 0.337744
O O12 0.822700 0.250000 0.750420
O O13 0.899915 0.046290 0.659557
O O14 0.840444 0.000754 0.856809
O O15 0.540621 0.750000 0.197976
O O16 0.541216 0.486349 0.286669
O O17 0.507841 0.750000 0.611545
O O18 0.500000 0.000000 0.500000
O O19 0.137032 0.250000 0.033641
O O20 0.004072 0.750000 0.384537
O O21 0.000000 0.500000 0.500000
#
# Coordination Sequence:
#
# PCOD9161051 Si02
#       8
#     4   4   4   4   4   4   4   4
#     4   8  15  27  43  66  94 121 150 186 229 279
#     4   9  16  27  45  69  95 121 151 190 234 279
#     4   9  18  32  49  70  97 127 159 199 247 299
#     4  10  20  32  48  72  99 126 160 204 249 294
#     4   9  15  25  44  68  93 120 150 188 233 276
#     4  10  20  33  49  71  98 129 168 208 245 290
#     4   9  16  27  45  68  94 123 152 185 231 284
#     4  10  20  33  49  71  98 129 168 209 248 292
#
# _framework density 16.632912999999999
#
# number of rings (size 3 to 8) (size 9 to 14) (size 15 to 20)
#    0.000    2.750    0.000    3.000    0.000    7.500 
#    0.000    0.000    0.000    1.500    0.000    5.250 
#    0.000    0.000    0.000    0.000    0.000    0.000 
#
# Total GULP energy -178186.226186 kJ/mol
# GULP energy per Si atom -5568.319568 kJ/mol
# Density = 1.659506 g / cm^3
# Si number density = 16.632913 Si / 1000 Ang^3
#
#
#
# Elastic Constant Matrix: (Units=GPa)
#
#
# Indices 1 2 3 4 5 6 
#
# 1 45.6770 41.0028 31.7002 0.0000 -0.8002 0.0000
# 2 41.0028 97.0512 72.6369 0.0000 -1.5922 0.0000
# 3 31.7002 72.6369 139.0380 0.0000 -1.1647 0.0000
# 4 0.0000 0.0000 0.0000 32.2825 0.0000 1.1855
# 5 -0.8002 -1.5922 -1.1647 0.0000 8.8846 0.0000
# 6 0.0000 0.0000 0.0000 1.1855 0.0000 20.9987
#
#
#
# Elastic Compliance Matrix: (Units=1/GPa)
#
#
# Indices 1 2 3 4 5 6 
#
# 1 0.035286 -0.014584 -0.000422 0.000000 0.000509 0.000000
# 2 -0.014584 0.022978 -0.008665 0.000000 0.001669 0.000000
# 3 -0.000422 -0.008665 0.011815 0.000000 -0.000042 0.000000
# 4 0.000000 0.000000 0.000000 0.031041 0.000000 -0.001752
# 5 0.000509 0.001669 -0.000042 0.000000 0.112894 0.000000
# 6 0.000000 0.000000 0.000000 -0.001752 0.000000 0.047721
#
#
# Mechanical properties :
#
#
# Convention : Reuss Voigt Hill
#
# Bulk Modulus (GPa) = 43.98069 63.60510 53.79290
# Shear Modulus (GPa) = 15.79004 21.52826 18.65915
#
# Velocity S-wave (km/s) = 3.08445 3.60156 3.35299
# Velocity P-wave (km/s) = 6.25975 7.45778 6.88488
#
# Compressibility (1/GPa) = 0.02273725
#
# Stress axis : x y z
#
# Youngs Moduli (GPa) = 28.33995 43.51982 84.63747
#
# Poissons Ratio (x) = 0.63468 0.03571
# Poissons Ratio (y) = 0.41330 0.73341
# Poissons Ratio (z) = 0.01196 0.37711
#
# Static dielectric constant tensor:
#      x y z
#    x 1.573860 0.000000 -0.009860 
#    y 0.000000 1.558470 0.000000 
#    z -0.009860 0.000000 1.570410 
# 
# From -- ./inp_files/40687.got.cif
#   From: 2010.05.17/outbox.cif.g08.bks.cpg/sg11_21_cif.got.tgz:40687.got - 2010.06.03 12:22:45.
