data_PCOD9161712
_publ_section_title
;
Structure prediction by ZEFSAII (Michael W. Deem and Ramdas Pophale) SiO2 
 PCOD9161712
Probable space group: P 21/M
;
_chemical_formula_sum "Si O2"
_cell_formula_units_Z 32
_cell_length_a 15.807577
_cell_length_b 8.830820
_cell_length_c 23.451689
_cell_angle_alpha 90.000000
_cell_angle_beta 29.831415
_cell_angle_gamma 90.000000
_cell_volume 1628.506959
_symmetry_space_group_name_H-M "P 21/M"
_symmetry_group_IT_number 11
_symmetry_cell_setting 'monoclinic'
loop_
_space_group_symop_operation_xyz
x,y,z
-x,1/2+y,-z
-x,-y,-z
x,1/2-y,z
loop_
_atom_site_type_symbol
_atom_site_label
_atom_site_fract_x
_atom_site_fract_y
_atom_site_fract_z
Si Si1 0.607473 0.931127 0.197377
Si Si2 0.482885 0.427539 0.447792
Si Si3 0.348202 0.568651 0.160997
Si Si4 0.283746 0.570971 0.071304
Si Si5 0.968585 0.068084 0.580505
Si Si6 0.842180 0.567684 0.963297
Si Si7 0.814434 0.427689 0.175594
Si Si8 0.285147 0.567300 0.459307
O O1 0.596368 0.750000 0.201050
O O2 0.429093 0.983529 0.328575
O O3 0.751519 0.977931 0.158466
O O4 0.675324 0.984149 0.096378
O O5 0.500000 0.500000 0.500000
O O6 0.439395 0.250000 0.477757
O O7 0.665058 0.439807 0.309682
O O8 0.350369 0.508964 0.482515
O O9 0.380838 0.750000 0.143599
O O10 0.259967 0.533443 0.151725
O O11 0.219486 0.529605 0.286550
O O12 0.527135 0.484768 0.055539
O O13 0.272220 0.750000 0.072009
O O14 0.159156 0.493476 0.099592
O O15 0.981828 0.250000 0.571204
O O16 0.000000 0.000000 0.500000
O O17 0.108296 0.002028 0.542147
O O18 0.840935 0.750000 0.962099
O O19 0.009158 0.520624 0.900345
O O20 0.829237 0.250000 0.151015
O O21 0.277846 0.750000 0.463723
#
# Coordination Sequence:
#
# PCOD9161712 Si02
#       8
#     4   4   4   4   4   4   4   4
#     4   9  19  34  54  77 109 148 182 220 277 334
#     4  10  20  36  57  82 112 150 192 238 287 341
#     4   9  21  42  61  79 113 149 182 231 290 341
#     4  10  21  37  59  86 109 143 190 232 279 338
#     4  11  24  41  62  88 118 154 194 242 295 348
#     4  10  20  34  53  80 112 146 180 223 280 334
#     4   9  19  34  52  77 109 143 184 228 274 326
#     4  10  21  38  57  83 115 151 192 236 288 347
#
# _framework density 19.649899999999999
#
# number of rings (size 3 to 8) (size 9 to 14) (size 15 to 20)
#    0.000    2.250    0.000    1.875    1.750    4.500 
#    0.000    2.500    0.000    0.000    0.000    0.000 
#    0.000    0.000    0.000    0.000    0.000    0.000 
#
# Total GULP energy -178665.151238 kJ/mol
# GULP energy per Si atom -5583.285976 kJ/mol
# Density = 1.960518 g / cm^3
# Si number density = 19.649900 Si / 1000 Ang^3
#
#
#
# Elastic Constant Matrix: (Units=GPa)
#
#
# Indices 1 2 3 4 5 6 
#
# 1 40.0290 6.8055 7.5848 0.0000 14.5066 0.0000
# 2 6.8055 23.9988 16.6565 0.0000 8.0387 0.0000
# 3 7.5848 16.6565 41.5329 0.0000 9.1778 0.0000
# 4 0.0000 0.0000 0.0000 21.6477 0.0000 -2.8242
# 5 14.5066 8.0387 9.1778 0.0000 27.3226 0.0000
# 6 0.0000 0.0000 0.0000 -2.8242 0.0000 36.6538
#
#
#
# Elastic Compliance Matrix: (Units=1/GPa)
#
#
# Indices 1 2 3 4 5 6 
#
# 1 0.031260 -0.002930 -0.001141 0.000000 -0.015351 0.000000
# 2 -0.002930 0.060632 -0.021801 0.000000 -0.008960 0.000000
# 3 -0.001141 -0.021801 0.034001 0.000000 -0.004401 0.000000
# 4 0.000000 0.000000 0.000000 0.046663 0.000000 0.003595
# 5 -0.015351 -0.008960 -0.004401 0.000000 0.048865 0.000000
# 6 0.000000 0.000000 0.000000 0.003595 0.000000 0.027559
#
#
# Mechanical properties :
#
#
# Convention : Reuss Voigt Hill
#
# Bulk Modulus (GPa) = 13.48650 18.62825 16.05738
# Shear Modulus (GPa) = 15.36373 22.09242 18.72808
#
# Velocity S-wave (km/s) = 2.79923 3.35670 3.09056
# Velocity P-wave (km/s) = 4.16244 4.95216 4.57437
#
# Compressibility (1/GPa) = 0.07414820
#
# Stress axis : x y z
#
# Youngs Moduli (GPa) = 31.99003 16.49292 29.41058
#
# Poissons Ratio (x) = 0.04833 0.03357
# Poissons Ratio (y) = 0.09374 0.64118
# Poissons Ratio (z) = 0.03651 0.35956
#
# Static dielectric constant tensor:
#      x y z
#    x 1.676160 0.000000 0.007980 
#    y 0.000000 1.660710 0.000000 
#    z 0.007980 0.000000 1.704920 
# 
# From -- ./inp_files/68963.got.cif
#   From: 2010.05.17/outbox.cif.g08.bks.cpg/sg11_35_cif.got.tgz:68963.got - 2010.06.03 12:22:45.
