data_PCOD9161346
_publ_section_title
;
Structure prediction by ZEFSAII (Michael W. Deem and Ramdas Pophale) SiO2 
 PCOD9161346
Probable space group: P 21/M
;
_chemical_formula_sum "Si O2"
_cell_formula_units_Z 32
_cell_length_a 21.862182
_cell_length_b 7.598478
_cell_length_c 14.089064
_cell_angle_alpha 90.000000
_cell_angle_beta 36.050678
_cell_angle_gamma 90.000000
_cell_volume 1377.365386
_symmetry_space_group_name_H-M "P 21/M"
_symmetry_group_IT_number 11
_symmetry_cell_setting 'monoclinic'
loop_
_space_group_symop_operation_xyz
x,y,z
-x,1/2+y,-z
-x,-y,-z
x,1/2-y,z
loop_
_atom_site_type_symbol
_atom_site_label
_atom_site_fract_x
_atom_site_fract_y
_atom_site_fract_z
Si Si1 0.962731 0.965953 0.782215
Si Si2 0.718914 0.548343 0.428430
Si Si3 0.621666 0.450052 0.743458
Si Si4 0.897129 0.539275 0.070896
Si Si5 0.821621 0.961734 0.783657
Si Si6 0.173491 0.960361 0.431909
Si Si7 0.411040 0.452941 0.917260
Si Si8 0.496207 0.945191 0.613625
O O1 0.964504 0.750000 0.780669
O O2 0.892035 0.023769 0.782433
O O3 0.082553 0.022995 0.616613
O O4 0.913465 0.025190 0.943355
O O5 0.747023 0.750000 0.420625
O O6 0.687238 0.448356 0.563019
O O7 0.805212 0.468426 0.252045
O O8 0.614946 0.557579 0.497533
O O9 0.601343 0.250000 0.800857
O O10 0.708827 0.533523 0.702679
O O11 0.509406 0.529822 0.853967
O O12 0.879600 0.750000 0.085944
O O13 0.000000 0.500000 0.000000
O O14 0.815796 0.750000 0.800822
O O15 0.865620 0.004519 0.625108
O O16 0.703247 0.033081 0.931438
O O17 0.182443 0.750000 0.433268
O O18 0.404757 0.250000 0.955311
O O19 0.439532 0.452577 0.769408
O O20 0.450912 0.750000 0.674964
O O21 0.500000 0.000000 0.500000
#
# Coordination Sequence:
#
# PCOD9161346 Si02
#       8
#     4   4   4   4   4   4   4   4
#     4   9  19  35  55  76 102 141 178 213 264 321
#     4   9  19  33  52  78 106 138 176 217 259 308
#     4   9  18  34  55  78 106 140 175 217 267 319
#     4  10  20  35  55  79 107 139 177 217 261 315
#     4  10  21  36  56  78 103 139 180 219 264 320
#     4  10  20  35  55  77 103 137 177 222 272 318
#     4   9  19  35  54  77 106 139 178 218 263 319
#     4  10  20  33  52  78 107 141 178 215 260 312
#
# _framework density 23.232761
#
# number of rings (size 3 to 8) (size 9 to 14) (size 15 to 20)
#    0.000    2.500    0.000    1.500    1.750    3.500 
#    0.000    1.250    0.000    0.000    0.000    0.000 
#    0.000    0.000    0.000    0.000    0.000    0.000 
#
# Total GULP energy -178558.785981 kJ/mol
# GULP energy per Si atom -5579.962062 kJ/mol
# Density = 2.317988 g / cm^3
# Si number density = 23.232761 Si / 1000 Ang^3
#
#
#
# Elastic Constant Matrix: (Units=GPa)
#
#
# Indices 1 2 3 4 5 6 
#
# 1 97.6685 3.8299 -5.8166 0.0000 4.0951 0.0000
# 2 3.8299 56.6066 0.4132 0.0000 -5.1177 0.0000
# 3 -5.8166 0.4132 76.9658 0.0000 -10.6013 0.0000
# 4 0.0000 0.0000 0.0000 10.0970 0.0000 6.5606
# 5 4.0951 -5.1177 -10.6013 0.0000 30.3431 0.0000
# 6 0.0000 0.0000 0.0000 6.5606 0.0000 14.4920
#
#
#
# Elastic Compliance Matrix: (Units=1/GPa)
#
#
# Indices 1 2 3 4 5 6 
#
# 1 0.010363 -0.000825 0.000605 0.000000 -0.001326 0.000000
# 2 -0.000825 0.018013 0.000289 0.000000 0.003250 0.000000
# 3 0.000605 0.000289 0.013691 0.000000 0.004751 0.000000
# 4 0.000000 0.000000 0.000000 0.140312 0.000000 -0.063520
# 5 -0.001326 0.003250 0.004751 0.000000 0.035343 0.000000
# 6 0.000000 0.000000 0.000000 -0.063520 0.000000 0.097759
#
#
# Mechanical properties :
#
#
# Convention : Reuss Voigt Hill
#
# Bulk Modulus (GPa) = 23.69470 25.34374 24.51922
# Shear Modulus (GPa) = 15.17847 26.50738 20.84293
#
# Velocity S-wave (km/s) = 2.55879 3.38146 2.99847
# Velocity P-wave (km/s) = 4.35326 5.11644 4.75020
#
# Compressibility (1/GPa) = 0.04220352
#
# Stress axis : x y z
#
# Youngs Moduli (GPa) = 96.49973 55.51424 73.03909
#
# Poissons Ratio (x) = 0.04582 -0.04418
# Poissons Ratio (y) = 0.07966 -0.02108
# Poissons Ratio (z) = -0.05837 -0.01602
#
# Static dielectric constant tensor:
#      x y z
#    x 1.884780 0.000000 0.004850 
#    y 0.000000 1.896570 0.000000 
#    z 0.004850 0.000000 1.957590 
# 
# From -- ./inp_files/55545.got.cif
#   From: 2010.05.17/outbox.cif.g08.bks.cpg/sg11_28_cif.got.tgz:55545.got - 2010.06.03 12:22:45.
