data_PCOD9161228
_publ_section_title
;
Structure prediction by ZEFSAII (Michael W. Deem and Ramdas Pophale) SiO2 
 PCOD9161228
Probable space group: P 21/M
;
_chemical_formula_sum "Si O2"
_cell_formula_units_Z 28
_cell_length_a 20.537162
_cell_length_b 9.523114
_cell_length_c 19.039886
_cell_angle_alpha 90.000000
_cell_angle_beta 21.540064
_cell_angle_gamma 90.000000
_cell_volume 1367.191455
_symmetry_space_group_name_H-M "P 21/M"
_symmetry_group_IT_number 11
_symmetry_cell_setting 'monoclinic'
loop_
_space_group_symop_operation_xyz
x,y,z
-x,1/2+y,-z
-x,-y,-z
x,1/2-y,z
loop_
_atom_site_type_symbol
_atom_site_label
_atom_site_fract_x
_atom_site_fract_y
_atom_site_fract_z
Si Si1 0.310679 0.079791 0.696853
Si Si2 0.788539 0.408979 0.491059
Si Si3 0.785236 0.085898 0.647751
Si Si4 0.782677 0.586865 0.783840
Si Si5 0.213933 0.409978 0.063711
Si Si6 0.285738 0.093840 0.569136
Si Si7 0.711034 0.090406 0.148019
O O1 0.330643 0.250000 0.684248
O O2 0.216739 0.053197 0.715962
O O3 0.500000 0.000000 0.500000
O O4 0.227412 0.008583 0.849398
O O5 0.720265 0.250000 0.553040
O O6 0.728463 0.466881 0.627357
O O7 0.747076 0.493929 0.463055
O O8 0.001264 0.401897 0.281811
O O9 0.738376 0.250000 0.699200
O O10 0.001256 0.078514 0.432888
O O11 0.718891 0.002788 0.781943
O O12 0.736294 0.750000 0.821327
O O13 0.722339 0.544368 0.922685
O O14 0.277542 0.250000 0.985695
O O15 0.253408 0.515551 0.961520
O O16 0.219913 0.250000 0.618272
O O17 0.497810 0.100399 0.365644
O O18 0.780492 0.250000 0.082969
#
# Coordination Sequence:
#
# PCOD9161228 Si02
#       7
#     4   4   4   4   4   4   4
#     4   9  17  31  50  71  94 121 156 197 235 274
#     4   9  18  31  48  71  98 126 156 191 234 282
#     4   8  14  25  41  64  92 119 151 190 227 269
#     4   8  14  25  42  64  90 120 153 188 228 273
#     4   9  18  32  48  70  99 126 155 194 236 279
#     4   9  19  33  49  71  96 120 153 195 233 275
#     4  10  20  33  50  73  96 122 159 197 234 279
#
# _framework density 20.479941
#
# number of rings (size 3 to 8) (size 9 to 14) (size 15 to 20)
#    0.000    3.143    0.000    3.429    0.000    5.143 
#    0.000    3.571    0.000    0.857    0.000    0.000 
#    0.000    0.000    0.000    0.000    0.000    0.000 
#
# Total GULP energy -156006.114155 kJ/mol
# GULP energy per Si atom -5571.646934 kJ/mol
# Density = 2.043333 g / cm^3
# Si number density = 20.479941 Si / 1000 Ang^3
#
#
#
# Elastic Constant Matrix: (Units=GPa)
#
#
# Indices 1 2 3 4 5 6 
#
# 1 163.7364 102.5705 40.3015 0.0000 65.7930 0.0000
# 2 102.5705 115.8907 33.8256 0.0000 53.2412 0.0000
# 3 40.3015 33.8256 57.4901 0.0000 24.4405 0.0000
# 4 0.0000 0.0000 0.0000 20.1304 0.0000 13.0672
# 5 65.7930 53.2412 24.4405 0.0000 58.8817 0.0000
# 6 0.0000 0.0000 0.0000 13.0672 0.0000 38.0974
#
#
#
# Elastic Compliance Matrix: (Units=1/GPa)
#
#
# Indices 1 2 3 4 5 6 
#
# 1 0.016090 -0.009891 -0.001966 0.000000 -0.008219 0.000000
# 2 -0.009891 0.021501 -0.002611 0.000000 -0.007306 0.000000
# 3 -0.001966 -0.002611 0.022307 0.000000 -0.004702 0.000000
# 4 0.000000 0.000000 0.000000 0.063904 0.000000 -0.021919
# 5 -0.008219 -0.007306 -0.004702 0.000000 0.034725 0.000000
# 6 0.000000 0.000000 0.000000 -0.021919 0.000000 0.033766
#
#
# Mechanical properties :
#
#
# Convention : Reuss Voigt Hill
#
# Bulk Modulus (GPa) = 32.29599 76.72361 54.50980
# Shear Modulus (GPa) = 21.59355 34.11654 27.85504
#
# Velocity S-wave (km/s) = 3.25064 4.08591 3.69197
# Velocity P-wave (km/s) = 5.46742 7.73329 6.69688
#
# Compressibility (1/GPa) = 0.03096360
#
# Stress axis : x y z
#
# Youngs Moduli (GPa) = 62.15128 46.50850 44.82797
#
# Poissons Ratio (x) = 0.46001 0.08811
# Poissons Ratio (y) = 0.61473 0.11705
# Poissons Ratio (z) = 0.12216 0.12144
#
# Static dielectric constant tensor:
#      x y z
#    x 1.758390 0.000000 -0.005510 
#    y 0.000000 1.716500 0.000000 
#    z -0.005510 0.000000 1.809820 
# 
# From -- ./inp_files/25601.got.cif
#   From: 2010.05.17/outbox.cif.g08.bks.cpg/sg11_13_cif.got.tgz:25601.got - 2010.06.03 12:22:45.
