data_PCOD9161345
_publ_section_title
;
Structure prediction by ZEFSAII (Michael W. Deem and Ramdas Pophale) SiO2 
 PCOD9161345
Probable space group: P 21/M
;
_chemical_formula_sum "Si O2"
_cell_formula_units_Z 24
_cell_length_a 21.252934
_cell_length_b 9.197831
_cell_length_c 9.135565
_cell_angle_alpha 90.000000
_cell_angle_beta 131.695250
_cell_angle_gamma 90.000000
_cell_volume 1333.466172
_symmetry_space_group_name_H-M "P 21/M"
_symmetry_group_IT_number 11
_symmetry_cell_setting 'monoclinic'
loop_
_space_group_symop_operation_xyz
x,y,z
-x,1/2+y,-z
-x,-y,-z
x,1/2-y,z
loop_
_atom_site_type_symbol
_atom_site_label
_atom_site_fract_x
_atom_site_fract_y
_atom_site_fract_z
Si Si1 0.424202 0.082991 0.069017
Si Si2 0.757681 0.420664 0.535579
Si Si3 0.410166 0.416549 0.691006
Si Si4 0.760907 0.576377 0.230530
Si Si5 0.926112 0.924080 0.293749
Si Si6 0.071997 0.577454 0.016456
O O1 0.438142 0.250000 0.134862
O O2 0.503952 0.986829 0.235092
O O3 0.418048 0.080609 0.881323
O O4 0.331189 0.033630 0.974091
O O5 0.741578 0.250000 0.488455
O O6 0.674145 0.494285 0.472636
O O7 0.774697 0.494671 0.404825
O O8 0.839048 0.438396 0.762851
O O9 0.401565 0.250000 0.632175
O O10 0.755833 0.750000 0.252821
O O11 0.837763 0.551331 0.240479
O O12 0.939903 0.750000 0.304429
O O13 0.000000 0.000000 0.500000
O O14 0.924098 0.998273 0.132837
O O15 0.054360 0.750000 0.972828
O O16 0.000000 0.500000 0.000000
#
# Coordination Sequence:
#
# PCOD9161345 Si02
#       6
#     4   4   4   4   4   4
#     4   8  14  26  44  69 102 136 171 213 259 306
#     4  10  20  33  52  78 107 140 177 218 263 311
#     4   9  16  26  44  72 104 137 173 214 260 308
#     4   9  19  34  53  78 107 140 177 217 263 314
#     4  11  23  39  59  82 109 141 177 219 268 321
#     4  11  24  40  58  81 108 140 179 221 268 320
#
# _framework density 17.998207000000001
#
# number of rings (size 3 to 8) (size 9 to 14) (size 15 to 20)
#    0.000    2.333    0.000    4.000    0.000   10.667 
#    0.000    0.000    0.000    1.000    0.000    0.000 
#    0.000    0.000    0.000    0.000    0.000    0.000 
#
# Total GULP energy -133921.709632 kJ/mol
# GULP energy per Si atom -5580.071235 kJ/mol
# Density = 1.795724 g / cm^3
# Si number density = 17.998207 Si / 1000 Ang^3
#
#
#
# Elastic Constant Matrix: (Units=GPa)
#
#
# Indices 1 2 3 4 5 6 
#
# 1 143.5578 96.3367 76.3121 0.0000 27.4158 0.0000
# 2 96.3367 129.6043 79.3448 0.0000 20.4042 0.0000
# 3 76.3121 79.3448 78.8262 0.0000 14.8241 0.0000
# 4 0.0000 0.0000 0.0000 29.1578 0.0000 5.4512
# 5 27.4158 20.4042 14.8241 0.0000 27.2540 0.0000
# 6 0.0000 0.0000 0.0000 5.4512 0.0000 30.4927
#
#
#
# Elastic Compliance Matrix: (Units=1/GPa)
#
#
# Indices 1 2 3 4 5 6 
#
# 1 0.017536 -0.005999 -0.009430 0.000000 -0.008020 0.000000
# 2 -0.005999 0.022667 -0.016656 0.000000 -0.001876 0.000000
# 3 -0.009430 -0.016656 0.038377 0.000000 0.001081 0.000000
# 4 0.000000 0.000000 0.000000 0.035482 0.000000 -0.006343
# 5 -0.008020 -0.001876 0.001081 0.000000 0.045576 0.000000
# 6 0.000000 0.000000 0.000000 -0.006343 0.000000 0.033929
#
#
# Mechanical properties :
#
#
# Convention : Reuss Voigt Hill
#
# Bulk Modulus (GPa) = 69.39201 95.10837 82.25019
# Shear Modulus (GPa) = 19.04480 24.04721 21.54600
#
# Velocity S-wave (km/s) = 3.25645 3.65922 3.46369
# Velocity P-wave (km/s) = 7.26484 8.41494 7.86095
#
# Compressibility (1/GPa) = 0.01441088
#
# Stress axis : x y z
#
# Youngs Moduli (GPa) = 57.02622 44.11695 26.05720
#
# Poissons Ratio (x) = 0.26466 0.24572
# Poissons Ratio (y) = 0.34210 0.43400
# Poissons Ratio (z) = 0.53775 0.73480
#
# Static dielectric constant tensor:
#      x y z
#    x 1.619560 0.000000 0.016190 
#    y 0.000000 1.607380 0.000000 
#    z 0.016190 0.000000 1.599800 
# 
# From -- ./inp_files/25939.got.cif
#   From: 2010.05.17/outbox.cif.g08.bks.cpg/sg11_13_cif.got.tgz:25939.got - 2010.06.03 12:22:45.
