data_PCOD9161036
_publ_section_title
;
Structure prediction by ZEFSAII (Michael W. Deem and Ramdas Pophale) SiO2 
 PCOD9161036
Probable space group: P 21/M
;
_chemical_formula_sum "Si O2"
_cell_formula_units_Z 32
_cell_length_a 12.436601
_cell_length_b 7.952907
_cell_length_c 23.725350
_cell_angle_alpha 90.000000
_cell_angle_beta 134.508478
_cell_angle_gamma 90.000000
_cell_volume 1673.474609
_symmetry_space_group_name_H-M "P 21/M"
_symmetry_group_IT_number 11
_symmetry_cell_setting 'monoclinic'
loop_
_space_group_symop_operation_xyz
x,y,z
-x,1/2+y,-z
-x,-y,-z
x,1/2-y,z
loop_
_atom_site_type_symbol
_atom_site_label
_atom_site_fract_x
_atom_site_fract_y
_atom_site_fract_z
Si Si1 0.884329 0.044236 0.838743
Si Si2 0.847558 0.452177 0.477072
Si Si3 0.708012 0.446934 0.315484
Si Si4 0.332277 0.947389 0.954049
Si Si5 0.378569 0.944342 0.184618
Si Si6 0.996141 0.448890 0.640863
Si Si7 0.177946 0.444255 0.009810
Si Si8 0.955120 0.545727 0.216541
O O1 0.885487 0.250000 0.840409
O O2 0.721361 0.987526 0.800128
O O3 0.938234 0.992615 0.796433
O O4 0.013483 0.990123 0.930777
O O5 0.836267 0.250000 0.477764
O O6 0.721666 0.508341 0.385837
O O7 0.000000 0.500000 0.500000
O O8 0.876915 0.518681 0.551002
O O9 0.746326 0.250000 0.329044
O O10 0.537833 0.469051 0.232816
O O11 0.836632 0.531454 0.324592
O O12 0.327553 0.750000 0.965184
O O13 0.212820 0.986269 0.860832
O O14 0.500000 0.000000 0.000000
O O15 0.273255 0.045203 0.987118
O O16 0.413323 0.750000 0.208012
O O17 0.267957 0.958779 0.090628
O O18 0.966716 0.250000 0.634926
O O19 0.995407 0.517431 0.703935
O O20 0.164580 0.250000 0.022379
O O21 0.953104 0.750000 0.216165
#
# Coordination Sequence:
#
# PCOD9161036 Si02
#       8
#     4   4   4   4   4   4   4   4
#     4   8  17  34  53  72  96 128 167 210 252 296
#     4   8  15  29  48  71  98 130 162 198 245 297
#     4  10  20  32  47  72 106 135 163 201 250 298
#     4  11  22  35  50  70 101 137 168 201 245 294
#     4  11  21  33  51  74 100 131 169 208 250 301
#     4   9  17  31  54  78 100 127 164 205 248 303
#     4  10  20  36  54  73  96 126 168 213 256 295
#     4   9  18  34  54  75  98 126 165 210 253 296
#
# _framework density 19.121891000000002
#
# number of rings (size 3 to 8) (size 9 to 14) (size 15 to 20)
#    0.000    2.500    0.000    3.375    1.750    1.000 
#    0.000    5.625    0.000    0.750    0.000    0.000 
#    0.000    0.000    0.000    0.000    0.000    0.750 
#
# Total GULP energy -178371.956982 kJ/mol
# GULP energy per Si atom -5574.123656 kJ/mol
# Density = 1.907837 g / cm^3
# Si number density = 19.121891 Si / 1000 Ang^3
#
#
#
# Elastic Constant Matrix: (Units=GPa)
#
#
# Indices 1 2 3 4 5 6 
#
# 1 26.5218 -7.4751 15.7216 0.0000 -4.8391 0.0000
# 2 -7.4751 30.8480 -2.0162 0.0000 -1.1970 0.0000
# 3 15.7216 -2.0162 79.5583 0.0000 -28.7914 0.0000
# 4 0.0000 0.0000 0.0000 14.1111 0.0000 -4.2036
# 5 -4.8391 -1.1970 -28.7914 0.0000 23.6595 0.0000
# 6 0.0000 0.0000 0.0000 -4.2036 0.0000 10.3070
#
#
#
# Elastic Compliance Matrix: (Units=1/GPa)
#
#
# Indices 1 2 3 4 5 6 
#
# 1 0.045922 0.010463 -0.009326 0.000000 -0.001427 0.000000
# 2 0.010463 0.035153 0.000431 0.000000 0.004443 0.000000
# 3 -0.009326 0.000431 0.024554 0.000000 0.027995 0.000000
# 4 0.000000 0.000000 0.000000 0.080667 0.000000 0.032899
# 5 -0.001427 0.004443 0.027995 0.000000 0.076266 0.000000
# 6 0.000000 0.000000 0.000000 0.032899 0.000000 0.110439
#
#
# Mechanical properties :
#
#
# Convention : Reuss Voigt Hill
#
# Bulk Modulus (GPa) = 9.19411 16.59874 12.89642
# Shear Modulus (GPa) = 12.31165 18.32870 15.32018
#
# Velocity S-wave (km/s) = 2.54018 3.09935 2.83359
# Velocity P-wave (km/s) = 3.66359 4.63760 4.17907
#
# Compressibility (1/GPa) = 0.10876534
#
# Stress axis : x y z
#
# Youngs Moduli (GPa) = 21.77620 28.44710 40.72626
#
# Poissons Ratio (x) = -0.29764 0.37981
# Poissons Ratio (y) = -0.22784 -0.01756
# Poissons Ratio (z) = 0.20308 -0.01227
#
# Static dielectric constant tensor:
#      x y z
#    x 1.651150 0.000000 -0.032070 
#    y 0.000000 1.679270 0.000000 
#    z -0.032070 0.000000 1.701410 
# 
# From -- ./inp_files/54313.got.cif
#   From: 2010.05.17/outbox.cif.g08.bks.cpg/sg11_28_cif.got.tgz:54313.got - 2010.06.03 12:22:45.
