data_PCOD9161400
_publ_section_title
;
Structure prediction by ZEFSAII (Michael W. Deem and Ramdas Pophale) SiO2 
 PCOD9161400
Probable space group: P 21/M
;
_chemical_formula_sum "Si O2"
_cell_formula_units_Z 28
_cell_length_a 8.480479
_cell_length_b 7.782746
_cell_length_c 29.222851
_cell_angle_alpha 90.000000
_cell_angle_beta 44.351381
_cell_angle_gamma 90.000000
_cell_volume 1348.305473
_symmetry_space_group_name_H-M "P 21/M"
_symmetry_group_IT_number 11
_symmetry_cell_setting 'monoclinic'
loop_
_space_group_symop_operation_xyz
x,y,z
-x,1/2+y,-z
-x,-y,-z
x,1/2-y,z
loop_
_atom_site_type_symbol
_atom_site_label
_atom_site_fract_x
_atom_site_fract_y
_atom_site_fract_z
Si Si1 0.068223 0.459286 0.302576
Si Si2 0.192058 0.540068 0.848601
Si Si3 0.566964 0.540604 0.846451
Si Si4 0.433391 0.451363 0.296855
Si Si5 0.233104 0.937622 0.430479
Si Si6 0.309493 0.043318 0.076297
Si Si7 0.431583 0.956495 0.565566
O O1 0.061975 0.250000 0.303383
O O2 0.206742 0.509406 0.228620
O O3 0.224679 0.521878 0.311424
O O4 0.815721 0.511528 0.366198
O O5 0.182230 0.750000 0.853172
O O6 0.345879 0.487632 0.861417
O O7 0.337135 0.483298 0.773752
O O8 0.934756 0.481688 0.892582
O O9 0.556585 0.750000 0.849041
O O10 0.605680 0.482234 0.890836
O O11 0.442351 0.250000 0.284479
O O12 0.368729 0.465604 0.362784
O O13 0.192507 0.750000 0.419499
O O14 0.395857 0.942757 0.439303
O O15 0.000000 0.000000 0.500000
O O16 0.289350 0.250000 0.084621
O O17 0.500000 0.000000 0.000000
O O18 0.452645 0.750000 0.567778
O O19 0.500000 0.000000 0.500000
#
# Coordination Sequence:
#
# PCOD9161400 Si02
#       7
#     4   4   4   4   4   4   4
#     4   8  16  31  55  82 104 131 175 226 273 328
#     4   8  16  31  54  82 108 140 184 228 274 336
#     4   8  15  30  52  79 107 137 181 229 270 324
#     4   9  17  34  59  84 106 133 176 232 283 332
#     4  12  25  39  54  77 109 147 189 232 281 338
#     4  10  20  33  53  79 110 146 184 228 277 331
#     4  11  22  36  56  81 111 146 184 230 282 338
#
# _framework density 20.766808000000001
#
# number of rings (size 3 to 8) (size 9 to 14) (size 15 to 20)
#    0.000    2.571    0.000    4.286    2.000    1.714 
#    0.000    1.429    0.000    3.429    0.000    0.000 
#    0.000    0.000    0.000    0.000    0.000    0.000 
#
# Total GULP energy -155904.862200 kJ/mol
# GULP energy per Si atom -5568.030793 kJ/mol
# Density = 2.071954 g / cm^3
# Si number density = 20.766808 Si / 1000 Ang^3
#
#
#
# Elastic Constant Matrix: (Units=GPa)
#
#
# Indices 1 2 3 4 5 6 
#
# 1 153.3406 2.0161 127.1820 0.0000 -5.1887 0.0000
# 2 2.0161 29.9203 0.6165 0.0000 -8.1489 0.0000
# 3 127.1820 0.6165 175.2948 0.0000 -11.0155 0.0000
# 4 0.0000 0.0000 0.0000 22.4896 0.0000 1.6163
# 5 -5.1887 -8.1489 -11.0155 0.0000 49.9618 0.0000
# 6 0.0000 0.0000 0.0000 1.6163 0.0000 8.6059
#
#
#
# Elastic Compliance Matrix: (Units=1/GPa)
#
#
# Indices 1 2 3 4 5 6 
#
# 1 0.016458 -0.001169 -0.012007 0.000000 -0.001129 0.000000
# 2 -0.001169 0.035069 0.001092 0.000000 0.005839 0.000000
# 3 -0.012007 0.001092 0.014547 0.000000 0.002138 0.000000
# 4 0.000000 0.000000 0.000000 0.045073 0.000000 -0.008465
# 5 -0.001129 0.005839 0.002138 0.000000 0.021322 0.000000
# 6 0.000000 0.000000 0.000000 -0.008465 0.000000 0.117789
#
#
# Mechanical properties :
#
#
# Convention : Reuss Voigt Hill
#
# Bulk Modulus (GPa) = 23.86410 68.68723 46.27566
# Shear Modulus (GPa) = 17.33738 31.46087 24.39912
#
# Velocity S-wave (km/s) = 2.89253 3.89647 3.43141
# Velocity P-wave (km/s) = 4.76152 7.30689 6.16695
#
# Compressibility (1/GPa) = 0.04190395
#
# Stress axis : x y z
#
# Youngs Moduli (GPa) = 60.76225 28.51551 68.74307
#
# Poissons Ratio (x) = 0.03333 0.82542
# Poissons Ratio (y) = 0.07103 -0.07505
# Poissons Ratio (z) = 0.72959 -0.03113
#
# Static dielectric constant tensor:
#      x y z
#    x 1.661330 0.000000 -0.105370 
#    y 0.000000 1.765880 0.000000 
#    z -0.105370 0.000000 1.797970 
# 
# From -- ./inp_files/66692.got.cif
#   From: 2010.05.17/outbox.cif.g08.bks.cpg/sg11_34_cif.got.tgz:66692.got - 2010.06.03 12:22:45.
