data_PCOD9161784
_publ_section_title
;
Structure prediction by ZEFSAII (Michael W. Deem and Ramdas Pophale) SiO2 
 PCOD9161784
Probable space group: P 21/M
;
_chemical_formula_sum "Si O2"
_cell_formula_units_Z 32
_cell_length_a 23.151114
_cell_length_b 8.469073
_cell_length_c 15.518152
_cell_angle_alpha 90.000000
_cell_angle_beta 148.150180
_cell_angle_gamma 90.000000
_cell_volume 1605.574342
_symmetry_space_group_name_H-M "P 21/M"
_symmetry_group_IT_number 11
_symmetry_cell_setting 'monoclinic'
loop_
_space_group_symop_operation_xyz
x,y,z
-x,1/2+y,-z
-x,-y,-z
x,1/2-y,z
loop_
_atom_site_type_symbol
_atom_site_label
_atom_site_fract_x
_atom_site_fract_y
_atom_site_fract_z
Si Si1 0.441931 0.559721 0.341029
Si Si2 0.754873 0.558886 0.512245
Si Si3 0.281470 0.440781 0.881667
Si Si4 0.802895 0.059562 0.932035
Si Si5 0.510438 0.559324 0.240136
Si Si6 0.089906 0.061717 0.768077
Si Si7 0.876211 0.439428 0.836555
Si Si8 0.852230 0.559482 0.453872
O O1 0.500000 0.500000 0.500000
O O2 0.443317 0.750000 0.343543
O O3 0.315776 0.507943 0.184584
O O4 0.498031 0.505704 0.323851
O O5 0.756395 0.750000 0.514254
O O6 0.627868 0.507203 0.353145
O O7 0.815956 0.503225 0.675705
O O8 0.814307 0.504410 0.500321
O O9 0.284790 0.250000 0.888478
O O10 0.193167 0.494805 0.841774
O O11 0.232498 0.490226 0.727486
O O12 0.402566 0.502384 0.054094
O O13 0.808992 0.250000 0.942850
O O14 0.818441 0.010618 0.852828
O O15 0.891823 0.992753 0.110522
O O16 0.509395 0.750000 0.238156
O O17 0.088245 0.250000 0.761961
O O18 0.974386 0.997651 0.588920
O O19 0.876013 0.250000 0.832978
O O20 0.000000 0.500000 0.000000
O O21 0.853717 0.750000 0.456405
#
# Coordination Sequence:
#
# PCOD9161784 Si02
#       8
#     4   4   4   4   4   4   4   4
#     4  10  20  34  54  80 109 143 183 226 275 331
#     4  10  22  40  60  85 117 154 196 238 285 342
#     4  10  22  39  59  86 117 151 192 239 292 344
#     4  10  21  37  56  80 112 151 187 224 285 349
#     4  10  21  38  60  85 116 152 191 237 286 341
#     4  11  22  36  58  89 117 145 192 246 289 339
#     4  11  23  38  58  84 116 154 195 238 285 341
#     4  10  22  40  60  82 115 156 192 235 293 349
#
# _framework density 19.930562999999999
#
# number of rings (size 3 to 8) (size 9 to 14) (size 15 to 20)
#    0.000    1.750    1.250    2.625    0.000    7.500 
#    0.000    0.000    0.000    0.000    0.000    0.000 
#    0.000    0.000    0.000    0.000    0.000    0.000 
#
# Total GULP energy -178813.977054 kJ/mol
# GULP energy per Si atom -5587.936783 kJ/mol
# Density = 1.988520 g / cm^3
# Si number density = 19.930563 Si / 1000 Ang^3
#
#
#
# Elastic Constant Matrix: (Units=GPa)
#
#
# Indices 1 2 3 4 5 6 
#
# 1 94.3731 17.4460 43.2593 0.0000 2.5837 0.0000
# 2 17.4460 4.7197 14.3324 0.0000 -0.7558 0.0000
# 3 43.2593 14.3324 151.8316 0.0000 -0.1821 0.0000
# 4 0.0000 0.0000 0.0000 33.9753 0.0000 0.5570
# 5 2.5837 -0.7558 -0.1821 0.0000 39.6895 0.0000
# 6 0.0000 0.0000 0.0000 0.5570 0.0000 18.6633
#
#
#
# Elastic Compliance Matrix: (Units=1/GPa)
#
#
# Indices 1 2 3 4 5 6 
#
# 1 0.035426 -0.141698 0.003276 0.000000 -0.004990 0.000000
# 2 -0.141698 0.865016 -0.041252 0.000000 0.025508 0.000000
# 3 0.003276 -0.041252 0.009546 0.000000 -0.000955 0.000000
# 4 0.000000 0.000000 0.000000 0.029448 0.000000 -0.000879
# 5 -0.004990 0.025508 -0.000955 0.000000 0.026002 0.000000
# 6 0.000000 0.000000 0.000000 -0.000879 0.000000 0.053607
#
#
# Mechanical properties :
#
#
# Convention : Reuss Voigt Hill
#
# Bulk Modulus (GPa) = 1.81607 44.55551 23.18579
# Shear Modulus (GPa) = 3.20115 30.19139 16.69627
#
# Velocity S-wave (km/s) = 1.26872 3.89630 2.89748
# Velocity P-wave (km/s) = 1.74910 6.53035 4.78042
#
# Compressibility (1/GPa) = 0.55064075
#
# Stress axis : x y z
#
# Youngs Moduli (GPa) = 28.22821 1.15605 104.76019
#
# Poissons Ratio (x) = 0.16381 -0.34325
# Poissons Ratio (y) = 3.99988 4.32156
# Poissons Ratio (z) = -0.09249 0.04769
#
# Static dielectric constant tensor:
#      x y z
#    x 1.716090 0.000000 0.003860 
#    y 0.000000 1.686470 0.000000 
#    z 0.003860 0.000000 1.676250 
# 
# From -- ./inp_files/55701.got.cif
#   From: 2010.05.17/outbox.cif.g08.bks.cpg/sg11_28_cif.got.tgz:55701.got - 2010.06.03 12:22:45.
