data_PCOD9161673
_publ_section_title
;
Structure prediction by ZEFSAII (Michael W. Deem and Ramdas Pophale) SiO2 
 PCOD9161673
Probable space group: P 21/M
;
_chemical_formula_sum "Si O2"
_cell_formula_units_Z 28
_cell_length_a 18.233541
_cell_length_b 9.074237
_cell_length_c 19.622084
_cell_angle_alpha 90.000000
_cell_angle_beta 29.131699
_cell_angle_gamma 90.000000
_cell_volume 1580.496500
_symmetry_space_group_name_H-M "P 21/M"
_symmetry_group_IT_number 11
_symmetry_cell_setting 'monoclinic'
loop_
_space_group_symop_operation_xyz
x,y,z
-x,1/2+y,-z
-x,-y,-z
x,1/2-y,z
loop_
_atom_site_type_symbol
_atom_site_label
_atom_site_fract_x
_atom_site_fract_y
_atom_site_fract_z
Si Si1 0.899368 0.424421 0.023423
Si Si2 0.347885 0.079412 0.705522
Si Si3 0.973954 0.924446 0.229664
Si Si4 0.846408 0.926250 0.652304
Si Si5 0.798465 0.576404 0.853744
Si Si6 0.301166 0.920876 0.599899
Si Si7 0.536535 0.072828 0.897241
O O1 0.901108 0.250000 0.032271
O O2 0.734196 0.489408 0.169343
O O3 0.958446 0.456469 0.900177
O O4 0.000000 0.500000 0.000000
O O5 0.301396 0.250000 0.744540
O O6 0.527414 0.071068 0.564572
O O7 0.300021 0.010191 0.671804
O O8 0.950919 0.750000 0.254423
O O9 0.089068 0.981802 0.192450
O O10 0.815476 0.008883 0.357804
O O11 0.846900 0.750000 0.639428
O O12 0.831367 0.948376 0.746540
O O13 0.693724 0.000546 0.745900
O O14 0.000000 0.000000 0.500000
O O15 0.823348 0.750000 0.846522
O O16 0.621708 0.545286 0.013122
O O17 0.263902 0.750000 0.643436
O O18 0.553953 0.250000 0.889436
O O19 0.500000 0.000000 0.000000
#
# Coordination Sequence:
#
# PCOD9161673 Si02
#       7
#     4   4   4   4   4   4   4
#     4  11  22  35  53  78 105 138 179 228 276 323
#     4  10  20  34  53  78 102 131 178 226 272 329
#     4  11  23  36  54  80 109 141 184 230 275 328
#     4  10  20  35  58  88 116 146 184 226 269 324
#     4   9  20  37  56  80 111 146 183 220 271 330
#     4  10  20  34  54  76 103 140 176 220 276 329
#     4   9  17  32  55  82 111 145 183 223 265 321
#
# _framework density 17.715952000000001
#
# number of rings (size 3 to 8) (size 9 to 14) (size 15 to 20)
#    0.000    2.000    1.429    3.429    0.000    6.857 
#    0.000    1.429    0.000    1.714    0.000    0.000 
#    0.000    0.000    0.000    0.000    0.000    0.000 
#
# Total GULP energy -156191.080008 kJ/mol
# GULP energy per Si atom -5578.252857 kJ/mol
# Density = 1.767563 g / cm^3
# Si number density = 17.715952 Si / 1000 Ang^3
#
#
#
# Elastic Constant Matrix: (Units=GPa)
#
#
# Indices 1 2 3 4 5 6 
#
# 1 65.1125 46.8963 24.3489 0.0000 -24.5191 0.0000
# 2 46.8963 70.0023 47.5927 0.0000 -11.4057 0.0000
# 3 24.3489 47.5927 101.1188 0.0000 -20.2338 0.0000
# 4 0.0000 0.0000 0.0000 35.0141 0.0000 -4.1019
# 5 -24.5191 -11.4057 -20.2338 0.0000 25.3668 0.0000
# 6 0.0000 0.0000 0.0000 -4.1019 0.0000 28.9980
#
#
#
# Elastic Compliance Matrix: (Units=1/GPa)
#
#
# Indices 1 2 3 4 5 6 
#
# 1 0.058143 -0.041308 0.015434 0.000000 0.049937 0.000000
# 2 -0.041308 0.050429 -0.020515 0.000000 -0.033617 0.000000
# 3 0.015434 -0.020515 0.020190 0.000000 0.021799 0.000000
# 4 0.000000 0.000000 0.000000 0.029041 0.000000 0.004108
# 5 0.049937 -0.033617 0.021799 0.000000 0.089963 0.000000
# 6 0.000000 0.000000 0.000000 0.004108 0.000000 0.035066
#
#
# Mechanical properties :
#
#
# Convention : Reuss Voigt Hill
#
# Bulk Modulus (GPa) = 27.78987 52.65660 40.22324
# Shear Modulus (GPa) = 12.89975 25.70216 19.30095
#
# Velocity S-wave (km/s) = 2.70134 3.81306 3.30429
# Velocity P-wave (km/s) = 5.04481 7.01235 6.10832
#
# Compressibility (1/GPa) = 0.03598434
#
# Stress axis : x y z
#
# Youngs Moduli (GPa) = 17.19909 19.83000 49.52832
#
# Poissons Ratio (x) = 0.81914 -0.76442
# Poissons Ratio (y) = 0.71046 1.01607
# Poissons Ratio (z) = -0.26545 0.40681
#
# Static dielectric constant tensor:
#      x y z
#    x 1.591050 0.000000 -0.017940 
#    y 0.000000 1.588540 0.000000 
#    z -0.017940 0.000000 1.646780 
# 
# From -- ./inp_files/65989.got.cif
#   From: 2010.05.17/outbox.cif.g08.bks.cpg/sg11_33_cif.got.tgz:65989.got - 2010.06.03 12:22:45.
