data_PCOD9161053
_publ_section_title
;
Structure prediction by ZEFSAII (Michael W. Deem and Ramdas Pophale) SiO2 
 PCOD9161053
Probable space group: P 21/M
;
_chemical_formula_sum "Si O2"
_cell_formula_units_Z 32
_cell_length_a 11.590645
_cell_length_b 9.122461
_cell_length_c 20.405001
_cell_angle_alpha 90.000000
_cell_angle_beta 60.861232
_cell_angle_gamma 90.000000
_cell_volume 1884.476760
_symmetry_space_group_name_H-M "P 21/M"
_symmetry_group_IT_number 11
_symmetry_cell_setting 'monoclinic'
loop_
_space_group_symop_operation_xyz
x,y,z
-x,1/2+y,-z
-x,-y,-z
x,1/2-y,z
loop_
_atom_site_type_symbol
_atom_site_label
_atom_site_fract_x
_atom_site_fract_y
_atom_site_fract_z
Si Si1 0.069602 0.074024 0.918604
Si Si2 0.839739 0.576135 0.743606
Si Si3 0.379056 0.425757 0.840804
Si Si4 0.028239 0.418716 0.594490
Si Si5 0.392551 0.075167 0.296847
Si Si6 0.589644 0.078004 0.029430
Si Si7 0.790949 0.419046 0.552496
Si Si8 0.143741 0.921155 0.124501
O O1 0.056021 0.250000 0.929088
O O2 0.224520 0.039595 0.872992
O O3 0.989726 0.031586 0.875316
O O4 0.000000 0.000000 0.000000
O O5 0.858780 0.750000 0.739150
O O6 0.711750 0.545948 0.733630
O O7 0.823171 0.514132 0.820780
O O8 0.964012 0.498936 0.674207
O O9 0.395126 0.250000 0.838151
O O10 0.472414 0.496420 0.760245
O O11 0.420046 0.495962 0.898958
O O12 0.060529 0.250000 0.599751
O O13 0.150199 0.503340 0.527968
O O14 0.911631 0.419307 0.571848
O O15 0.407835 0.250000 0.298243
O O16 0.325611 0.008004 0.380136
O O17 0.554953 0.250000 0.046061
O O18 0.738944 0.068239 0.960946
O O19 0.500000 0.000000 0.000000
O O20 0.755358 0.250000 0.550467
O O21 0.133191 0.750000 0.146659
#
# Coordination Sequence:
#
# PCOD9161053 Si02
#       8
#     4   4   4   4   4   4   4   4
#     4  10  21  38  57  75  95 125 168 217 260 304
#     4  10  20  32  48  73 103 135 170 208 249 296
#     4  11  22  35  53  75  99 129 168 212 258 303
#     4   9  16  27  45  69 100 137 170 202 245 296
#     4  10  20  33  49  72 105 139 171 207 251 302
#     4  11  22  35  52  73 101 133 166 203 249 306
#     4   9  16  27  45  70 101 135 171 207 244 292
#     4  10  21  36  52  71  97 130 166 207 256 302
#
# _framework density 16.980841999999999
#
# number of rings (size 3 to 8) (size 9 to 14) (size 15 to 20)
#    0.000    2.000    1.250    3.000    0.000    8.500 
#    0.000    0.000    0.000    0.000    0.000    0.875 
#    0.000    0.000    0.000    0.000    0.000    0.000 
#
# Total GULP energy -178611.117067 kJ/mol
# GULP energy per Si atom -5581.597408 kJ/mol
# Density = 1.694219 g / cm^3
# Si number density = 16.980842 Si / 1000 Ang^3
#
#
#
# Elastic Constant Matrix: (Units=GPa)
#
#
# Indices 1 2 3 4 5 6 
#
# 1 42.3000 24.1953 5.0963 0.0000 -19.6333 0.0000
# 2 24.1953 83.9800 44.2334 0.0000 -19.3266 0.0000
# 3 5.0963 44.2334 87.3316 0.0000 -27.1542 0.0000
# 4 0.0000 0.0000 0.0000 36.9788 0.0000 -1.5020
# 5 -19.6333 -19.3266 -27.1542 0.0000 20.3089 0.0000
# 6 0.0000 0.0000 0.0000 -1.5020 0.0000 17.0208
#
#
#
# Elastic Compliance Matrix: (Units=1/GPa)
#
#
# Indices 1 2 3 4 5 6 
#
# 1 0.086043 -0.019172 0.042583 0.000000 0.121872 0.000000
# 2 -0.019172 0.021233 -0.015602 0.000000 -0.019189 0.000000
# 3 0.042583 -0.015602 0.042877 0.000000 0.083648 0.000000
# 4 0.000000 0.000000 0.000000 0.027140 0.000000 0.002395
# 5 0.121872 -0.019189 0.083648 0.000000 0.260639 0.000000
# 6 0.000000 0.000000 0.000000 0.002395 0.000000 0.058963
#
#
# Mechanical properties :
#
#
# Convention : Reuss Voigt Hill
#
# Bulk Modulus (GPa) = 6.03242 40.07354 23.05298
# Shear Modulus (GPa) = 9.31910 24.20082 16.75996
#
# Velocity S-wave (km/s) = 2.34519 3.77926 3.14505
# Velocity P-wave (km/s) = 3.30052 6.53408 5.17627
#
# Compressibility (1/GPa) = 0.16577109
#
# Stress axis : x y z
#
# Youngs Moduli (GPa) = 11.62213 47.09646 23.32252
#
# Poissons Ratio (x) = 0.90293 -0.99315
# Poissons Ratio (y) = 0.22282 0.36388
# Poissons Ratio (z) = -0.49491 0.73481
#
# Static dielectric constant tensor:
#      x y z
#    x 1.563680 0.000000 -0.016920 
#    y 0.000000 1.569260 0.000000 
#    z -0.016920 0.000000 1.559450 
# 
# From -- ./inp_files/40657.got.cif
#   From: 2010.05.17/outbox.cif.g08.bks.cpg/sg11_21_cif.got.tgz:40657.got - 2010.06.03 12:22:45.
