data_PCOD9161808
_publ_section_title
;
Structure prediction by ZEFSAII (Michael W. Deem and Ramdas Pophale) SiO2 
 PCOD9161808
Probable space group: P 21/M
;
_chemical_formula_sum "Si O2"
_cell_formula_units_Z 32
_cell_length_a 21.471232
_cell_length_b 8.787220
_cell_length_c 26.920837
_cell_angle_alpha 90.000000
_cell_angle_beta 21.158764
_cell_angle_gamma 90.000000
_cell_volume 1833.362125
_symmetry_space_group_name_H-M "P 21/M"
_symmetry_group_IT_number 11
_symmetry_cell_setting 'monoclinic'
loop_
_space_group_symop_operation_xyz
x,y,z
-x,1/2+y,-z
-x,-y,-z
x,1/2-y,z
loop_
_atom_site_type_symbol
_atom_site_label
_atom_site_fract_x
_atom_site_fract_y
_atom_site_fract_z
Si Si1 0.048754 0.931982 0.775542
Si Si2 0.985732 0.567926 0.090011
Si Si3 0.207141 0.931662 0.110543
Si Si4 0.916140 0.568250 0.408313
Si Si5 0.334221 0.933264 0.483316
Si Si6 0.552932 0.566704 0.907309
Si Si7 0.269199 0.433704 0.809526
Si Si8 0.925829 0.066681 0.605695
O O1 0.053268 0.750000 0.775658
O O2 0.211807 0.983272 0.620250
O O3 0.048923 0.002356 0.829925
O O4 0.879096 0.983643 0.871449
O O5 0.994886 0.750000 0.085509
O O6 0.833856 0.525300 0.164138
O O7 0.161136 0.503723 0.935253
O O8 0.199123 0.750000 0.107653
O O9 0.085079 0.964602 0.248954
O O10 0.401215 0.972558 0.981142
O O11 0.890499 0.750000 0.426470
O O12 0.757195 0.490400 0.498789
O O13 0.957107 0.521350 0.433926
O O14 0.332806 0.750000 0.484500
O O15 0.532104 0.983895 0.340052
O O16 0.561988 0.750000 0.903687
O O17 0.735050 0.497635 0.756503
O O18 0.500000 0.500000 0.000000
O O19 0.265194 0.250000 0.816906
O O20 0.920573 0.250000 0.608174
O O21 0.000000 0.000000 0.500000
#
# Coordination Sequence:
#
# PCOD9161808 Si02
#       8
#     4   4   4   4   4   4   4   4
#     4  10  20  34  54  82 112 141 176 223 271 318
#     4  10  20  35  56  80 108 145 181 219 269 321
#     4   9  18  35  56  80 109 142 180 223 271 323
#     4   9  18  35  56  78 109 144 178 221 271 325
#     4   9  19  35  56  82 108 138 179 223 268 320
#     4  11  21  36  60  86 111 145 186 232 278 332
#     4   9  19  37  57  78 108 143 182 224 266 318
#     4  11  23  40  57  81 113 148 188 233 283 333
#
# _framework density 17.454272
#
# number of rings (size 3 to 8) (size 9 to 14) (size 15 to 20)
#    0.000    2.250    1.250    1.500    0.000    4.000 
#    2.250    0.000    0.000    0.000    0.000    0.000 
#    0.000    0.000    0.000    0.000    0.000    0.000 
#
# Total GULP energy -178568.690726 kJ/mol
# GULP energy per Si atom -5580.271585 kJ/mol
# Density = 1.741455 g / cm^3
# Si number density = 17.454272 Si / 1000 Ang^3
#
#
#
# Elastic Constant Matrix: (Units=GPa)
#
#
# Indices 1 2 3 4 5 6 
#
# 1 146.8724 45.1171 97.5228 0.0000 3.8398 0.0000
# 2 45.1171 35.4369 42.2098 0.0000 -0.9604 0.0000
# 3 97.5228 42.2098 144.7002 0.0000 -9.6741 0.0000
# 4 0.0000 0.0000 0.0000 27.7972 0.0000 0.1893
# 5 3.8398 -0.9604 -9.6741 0.0000 24.8094 0.0000
# 6 0.0000 0.0000 0.0000 0.1893 0.0000 32.1774
#
#
#
# Elastic Compliance Matrix: (Units=1/GPa)
#
#
# Indices 1 2 3 4 5 6 
#
# 1 0.015211 -0.010505 -0.007569 0.000000 -0.005712 0.000000
# 2 -0.010505 0.050770 -0.007690 0.000000 0.000593 0.000000
# 3 -0.007569 -0.007690 0.014697 0.000000 0.006605 0.000000
# 4 0.000000 0.000000 0.000000 0.035976 0.000000 -0.000212
# 5 -0.005712 0.000593 0.006605 0.000000 0.043790 0.000000
# 6 0.000000 0.000000 0.000000 -0.000212 0.000000 0.031079
#
#
# Mechanical properties :
#
#
# Convention : Reuss Voigt Hill
#
# Bulk Modulus (GPa) = 34.30648 77.41211 55.85930
# Shear Modulus (GPa) = 19.78102 26.43412 23.10757
#
# Velocity S-wave (km/s) = 3.37011 3.89585 3.64248
# Velocity P-wave (km/s) = 5.90265 8.04267 7.05428
#
# Compressibility (1/GPa) = 0.02914901
#
# Stress axis : x y z
#
# Youngs Moduli (GPa) = 65.74263 19.69676 68.04117
#
# Poissons Ratio (x) = 0.20691 0.51501
# Poissons Ratio (y) = 0.69063 0.52325
# Poissons Ratio (z) = 0.49761 0.15147
#
# Static dielectric constant tensor:
#      x y z
#    x 1.577340 0.000000 -0.000980 
#    y 0.000000 1.584750 0.000000 
#    z -0.000980 0.000000 1.609160 
# 
# From -- ./inp_files/72105.got.cif
#   From: 2010.05.17/outbox.cif.g08.bks.cpg/sg11_37_cif.got.tgz:72105.got - 2010.06.03 12:22:45.
