data_PCOD9161390
_publ_section_title
;
Structure prediction by ZEFSAII (Michael W. Deem and Ramdas Pophale) SiO2 
 PCOD9161390
Probable space group: P 21/M
;
_chemical_formula_sum "Si O2"
_cell_formula_units_Z 28
_cell_length_a 32.470508
_cell_length_b 9.341933
_cell_length_c 5.280362
_cell_angle_alpha 90.000000
_cell_angle_beta 120.857991
_cell_angle_gamma 90.000000
_cell_volume 1374.991717
_symmetry_space_group_name_H-M "P 21/M"
_symmetry_group_IT_number 11
_symmetry_cell_setting 'monoclinic'
loop_
_space_group_symop_operation_xyz
x,y,z
-x,1/2+y,-z
-x,-y,-z
x,1/2-y,z
loop_
_atom_site_type_symbol
_atom_site_label
_atom_site_fract_x
_atom_site_fract_y
_atom_site_fract_z
Si Si1 0.474132 0.403365 0.119519
Si Si2 0.659381 0.422664 0.610171
Si Si3 0.813709 0.917313 0.680582
Si Si4 0.977227 0.075050 0.678072
Si Si5 0.714680 0.423085 0.289062
Si Si6 0.877206 0.581115 0.379551
Si Si7 0.425114 0.593526 0.307423
O O1 0.461818 0.250000 0.970481
O O2 0.428567 0.474982 0.105128
O O3 0.519045 0.385503 0.452599
O O4 0.500000 0.500000 0.000000
O O5 0.660881 0.250000 0.601185
O O6 0.679023 0.472211 0.402297
O O7 0.606245 0.453423 0.551744
O O8 0.694321 0.467632 0.950822
O O9 0.799393 0.750000 0.633096
O O10 0.848787 0.939594 0.552074
O O11 0.766815 0.013388 0.505313
O O12 0.842219 0.943460 0.030860
O O13 0.982998 0.250000 0.696258
O O14 0.921797 0.025948 0.504988
O O15 0.000000 0.000000 0.500000
O O16 0.000000 0.000000 0.000000
O O17 0.716974 0.250000 0.298009
O O18 0.892800 0.750000 0.418187
O O19 0.406398 0.750000 0.161155
#
# Coordination Sequence:
#
# PCOD9161390 Si02
#       7
#     4   4   4   4   4   4   4
#     4  10  20  33  53  78 105 138 177 223 274 330
#     4   9  19  34  56  81 106 140 184 227 280 339
#     4  10  21  37  58  83 115 153 194 242 299 357
#     4  12  25  42  65  95 132 172 214 263 314 370
#     4  10  20  35  56  82 109 141 184 236 284 341
#     4  10  21  38  60  86 117 159 205 248 298 359
#     4   9  19  35  54  75 102 140 181 225 273 334
#
# _framework density 20.363759000000002
#
# number of rings (size 3 to 8) (size 9 to 14) (size 15 to 20)
#    0.000    2.000    0.000    3.429    2.000    2.857 
#    0.000    1.429    0.000    0.000    0.000    0.000 
#    0.000    0.000    0.000    0.000    0.000    0.000 
#
# Total GULP energy -156172.119754 kJ/mol
# GULP energy per Si atom -5577.575706 kJ/mol
# Density = 2.031741 g / cm^3
# Si number density = 20.363759 Si / 1000 Ang^3
#
#
#
# Elastic Constant Matrix: (Units=GPa)
#
#
# Indices 1 2 3 4 5 6 
#
# 1 81.1173 40.1449 20.3571 0.0000 -0.7917 0.0000
# 2 40.1449 98.0207 25.7336 0.0000 -2.6784 0.0000
# 3 20.3571 25.7336 83.4738 0.0000 -6.3773 0.0000
# 4 0.0000 0.0000 0.0000 18.5623 0.0000 2.5157
# 5 -0.7917 -2.6784 -6.3773 0.0000 36.7467 0.0000
# 6 0.0000 0.0000 0.0000 2.5157 0.0000 29.6431
#
#
#
# Elastic Compliance Matrix: (Units=1/GPa)
#
#
# Indices 1 2 3 4 5 6 
#
# 1 0.015775 -0.005934 -0.002052 0.000000 -0.000449 0.000000
# 2 -0.005934 0.013334 -0.002634 0.000000 0.000387 0.000000
# 3 -0.002052 -0.002634 0.013453 0.000000 0.002098 0.000000
# 4 0.000000 0.000000 0.000000 0.054500 0.000000 -0.004625
# 5 -0.000449 0.000387 0.002098 0.000000 0.027596 0.000000
# 6 0.000000 0.000000 0.000000 -0.004625 0.000000 0.034127
#
#
# Mechanical properties :
#
#
# Convention : Reuss Voigt Hill
#
# Bulk Modulus (GPa) = 46.90085 48.34256 47.62171
# Shear Modulus (GPa) = 26.71893 28.74882 27.73387
#
# Velocity S-wave (km/s) = 3.62620 3.76142 3.69443
# Velocity P-wave (km/s) = 6.37291 6.53111 6.45249
#
# Compressibility (1/GPa) = 0.02132158
#
# Stress axis : x y z
#
# Youngs Moduli (GPa) = 63.39000 74.99356 74.33523
#
# Poissons Ratio (x) = 0.44504 0.15254
# Poissons Ratio (y) = 0.37618 0.19580
# Poissons Ratio (z) = 0.13008 0.19753
#
# Static dielectric constant tensor:
#      x y z
#    x 1.698550 0.000000 -0.005800 
#    y 0.000000 1.654700 0.000000 
#    z -0.005800 0.000000 1.794100 
# 
# From -- ./inp_files/9644.got.cif
#   From: 2010.05.17/outbox.cif.g08.bks.cpg/sg11_5_cif.got.tgz:9644.got - 2010.06.03 12:22:45.
