data_PCOD9161826
_publ_section_title
;
Structure prediction by ZEFSAII (Michael W. Deem and Ramdas Pophale) SiO2 
 PCOD9161826
Probable space group: P 21/M
;
_chemical_formula_sum "Si O2"
_cell_formula_units_Z 24
_cell_length_a 13.510496
_cell_length_b 9.123966
_cell_length_c 11.957726
_cell_angle_alpha 90.000000
_cell_angle_beta 133.077035
_cell_angle_gamma 90.000000
_cell_volume 1076.677826
_symmetry_space_group_name_H-M "P 21/M"
_symmetry_group_IT_number 11
_symmetry_cell_setting 'monoclinic'
loop_
_space_group_symop_operation_xyz
x,y,z
-x,1/2+y,-z
-x,-y,-z
x,1/2-y,z
loop_
_atom_site_type_symbol
_atom_site_label
_atom_site_fract_x
_atom_site_fract_y
_atom_site_fract_z
Si Si1 0.575884 0.927695 0.231646
Si Si2 0.268820 0.578225 0.991836
Si Si3 0.816033 0.084309 0.811620
Si Si4 0.000869 0.580911 0.240343
Si Si5 0.388503 0.078571 0.485623
Si Si6 0.872354 0.573107 0.461360
O O1 0.571280 0.750000 0.221157
O O2 0.422288 0.973937 0.082054
O O3 0.595578 0.973971 0.375590
O O4 0.723840 0.971261 0.298051
O O5 0.256060 0.750000 0.949235
O O6 0.232750 0.574287 0.097768
O O7 0.148376 0.480290 0.851177
O O8 0.770125 0.250000 0.742226
O O9 0.964731 0.076864 0.866854
O O10 0.743401 0.958983 0.686179
O O11 0.011272 0.750000 0.283448
O O12 0.104306 0.485067 0.394063
O O13 0.409885 0.250000 0.507193
O O14 0.500000 0.000000 0.500000
O O15 0.879464 0.750000 0.465760
O O16 0.000000 0.500000 0.500000
#
# Coordination Sequence:
#
# PCOD9161826 Si02
#       6
#     4   4   4   4   4   4
#     4   9  19  36  59  84 114 150 194 240 289 345
#     4  10  20  37  58  84 122 164 195 230 283 347
#     4  10  20  34  54  83 122 161 200 236 278 338
#     4  11  23  38  57  89 124 156 196 243 286 342
#     4  11  19  31  52  82 118 156 196 239 285 339
#     4  11  23  43  67  90 112 146 193 247 304 355
#
# _framework density 22.290790999999999
#
# number of rings (size 3 to 8) (size 9 to 14) (size 15 to 20)
#    0.000    1.667    3.333    2.000    0.000    1.333 
#    0.000    2.500    0.000    0.000    0.000    0.000 
#    0.000    0.000    0.000    0.000    0.000    0.000 
#
# Total GULP energy -133650.962652 kJ/mol
# GULP energy per Si atom -5568.790110 kJ/mol
# Density = 2.224006 g / cm^3
# Si number density = 22.290791 Si / 1000 Ang^3
#
#
#
# Elastic Constant Matrix: (Units=GPa)
#
#
# Indices 1 2 3 4 5 6 
#
# 1 103.1716 19.6317 21.6399 0.0000 33.5318 0.0000
# 2 19.6317 48.4982 18.3091 0.0000 17.0594 0.0000
# 3 21.6399 18.3091 71.8467 0.0000 42.6585 0.0000
# 4 0.0000 0.0000 0.0000 27.1099 0.0000 5.8582
# 5 33.5318 17.0594 42.6585 0.0000 51.6844 0.0000
# 6 0.0000 0.0000 0.0000 5.8582 0.0000 25.8018
#
#
#
# Elastic Compliance Matrix: (Units=1/GPa)
#
#
# Indices 1 2 3 4 5 6 
#
# 1 0.012755 -0.002787 0.002423 0.000000 -0.009355 0.000000
# 2 -0.002787 0.024206 -0.003253 0.000000 -0.003496 0.000000
# 3 0.002423 -0.003253 0.028069 0.000000 -0.023665 0.000000
# 4 0.000000 0.000000 0.000000 0.038790 0.000000 -0.008807
# 5 -0.009355 -0.003496 -0.023665 0.000000 0.046104 0.000000
# 6 0.000000 0.000000 0.000000 -0.008807 0.000000 0.040757
#
#
# Mechanical properties :
#
#
# Convention : Reuss Voigt Hill
#
# Bulk Modulus (GPa) = 17.30245 38.07535 27.68890
# Shear Modulus (GPa) = 23.02233 31.84825 27.43529
#
# Velocity S-wave (km/s) = 3.21724 3.78400 3.51207
# Velocity P-wave (km/s) = 4.64541 6.01746 5.37539
#
# Compressibility (1/GPa) = 0.05779529
#
# Stress axis : x y z
#
# Youngs Moduli (GPa) = 78.39884 41.31292 35.62658
#
# Poissons Ratio (x) = 0.11515 -0.08633
# Poissons Ratio (y) = 0.21852 0.11590
# Poissons Ratio (z) = -0.18997 0.13440
#
# Static dielectric constant tensor:
#      x y z
#    x 1.947830 0.000000 0.008710 
#    y 0.000000 1.748580 0.000000 
#    z 0.008710 0.000000 1.849990 
# 
# From -- ./inp_files/51829.got.cif
#   From: 2010.05.17/outbox.cif.g08.bks.cpg/sg11_26_cif.got.tgz:51829.got - 2010.06.03 12:22:45.
