data_PCOD9161589
_publ_section_title
;
Structure prediction by ZEFSAII (Michael W. Deem and Ramdas Pophale) SiO2 
 PCOD9161589
Probable space group: P 21/M
;
_chemical_formula_sum "Si O2"
_cell_formula_units_Z 28
_cell_length_a 24.078767
_cell_length_b 7.559193
_cell_length_c 21.166435
_cell_angle_alpha 90.000000
_cell_angle_beta 19.320110
_cell_angle_gamma 90.000000
_cell_volume 1274.626085
_symmetry_space_group_name_H-M "P 21/M"
_symmetry_group_IT_number 11
_symmetry_cell_setting 'monoclinic'
loop_
_space_group_symop_operation_xyz
x,y,z
-x,1/2+y,-z
-x,-y,-z
x,1/2-y,z
loop_
_atom_site_type_symbol
_atom_site_label
_atom_site_fract_x
_atom_site_fract_y
_atom_site_fract_z
Si Si1 0.015632 0.049511 0.555989
Si Si2 0.337943 0.466662 0.371698
Si Si3 0.047582 0.533341 0.242777
Si Si4 0.242626 0.966303 0.910281
Si Si5 0.962324 0.962037 0.113021
Si Si6 0.587254 0.549509 0.841125
Si Si7 0.395536 0.466302 0.451558
O O1 0.955977 0.250000 0.620773
O O2 0.213260 0.041449 0.360218
O O3 0.927770 0.965371 0.711889
O O4 0.000000 0.000000 0.500000
O O5 0.342605 0.250000 0.365340
O O6 0.432573 0.534626 0.207086
O O7 0.403239 0.520855 0.369788
O O8 0.141145 0.514421 0.576566
O O9 0.050549 0.750000 0.241506
O O10 0.176264 0.479144 0.050711
O O11 0.240823 0.750000 0.911388
O O12 0.434713 0.022672 0.695855
O O13 0.110747 0.027954 0.999342
O O14 0.958072 0.750000 0.125779
O O15 0.779158 0.027956 0.330929
O O16 0.000000 0.000000 0.000000
O O17 0.532729 0.750000 0.890522
O O18 0.500000 0.500000 0.000000
O O19 0.393038 0.250000 0.454752
#
# Coordination Sequence:
#
# PCOD9161589 Si02
#       7
#     4   4   4   4   4   4   4
#     4   9  18  30  45  67  96 128 161 201 247 292
#     4   8  13  25  44  65  91 121 156 203 247 279
#     4   8  13  25  44  65  91 121 156 203 247 279
#     4   9  16  27  47  74  98 123 160 201 241 283
#     4  10  20  34  52  74 102 130 156 196 242 288
#     4   9  18  30  45  67  96 128 161 201 247 292
#     4   9  16  27  47  74  98 123 160 201 241 283
#
# _framework density 21.967227000000001
#
# number of rings (size 3 to 8) (size 9 to 14) (size 15 to 20)
#    0.000    3.143    1.429    1.714    0.000    2.286 
#    0.000    2.857    0.000    1.714    0.000    0.000 
#    0.000    0.000    0.000    0.000    0.000    0.000 
#
# Total GULP energy -156028.530653 kJ/mol
# GULP energy per Si atom -5572.447523 kJ/mol
# Density = 2.191723 g / cm^3
# Si number density = 21.967227 Si / 1000 Ang^3
#
#
#
# Elastic Constant Matrix: (Units=GPa)
#
#
# Indices 1 2 3 4 5 6 
#
# 1 161.4695 7.8134 97.9218 0.0000 17.0483 0.0000
# 2 7.8134 40.5278 8.7908 0.0000 -1.0721 0.0000
# 3 97.9218 8.7908 137.1357 0.0000 9.6338 0.0000
# 4 0.0000 0.0000 0.0000 4.2386 0.0000 8.4746
# 5 17.0483 -1.0721 9.6338 0.0000 32.1251 0.0000
# 6 0.0000 0.0000 0.0000 8.4746 0.0000 11.9709
#
#
#
# Elastic Compliance Matrix: (Units=1/GPa)
#
#
# Indices 1 2 3 4 5 6 
#
# 1 0.011344 -0.000593 -0.007802 0.000000 -0.003700 0.000000
# 2 -0.000593 0.025110 -0.001295 0.000000 0.001541 0.000000
# 3 -0.007802 -0.001295 0.012931 0.000000 0.000220 0.000000
# 4 0.000000 0.000000 0.000000 -0.567903 0.000000 0.402036
# 5 -0.003700 0.001541 0.000220 0.000000 0.033077 0.000000
# 6 0.000000 0.000000 0.000000 0.402036 0.000000 -0.201078
#
#
# Mechanical properties :
#
#
# Convention : Reuss Voigt Hill
#
# Bulk Modulus (GPa) = 33.32674 63.13168 48.22921
# Shear Modulus (GPa) = -7.60876 24.64071 8.51597
#
# Velocity S-wave (km/s) = -1.86312 3.35282 1.97106
# Velocity P-wave (km/s) = 3.25204 6.61740 5.21372
#
# Compressibility (1/GPa) = 0.03000594
#
# Stress axis : x y z
#
# Youngs Moduli (GPa) = 88.15124 39.82436 77.33416
#
# Poissons Ratio (x) = 0.02360 0.60339
# Poissons Ratio (y) = 0.05223 0.10013
# Poissons Ratio (z) = 0.68779 0.05156
#
# Static dielectric constant tensor:
#      x y z
#    x 1.818560 0.000000 0.018550 
#    y 0.000000 1.867400 0.000000 
#    z 0.018550 0.000000 1.801640 
# 
# From -- ./inp_files/24271.got.cif
#   From: 2010.05.17/outbox.cif.g08.bks.cpg/sg11_13_cif.got.tgz:24271.got - 2010.06.03 12:22:45.
