data_PCOD9161737
_publ_section_title
;
Structure prediction by ZEFSAII (Michael W. Deem and Ramdas Pophale) SiO2 
 PCOD9161737
Probable space group: P 21/M
;
_chemical_formula_sum "Si O2"
_cell_formula_units_Z 32
_cell_length_a 15.140915
_cell_length_b 23.212672
_cell_length_c 15.007455
_cell_angle_alpha 90.000000
_cell_angle_beta 19.795081
_cell_angle_gamma 90.000000
_cell_volume 1786.259472
_symmetry_space_group_name_H-M "P 21/M"
_symmetry_group_IT_number 11
_symmetry_cell_setting 'monoclinic'
loop_
_space_group_symop_operation_xyz
x,y,z
-x,1/2+y,-z
-x,-y,-z
x,1/2-y,z
loop_
_atom_site_type_symbol
_atom_site_label
_atom_site_fract_x
_atom_site_fract_y
_atom_site_fract_z
Si Si1 0.224486 0.076951 0.247129
Si Si2 0.828572 0.818383 0.836716
Si Si3 0.099445 0.562468 0.928822
Si Si4 0.426299 0.127194 0.596058
Si Si5 0.400457 0.182895 0.431451
Si Si6 0.372563 0.682455 0.413664
Si Si7 0.874732 0.112969 0.904780
Si Si8 0.226172 0.949989 0.184219
O O1 0.202909 0.136374 0.213552
O O2 0.990371 0.070508 0.539536
O O3 0.215458 0.019815 0.193044
O O4 0.494909 0.070388 0.043455
O O5 0.846733 0.750000 0.793622
O O6 0.090081 0.833832 0.643418
O O7 0.583231 0.824799 0.135317
O O8 0.376761 0.576807 0.621685
O O9 0.121986 0.570773 0.013313
O O10 0.000000 0.500000 0.000000
O O11 0.872795 0.606782 0.112915
O O12 0.441929 0.171500 0.498046
O O13 0.532871 0.150547 0.587794
O O14 0.361970 0.250000 0.451849
O O15 0.148771 0.146142 0.642492
O O16 0.647797 0.158458 0.143365
O O17 0.359476 0.750000 0.448596
O O18 0.824581 0.078276 0.862709
#
# Coordination Sequence:
#
# PCOD9161737 Si02
#       8
#     4   4   4   4   4   4   4   4
#     4  10  21  39  60  81 106 142 179 224 276 324
#     4  10  21  37  56  82 114 141 174 225 280 327
#     4  10  21  36  52  78 114 144 176 219 269 317
#     4  10  20  34  54  77 106 147 184 217 258 313
#     4  10  20  36  55  77 110 146 182 222 269 316
#     4  10  20  34  54  81 110 140 179 219 258 319
#     4  10  21  36  56  81 109 142 179 228 270 315
#     4  10  21  38  59  81 107 138 185 226 263 325
#
# _framework density 17.914529999999999
#
# number of rings (size 3 to 8) (size 9 to 14) (size 15 to 20)
#    0.000    2.000    0.000    3.375    0.000    2.000 
#    0.000    7.500    0.000    0.000    0.000    0.000 
#    0.000    0.000    0.000    0.000    0.000    0.000 
#
# Total GULP energy -178639.414878 kJ/mol
# GULP energy per Si atom -5582.481715 kJ/mol
# Density = 1.787376 g / cm^3
# Si number density = 17.914530 Si / 1000 Ang^3
#
#
#
# Elastic Constant Matrix: (Units=GPa)
#
#
# Indices 1 2 3 4 5 6 
#
# 1 108.1184 77.5724 47.2692 0.0000 6.1108 0.0000
# 2 77.5724 87.3604 19.4509 0.0000 10.2991 0.0000
# 3 47.2692 19.4509 122.7136 0.0000 -4.1299 0.0000
# 4 0.0000 0.0000 0.0000 18.2003 0.0000 3.4635
# 5 6.1108 10.2991 -4.1299 0.0000 18.8548 0.0000
# 6 0.0000 0.0000 0.0000 3.4635 0.0000 18.5315
#
#
#
# Elastic Compliance Matrix: (Units=1/GPa)
#
#
# Indices 1 2 3 4 5 6 
#
# 1 0.031724 -0.026715 -0.007899 0.000000 0.002581 0.000000
# 2 -0.026715 0.035340 0.004363 0.000000 -0.009690 0.000000
# 3 -0.007899 0.004363 0.010584 0.000000 0.002495 0.000000
# 4 0.000000 0.000000 0.000000 0.056971 0.000000 -0.010648
# 5 0.002581 -0.009690 0.002495 0.000000 0.058040 0.000000
# 6 0.000000 0.000000 0.000000 -0.010648 0.000000 0.055952
#
#
# Mechanical properties :
#
#
# Convention : Reuss Voigt Hill
#
# Bulk Modulus (GPa) = 58.32266 67.41971 62.87118
# Shear Modulus (GPa) = 15.88170 22.71065 19.29618
#
# Velocity S-wave (km/s) = 2.98069 3.56437 3.28552
# Velocity P-wave (km/s) = 6.66879 7.39293 7.04018
#
# Compressibility (1/GPa) = 0.01714600
#
# Stress axis : x y z
#
# Youngs Moduli (GPa) = 31.52173 28.29671 94.48196
#
# Poissons Ratio (x) = 0.75596 0.74629
# Poissons Ratio (y) = 0.84211 -0.41223
# Poissons Ratio (z) = 0.24898 -0.12346
#
# Static dielectric constant tensor:
#      x y z
#    x 1.581810 0.000000 -0.014490 
#    y 0.000000 1.602290 0.000000 
#    z -0.014490 0.000000 1.617450 
# 
# From -- ./inp_files/52706.got.cif
#   From: 2010.05.17/outbox.cif.g08.bks.cpg/sg11_27_cif.got.tgz:52706.got - 2010.06.03 12:22:45.
