data_PCOD9161860
_publ_section_title
;
Structure prediction by ZEFSAII (Michael W. Deem and Ramdas Pophale) SiO2 
 PCOD9161860
Probable space group: P 21/M
;
_chemical_formula_sum "Si O2"
_cell_formula_units_Z 28
_cell_length_a 21.442186
_cell_length_b 9.306869
_cell_length_c 15.983209
_cell_angle_alpha 90.000000
_cell_angle_beta 151.353916
_cell_angle_gamma 90.000000
_cell_volume 1529.088942
_symmetry_space_group_name_H-M "P 21/M"
_symmetry_group_IT_number 11
_symmetry_cell_setting 'monoclinic'
loop_
_space_group_symop_operation_xyz
x,y,z
-x,1/2+y,-z
-x,-y,-z
x,1/2-y,z
loop_
_atom_site_type_symbol
_atom_site_label
_atom_site_fract_x
_atom_site_fract_y
_atom_site_fract_z
Si Si1 0.844320 0.076948 0.065339
Si Si2 0.008631 0.080411 0.421202
Si Si3 0.604274 0.080978 0.565920
Si Si4 0.550955 0.083171 0.931596
Si Si5 0.413737 0.081319 0.197592
Si Si6 0.307825 0.415168 0.759091
Si Si7 0.902210 0.422906 0.948150
O O1 0.828641 0.250000 0.049086
O O2 0.914060 0.032642 0.234405
O O3 0.920308 0.043489 0.068501
O O4 0.704559 0.001535 0.897297
O O5 0.983911 0.250000 0.406692
O O6 0.156586 0.065045 0.563154
O O7 0.000000 0.000000 0.500000
O O8 0.600278 0.250000 0.582972
O O9 0.547296 0.063593 0.405852
O O10 0.753060 0.034434 0.751300
O O11 0.500000 0.000000 0.500000
O O12 0.577216 0.250000 0.944275
O O13 0.404709 0.068898 0.795190
O O14 0.571990 0.986983 0.876123
O O15 0.644699 0.025580 0.114907
O O16 0.383362 0.250000 0.158099
O O17 0.325603 0.250000 0.810751
O O18 0.913300 0.250000 0.951529
O O19 0.000000 0.500000 0.000000
#
# Coordination Sequence:
#
# PCOD9161860 Si02
#       7
#     4   4   4   4   4   4   4
#     4  10  21  38  59  82 112 150 193 238 282 342
#     4  10  21  36  55  80 110 146 187 230 279 336
#     4  10  21  38  60  85 113 148 190 236 285 341
#     4  10  20  34  55  81 108 144 187 230 281 338
#     4  11  22  35  56  85 114 144 185 234 284 337
#     4   9  19  36  54  75 109 146 185 232 280 332
#     4  10  22  40  61  87 120 155 194 241 293 350
#
# _framework density 18.311557000000001
#
# number of rings (size 3 to 8) (size 9 to 14) (size 15 to 20)
#    0.000    2.000    1.429    1.714    0.000    6.857 
#    0.000    1.429    0.000    0.000    0.000    0.000 
#    0.000    0.000    0.000    0.000    0.000    0.000 
#
# Total GULP energy -156234.076673 kJ/mol
# GULP energy per Si atom -5579.788453 kJ/mol
# Density = 1.826988 g / cm^3
# Si number density = 18.311557 Si / 1000 Ang^3
#
#
#
# Elastic Constant Matrix: (Units=GPa)
#
#
# Indices 1 2 3 4 5 6 
#
# 1 97.2477 37.9124 51.9790 0.0000 -10.0712 0.0000
# 2 37.9124 30.2905 31.7577 0.0000 -3.6971 0.0000
# 3 51.9790 31.7577 91.1362 0.0000 6.6208 0.0000
# 4 0.0000 0.0000 0.0000 23.3857 0.0000 2.0883
# 5 -10.0712 -3.6971 6.6208 0.0000 24.1946 0.0000
# 6 0.0000 0.0000 0.0000 2.0883 0.0000 31.5559
#
#
#
# Elastic Compliance Matrix: (Units=1/GPa)
#
#
# Indices 1 2 3 4 5 6 
#
# 1 0.022462 -0.020672 -0.006180 0.000000 0.007882 0.000000
# 2 -0.020672 0.075510 -0.015034 0.000000 0.007047 0.000000
# 3 -0.006180 -0.015034 0.020497 0.000000 -0.010479 0.000000
# 4 0.000000 0.000000 0.000000 0.043015 0.000000 -0.002847
# 5 0.007882 0.007047 -0.010479 0.000000 0.048557 0.000000
# 6 0.000000 0.000000 0.000000 -0.002847 0.000000 0.031878
#
#
# Mechanical properties :
#
#
# Convention : Reuss Voigt Hill
#
# Bulk Modulus (GPa) = 28.82147 51.33030 40.07588
# Shear Modulus (GPa) = 14.82543 22.29558 18.56050
#
# Velocity S-wave (km/s) = 2.84847 3.49315 3.18715
# Velocity P-wave (km/s) = 5.15675 6.66048 5.95626
#
# Compressibility (1/GPa) = 0.03469636
#
# Stress axis : x y z
#
# Youngs Moduli (GPa) = 44.52026 13.24325 48.78654
#
# Poissons Ratio (x) = 0.27377 0.30150
# Poissons Ratio (y) = 0.92033 0.73347
# Poissons Ratio (z) = 0.27513 0.19910
#
# Static dielectric constant tensor:
#      x y z
#    x 1.624840 0.000000 -0.008090 
#    y 0.000000 1.615930 0.000000 
#    z -0.008090 0.000000 1.640170 
# 
# From -- ./inp_files/54469.got.cif
#   From: 2010.05.17/outbox.cif.g08.bks.cpg/sg11_28_cif.got.tgz:54469.got - 2010.06.03 12:22:45.
