data_PCOD9161507
_publ_section_title
;
Structure prediction by ZEFSAII (Michael W. Deem and Ramdas Pophale) SiO2 
 PCOD9161507
Probable space group: P 21/M
;
_chemical_formula_sum "Si O2"
_cell_formula_units_Z 32
_cell_length_a 21.466302
_cell_length_b 8.917884
_cell_length_c 32.269418
_cell_angle_alpha 90.000000
_cell_angle_beta 159.779300
_cell_angle_gamma 90.000000
_cell_volume 2135.161416
_symmetry_space_group_name_H-M "P 21/M"
_symmetry_group_IT_number 11
_symmetry_cell_setting 'monoclinic'
loop_
_space_group_symop_operation_xyz
x,y,z
-x,1/2+y,-z
-x,-y,-z
x,1/2-y,z
loop_
_atom_site_type_symbol
_atom_site_label
_atom_site_fract_x
_atom_site_fract_y
_atom_site_fract_z
Si Si1 0.284155 0.423437 0.682214
Si Si2 0.970136 0.076313 0.415964
Si Si3 0.301239 0.569499 0.381668
Si Si4 0.358833 0.928835 0.508759
Si Si5 0.779239 0.930209 0.751899
Si Si6 0.947685 0.930039 0.011591
Si Si7 0.252479 0.430823 0.528398
Si Si8 0.559674 0.432383 0.787216
O O1 0.314225 0.250000 0.710623
O O2 0.204223 0.501182 0.672807
O O3 0.460152 0.480013 0.767753
O O4 0.126663 0.430517 0.548911
O O5 0.928897 0.250000 0.382994
O O6 0.070734 0.013805 0.438114
O O7 0.500000 0.500000 0.500000
O O8 0.307398 0.750000 0.381000
O O9 0.257424 0.534730 0.402263
O O10 0.189999 0.495696 0.275033
O O11 0.348701 0.750000 0.508196
O O12 0.571558 0.965028 0.635167
O O13 0.282253 0.008659 0.501234
O O14 0.799051 0.750000 0.764284
O O15 0.912545 0.006962 0.867404
O O16 0.953879 0.750000 0.013651
O O17 0.748849 0.988319 0.898887
O O18 0.000000 0.000000 0.000000
O O19 0.244341 0.250000 0.522881
O O20 0.423246 0.469836 0.664303
O O21 0.579110 0.250000 0.799891
#
# Coordination Sequence:
#
# PCOD9161507 Si02
#       8
#     4   4   4   4   4   4   4   4
#     4   8  14  25  41  58  78 108 143 177 214 253
#     4   8  14  24  37  57  83 109 139 174 211 253
#     4   9  17  30  46  65  87 112 143 180 222 264
#     4   9  18  29  43  64  88 112 141 177 215 258
#     4  10  20  34  49  65  85 112 148 187 224 261
#     4  12  24  35  47  64  87 117 151 185 221 257
#     4   9  17  27  41  61  87 118 147 176 214 257
#     4   9  18  32  45  60  85 116 151 187 218 252
#
# _framework density 14.987156000000001
#
# number of rings (size 3 to 8) (size 9 to 14) (size 15 to 20)
#    0.000    2.750    0.000    4.875    0.000    6.500 
#    0.000    2.500    0.000    0.000    0.000    0.000 
#    0.000    1.000    0.000    3.250    0.000    4.750 
#
# Total GULP energy -178165.308817 kJ/mol
# GULP energy per Si atom -5567.665901 kJ/mol
# Density = 1.495304 g / cm^3
# Si number density = 14.987156 Si / 1000 Ang^3
#
#
#
# Elastic Constant Matrix: (Units=GPa)
#
#
# Indices 1 2 3 4 5 6 
#
# 1 155.1055 59.6548 62.1008 0.0000 0.5409 0.0000
# 2 59.6548 57.1000 34.8889 0.0000 0.1309 0.0000
# 3 62.1008 34.8889 62.0176 0.0000 -5.2532 0.0000
# 4 0.0000 0.0000 0.0000 19.3376 0.0000 -0.3779
# 5 0.5409 0.1309 -5.2532 0.0000 25.0711 0.0000
# 6 0.0000 0.0000 0.0000 -0.3779 0.0000 30.2285
#
#
#
# Elastic Compliance Matrix: (Units=1/GPa)
#
#
# Indices 1 2 3 4 5 6 
#
# 1 0.013152 -0.008509 -0.008555 0.000000 -0.002032 0.000000
# 2 -0.008509 0.032469 -0.009921 0.000000 -0.002065 0.000000
# 3 -0.008555 -0.009921 0.030840 0.000000 0.006698 0.000000
# 4 0.000000 0.000000 0.000000 0.051725 0.000000 0.000647
# 5 -0.002032 -0.002065 0.006698 0.000000 0.041345 0.000000
# 6 0.000000 0.000000 0.000000 0.000647 0.000000 0.033089
#
#
# Mechanical properties :
#
#
# Convention : Reuss Voigt Hill
#
# Bulk Modulus (GPa) = 44.46130 65.27912 54.87021
# Shear Modulus (GPa) = 18.93323 22.76603 20.84963
#
# Velocity S-wave (km/s) = 3.55814 3.90171 3.73388
# Velocity P-wave (km/s) = 6.82724 7.99681 7.43506
#
# Compressibility (1/GPa) = 0.02249147
#
# Stress axis : x y z
#
# Youngs Moduli (GPa) = 76.03353 30.79882 32.42584
#
# Poissons Ratio (x) = 0.26205 0.27741
# Poissons Ratio (y) = 0.64693 0.32169
# Poissons Ratio (z) = 0.65049 0.30555
#
# Static dielectric constant tensor:
#      x y z
#    x 1.522160 0.000000 0.000830 
#    y 0.000000 1.502120 0.000000 
#    z 0.000830 0.000000 1.492160 
# 
# From -- ./inp_files/65242.got.cif
#   From: 2010.05.17/outbox.cif.g08.bks.cpg/sg11_33_cif.got.tgz:65242.got - 2010.06.03 12:22:45.
