data_PCOD9161339
_publ_section_title
;
Structure prediction by ZEFSAII (Michael W. Deem and Ramdas Pophale) SiO2 
 PCOD9161339
Probable space group: P 21/M
;
_chemical_formula_sum "Si O2"
_cell_formula_units_Z 24
_cell_length_a 18.416907
_cell_length_b 13.733560
_cell_length_c 9.565318
_cell_angle_alpha 90.000000
_cell_angle_beta 158.281467
_cell_angle_gamma 90.000000
_cell_volume 895.274984
_symmetry_space_group_name_H-M "P 21/M"
_symmetry_group_IT_number 11
_symmetry_cell_setting 'monoclinic'
loop_
_space_group_symop_operation_xyz
x,y,z
-x,1/2+y,-z
-x,-y,-z
x,1/2-y,z
loop_
_atom_site_type_symbol
_atom_site_label
_atom_site_fract_x
_atom_site_fract_y
_atom_site_fract_z
Si Si1 0.920536 0.637105 0.665224
Si Si2 0.623718 0.364018 0.492547
Si Si3 0.740678 0.862865 0.621484
Si Si4 0.316590 0.862819 0.708990
Si Si5 0.485737 0.368862 0.535367
Si Si6 0.834153 0.475275 0.316600
O O1 0.860422 0.750000 0.554343
O O2 0.800592 0.577640 0.336819
O O3 0.151659 0.631941 0.051119
O O4 0.882562 0.599913 0.754739
O O5 0.572302 0.250000 0.382185
O O6 0.492448 0.399899 0.386572
O O7 0.637800 0.407971 0.362218
O O8 0.794849 0.750000 0.739636
O O9 0.524773 0.865044 0.162117
O O10 0.698272 0.903822 0.699955
O O11 0.262033 0.750000 0.589287
O O12 0.153141 0.910079 0.516991
O O13 0.492861 0.250000 0.553081
O O14 0.676591 0.412507 0.949746
O O15 0.000000 0.500000 0.500000
#
# Coordination Sequence:
#
# PCOD9161339 Si02
#       6
#     4   4   4   4   4   4
#     4  10  20  33  52  78 104 132 171 213 255 300
#     4   9  17  32  54  76 103 134 166 209 254 300
#     4   8  16  32  54  74  99 133 169 208 252 301
#     4   9  19  34  54  78 103 133 172 209 251 306
#     4   9  17  32  53  75 100 133 173 207 247 310
#     4  11  20  31  52  78 101 137 173 213 252 295
#
# _framework density 26.807404999999999
#
# number of rings (size 3 to 8) (size 9 to 14) (size 15 to 20)
#    0.000    2.667    1.667    1.500    0.000    4.000 
#    0.000    0.000    3.667    2.000    0.000    0.000 
#    0.000    0.000    0.000    0.000    0.000    0.000 
#
# Total GULP energy -134210.988805 kJ/mol
# GULP energy per Si atom -5592.124534 kJ/mol
# Density = 2.674639 g / cm^3
# Si number density = 26.807405 Si / 1000 Ang^3
#
#
#
# Elastic Constant Matrix: (Units=GPa)
#
#
# Indices 1 2 3 4 5 6 
#
# 1 304.6521 57.9230 40.8053 0.0000 -10.2324 0.0000
# 2 57.9230 119.7984 11.2926 0.0000 -13.3341 0.0000
# 3 40.8053 11.2926 60.6609 0.0000 -3.8979 0.0000
# 4 0.0000 0.0000 0.0000 29.5405 0.0000 -4.2687
# 5 -10.2324 -13.3341 -3.8979 0.0000 41.4830 0.0000
# 6 0.0000 0.0000 0.0000 -4.2687 0.0000 47.6110
#
#
#
# Elastic Compliance Matrix: (Units=1/GPa)
#
#
# Indices 1 2 3 4 5 6 
#
# 1 0.003913 -0.001650 -0.002311 0.000000 0.000218 0.000000
# 2 -0.001650 0.009480 -0.000488 0.000000 0.002594 0.000000
# 3 -0.002311 -0.000488 0.018194 0.000000 0.000983 0.000000
# 4 0.000000 0.000000 0.000000 0.034296 0.000000 0.003075
# 5 0.000218 0.002594 0.000983 0.000000 0.025086 0.000000
# 6 0.000000 0.000000 0.000000 0.003075 0.000000 0.021279
#
#
# Mechanical properties :
#
#
# Convention : Reuss Voigt Hill
#
# Bulk Modulus (GPa) = 44.07568 78.35036 61.21302
# Shear Modulus (GPa) = 38.84726 48.73293 43.79009
#
# Velocity S-wave (km/s) = 3.81087 4.26830 4.04605
# Velocity P-wave (km/s) = 5.98673 7.31996 6.68665
#
# Compressibility (1/GPa) = 0.02268825
#
# Stress axis : x y z
#
# Youngs Moduli (GPa) = 255.56017 105.48689 54.96409
#
# Poissons Ratio (x) = 0.17404 0.12702
# Poissons Ratio (y) = 0.42164 0.02684
# Poissons Ratio (z) = 0.59061 0.05150
#
# Static dielectric constant tensor:
#      x y z
#    x 2.103200 0.000000 -0.016450 
#    y 0.000000 2.072820 0.000000 
#    z -0.016450 0.000000 2.098530 
# 
# From -- ./inp_files/18268.got.cif
#   From: 2010.05.17/outbox.cif.g08.bks.cpg/sg11_10_cif.got.tgz:18268.got - 2010.06.03 12:22:45.
