data_PCOD9161498
_publ_section_title
;
Structure prediction by ZEFSAII (Michael W. Deem and Ramdas Pophale) SiO2 
 PCOD9161498
Probable space group: P 21/M
;
_chemical_formula_sum "Si O2"
_cell_formula_units_Z 18
_cell_length_a 7.180979
_cell_length_b 15.320584
_cell_length_c 8.273505
_cell_angle_alpha 90.000000
_cell_angle_beta 120.647765
_cell_angle_gamma 90.000000
_cell_volume 783.081922
_symmetry_space_group_name_H-M "P 21/M"
_symmetry_group_IT_number 11
_symmetry_cell_setting 'monoclinic'
loop_
_space_group_symop_operation_xyz
x,y,z
-x,1/2+y,-z
-x,-y,-z
x,1/2-y,z
loop_
_atom_site_type_symbol
_atom_site_label
_atom_site_fract_x
_atom_site_fract_y
_atom_site_fract_z
Si Si1 0.125048 0.750000 0.404742
Si Si2 0.701669 0.928989 0.759416
Si Si3 0.386731 0.250000 0.361235
Si Si4 0.665044 0.060485 0.169207
Si Si5 0.995628 0.068394 0.788323
Si Si6 0.661592 0.250000 0.173248
O O1 0.375535 0.750000 0.454336
O O2 0.150119 0.750000 0.608880
O O3 0.015704 0.661581 0.298959
O O4 0.728606 0.842340 0.662848
O O5 0.453879 0.927123 0.712409
O O6 0.866797 0.920238 0.985026
O O7 0.765101 0.023439 0.720843
O O8 0.444543 0.250000 0.191004
O O9 0.676715 0.156718 0.095047
O O10 0.883149 0.006328 0.261570
O O11 0.500000 0.000000 0.000000
#
# Coordination Sequence:
#
# PCOD9161498 Si02
#       6
#     2   4   2   4   4   2
#     4  10  21  35  53  82 114 147 173 222 278 322
#     4   9  18  36  55  81 105 137 188 222 260 322
#     4   8  17  34  53  71 113 144 161 227 271 311
#     4   9  18  35  58  80 107 145 178 226 268 312
#     4  10  20  33  59  81 103 146 184 221 267 320
#     4   8  18  35  50  79 115 135 176 223 261 327
#
# _framework density 22.9861
#
# number of rings (size 3 to 8) (size 9 to 14) (size 15 to 20)
#    0.667    2.222    0.000    0.667    0.000    5.333 
#    0.000    7.778    4.889    0.000    0.000    0.000 
#    0.000    0.000    0.000    0.000    0.000    0.000 
#
# Total GULP energy -100334.616504 kJ/mol
# GULP energy per Si atom -5574.145361 kJ/mol
# Density = 2.293378 g / cm^3
# Si number density = 22.986100 Si / 1000 Ang^3
#
#
#
# Elastic Constant Matrix: (Units=GPa)
#
#
# Indices 1 2 3 4 5 6 
#
# 1 37.0569 20.3314 -17.8961 0.0000 13.9236 0.0000
# 2 20.3314 229.5637 21.7450 0.0000 4.4065 0.0000
# 3 -17.8961 21.7450 41.2066 0.0000 -5.0202 0.0000
# 4 0.0000 0.0000 0.0000 24.8708 0.0000 15.0084
# 5 13.9236 4.4065 -5.0202 0.0000 10.5340 0.0000
# 6 0.0000 0.0000 0.0000 15.0084 0.0000 24.7936
#
#
#
# Elastic Compliance Matrix: (Units=1/GPa)
#
#
# Indices 1 2 3 4 5 6 
#
# 1 0.075575 -0.007599 0.026594 0.000000 -0.084040 0.000000
# 2 -0.007599 0.005457 -0.005557 0.000000 0.005113 0.000000
# 3 0.026594 -0.005557 0.036893 0.000000 -0.015244 0.000000
# 4 0.000000 0.000000 0.000000 0.063349 0.000000 -0.038347
# 5 -0.084040 0.005113 -0.015244 0.000000 0.196609 0.000000
# 6 0.000000 0.000000 0.000000 -0.038347 0.000000 0.063546
#
#
# Mechanical properties :
#
#
# Convention : Reuss Voigt Hill
#
# Bulk Modulus (GPa) = 6.90612 39.57644 23.24128
# Shear Modulus (GPa) = 10.80333 30.94945 20.87639
#
# Velocity S-wave (km/s) = 2.17029 3.67337 3.01693
# Velocity P-wave (km/s) = 3.04814 5.93687 4.71899
#
# Compressibility (1/GPa) = 0.14479912
#
# Stress axis : x y z
#
# Youngs Moduli (GPa) = 13.23197 183.23840 27.10542
#
# Poissons Ratio (x) = 1.39246 -0.72083
# Poissons Ratio (y) = 0.10055 0.15063
# Poissons Ratio (z) = -0.35189 1.01831
#
# Static dielectric constant tensor:
#      x y z
#    x 1.995440 0.000000 -0.036020 
#    y 0.000000 2.190310 0.000000 
#    z -0.036020 0.000000 1.864710 
# 
# From -- ./inp_files/11549.got.cif
#   From: 2010.05.17/outbox.cif.g08.bks.cpg/sg11_6_cif.got.tgz:11549.got - 2010.06.03 12:22:45.
