data_PCOD9161658
_publ_section_title
;
Structure prediction by ZEFSAII (Michael W. Deem and Ramdas Pophale) SiO2 
 PCOD9161658
Probable space group: P 21/M
;
_chemical_formula_sum "Si O2"
_cell_formula_units_Z 32
_cell_length_a 17.830209
_cell_length_b 7.538038
_cell_length_c 18.071191
_cell_angle_alpha 90.000000
_cell_angle_beta 147.195790
_cell_angle_gamma 90.000000
_cell_volume 1315.880536
_symmetry_space_group_name_H-M "P 21/M"
_symmetry_group_IT_number 11
_symmetry_cell_setting 'monoclinic'
loop_
_space_group_symop_operation_xyz
x,y,z
-x,1/2+y,-z
-x,-y,-z
x,1/2-y,z
loop_
_atom_site_type_symbol
_atom_site_label
_atom_site_fract_x
_atom_site_fract_y
_atom_site_fract_z
Si Si1 0.289083 0.458107 0.362631
Si Si2 0.009364 0.037795 0.594285
Si Si3 0.504992 0.540737 0.345324
Si Si4 0.489656 0.962165 0.904922
Si Si5 0.287766 0.964391 0.616258
Si Si6 0.987354 0.534634 0.150196
Si Si7 0.213024 0.033229 0.883759
Si Si8 0.788844 0.954671 0.861282
O O1 0.319936 0.250000 0.377878
O O2 0.390078 0.485959 0.635153
O O3 0.415769 0.531801 0.515806
O O4 0.253344 0.537015 0.252536
O O5 0.010996 0.250000 0.603391
O O6 0.144383 0.973913 0.749517
O O7 0.869467 0.971050 0.517751
O O8 0.000000 0.000000 0.500000
O O9 0.483117 0.750000 0.335972
O O10 0.353587 0.458560 0.209998
O O11 0.487646 0.750000 0.895920
O O12 0.356326 0.027710 0.750073
O O13 0.629686 0.028976 0.981992
O O14 0.500000 0.000000 0.000000
O O15 0.281500 0.750000 0.611134
O O16 0.145076 0.025204 0.287518
O O17 0.988352 0.750000 0.150552
O O18 0.888190 0.477421 0.134540
O O19 0.914594 0.470614 0.013777
O O20 0.216847 0.250000 0.888698
O O21 0.825626 0.750000 0.877352
#
# Coordination Sequence:
#
# PCOD9161658 Si02
#       8
#     4   4   4   4   4   4   4   4
#     4  10  22  38  55  82 117 147 180 228 282 331
#     4  10  20  34  53  76 103 136 173 215 263 317
#     4  11  23  37  56  83 113 147 188 232 278 328
#     4  10  20  35  55  78 106 139 176 220 268 321
#     4  10  21  37  56  78 107 144 183 224 274 330
#     4  10  20  36  60  84 106 143 189 226 271 332
#     4   9  18  33  52  75 103 134 170 213 261 314
#     4  10  21  38  59  82 112 148 184 226 278 337
#
# _framework density 24.318315999999999
#
# number of rings (size 3 to 8) (size 9 to 14) (size 15 to 20)
#    0.000    2.000    0.000    3.375    0.000    6.000 
#    0.000    1.250    0.000    0.000    0.000    0.000 
#    0.000    0.000    0.000    0.000    0.000    0.000 
#
# Total GULP energy -178986.767227 kJ/mol
# GULP energy per Si atom -5593.336476 kJ/mol
# Density = 2.426297 g / cm^3
# Si number density = 24.318316 Si / 1000 Ang^3
#
#
#
# Elastic Constant Matrix: (Units=GPa)
#
#
# Indices 1 2 3 4 5 6 
#
# 1 61.5639 -8.6598 -22.2222 0.0000 3.6107 0.0000
# 2 -8.6598 66.2485 6.0476 0.0000 0.4832 0.0000
# 3 -22.2222 6.0476 86.4983 0.0000 5.8398 0.0000
# 4 0.0000 0.0000 0.0000 3.8464 0.0000 -3.0739
# 5 3.6107 0.4832 5.8398 0.0000 44.7905 0.0000
# 6 0.0000 0.0000 0.0000 -3.0739 0.0000 17.5146
#
#
#
# Elastic Compliance Matrix: (Units=1/GPa)
#
#
# Indices 1 2 3 4 5 6 
#
# 1 0.018349 0.001983 0.004718 0.000000 -0.002116 0.000000
# 2 0.001983 0.015406 -0.000550 0.000000 -0.000254 0.000000
# 3 0.004718 -0.000550 0.012951 0.000000 -0.002063 0.000000
# 4 0.000000 0.000000 0.000000 0.302398 0.000000 0.053073
# 5 -0.002116 -0.000254 -0.002063 0.000000 0.022768 0.000000
# 6 0.000000 0.000000 0.000000 0.053073 0.000000 0.066410
#
#
# Mechanical properties :
#
#
# Convention : Reuss Voigt Hill
#
# Bulk Modulus (GPa) = 16.94663 18.29355 17.62009
# Shear Modulus (GPa) = 11.21956 29.17330 20.19643
#
# Velocity S-wave (km/s) = 2.15027 3.46734 2.88497
# Velocity P-wave (km/s) = 3.62611 4.85477 4.28471
#
# Compressibility (1/GPa) = 0.05900878
#
# Stress axis : x y z
#
# Youngs Moduli (GPa) = 54.49742 64.90966 77.21497
#
# Poissons Ratio (x) = -0.12873 -0.36433
# Poissons Ratio (y) = -0.10808 0.04250
# Poissons Ratio (z) = -0.25714 0.03573
#
# Static dielectric constant tensor:
#      x y z
#    x 1.930000 0.000000 -0.025260 
#    y 0.000000 1.929560 0.000000 
#    z -0.025260 0.000000 1.947810 
# 
# From -- ./inp_files/61443.got.cif
#   From: 2010.05.17/outbox.cif.g08.bks.cpg/sg11_31_cif.got.tgz:61443.got - 2010.06.03 12:22:45.
