data_PCOD9161735
_publ_section_title
;
Structure prediction by ZEFSAII (Michael W. Deem and Ramdas Pophale) SiO2 
 PCOD9161735
Probable space group: P 21/M
;
_chemical_formula_sum "Si O2"
_cell_formula_units_Z 30
_cell_length_a 11.413148
_cell_length_b 9.445440
_cell_length_c 12.413049
_cell_angle_alpha 90.000000
_cell_angle_beta 69.905113
_cell_angle_gamma 90.000000
_cell_volume 1256.693809
_symmetry_space_group_name_H-M "P 21/M"
_symmetry_group_IT_number 11
_symmetry_cell_setting 'monoclinic'
loop_
_space_group_symop_operation_xyz
x,y,z
-x,1/2+y,-z
-x,-y,-z
x,1/2-y,z
loop_
_atom_site_type_symbol
_atom_site_label
_atom_site_fract_x
_atom_site_fract_y
_atom_site_fract_z
Si Si1 0.356894 0.587542 0.120582
Si Si2 0.272602 0.417646 0.711480
Si Si3 0.319721 0.090507 0.458966
Si Si4 0.031616 0.588599 0.710826
Si Si5 0.967675 0.750000 0.050476
Si Si6 0.144444 0.589009 0.375727
Si Si7 0.536017 0.414081 0.211165
Si Si8 0.850919 0.514815 0.959387
O O1 0.398087 0.750000 0.091864
O O2 0.247511 0.591792 0.246723
O O3 0.463820 0.488422 0.135564
O O4 0.285293 0.524092 0.040578
O O5 0.252203 0.250000 0.732690
O O6 0.350590 0.429462 0.574176
O O7 0.143829 0.494789 0.721404
O O8 0.348201 0.498280 0.779381
O O9 0.265541 0.250000 0.464763
O O10 0.435344 0.083484 0.341353
O O11 0.219025 0.976109 0.452032
O O12 0.069834 0.750000 0.677979
O O13 0.964879 0.512000 0.632143
O O14 0.927367 0.589164 0.837719
O O15 0.867467 0.624880 0.049534
O O16 0.074241 0.627614 0.039204
O O17 0.101718 0.750000 0.405200
O O18 0.567073 0.250000 0.180199
#
# Coordination Sequence:
#
# PCOD9161735 Si02
#       8
#     4   4   4   4   2   4   4   4
#     4   9  17  31  52  78 111 140 173 215 259 308
#     4  11  23  36  52  74 103 145 188 225 272 315
#     4   9  19  35  53  75 104 137 182 236 275 311
#     4  11  22  36  53  75 111 146 178 216 261 323
#     4  10  20  34  58  90 118 136 168 202 264 322
#     4   9  18  31  52  77 102 141 179 219 272 315
#     4  10  20  34  54  77 103 139 186 233 269 304
#     4  10  20  35  57  89 117 141 166 209 260 320
#
# _framework density 23.872164000000001
#
# number of rings (size 3 to 8) (size 9 to 14) (size 15 to 20)
#    0.000    2.133    1.333    2.000    2.800    3.733 
#    0.000    0.000    0.000    0.000    0.000    5.600 
#    0.000    0.000    0.000    0.000    0.000    0.000 
#
# Total GULP energy -167517.320048 kJ/mol
# GULP energy per Si atom -5583.910668 kJ/mol
# Density = 2.381783 g / cm^3
# Si number density = 23.872164 Si / 1000 Ang^3
#
#
#
# Elastic Constant Matrix: (Units=GPa)
#
#
# Indices 1 2 3 4 5 6 
#
# 1 153.2333 111.8965 43.4947 0.0000 42.7610 0.0000
# 2 111.8965 244.3041 50.4119 0.0000 49.1188 0.0000
# 3 43.4947 50.4119 100.7075 0.0000 20.8625 0.0000
# 4 0.0000 0.0000 0.0000 18.9921 0.0000 -4.9601
# 5 42.7610 49.1188 20.8625 0.0000 53.1248 0.0000
# 6 0.0000 0.0000 0.0000 -4.9601 0.0000 32.3614
#
#
#
# Elastic Compliance Matrix: (Units=1/GPa)
#
#
# Indices 1 2 3 4 5 6 
#
# 1 0.011137 -0.003746 -0.001954 0.000000 -0.004733 0.000000
# 2 -0.003746 0.006567 -0.001128 0.000000 -0.002614 0.000000
# 3 -0.001954 -0.001128 0.011753 0.000000 -0.001999 0.000000
# 4 0.000000 0.000000 0.000000 0.054849 0.000000 0.008407
# 5 -0.004733 -0.002614 -0.001999 0.000000 0.025835 0.000000
# 6 0.000000 0.000000 0.000000 0.008407 0.000000 0.032190
#
#
# Mechanical properties :
#
#
# Convention : Reuss Voigt Hill
#
# Bulk Modulus (GPa) = 63.29008 101.09457 82.19233
# Shear Modulus (GPa) = 31.00681 40.39177 35.69929
#
# Velocity S-wave (km/s) = 3.60789 4.11786 3.87128
# Velocity P-wave (km/s) = 6.62763 8.06531 7.38156
#
# Compressibility (1/GPa) = 0.01580026
#
# Stress axis : x y z
#
# Youngs Moduli (GPa) = 89.78958 152.26812 85.08725
#
# Poissons Ratio (x) = 0.57041 0.16628
# Poissons Ratio (y) = 0.33636 0.09599
# Poissons Ratio (z) = 0.17547 0.17177
#
# Static dielectric constant tensor:
#      x y z
#    x 1.841750 0.000000 -0.078970 
#    y 0.000000 1.808750 0.000000 
#    z -0.078970 0.000000 2.067220 
# 
# From -- ./inp_files/48989.got.cif
#   From: 2010.05.17/outbox.cif.g08.bks.cpg/sg11_25_cif.got.tgz:48989.got - 2010.06.03 12:22:45.
