data_PCOD9161335
_publ_section_title
;
Structure prediction by ZEFSAII (Michael W. Deem and Ramdas Pophale) SiO2 
 PCOD9161335
Probable space group: P 21/M
;
_chemical_formula_sum "Si O2"
_cell_formula_units_Z 32
_cell_length_a 31.039855
_cell_length_b 8.212464
_cell_length_c 12.079655
_cell_angle_alpha 90.000000
_cell_angle_beta 29.888518
_cell_angle_gamma 90.000000
_cell_volume 1534.443092
_symmetry_space_group_name_H-M "P 21/M"
_symmetry_group_IT_number 11
_symmetry_cell_setting 'monoclinic'
loop_
_space_group_symop_operation_xyz
x,y,z
-x,1/2+y,-z
-x,-y,-z
x,1/2-y,z
loop_
_atom_site_type_symbol
_atom_site_label
_atom_site_fract_x
_atom_site_fract_y
_atom_site_fract_z
Si Si1 0.593238 0.431089 0.330267
Si Si2 0.148099 0.948588 0.404855
Si Si3 0.184461 0.447430 0.850729
Si Si4 0.227389 0.552557 0.994327
Si Si5 0.628824 0.557362 0.634359
Si Si6 0.982912 0.947048 0.911738
Si Si7 0.325242 0.933037 0.093121
Si Si8 0.462500 0.062972 0.941327
O O1 0.500000 0.500000 0.500000
O O2 0.575496 0.250000 0.415607
O O3 0.671643 0.509014 0.228502
O O4 0.645254 0.418769 0.099106
O O5 0.147886 0.750000 0.402307
O O6 0.227603 0.994940 0.308023
O O7 0.059279 0.002503 0.658333
O O8 0.174277 0.001700 0.222321
O O9 0.184616 0.250000 0.848864
O O10 0.179349 0.500394 0.989788
O O11 0.277917 0.510200 0.601642
O O12 0.107650 0.501893 0.940862
O O13 0.232735 0.750000 0.985553
O O14 0.639518 0.750000 0.625539
O O15 0.552084 0.527004 0.718336
O O16 0.586937 0.491928 0.841170
O O17 0.983203 0.750000 0.910930
O O18 0.000000 0.000000 0.000000
O O19 0.329039 0.750000 0.132917
O O20 0.393712 0.046054 0.998741
O O21 0.484079 0.250000 0.913724
#
# Coordination Sequence:
#
# PCOD9161335 Si02
#       8
#     4   4   4   4   4   4   4   4
#     4   9  19  33  50  75 108 144 181 225 272 320
#     4   8  17  37  60  81 111 149 185 226 277 333
#     4  10  22  38  57  83 116 149 182 231 290 336
#     4   9  19  37  58  81 111 147 191 232 272 331
#     4   9  20  37  51  70 108 149 180 221 279 332
#     4  10  22  40  62  88 115 147 186 229 283 341
#     4   9  18  33  53  76 105 145 181 217 274 332
#     4  10  20  33  52  77 104 141 188 231 268 319
#
# _framework density 20.854472000000001
#
# number of rings (size 3 to 8) (size 9 to 14) (size 15 to 20)
#    0.000    2.750    0.000    1.875    3.500    3.000 
#    0.000    2.500    0.000    0.000    0.000    0.000 
#    0.000    0.000    0.000    0.000    0.000    0.000 
#
# Total GULP energy -178267.891616 kJ/mol
# GULP energy per Si atom -5570.871613 kJ/mol
# Density = 2.080701 g / cm^3
# Si number density = 20.854472 Si / 1000 Ang^3
#
#
#
# Elastic Constant Matrix: (Units=GPa)
#
#
# Indices 1 2 3 4 5 6 
#
# 1 137.0042 11.7766 69.6092 0.0000 -20.5883 0.0000
# 2 11.7766 11.6560 12.0119 0.0000 -4.8570 0.0000
# 3 69.6092 12.0119 152.2485 0.0000 -21.2957 0.0000
# 4 0.0000 0.0000 0.0000 7.2777 0.0000 6.6224
# 5 -20.5883 -4.8570 -21.2957 0.0000 30.7990 0.0000
# 6 0.0000 0.0000 0.0000 6.6224 0.0000 24.1463
#
#
#
# Elastic Compliance Matrix: (Units=1/GPa)
#
#
# Indices 1 2 3 4 5 6 
#
# 1 0.010154 -0.004952 -0.003777 0.000000 0.003395 0.000000
# 2 -0.004952 0.099075 -0.004240 0.000000 0.009382 0.000000
# 3 -0.003777 -0.004240 0.009059 0.000000 0.003070 0.000000
# 4 0.000000 0.000000 0.000000 0.183101 0.000000 -0.050217
# 5 0.003395 0.009382 0.003070 0.000000 0.038341 0.000000
# 6 0.000000 0.000000 0.000000 -0.050217 0.000000 0.055187
#
#
# Mechanical properties :
#
#
# Convention : Reuss Voigt Hill
#
# Bulk Modulus (GPa) = 10.82838 54.18933 32.50886
# Shear Modulus (GPa) = 11.07079 26.27865 18.67472
#
# Velocity S-wave (km/s) = 2.30654 3.55364 2.99570
# Velocity P-wave (km/s) = 3.50673 6.54818 5.25242
#
# Compressibility (1/GPa) = 0.09234988
#
# Stress axis : x y z
#
# Youngs Moduli (GPa) = 98.48469 10.09334 110.38735
#
# Poissons Ratio (x) = 0.04998 0.41691
# Poissons Ratio (y) = 0.48770 0.46807
# Poissons Ratio (z) = 0.37196 0.04280
#
# Static dielectric constant tensor:
#      x y z
#    x 1.815350 0.000000 -0.007130 
#    y 0.000000 1.762720 0.000000 
#    z -0.007130 0.000000 1.768540 
# 
# From -- ./inp_files/45206.got.cif
#   From: 2010.05.17/outbox.cif.g08.bks.cpg/sg11_23_cif.got.tgz:45206.got - 2010.06.03 12:22:45.
