data_PCOD9161078
_publ_section_title
;
Structure prediction by ZEFSAII (Michael W. Deem and Ramdas Pophale) SiO2 
 PCOD9161078
Probable space group: P 21/M
;
_chemical_formula_sum "Si O2"
_cell_formula_units_Z 32
_cell_length_a 22.011501
_cell_length_b 7.672135
_cell_length_c 27.395602
_cell_angle_alpha 90.000000
_cell_angle_beta 159.918548
_cell_angle_gamma 90.000000
_cell_volume 1588.513705
_symmetry_space_group_name_H-M "P 21/M"
_symmetry_group_IT_number 11
_symmetry_cell_setting 'monoclinic'
loop_
_space_group_symop_operation_xyz
x,y,z
-x,1/2+y,-z
-x,-y,-z
x,1/2-y,z
loop_
_atom_site_type_symbol
_atom_site_label
_atom_site_fract_x
_atom_site_fract_y
_atom_site_fract_z
Si Si1 0.627126 0.545017 0.951826
Si Si2 0.628974 0.544992 0.431094
Si Si3 0.598984 0.957835 0.124371
Si Si4 0.557329 0.463627 0.614823
Si Si5 0.989658 0.959460 0.434993
Si Si6 0.355730 0.545217 0.668666
Si Si7 0.207659 0.548685 0.289781
Si Si8 0.022402 0.962252 0.243905
O O1 0.654656 0.750000 0.962808
O O2 0.507829 0.527857 0.909832
O O3 0.514389 0.470497 0.821415
O O4 0.825977 0.475957 0.109212
O O5 0.603493 0.750000 0.406050
O O6 0.482206 0.482664 0.359574
O O7 0.618572 0.467388 0.369596
O O8 0.820879 0.517211 0.601233
O O9 0.606169 0.750000 0.135976
O O10 0.799886 0.026186 0.273935
O O11 0.500000 0.000000 0.000000
O O12 0.549489 0.250000 0.606485
O O13 0.390057 0.536275 0.458401
O O14 0.733106 0.521993 0.718417
O O15 0.987587 0.750000 0.426758
O O16 0.164637 0.028911 0.540283
O O17 0.000000 0.000000 0.500000
O O18 0.348609 0.750000 0.676130
O O19 0.158419 0.750000 0.244936
O O20 0.068399 0.474347 0.223460
O O21 0.030371 0.750000 0.249912
#
# Coordination Sequence:
#
# PCOD9161078 Si02
#       8
#     4   4   4   4   4   4   4   4
#     4  10  21  38  57  76 102 136 171 210 256 303
#     4  10  20  32  49  77 106 135 170 210 254 300
#     4  11  24  39  57  82 107 134 168 208 254 303
#     4   8  14  25  42  67 100 130 162 204 249 294
#     4  10  21  38  59  79 100 130 170 211 251 297
#     4  10  21  37  55  74 100 136 171 208 251 298
#     4   8  13  24  44  69  96 129 164 203 249 296
#     4   9  18  32  52  77 103 132 170 211 255 305
#
# _framework density 20.144618000000001
#
# number of rings (size 3 to 8) (size 9 to 14) (size 15 to 20)
#    0.000    2.500    1.250    0.750    1.750    2.500 
#    0.000    0.000    0.000    0.750    0.000    0.000 
#    0.000    0.000    0.000    0.000    0.000    0.875 
#
# Total GULP energy -178325.712743 kJ/mol
# GULP energy per Si atom -5572.678523 kJ/mol
# Density = 2.009877 g / cm^3
# Si number density = 20.144618 Si / 1000 Ang^3
#
#
#
# Elastic Constant Matrix: (Units=GPa)
#
#
# Indices 1 2 3 4 5 6 
#
# 1 104.1016 -19.0805 19.8309 0.0000 -14.0653 0.0000
# 2 -19.0805 29.0279 -3.7963 0.0000 5.1380 0.0000
# 3 19.8309 -3.7963 54.2789 0.0000 -20.1737 0.0000
# 4 0.0000 0.0000 0.0000 5.1072 0.0000 8.0892
# 5 -14.0653 5.1380 -20.1737 0.0000 18.9634 0.0000
# 6 0.0000 0.0000 0.0000 8.0892 0.0000 5.5543
#
#
#
# Elastic Compliance Matrix: (Units=1/GPa)
#
#
# Indices 1 2 3 4 5 6 
#
# 1 0.011875 0.006688 -0.002102 0.000000 0.004760 0.000000
# 2 0.006688 0.040064 -0.003030 0.000000 -0.009118 0.000000
# 3 -0.002102 -0.003030 0.030937 0.000000 0.032174 0.000000
# 4 0.000000 0.000000 0.000000 -0.149836 0.000000 0.218221
# 5 0.004760 -0.009118 0.032174 0.000000 0.092962 0.000000
# 6 0.000000 0.000000 0.000000 0.218221 0.000000 -0.137775
#
#
# Mechanical properties :
#
#
# Convention : Reuss Voigt Hill
#
# Bulk Modulus (GPa) = 11.62938 20.14629 15.88783
# Shear Modulus (GPa) = -57.98931 18.62191 -19.68370
#
# Velocity S-wave (km/s) = -5.37113 3.04371 -3.12928
# Velocity P-wave (km/s) = 5.71663 4.73020 2.26992
#
# Compressibility (1/GPa) = 0.08598910
#
# Stress axis : x y z
#
# Youngs Moduli (GPa) = 84.20756 24.96025 32.32341
#
# Poissons Ratio (x) = -0.16695 0.06794
# Poissons Ratio (y) = -0.56322 0.09795
# Poissons Ratio (z) = 0.17698 0.07564
#
# Static dielectric constant tensor:
#      x y z
#    x 1.731480 0.000000 0.036320 
#    y 0.000000 1.709940 0.000000 
#    z 0.036320 0.000000 1.713580 
# 
# From -- ./inp_files/72122.got.cif
#   From: 2010.05.17/outbox.cif.g08.bks.cpg/sg11_37_cif.got.tgz:72122.got - 2010.06.03 12:22:45.
