data_PCOD9161593
_publ_section_title
;
Structure prediction by ZEFSAII (Michael W. Deem and Ramdas Pophale) SiO2 
 PCOD9161593
Probable space group: P 21/M
;
_chemical_formula_sum "Si O2"
_cell_formula_units_Z 28
_cell_length_a 18.799519
_cell_length_b 10.142422
_cell_length_c 9.161512
_cell_angle_alpha 90.000000
_cell_angle_beta 120.971865
_cell_angle_gamma 90.000000
_cell_volume 1497.784156
_symmetry_space_group_name_H-M "P 21/M"
_symmetry_group_IT_number 11
_symmetry_cell_setting 'monoclinic'
loop_
_space_group_symop_operation_xyz
x,y,z
-x,1/2+y,-z
-x,-y,-z
x,1/2-y,z
loop_
_atom_site_type_symbol
_atom_site_label
_atom_site_fract_x
_atom_site_fract_y
_atom_site_fract_z
Si Si1 0.740280 0.591519 0.332927
Si Si2 0.741421 0.909930 0.669358
Si Si3 0.077587 0.097701 0.102192
Si Si4 0.430486 0.407734 0.353224
Si Si5 0.891341 0.896549 0.299957
Si Si6 0.434900 0.095205 0.008827
Si Si7 0.995796 0.110419 0.301610
O O1 0.754104 0.750000 0.355956
O O2 0.736292 0.542530 0.495589
O O3 0.814283 0.542556 0.306424
O O4 0.653929 0.570496 0.159611
O O5 0.744568 0.750000 0.668868
O O6 0.829501 0.949363 0.833302
O O7 0.659272 0.943783 0.673202
O O8 0.063296 0.250000 0.036832
O O9 0.073447 0.103638 0.275328
O O10 0.000000 0.000000 0.000000
O O11 0.500000 0.500000 0.500000
O O12 0.444301 0.250000 0.396289
O O13 0.430805 0.426018 0.178731
O O14 0.869850 0.750000 0.222750
O O15 0.964073 0.883530 0.496723
O O16 0.931722 0.991073 0.223265
O O17 0.455534 0.250000 0.006657
O O18 0.500000 0.000000 0.000000
O O19 0.952848 0.250000 0.225117
#
# Coordination Sequence:
#
# PCOD9161593 Si02
#       7
#     4   4   4   4   4   4   4
#     4   9  16  30  54  79 103 137 181 224 263 313
#     4   9  17  33  56  78 105 145 185 221 270 328
#     4  10  20  34  52  74 104 142 182 222 265 316
#     4  10  21  37  59  86 113 143 181 224 273 332
#     4   9  16  28  50  74  95 127 170 210 249 300
#     4  10  21  36  56  84 112 137 174 222 271 325
#     4   9  17  30  46  69 102 132 162 207 258 302
#
# _framework density 18.694282000000001
#
# number of rings (size 3 to 8) (size 9 to 14) (size 15 to 20)
#    0.000    2.571    1.429    0.857    0.000    3.429 
#    0.000    4.286    0.000    1.714    0.000    0.000 
#    0.000    0.000    0.000    0.000    0.000    0.000 
#
# Total GULP energy -155886.330646 kJ/mol
# GULP energy per Si atom -5567.368952 kJ/mol
# Density = 1.865173 g / cm^3
# Si number density = 18.694282 Si / 1000 Ang^3
#
#
#
# Elastic Constant Matrix: (Units=GPa)
#
#
# Indices 1 2 3 4 5 6 
#
# 1 164.5967 62.2516 47.1927 0.0000 8.1368 0.0000
# 2 62.2516 59.5715 31.3977 0.0000 12.6463 0.0000
# 3 47.1927 31.3977 85.4076 0.0000 12.1636 0.0000
# 4 0.0000 0.0000 0.0000 20.2118 0.0000 0.1508
# 5 8.1368 12.6463 12.1636 0.0000 27.3965 0.0000
# 6 0.0000 0.0000 0.0000 0.1508 0.0000 28.1269
#
#
#
# Elastic Compliance Matrix: (Units=1/GPa)
#
#
# Indices 1 2 3 4 5 6 
#
# 1 0.010533 -0.010307 -0.002416 0.000000 0.002702 0.000000
# 2 -0.010307 0.032100 -0.004730 0.000000 -0.009656 0.000000
# 3 -0.002416 -0.004730 0.015339 0.000000 -0.003909 0.000000
# 4 0.000000 0.000000 0.000000 0.049478 0.000000 -0.000265
# 5 0.002702 -0.009656 -0.003909 0.000000 0.041892 0.000000
# 6 0.000000 0.000000 0.000000 -0.000265 0.000000 0.035555
#
#
# Mechanical properties :
#
#
# Convention : Reuss Voigt Hill
#
# Bulk Modulus (GPa) = 43.35363 65.69554 54.52459
# Shear Modulus (GPa) = 21.97892 26.39596 24.18744
#
# Velocity S-wave (km/s) = 3.43257 3.76171 3.60090
# Velocity P-wave (km/s) = 6.24109 7.35429 6.82044
#
# Compressibility (1/GPa) = 0.02306612
#
# Stress axis : x y z
#
# Youngs Moduli (GPa) = 94.94284 31.15244 65.19292
#
# Poissons Ratio (x) = 0.32109 0.15749
# Poissons Ratio (y) = 0.97857 0.30838
# Poissons Ratio (z) = 0.22935 0.14736
#
# Static dielectric constant tensor:
#      x y z
#    x 1.655480 0.000000 -0.034910 
#    y 0.000000 1.674780 0.000000 
#    z -0.034910 0.000000 1.703690 
# 
# From -- ./inp_files/21287.got.cif
#   From: 2010.05.17/outbox.cif.g08.bks.cpg/sg11_11_cif.got.tgz:21287.got - 2010.06.03 12:22:45.
