data_PCOD9161327
_publ_section_title
;
Structure prediction by ZEFSAII (Michael W. Deem and Ramdas Pophale) SiO2 
 PCOD9161327
Probable space group: P 21/M
;
_chemical_formula_sum "Si O2"
_cell_formula_units_Z 20
_cell_length_a 10.987278
_cell_length_b 14.209741
_cell_length_c 6.509123
_cell_angle_alpha 90.000000
_cell_angle_beta 62.683457
_cell_angle_gamma 90.000000
_cell_volume 902.918895
_symmetry_space_group_name_H-M "P 21/M"
_symmetry_group_IT_number 11
_symmetry_cell_setting 'monoclinic'
loop_
_space_group_symop_operation_xyz
x,y,z
-x,1/2+y,-z
-x,-y,-z
x,1/2-y,z
loop_
_atom_site_type_symbol
_atom_site_label
_atom_site_fract_x
_atom_site_fract_y
_atom_site_fract_z
Si Si1 0.045669 0.501104 0.207031
Si Si2 0.560405 0.858230 0.850291
Si Si3 0.253658 0.143232 0.933146
Si Si4 0.743636 0.507942 0.453848
Si Si5 0.738408 0.358352 0.105500
O O1 0.897365 0.501828 0.428717
O O2 0.136902 0.407913 0.157041
O O3 0.146096 0.590592 0.121824
O O4 0.000000 0.500000 0.000000
O O5 0.606101 0.750000 0.749472
O O6 0.634970 0.949303 0.695196
O O7 0.402969 0.863791 0.910416
O O8 0.603724 0.862124 0.054607
O O9 0.216223 0.250000 0.927998
O O10 0.260524 0.088393 0.717061
O O11 0.719244 0.413982 0.337231
O O12 0.773218 0.250000 0.116837
#
# Coordination Sequence:
#
# PCOD9161327 Si02
#       5
#     4   4   4   4   4
#     4   8  18  31  50  76  97 128 166 201 244 294
#     4  10  20  33  52  76 100 130 168 206 246 296
#     4   9  18  33  52  74 102 132 163 204 251 295
#     4  10  20  33  53  77 100 131 168 205 246 296
#     4   9  18  33  51  73 102 133 165 205 250 292
#
# _framework density 22.150383000000001
#
# number of rings (size 3 to 8) (size 9 to 14) (size 15 to 20)
#    0.000    3.200    0.000    1.200    0.000   12.000 
#    0.000    0.000    0.000    4.800    0.000    0.000 
#    0.000    0.000    0.000    0.000    0.000    0.000 
#
# Total GULP energy -111530.261545 kJ/mol
# GULP energy per Si atom -5576.513077 kJ/mol
# Density = 2.209997 g / cm^3
# Si number density = 22.150383 Si / 1000 Ang^3
#
#
#
# Elastic Constant Matrix: (Units=GPa)
#
#
# Indices 1 2 3 4 5 6 
#
# 1 109.0391 35.7511 -12.5280 0.0000 -13.1833 0.0000
# 2 35.7511 176.4510 18.0099 0.0000 -4.1942 0.0000
# 3 -12.5280 18.0099 21.7375 0.0000 -3.2909 0.0000
# 4 0.0000 0.0000 0.0000 20.8196 0.0000 -0.1504
# 5 -13.1833 -4.1942 -3.2909 0.0000 20.7569 0.0000
# 6 0.0000 0.0000 0.0000 -0.1504 0.0000 23.6003
#
#
#
# Elastic Compliance Matrix: (Units=1/GPa)
#
#
# Indices 1 2 3 4 5 6 
#
# 1 0.012816 -0.003576 0.011754 0.000000 0.009281 0.000000
# 2 -0.003576 0.007193 -0.008344 0.000000 -0.002141 0.000000
# 3 0.011754 -0.008344 0.062055 0.000000 0.015618 0.000000
# 4 0.000000 0.000000 0.000000 0.048034 0.000000 0.000306
# 5 0.009281 -0.002141 0.015618 0.000000 0.056115 0.000000
# 6 0.000000 0.000000 0.000000 0.000306 0.000000 0.042374
#
#
# Mechanical properties :
#
#
# Convention : Reuss Voigt Hill
#
# Bulk Modulus (GPa) = 12.23511 43.29927 27.76719
# Shear Modulus (GPa) = 19.51884 30.76833 25.14358
#
# Velocity S-wave (km/s) = 2.97172 3.73106 3.37283
# Velocity P-wave (km/s) = 4.16058 6.17668 5.26601
#
# Compressibility (1/GPa) = 0.08173201
#
# Stress axis : x y z
#
# Youngs Moduli (GPa) = 78.02761 139.03250 16.11465
#
# Poissons Ratio (x) = 0.49715 -0.18941
# Poissons Ratio (y) = 0.27901 0.13446
# Poissons Ratio (z) = -0.91713 1.16010
#
# Static dielectric constant tensor:
#      x y z
#    x 1.864500 0.000000 0.000830 
#    y 0.000000 1.797360 0.000000 
#    z 0.000830 0.000000 1.978060 
# 
# From -- ./inp_files/12387.got.cif
#   From: 2010.05.17/outbox.cif.g08.bks.cpg/sg11_7_cif.got.tgz:12387.got - 2010.06.03 12:22:45.
