data_PCOD9161839
_publ_section_title
;
Structure prediction by ZEFSAII (Michael W. Deem and Ramdas Pophale) SiO2 
 PCOD9161839
Probable space group: P 21/M
;
_chemical_formula_sum "Si O2"
_cell_formula_units_Z 28
_cell_length_a 10.534987
_cell_length_b 9.198306
_cell_length_c 14.267457
_cell_angle_alpha 90.000000
_cell_angle_beta 74.845793
_cell_angle_gamma 90.000000
_cell_volume 1334.496145
_symmetry_space_group_name_H-M "P 21/M"
_symmetry_group_IT_number 11
_symmetry_cell_setting 'monoclinic'
loop_
_space_group_symop_operation_xyz
x,y,z
-x,1/2+y,-z
-x,-y,-z
x,1/2-y,z
loop_
_atom_site_type_symbol
_atom_site_label
_atom_site_fract_x
_atom_site_fract_y
_atom_site_fract_z
Si Si1 0.767422 0.920097 0.287065
Si Si2 0.122721 0.427067 0.924174
Si Si3 0.358785 0.422310 0.013659
Si Si4 0.670632 0.086893 0.485704
Si Si5 0.471137 0.578235 0.312054
Si Si6 0.749741 0.920613 0.761104
Si Si7 0.907721 0.087966 0.586705
O O1 0.789333 0.750000 0.302835
O O2 0.868814 0.969372 0.187617
O O3 0.625006 0.933486 0.264939
O O4 0.744951 0.002050 0.389109
O O5 0.113723 0.250000 0.930460
O O6 0.259171 0.468984 0.950485
O O7 0.000000 0.500000 0.000000
O O8 0.385510 0.250000 0.996506
O O9 0.273420 0.442057 0.124834
O O10 0.500000 0.500000 0.000000
O O11 0.638469 0.250000 0.458217
O O12 0.550631 0.032068 0.574839
O O13 0.775967 0.097656 0.550221
O O14 0.438267 0.750000 0.308230
O O15 0.382299 0.481591 0.262569
O O16 0.764882 0.750000 0.738363
O O17 0.869056 0.006590 0.689475
O O18 0.957420 0.250000 0.595719
O O19 0.000000 0.000000 0.500000
#
# Coordination Sequence:
#
# PCOD9161839 Si02
#       7
#     4   4   4   4   4   4   4
#     4  10  20  34  55  79 106 144 187 227 273 329
#     4  10  23  42  59  81 115 154 195 241 290 343
#     4  10  22  40  63  89 117 150 194 246 298 350
#     4   9  19  33  51  78 109 139 174 215 269 332
#     4   9  18  34  54  80 114 147 177 219 277 338
#     4  10  20  34  55  84 112 142 183 232 283 337
#     4  10  21  37  55  77 107 144 181 222 274 333
#
# _framework density 20.981701999999999
#
# number of rings (size 3 to 8) (size 9 to 14) (size 15 to 20)
#    0.000    2.286    0.000    3.000    0.000    8.000 
#    0.000    4.286    0.000    0.000    0.000    0.000 
#    0.000    0.000    0.000    0.000    0.000    0.000 
#
# Total GULP energy -156146.301020 kJ/mol
# GULP energy per Si atom -5576.653608 kJ/mol
# Density = 2.093395 g / cm^3
# Si number density = 20.981702 Si / 1000 Ang^3
#
#
#
# Elastic Constant Matrix: (Units=GPa)
#
#
# Indices 1 2 3 4 5 6 
#
# 1 42.6017 5.0867 26.5636 0.0000 -5.9216 0.0000
# 2 5.0867 64.7747 53.8103 0.0000 -2.6715 0.0000
# 3 26.5636 53.8103 135.3935 0.0000 -6.5649 0.0000
# 4 0.0000 0.0000 0.0000 34.0206 0.0000 -6.6670
# 5 -5.9216 -2.6715 -6.5649 0.0000 37.7506 0.0000
# 6 0.0000 0.0000 0.0000 -6.6670 0.0000 28.4920
#
#
#
# Elastic Compliance Matrix: (Units=1/GPa)
#
#
# Indices 1 2 3 4 5 6 
#
# 1 0.027682 0.003495 -0.006654 0.000000 0.003432 0.000000
# 2 0.003495 0.023489 -0.009998 0.000000 0.000472 0.000000
# 3 -0.006654 -0.009998 0.012687 0.000000 0.000455 0.000000
# 4 0.000000 0.000000 0.000000 0.030807 0.000000 0.007209
# 5 0.003432 0.000472 0.000455 0.000000 0.027141 0.000000
# 6 0.000000 0.000000 0.000000 0.007209 0.000000 0.036784
#
#
# Mechanical properties :
#
#
# Convention : Reuss Voigt Hill
#
# Bulk Modulus (GPa) = 26.63523 45.96569 36.30046
# Shear Modulus (GPa) = 25.32700 30.53992 27.93346
#
# Velocity S-wave (km/s) = 3.47810 3.81931 3.65269
# Velocity P-wave (km/s) = 5.37137 6.43464 5.92690
#
# Compressibility (1/GPa) = 0.03754426
#
# Stress axis : x y z
#
# Youngs Moduli (GPa) = 36.12479 42.57320 78.82063
#
# Poissons Ratio (x) = -0.14880 0.52445
# Poissons Ratio (y) = -0.12626 0.78807
# Poissons Ratio (z) = 0.24036 0.42566
#
# Static dielectric constant tensor:
#      x y z
#    x 1.845570 0.000000 -0.027750 
#    y 0.000000 1.741140 0.000000 
#    z -0.027750 0.000000 1.790090 
# 
# From -- ./inp_files/49172.got.cif
#   From: 2010.05.17/outbox.cif.g08.bks.cpg/sg11_25_cif.got.tgz:49172.got - 2010.06.03 12:22:45.
