data_PCOD9161983
_publ_section_title
;
Structure prediction by ZEFSAII (Michael W. Deem and Ramdas Pophale) SiO2 
 PCOD9161983
Probable space group: P 21/M
;
_chemical_formula_sum "Si O2"
_cell_formula_units_Z 28
_cell_length_a 14.382064
_cell_length_b 8.862625
_cell_length_c 13.653215
_cell_angle_alpha 90.000000
_cell_angle_beta 121.587926
_cell_angle_gamma 90.000000
_cell_volume 1482.433398
_symmetry_space_group_name_H-M "P 21/M"
_symmetry_group_IT_number 11
_symmetry_cell_setting 'monoclinic'
loop_
_space_group_symop_operation_xyz
x,y,z
-x,1/2+y,-z
-x,-y,-z
x,1/2-y,z
loop_
_atom_site_type_symbol
_atom_site_label
_atom_site_fract_x
_atom_site_fract_y
_atom_site_fract_z
Si Si1 0.046608 0.569298 0.311028
Si Si2 0.388982 0.425598 0.558906
Si Si3 0.393754 0.069044 0.992932
Si Si4 0.167931 0.426617 0.560805
Si Si5 0.262008 0.929786 0.310617
Si Si6 0.398314 0.429571 0.226379
Si Si7 0.176391 0.569786 0.779906
O O1 0.035933 0.750000 0.310748
O O2 0.089285 0.505246 0.438544
O O3 0.141957 0.532391 0.285851
O O4 0.931146 0.493378 0.225624
O O5 0.408251 0.250000 0.546076
O O6 0.288961 0.434335 0.580685
O O7 0.347299 0.510780 0.439298
O O8 0.495439 0.497581 0.665072
O O9 0.392619 0.250000 0.979142
O O10 0.285699 0.997823 0.886635
O O11 0.396800 0.035806 0.110465
O O12 0.500000 0.000000 0.000000
O O13 0.138723 0.250000 0.556226
O O14 0.167646 0.509868 0.663826
O O15 0.270650 0.750000 0.308116
O O16 0.294434 0.005649 0.226803
O O17 0.402819 0.250000 0.240836
O O18 0.178655 0.750000 0.782727
#
# Coordination Sequence:
#
# PCOD9161983 Si02
#       7
#     4   4   4   4   4   4   4
#     4  10  21  38  59  85 117 151 190 237 285 338
#     4  10  20  34  56  85 118 153 189 231 281 337
#     4  11  25  44  64  87 115 149 189 235 283 335
#     4  10  20  35  57  86 119 154 191 235 286 341
#     4  10  21  37  59  85 115 150 189 234 283 335
#     4  11  23  38  58  83 114 150 189 234 284 337
#     4  12  24  38  59  85 115 153 193 236 285 339
#
# _framework density 18.887864
#
# number of rings (size 3 to 8) (size 9 to 14) (size 15 to 20)
#    0.000    1.429    0.000    5.571    0.000    8.000 
#    0.000    0.714    0.000    0.000    0.000    0.000 
#    0.000    0.000    0.000    0.000    0.000    0.000 
#
# Total GULP energy -156621.482379 kJ/mol
# GULP energy per Si atom -5593.624371 kJ/mol
# Density = 1.884487 g / cm^3
# Si number density = 18.887864 Si / 1000 Ang^3
#
#
#
# Elastic Constant Matrix: (Units=GPa)
#
#
# Indices 1 2 3 4 5 6 
#
# 1 139.2360 76.5761 90.8578 0.0000 8.9040 0.0000
# 2 76.5761 106.4772 58.2337 0.0000 -0.9646 0.0000
# 3 90.8578 58.2337 74.4561 0.0000 4.0450 0.0000
# 4 0.0000 0.0000 0.0000 30.7696 0.0000 0.7290
# 5 8.9040 -0.9646 4.0450 0.0000 31.1801 0.0000
# 6 0.0000 0.0000 0.0000 0.7290 0.0000 36.1441
#
#
#
# Elastic Compliance Matrix: (Units=1/GPa)
#
#
# Indices 1 2 3 4 5 6 
#
# 1 0.036697 -0.003673 -0.041626 0.000000 -0.005193 0.000000
# 2 -0.003673 0.016929 -0.008907 0.000000 0.002728 0.000000
# 3 -0.041626 -0.008907 0.071063 0.000000 0.002393 0.000000
# 4 0.000000 0.000000 0.000000 0.032515 0.000000 -0.000656
# 5 -0.005193 0.002728 0.002393 0.000000 0.033329 0.000000
# 6 0.000000 0.000000 0.000000 -0.000656 0.000000 0.027680
#
#
# Mechanical properties :
#
#
# Convention : Reuss Voigt Hill
#
# Bulk Modulus (GPa) = 61.43554 85.72272 73.57913
# Shear Modulus (GPa) = 15.05789 25.91885 20.48837
#
# Velocity S-wave (km/s) = 2.82658 3.70841 3.29711
# Velocity P-wave (km/s) = 6.57646 7.98874 7.31676
#
# Compressibility (1/GPa) = 0.01627722
#
# Stress axis : x y z
#
# Youngs Moduli (GPa) = 27.24995 59.06979 14.07200
#
# Poissons Ratio (x) = 0.21696 0.58577
# Poissons Ratio (y) = 0.10009 0.12534
# Poissons Ratio (z) = 1.13432 0.52612
#
# Static dielectric constant tensor:
#      x y z
#    x 1.676160 0.000000 -0.010160 
#    y 0.000000 1.775800 0.000000 
#    z -0.010160 0.000000 1.614440 
# 
# From -- ./inp_files/38405.got.cif
#   From: 2010.05.17/outbox.cif.g08.bks.cpg/sg11_20_cif.got.tgz:38405.got - 2010.06.03 12:22:45.
