data_PCOD9161872
_publ_section_title
;
Structure prediction by ZEFSAII (Michael W. Deem and Ramdas Pophale) SiO2 
 PCOD9161872
Probable space group: P 21/M
;
_chemical_formula_sum "Si O2"
_cell_formula_units_Z 20
_cell_length_a 7.924422
_cell_length_b 14.440881
_cell_length_c 7.094929
_cell_angle_alpha 90.000000
_cell_angle_beta 81.616039
_cell_angle_gamma 90.000000
_cell_volume 803.235947
_symmetry_space_group_name_H-M "P 21/M"
_symmetry_group_IT_number 11
_symmetry_cell_setting 'monoclinic'
loop_
_space_group_symop_operation_xyz
x,y,z
-x,1/2+y,-z
-x,-y,-z
x,1/2-y,z
loop_
_atom_site_type_symbol
_atom_site_label
_atom_site_fract_x
_atom_site_fract_y
_atom_site_fract_z
Si Si1 0.757467 0.037354 0.558446
Si Si2 0.443181 0.357334 0.419343
Si Si3 0.952164 0.150179 0.256894
Si Si4 0.195029 0.966067 0.005163
Si Si5 0.665291 0.648639 0.974718
O O1 0.605779 0.103002 0.502616
O O2 0.920007 0.072976 0.417228
O O3 0.771661 0.049484 0.780375
O O4 0.705252 0.932271 0.518020
O O5 0.406909 0.250000 0.470771
O O6 0.453839 0.361022 0.188598
O O7 0.915846 0.250000 0.347625
O O8 0.143039 0.152996 0.144683
O O9 0.819032 0.127060 0.112551
O O10 0.321861 0.049934 0.920937
O O11 0.000000 0.000000 0.000000
O O12 0.633803 0.750000 0.070348
#
# Coordination Sequence:
#
# PCOD9161872 Si02
#       5
#     4   4   4   4   4
#     4  10  20  35  57  80 106 144 181 220 271 318
#     4   9  18  34  54  77 109 145 179 219 269 322
#     4  10  20  34  55  82 108 139 184 228 265 315
#     4   9  19  34  54  80 109 137 172 220 268 316
#     4   8  16  33  54  76 107 144 178 220 272 321
#
# _framework density 24.899286
#
# number of rings (size 3 to 8) (size 9 to 14) (size 15 to 20)
#    0.000    2.800    0.000    0.600    0.000    8.800 
#    0.000   10.000    0.000    6.000    0.000    0.000 
#    0.000    0.000    0.000    0.000    0.000    0.000 
#
# Total GULP energy -111674.282101 kJ/mol
# GULP energy per Si atom -5583.714105 kJ/mol
# Density = 2.484261 g / cm^3
# Si number density = 24.899286 Si / 1000 Ang^3
#
#
#
# Elastic Constant Matrix: (Units=GPa)
#
#
# Indices 1 2 3 4 5 6 
#
# 1 115.9575 26.5234 27.0708 0.0000 27.9686 0.0000
# 2 26.5234 140.8197 -9.0010 0.0000 19.2012 0.0000
# 3 27.0708 -9.0010 86.8684 0.0000 38.1422 0.0000
# 4 0.0000 0.0000 0.0000 29.6124 0.0000 0.6630
# 5 27.9686 19.2012 38.1422 0.0000 41.7259 0.0000
# 6 0.0000 0.0000 0.0000 0.6630 0.0000 14.6521
#
#
#
# Elastic Compliance Matrix: (Units=1/GPa)
#
#
# Indices 1 2 3 4 5 6 
#
# 1 0.010481 -0.001276 -0.000955 0.000000 -0.005565 0.000000
# 2 -0.001276 0.008600 0.004428 0.000000 -0.007149 0.000000
# 3 -0.000955 0.004428 0.021519 0.000000 -0.021068 0.000000
# 4 0.000000 0.000000 0.000000 0.033804 0.000000 -0.001530
# 5 -0.005565 -0.007149 -0.021068 0.000000 0.050245 0.000000
# 6 0.000000 0.000000 0.000000 -0.001530 0.000000 0.068319
#
#
# Mechanical properties :
#
#
# Convention : Reuss Voigt Hill
#
# Bulk Modulus (GPa) = 22.22581 48.09245 35.15913
# Shear Modulus (GPa) = 24.56150 37.13492 30.84821
#
# Velocity S-wave (km/s) = 3.14416 3.86606 3.52365
# Velocity P-wave (km/s) = 4.70390 6.26780 5.54130
#
# Compressibility (1/GPa) = 0.04499274
#
# Stress axis : x y z
#
# Youngs Moduli (GPa) = 95.41072 116.28508 46.47141
#
# Poissons Ratio (x) = 0.14842 0.04438
# Poissons Ratio (y) = 0.12177 -0.20577
# Poissons Ratio (z) = 0.09111 -0.51491
#
# Static dielectric constant tensor:
#      x y z
#    x 2.060690 0.000000 -0.071490 
#    y 0.000000 2.041610 0.000000 
#    z -0.071490 0.000000 1.996600 
# 
# From -- ./inp_files/12317.got.cif
#   From: 2010.05.17/outbox.cif.g08.bks.cpg/sg11_7_cif.got.tgz:12317.got - 2010.06.03 12:22:45.
