data_PCOD9161227
_publ_section_title
;
Structure prediction by ZEFSAII (Michael W. Deem and Ramdas Pophale) SiO2 
 PCOD9161227
Probable space group: P 21/M
;
_chemical_formula_sum "Si O2"
_cell_formula_units_Z 32
_cell_length_a 22.042414
_cell_length_b 8.126331
_cell_length_c 12.414643
_cell_angle_alpha 90.000000
_cell_angle_beta 132.374216
_cell_angle_gamma 90.000000
_cell_volume 1642.822015
_symmetry_space_group_name_H-M "P 21/M"
_symmetry_group_IT_number 11
_symmetry_cell_setting 'monoclinic'
loop_
_space_group_symop_operation_xyz
x,y,z
-x,1/2+y,-z
-x,-y,-z
x,1/2-y,z
loop_
_atom_site_type_symbol
_atom_site_label
_atom_site_fract_x
_atom_site_fract_y
_atom_site_fract_z
Si Si1 0.354449 0.449895 0.439009
Si Si2 0.712331 0.561282 0.268271
Si Si3 0.450746 0.936838 0.839073
Si Si4 0.694857 0.443019 0.007420
Si Si5 0.521725 0.437885 0.712979
Si Si6 0.093965 0.946988 0.110838
Si Si7 0.217057 0.553453 0.444004
Si Si8 0.772668 0.945171 0.895609
O O1 0.356855 0.250000 0.445063
O O2 0.448846 0.511787 0.551675
O O3 0.299753 0.508514 0.475105
O O4 0.302260 0.500901 0.272166
O O5 0.685731 0.750000 0.247216
O O6 0.642066 0.445965 0.233080
O O7 0.719166 0.522983 0.150142
O O8 0.784696 0.528756 0.440338
O O9 0.472706 0.750000 0.835407
O O10 0.473360 0.055313 0.768668
O O11 0.500000 0.000000 0.000000
O O12 0.680131 0.250000 0.010969
O O13 0.610244 0.511978 0.851356
O O14 0.763288 0.468103 0.998655
O O15 0.536790 0.250000 0.695985
O O16 0.099377 0.750000 0.112485
O O17 0.143191 0.001107 0.277122
O O18 0.144669 0.017364 0.070599
O O19 0.000000 0.000000 0.000000
O O20 0.213890 0.750000 0.452008
O O21 0.765128 0.750000 0.902304
#
# Coordination Sequence:
#
# PCOD9161227 Si02
#       8
#     4   4   4   4   4   4   4   4
#     4   9  18  33  53  76 106 146 191 239 286 331
#     4  12  23  35  53  77 110 150 192 237 284 335
#     4  12  22  32  48  72 103 143 192 246 290 330
#     4  11  23  37  53  75 110 154 199 241 281 333
#     4  10  20  33  50  73 104 147 196 243 287 328
#     4  10  21  39  66  96 121 144 176 220 274 335
#     4  10  20  34  55  86 117 144 181 230 280 331
#     4  10  21  38  58  82 114 149 188 231 279 338
#
# _framework density 19.478677000000001
#
# number of rings (size 3 to 8) (size 9 to 14) (size 15 to 20)
#    0.000    1.500    2.500    3.750    0.000    3.000 
#    0.000    0.000    0.000    0.750    0.000    0.000 
#    0.000    0.000    0.000    0.000    0.000    0.000 
#
# Total GULP energy -178572.043935 kJ/mol
# GULP energy per Si atom -5580.376373 kJ/mol
# Density = 1.943434 g / cm^3
# Si number density = 19.478677 Si / 1000 Ang^3
#
#
#
# Elastic Constant Matrix: (Units=GPa)
#
#
# Indices 1 2 3 4 5 6 
#
# 1 79.9370 2.4818 59.8684 0.0000 -7.0937 0.0000
# 2 2.4818 53.4338 7.4757 0.0000 -0.0941 0.0000
# 3 59.8684 7.4757 91.7086 0.0000 2.9860 0.0000
# 4 0.0000 0.0000 0.0000 16.4418 0.0000 -2.3417
# 5 -7.0937 -0.0941 2.9860 0.0000 26.1373 0.0000
# 6 0.0000 0.0000 0.0000 -2.3417 0.0000 23.1000
#
#
#
# Elastic Compliance Matrix: (Units=1/GPa)
#
#
# Indices 1 2 3 4 5 6 
#
# 1 0.026600 0.001267 -0.017769 0.000000 0.009254 0.000000
# 2 0.001267 0.018993 -0.002398 0.000000 0.000686 0.000000
# 3 -0.017769 -0.002398 0.022942 0.000000 -0.007452 0.000000
# 4 0.000000 0.000000 0.000000 0.061712 0.000000 0.006256
# 5 0.009254 0.000686 -0.007452 0.000000 0.041625 0.000000
# 6 0.000000 0.000000 0.000000 0.006256 0.000000 0.043924
#
#
# Mechanical properties :
#
#
# Convention : Reuss Voigt Hill
#
# Bulk Modulus (GPa) = 32.53657 40.52570 36.53114
# Shear Modulus (GPa) = 18.95085 23.48605 21.21845
#
# Velocity S-wave (km/s) = 3.12252 3.47613 3.30406
# Velocity P-wave (km/s) = 5.45345 6.07961 5.77502
#
# Compressibility (1/GPa) = 0.03073465
#
# Stress axis : x y z
#
# Youngs Moduli (GPa) = 37.59400 52.65223 43.58775
#
# Poissons Ratio (x) = -0.06670 0.77453
# Poissons Ratio (y) = -0.04763 0.10450
# Poissons Ratio (z) = 0.66802 0.12624
#
# Static dielectric constant tensor:
#      x y z
#    x 1.640270 0.000000 -0.001260 
#    y 0.000000 1.682510 0.000000 
#    z -0.001260 0.000000 1.752480 
# 
# From -- ./inp_files/43805.got.cif
#   From: 2010.05.17/outbox.cif.g08.bks.cpg/sg11_22_cif.got.tgz:43805.got - 2010.06.03 12:22:45.
