data_PCOD9161597
_publ_section_title
;
Structure prediction by ZEFSAII (Michael W. Deem and Ramdas Pophale) SiO2 
 PCOD9161597
Probable space group: P 21/M
;
_chemical_formula_sum "Si O2"
_cell_formula_units_Z 28
_cell_length_a 21.295658
_cell_length_b 8.920430
_cell_length_c 11.476404
_cell_angle_alpha 90.000000
_cell_angle_beta 50.693061
_cell_angle_gamma 90.000000
_cell_volume 1686.906138
_symmetry_space_group_name_H-M "P 21/M"
_symmetry_group_IT_number 11
_symmetry_cell_setting 'monoclinic'
loop_
_space_group_symop_operation_xyz
x,y,z
-x,1/2+y,-z
-x,-y,-z
x,1/2-y,z
loop_
_atom_site_type_symbol
_atom_site_label
_atom_site_fract_x
_atom_site_fract_y
_atom_site_fract_z
Si Si1 0.766730 0.428348 0.737115
Si Si2 0.926702 0.928903 0.659713
Si Si3 0.121863 0.071976 0.813182
Si Si4 0.445481 0.422090 0.229949
Si Si5 0.395976 0.078952 0.013600
Si Si6 0.045447 0.572964 0.124231
Si Si7 0.731916 0.568784 0.526493
O O1 0.775760 0.250000 0.726265
O O2 0.842955 0.506489 0.707823
O O3 0.683422 0.476515 0.899185
O O4 0.758858 0.489470 0.614171
O O5 0.928237 0.750000 0.647611
O O6 0.937450 0.980238 0.780163
O O7 0.000000 0.000000 0.500000
O O8 0.121942 0.250000 0.840450
O O9 0.204922 0.033961 0.649676
O O10 0.046305 0.046352 0.814134
O O11 0.103248 0.979366 0.950972
O O12 0.462867 0.250000 0.241486
O O13 0.422268 0.423100 0.119363
O O14 0.361792 0.472578 0.388540
O O15 0.525981 0.519871 0.147800
O O16 0.376030 0.250000 0.006884
O O17 0.054435 0.750000 0.136594
O O18 0.733273 0.750000 0.544159
#
# Coordination Sequence:
#
# PCOD9161597 Si02
#       7
#     4   4   4   4   4   4   4
#     4  11  21  32  48  71  99 131 166 201 242 290
#     4  12  24  38  54  73  99 129 163 200 241 287
#     4   9  18  33  52  72  97 129 162 200 243 285
#     4   8  14  24  40  64  93 125 160 199 241 285
#     4   9  16  27  42  62  92 128 162 197 240 289
#     4  10  20  34  52  74  99 128 164 202 241 284
#     4   9  17  30  48  71 100 132 166 203 244 289
#
# _framework density 16.598434999999998
#
# number of rings (size 3 to 8) (size 9 to 14) (size 15 to 20)
#    0.000    2.286    0.000    5.143    0.000    5.714 
#    0.000    0.000    0.000    0.000    0.000    1.000 
#    0.000    0.000    0.000    0.000    0.000    0.000 
#
# Total GULP energy -156178.328122 kJ/mol
# GULP energy per Si atom -5577.797433 kJ/mol
# Density = 1.656066 g / cm^3
# Si number density = 16.598435 Si / 1000 Ang^3
#
#
#
# Elastic Constant Matrix: (Units=GPa)
#
#
# Indices 1 2 3 4 5 6 
#
# 1 58.6747 47.3800 45.9715 0.0000 -12.3312 0.0000
# 2 47.3800 104.9936 53.9745 0.0000 -9.2003 0.0000
# 3 45.9715 53.9745 123.9446 0.0000 -29.0971 0.0000
# 4 0.0000 0.0000 0.0000 28.0462 0.0000 -2.6653
# 5 -12.3312 -9.2003 -29.0971 0.0000 23.0106 0.0000
# 6 0.0000 0.0000 0.0000 -2.6653 0.0000 25.2530
#
#
#
# Elastic Compliance Matrix: (Units=1/GPa)
#
#
# Indices 1 2 3 4 5 6 
#
# 1 0.031269 -0.010723 -0.005690 0.000000 0.005275 0.000000
# 2 -0.010723 0.016062 -0.004066 0.000000 -0.004466 0.000000
# 3 -0.005690 -0.004066 0.015433 0.000000 0.014840 0.000000
# 4 0.000000 0.000000 0.000000 0.036017 0.000000 0.003801
# 5 0.005275 -0.004466 0.014840 0.000000 0.063265 0.000000
# 6 0.000000 0.000000 0.000000 0.003801 0.000000 0.040000
#
#
# Mechanical properties :
#
#
# Convention : Reuss Voigt Hill
#
# Bulk Modulus (GPa) = 45.85830 64.69611 55.27720
# Shear Modulus (GPa) = 19.97825 24.61441 22.29633
#
# Velocity S-wave (km/s) = 3.47309 3.85507 3.66905
# Velocity P-wave (km/s) = 6.61598 7.67315 7.16409
#
# Compressibility (1/GPa) = 0.02180630
#
# Stress axis : x y z
#
# Youngs Moduli (GPa) = 31.98091 62.25784 64.79701
#
# Poissons Ratio (x) = 0.66761 0.36867
# Poissons Ratio (y) = 0.34294 0.26344
# Poissons Ratio (z) = 0.18196 0.25312
#
# Static dielectric constant tensor:
#      x y z
#    x 1.537980 0.000000 -0.022150 
#    y 0.000000 1.560670 0.000000 
#    z -0.022150 0.000000 1.564110 
# 
# From -- ./inp_files/42349.got.cif
#   From: 2010.05.17/outbox.cif.g08.bks.cpg/sg11_22_cif.got.tgz:42349.got - 2010.06.03 12:22:45.
