data_PCOD9161306
_publ_section_title
;
Structure prediction by ZEFSAII (Michael W. Deem and Ramdas Pophale) SiO2 
 PCOD9161306
Probable space group: P 21/M
;
_chemical_formula_sum "Si O2"
_cell_formula_units_Z 28
_cell_length_a 28.579036
_cell_length_b 10.060550
_cell_length_c 5.156020
_cell_angle_alpha 90.000000
_cell_angle_beta 68.240162
_cell_angle_gamma 90.000000
_cell_volume 1376.831546
_symmetry_space_group_name_H-M "P 21/M"
_symmetry_group_IT_number 11
_symmetry_cell_setting 'monoclinic'
loop_
_space_group_symop_operation_xyz
x,y,z
-x,1/2+y,-z
-x,-y,-z
x,1/2-y,z
loop_
_atom_site_type_symbol
_atom_site_label
_atom_site_fract_x
_atom_site_fract_y
_atom_site_fract_z
Si Si1 0.523236 0.250000 0.829823
Si Si2 0.025673 0.101457 0.750465
Si Si3 0.398599 0.520956 0.473627
Si Si4 0.076885 0.602142 0.338819
Si Si5 0.831647 0.090200 0.212030
Si Si6 0.337080 0.592670 0.112312
Si Si7 0.543736 0.750000 0.533202
Si Si8 0.774599 0.088040 0.827988
O O1 0.557757 0.122072 0.705718
O O2 0.478549 0.250000 0.710713
O O3 0.501655 0.250000 0.164244
O O4 0.036893 0.250000 0.828161
O O5 0.980640 0.118060 0.634809
O O6 0.073075 0.022797 0.536611
O O7 0.000000 0.000000 0.000000
O O8 0.372220 0.573284 0.789229
O O9 0.423333 0.380060 0.482551
O O10 0.359179 0.519006 0.317283
O O11 0.092576 0.750000 0.410759
O O12 0.113318 0.568589 0.024027
O O13 0.827070 0.250000 0.232940
O O14 0.815084 0.043942 0.528869
O O15 0.792178 0.042239 0.074581
O O16 0.335493 0.750000 0.181959
O O17 0.281012 0.548870 0.147475
O O18 0.774237 0.250000 0.838639
#
# Coordination Sequence:
#
# PCOD9161306 Si02
#       8
#     2   4   4   4   4   4   2   4
#     4  12  22  42  60  86 122 152 196 236 286 329
#     4  10  20  33  51  78 107 148 188 229 277 326
#     4  12  23  39  62  86 117 157 193 234 288 336
#     4   9  19  33  52  76 109 141 183 231 279 344
#     4   9  17  30  49  81 112 142 175 231 301 336
#     4  11  20  37  59  88 116 148 194 240 286 340
#     4  12  26  40  58  90 120 156 194 236 278 343
#     4   9  18  30  52  83 114 137 179 240 290 335
#
# _framework density 20.336546999999999
#
# number of rings (size 3 to 8) (size 9 to 14) (size 15 to 20)
#    0.000    1.714    1.429    3.857    2.000    2.857 
#    0.000    0.000    0.000    0.000   11.143    0.000 
#    0.000    0.000    0.000    0.000    0.000    0.000 
#
# Total GULP energy -156309.506557 kJ/mol
# GULP energy per Si atom -5582.482377 kJ/mol
# Density = 2.029026 g / cm^3
# Si number density = 20.336547 Si / 1000 Ang^3
#
#
#
# Elastic Constant Matrix: (Units=GPa)
#
#
# Indices 1 2 3 4 5 6 
#
# 1 78.0576 1.3799 -14.5300 0.0000 2.3037 0.0000
# 2 1.3799 81.6634 1.4102 0.0000 -9.5412 0.0000
# 3 -14.5300 1.4102 44.0883 0.0000 1.3608 0.0000
# 4 0.0000 0.0000 0.0000 11.1936 0.0000 -5.2354
# 5 2.3037 -9.5412 1.3608 0.0000 35.1519 0.0000
# 6 0.0000 0.0000 0.0000 -5.2354 0.0000 8.5242
#
#
#
# Elastic Compliance Matrix: (Units=1/GPa)
#
#
# Indices 1 2 3 4 5 6 
#
# 1 0.013705 -0.000450 0.004568 0.000000 -0.001197 0.000000
# 2 -0.000450 0.012673 -0.000662 0.000000 0.003495 0.000000
# 3 0.004568 -0.000662 0.024252 0.000000 -0.001418 0.000000
# 4 0.000000 0.000000 0.000000 0.125343 0.000000 0.076984
# 5 -0.001197 0.003495 -0.001418 0.000000 0.029530 0.000000
# 6 0.000000 0.000000 0.000000 0.076984 0.000000 0.164596
#
#
# Mechanical properties :
#
#
# Convention : Reuss Voigt Hill
#
# Bulk Modulus (GPa) = 17.37877 20.03661 18.70769
# Shear Modulus (GPa) = 13.07642 25.34389 19.21015
#
# Velocity S-wave (km/s) = 2.53850 3.53402 3.07679
# Velocity P-wave (km/s) = 4.14199 5.15037 4.67346
#
# Compressibility (1/GPa) = 0.05754146
#
# Stress axis : x y z
#
# Youngs Moduli (GPa) = 72.96796 78.90952 41.23353
#
# Poissons Ratio (x) = 0.03553 -0.18835
# Poissons Ratio (y) = 0.03286 0.02728
# Poissons Ratio (z) = -0.33331 0.05221
#
# Static dielectric constant tensor:
#      x y z
#    x 1.767400 0.000000 0.022480 
#    y 0.000000 1.712200 0.000000 
#    z 0.022480 0.000000 1.740250 
# 
# From -- ./inp_files/9650.got.cif
#   From: 2010.05.17/outbox.cif.g08.bks.cpg/sg11_5_cif.got.tgz:9650.got - 2010.06.03 12:22:45.
