data_PCOD9161574
_publ_section_title
;
Structure prediction by ZEFSAII (Michael W. Deem and Ramdas Pophale) SiO2 
 PCOD9161574
Probable space group: P 21/M
;
_chemical_formula_sum "Si O2"
_cell_formula_units_Z 24
_cell_length_a 9.701235
_cell_length_b 10.677735
_cell_length_c 18.848303
_cell_angle_alpha 90.000000
_cell_angle_beta 147.626791
_cell_angle_gamma 90.000000
_cell_volume 1045.400466
_symmetry_space_group_name_H-M "P 21/M"
_symmetry_group_IT_number 11
_symmetry_cell_setting 'monoclinic'
loop_
_space_group_symop_operation_xyz
x,y,z
-x,1/2+y,-z
-x,-y,-z
x,1/2-y,z
loop_
_atom_site_type_symbol
_atom_site_label
_atom_site_fract_x
_atom_site_fract_y
_atom_site_fract_z
Si Si1 0.707893 0.476748 0.343871
Si Si2 0.180121 0.891959 0.908082
Si Si3 0.756042 0.750000 0.530444
Si Si4 0.323945 0.750000 0.571982
Si Si5 0.767388 0.250000 0.623185
Si Si6 0.512971 0.392035 0.109159
Si Si7 0.199170 0.020697 0.354389
Si Si8 0.257261 0.250000 0.637496
O O1 0.600673 0.374845 0.352784
O O2 0.667482 0.420168 0.248481
O O3 0.598539 0.618272 0.291815
O O4 0.000000 0.500000 0.500000
O O5 0.203150 0.750000 0.944727
O O6 0.323540 0.897762 0.893159
O O7 0.890156 0.926844 0.759676
O O8 0.302536 0.998884 0.009210
O O9 0.444591 0.750000 0.406022
O O10 0.858484 0.627344 0.613705
O O11 0.832240 0.750000 0.482946
O O12 0.395516 0.750000 0.520868
O O13 0.006599 0.750000 0.431639
O O14 0.918849 0.380945 0.689845
O O15 0.409867 0.250000 0.068447
O O16 0.500000 0.000000 0.500000
#
# Coordination Sequence:
#
# PCOD9161574 Si02
#       8
#     4   4   2   2   2   4   4   2
#     4  10  21  34  53  83 119 159 195 245 299 370
#     4  10  22  37  60  81 124 168 206 254 303 376
#     4  10  20  38  55  83 125 157 197 252 304 362
#     4  10  20  34  51  87 117 157 193 248 310 354
#     4  10  22  34  55  89 125 149 197 258 306 356
#     4  10  22  39  54  86 125 169 203 244 318 369
#     4  10  21  36  59  88 116 159 205 259 301 356
#     4  10  22  30  55  85 117 159 195 240 308 368
#
# _framework density 22.957709000000001
#
# number of rings (size 3 to 8) (size 9 to 14) (size 15 to 20)
#    0.000    2.000    1.667    1.000   11.667    0.000 
#    0.000    0.000    0.000    0.000    0.000   28.000 
#    0.000    0.000    0.000    0.000    0.000    0.000 
#
# Total GULP energy -133936.295346 kJ/mol
# GULP energy per Si atom -5580.678973 kJ/mol
# Density = 2.290546 g / cm^3
# Si number density = 22.957709 Si / 1000 Ang^3
#
#
#
# Elastic Constant Matrix: (Units=GPa)
#
#
# Indices 1 2 3 4 5 6 
#
# 1 36.8544 17.6089 23.6121 0.0000 -3.6585 0.0000
# 2 17.6089 232.4166 34.6725 0.0000 -2.0577 0.0000
# 3 23.6121 34.6725 97.7027 0.0000 -5.1687 0.0000
# 4 0.0000 0.0000 0.0000 42.7780 0.0000 -16.4424
# 5 -3.6585 -2.0577 -5.1687 0.0000 19.8190 0.0000
# 6 0.0000 0.0000 0.0000 -16.4424 0.0000 -0.4611
#
#
#
# Elastic Compliance Matrix: (Units=1/GPa)
#
#
# Indices 1 2 3 4 5 6 
#
# 1 0.032823 -0.001372 -0.007232 0.000000 0.004030 0.000000
# 2 -0.001372 0.004601 -0.001307 0.000000 -0.000117 0.000000
# 3 -0.007232 -0.001307 0.012542 0.000000 0.001800 0.000000
# 4 0.000000 0.000000 0.000000 0.001590 0.000000 -0.056683
# 5 0.004030 -0.000117 0.001800 0.000000 0.051658 0.000000
# 6 0.000000 0.000000 0.000000 -0.056683 0.000000 -0.147470
#
#
# Mechanical properties :
#
#
# Convention : Reuss Voigt Hill
#
# Bulk Modulus (GPa) = 33.17576 57.64009 45.40793
# Shear Modulus (GPa) = -347.56579 31.83252 -157.86663
#
# Velocity S-wave (km/s) = -12.31757 3.72771 -8.30141
# Velocity P-wave (km/s) = 13.70455 6.60979 8.48897
#
# Compressibility (1/GPa) = 0.03014249
#
# Stress axis : x y z
#
# Youngs Moduli (GPa) = 30.46628 217.36487 79.73152
#
# Poissons Ratio (x) = 0.29827 0.57664
# Poissons Ratio (y) = 0.04181 0.10422
# Poissons Ratio (z) = 0.22034 0.28413
#
# Static dielectric constant tensor:
#      x y z
#    x 1.873310 0.000000 0.054510 
#    y 0.000000 1.969530 0.000000 
#    z 0.054510 0.000000 1.854390 
# 
# From -- ./inp_files/59234.got.cif
#   From: 2010.05.17/outbox.cif.g08.bks.cpg/sg11_30_cif.got.tgz:59234.got - 2010.06.03 12:22:45.
