data_PCOD9161269
_publ_section_title
;
Structure prediction by ZEFSAII (Michael W. Deem and Ramdas Pophale) SiO2 
 PCOD9161269
Probable space group: P 21/M
;
_chemical_formula_sum "Si O2"
_cell_formula_units_Z 28
_cell_length_a 16.866801
_cell_length_b 9.026694
_cell_length_c 19.009708
_cell_angle_alpha 90.000000
_cell_angle_beta 36.580263
_cell_angle_gamma 90.000000
_cell_volume 1724.826691
_symmetry_space_group_name_H-M "P 21/M"
_symmetry_group_IT_number 11
_symmetry_cell_setting 'monoclinic'
loop_
_space_group_symop_operation_xyz
x,y,z
-x,1/2+y,-z
-x,-y,-z
x,1/2-y,z
loop_
_atom_site_type_symbol
_atom_site_label
_atom_site_fract_x
_atom_site_fract_y
_atom_site_fract_z
Si Si1 0.788246 0.571239 0.482493
Si Si2 0.549283 0.574678 0.073198
Si Si3 0.711946 0.425364 0.834603
Si Si4 0.609875 0.422132 0.327019
Si Si5 0.018764 0.072596 0.410187
Si Si6 0.695661 0.577995 0.399756
Si Si7 0.488161 0.928509 0.750368
O O1 0.809467 0.750000 0.469505
O O2 0.780568 0.523523 0.405933
O O3 0.642883 0.544038 0.620179
O O4 0.900499 0.486499 0.445045
O O5 0.577998 0.750000 0.052554
O O6 0.403626 0.554515 0.141589
O O7 0.547852 0.509055 0.152206
O O8 0.651093 0.488378 0.950181
O O9 0.740115 0.250000 0.820138
O O10 0.842027 0.514524 0.719797
O O11 0.645656 0.250000 0.298840
O O12 0.699269 0.499547 0.322072
O O13 0.457305 0.430943 0.463828
O O14 0.599939 0.478421 0.254091
O O15 0.016973 0.250000 0.416585
O O16 0.000000 0.000000 0.500000
O O17 0.726707 0.750000 0.367627
O O18 0.474132 0.750000 0.767340
#
# Coordination Sequence:
#
# PCOD9161269 Si02
#       7
#     4   4   4   4   4   4   4
#     4   9  18  32  48  68  97 131 165 198 236 283
#     4  10  20  33  51  74  96 121 157 199 239 281
#     4  10  21  37  54  71  94 125 159 195 239 284
#     4   8  14  24  39  62  92 124 157 192 232 278
#     4  12  24  36  51  72  98 127 161 198 236 279
#     4   8  14  25  41  62  90 124 158 193 234 278
#     4   9  17  29  46  69  98 131 162 195 237 282
#
# _framework density 16.233515000000001
#
# number of rings (size 3 to 8) (size 9 to 14) (size 15 to 20)
#    0.000    2.571    0.000    4.714    0.000    5.714 
#    0.000    2.857    0.000    0.000    0.000    1.000 
#    0.000    0.000    0.000    0.000    0.000    0.000 
#
# Total GULP energy -156058.085929 kJ/mol
# GULP energy per Si atom -5573.503069 kJ/mol
# Density = 1.619657 g / cm^3
# Si number density = 16.233515 Si / 1000 Ang^3
#
#
#
# Elastic Constant Matrix: (Units=GPa)
#
#
# Indices 1 2 3 4 5 6 
#
# 1 155.6201 78.5239 64.7409 0.0000 30.9554 0.0000
# 2 78.5239 83.3204 46.1342 0.0000 12.4813 0.0000
# 3 64.7409 46.1342 65.4576 0.0000 17.4504 0.0000
# 4 0.0000 0.0000 0.0000 24.5655 0.0000 4.4930
# 5 30.9554 12.4813 17.4504 0.0000 28.3401 0.0000
# 6 0.0000 0.0000 0.0000 4.4930 0.0000 30.5025
#
#
#
# Elastic Compliance Matrix: (Units=1/GPa)
#
#
# Indices 1 2 3 4 5 6 
#
# 1 0.015998 -0.010326 -0.006101 0.000000 -0.009171 0.000000
# 2 -0.010326 0.026348 -0.009895 0.000000 0.005767 0.000000
# 3 -0.006101 -0.009895 0.030325 0.000000 -0.007651 0.000000
# 4 0.000000 0.000000 0.000000 0.041835 0.000000 -0.006162
# 5 -0.009171 0.005767 -0.007651 0.000000 0.047473 0.000000
# 6 0.000000 0.000000 0.000000 -0.006162 0.000000 0.033692
#
#
# Mechanical properties :
#
#
# Convention : Reuss Voigt Hill
#
# Bulk Modulus (GPa) = 49.92989 75.91067 62.92028
# Shear Modulus (GPa) = 19.60867 24.34824 21.97846
#
# Velocity S-wave (km/s) = 3.47927 3.87702 3.68352
# Velocity P-wave (km/s) = 6.85307 8.17954 7.54551
#
# Compressibility (1/GPa) = 0.02002808
#
# Stress axis : x y z
#
# Youngs Moduli (GPa) = 62.50649 37.95391 32.97645
#
# Poissons Ratio (x) = 0.39189 0.20119
# Poissons Ratio (y) = 0.64541 0.32630
# Poissons Ratio (z) = 0.38135 0.37555
#
# Static dielectric constant tensor:
#      x y z
#    x 1.558540 0.000000 0.009630 
#    y 0.000000 1.541160 0.000000 
#    z 0.009630 0.000000 1.521080 
# 
# From -- ./inp_files/60069.got.cif
#   From: 2010.05.17/outbox.cif.g08.bks.cpg/sg11_31_cif.got.tgz:60069.got - 2010.06.03 12:22:45.
