data_PCOD9161342
_publ_section_title
;
Structure prediction by ZEFSAII (Michael W. Deem and Ramdas Pophale) SiO2 
 PCOD9161342
Probable space group: P 21/M
;
_chemical_formula_sum "Si O2"
_cell_formula_units_Z 32
_cell_length_a 16.633780
_cell_length_b 7.504655
_cell_length_c 10.939676
_cell_angle_alpha 90.000000
_cell_angle_beta 84.784173
_cell_angle_gamma 90.000000
_cell_volume 1359.953750
_symmetry_space_group_name_H-M "P 21/M"
_symmetry_group_IT_number 11
_symmetry_cell_setting 'monoclinic'
loop_
_space_group_symop_operation_xyz
x,y,z
-x,1/2+y,-z
-x,-y,-z
x,1/2-y,z
loop_
_atom_site_type_symbol
_atom_site_label
_atom_site_fract_x
_atom_site_fract_y
_atom_site_fract_z
Si Si1 0.264684 0.035515 0.660255
Si Si2 0.972848 0.035734 0.184773
Si Si3 0.461350 0.536190 0.137936
Si Si4 0.124946 0.962055 0.294497
Si Si5 0.893832 0.042530 0.443718
Si Si6 0.822216 0.041233 0.071939
Si Si7 0.448638 0.463689 0.629362
Si Si8 0.278539 0.531458 0.144201
O O1 0.263588 0.250000 0.659401
O O2 0.356282 0.971824 0.631629
O O3 0.201986 0.970094 0.567167
O O4 0.226939 0.973859 0.794401
O O5 0.965477 0.250000 0.183225
O O6 0.935632 0.963710 0.318064
O O7 0.912068 0.966816 0.088984
O O8 0.066656 0.994223 0.187477
O O9 0.458439 0.750000 0.150489
O O10 0.510228 0.469476 0.250181
O O11 0.369324 0.469034 0.149258
O O12 0.500000 0.500000 0.000000
O O13 0.129290 0.750000 0.308887
O O14 0.089738 0.037292 0.425670
O O15 0.215029 0.025118 0.255969
O O16 0.916335 0.250000 0.441492
O O17 0.833035 0.250000 0.041104
O O18 0.764451 0.968534 0.974662
O O19 0.500000 0.500000 0.500000
O O20 0.443925 0.250000 0.641080
O O21 0.281395 0.750000 0.141600
#
# Coordination Sequence:
#
# PCOD9161342 Si02
#       8
#     4   4   4   4   4   4   4   4
#     4  10  20  34  53  80 109 136 175 226 272 318
#     4   9  18  32  49  74 106 140 179 222 266 316
#     4  10  21  39  62  86 113 149 191 237 284 338
#     4  10  20  33  52  78 105 139 182 221 263 320
#     4   9  19  34  54  77 104 143 184 216 261 326
#     4   9  18  35  56  77 103 140 182 218 263 325
#     4  10  23  38  56  85 118 150 187 234 287 342
#     4   9  19  35  56  80 106 138 180 225 265 317
#
# _framework density 23.530211000000001
#
# number of rings (size 3 to 8) (size 9 to 14) (size 15 to 20)
#    0.000    2.500    0.000    2.250    1.750    4.500 
#    0.000    1.250    0.000    0.000    0.000    0.000 
#    0.000    0.000    0.000    0.000    0.000    0.000 
#
# Total GULP energy -178728.271738 kJ/mol
# GULP energy per Si atom -5585.258492 kJ/mol
# Density = 2.347665 g / cm^3
# Si number density = 23.530211 Si / 1000 Ang^3
#
#
#
# Elastic Constant Matrix: (Units=GPa)
#
#
# Indices 1 2 3 4 5 6 
#
# 1 154.7356 2.8726 28.6927 0.0000 11.8030 0.0000
# 2 2.8726 72.7134 -1.5169 0.0000 4.2894 0.0000
# 3 28.6927 -1.5169 113.8858 0.0000 14.1469 0.0000
# 4 0.0000 0.0000 0.0000 3.4710 0.0000 10.7897
# 5 11.8030 4.2894 14.1469 0.0000 28.4190 0.0000
# 6 0.0000 0.0000 0.0000 10.7897 0.0000 3.2451
#
#
#
# Elastic Compliance Matrix: (Units=1/GPa)
#
#
# Indices 1 2 3 4 5 6 
#
# 1 0.006901 -0.000179 -0.001480 0.000000 -0.002102 0.000000
# 2 -0.000179 0.013905 0.000514 0.000000 -0.002280 0.000000
# 3 -0.001480 0.000514 0.009693 0.000000 -0.004288 0.000000
# 4 0.000000 0.000000 0.000000 -0.030860 0.000000 0.102608
# 5 -0.002102 -0.002280 -0.004288 0.000000 0.038540 0.000000
# 6 0.000000 0.000000 0.000000 0.102608 0.000000 -0.033009
#
#
# Mechanical properties :
#
#
# Convention : Reuss Voigt Hill
#
# Bulk Modulus (GPa) = 35.45172 44.60351 40.02761
# Shear Modulus (GPa) = 296.50405 27.77945 162.14175
#
# Velocity S-wave (km/s) = 11.23759 3.43969 8.31008
# Velocity P-wave (km/s) = 13.54537 5.89681 10.44628
#
# Compressibility (1/GPa) = 0.02820737
#
# Stress axis : x y z
#
# Youngs Moduli (GPa) = 144.91207 71.91698 103.16645
#
# Poissons Ratio (x) = 0.01291 0.15267
# Poissons Ratio (y) = 0.02601 -0.05299
# Poissons Ratio (z) = 0.21445 -0.03694
#
# Static dielectric constant tensor:
#      x y z
#    x 1.894610 0.000000 0.003140 
#    y 0.000000 1.868160 0.000000 
#    z 0.003140 0.000000 1.901390 
# 
# From -- ./inp_files/38098.got.cif
#   From: 2010.05.17/outbox.cif.g08.bks.cpg/sg11_20_cif.got.tgz:38098.got - 2010.06.03 12:22:45.
