data_PCOD9161733
_publ_section_title
;
Structure prediction by ZEFSAII (Michael W. Deem and Ramdas Pophale) SiO2 
 PCOD9161733
Probable space group: P 21/M
;
_chemical_formula_sum "Si O2"
_cell_formula_units_Z 32
_cell_length_a 13.365883
_cell_length_b 13.036316
_cell_length_c 7.648952
_cell_angle_alpha 90.000000
_cell_angle_beta 73.373199
_cell_angle_gamma 90.000000
_cell_volume 1277.043161
_symmetry_space_group_name_H-M "P 21/M"
_symmetry_group_IT_number 11
_symmetry_cell_setting 'monoclinic'
loop_
_space_group_symop_operation_xyz
x,y,z
-x,1/2+y,-z
-x,-y,-z
x,1/2-y,z
loop_
_atom_site_type_symbol
_atom_site_label
_atom_site_fract_x
_atom_site_fract_y
_atom_site_fract_z
Si Si1 0.095887 0.637568 0.751263
Si Si2 0.589103 0.142000 0.499709
Si Si3 0.641387 0.917552 0.892621
Si Si4 0.133402 0.090453 0.634202
Si Si5 0.866599 0.909548 0.767603
Si Si6 0.095885 0.862431 0.152852
Si Si7 0.641387 0.917552 0.465995
Si Si8 0.410898 0.642000 0.088812
O O1 0.123762 0.750000 0.664480
O O2 0.969623 0.627935 0.812108
O O3 0.133355 0.534434 0.638430
O O4 0.130710 0.632024 0.934646
O O5 0.625646 0.250000 0.404220
O O6 0.463726 0.136035 0.543128
O O7 0.614085 0.141985 0.692957
O O8 0.631517 0.035339 0.406615
O O9 0.639975 0.916199 0.680014
O O10 0.753692 0.875704 0.891379
O O11 0.631516 0.035339 0.961870
O O12 0.536275 0.863964 0.006857
O O13 0.030379 0.127935 0.781731
O O14 0.246310 0.124298 0.645068
O O15 0.122046 0.122826 0.438977
O O16 0.866647 0.034434 0.771783
O O17 0.123760 0.750000 0.211760
O O18 0.374355 0.750000 0.029865
#
# Coordination Sequence:
#
# PCOD9161733 Si02
#       8
#     4   4   4   4   4   4   4   4
#     4  10  21  36  53  74 102 134 167 206 251 299
#     4   9  18  33  52  73  99 132 167 202 243 292
#     4   9  19  34  51  74 102 130 163 205 249 291
#     4  10  20  34  54  77 101 132 168 208 252 296
#     4  10  20  34  54  77 101 132 168 208 252 296
#     4  10  21  36  53  74 102 134 167 206 251 299
#     4   9  19  34  51  74 102 130 163 205 249 291
#     4   9  18  33  52  73  99 132 167 202 243 292
#
# _framework density 25.057884000000001
#
# number of rings (size 3 to 8) (size 9 to 14) (size 15 to 20)
#    0.000    2.500    0.000    3.000    0.000    6.500 
#    0.000    7.500    0.000    0.000    0.000    0.000 
#    0.000    0.000    0.000    0.000    0.000    0.000 
#
# Total GULP energy -178888.302431 kJ/mol
# GULP energy per Si atom -5590.259451 kJ/mol
# Density = 2.500085 g / cm^3
# Si number density = 25.057884 Si / 1000 Ang^3
#
#
#
# Elastic Constant Matrix: (Units=GPa)
#
#
# Indices 1 2 3 4 5 6 
#
# 1 108.1137 -4.6446 -3.3317 0.0000 -19.1757 0.0000
# 2 -4.6446 147.4754 0.8370 0.0000 1.4127 0.0000
# 3 -3.3317 0.8370 61.5840 0.0000 7.1841 0.0000
# 4 0.0000 0.0000 0.0000 15.4948 0.0000 9.2287
# 5 -19.1757 1.4127 7.1841 0.0000 25.3137 0.0000
# 6 0.0000 0.0000 0.0000 9.2287 0.0000 -20.3166
#
#
#
# Elastic Compliance Matrix: (Units=1/GPa)
#
#
# Indices 1 2 3 4 5 6 
#
# 1 0.010704 0.000261 -0.000381 0.000000 0.008202 0.000000
# 2 0.000261 0.006791 -0.000059 0.000000 -0.000165 0.000000
# 3 -0.000381 -0.000059 0.016808 0.000000 -0.005056 0.000000
# 4 0.000000 0.000000 0.000000 0.050795 0.000000 0.023073
# 5 0.008202 -0.000165 -0.005056 0.000000 0.047161 0.000000
# 6 0.000000 0.000000 0.000000 0.023073 0.000000 -0.038740
#
#
# Mechanical properties :
#
#
# Convention : Reuss Voigt Hill
#
# Bulk Modulus (GPa) = 29.46074 33.65494 31.55784
# Shear Modulus (GPa) = 47.53168 25.71921 36.62545
#
# Velocity S-wave (km/s) = 4.36004 3.20721 3.82728
# Velocity P-wave (km/s) = 6.09337 5.21296 5.67028
#
# Compressibility (1/GPa) = 0.03394348
#
# Stress axis : x y z
#
# Youngs Moduli (GPa) = 93.42549 147.25559 59.49575
#
# Poissons Ratio (x) = -0.03839 0.02268
# Poissons Ratio (y) = -0.02436 0.00351
# Poissons Ratio (z) = 0.03562 0.00868
#
# Static dielectric constant tensor:
#      x y z
#    x 1.960160 0.000000 -0.016220 
#    y 0.000000 2.016510 0.000000 
#    z -0.016220 0.000000 1.897210 
# 
# From -- ./inp_files/21862.got.cif
#   From: 2010.05.17/outbox.cif.g08.bks.cpg/sg11_11_cif.got.tgz:21862.got - 2010.06.03 12:22:45.
