data_PCOD9161474
_publ_section_title
;
Structure prediction by ZEFSAII (Michael W. Deem and Ramdas Pophale) SiO2 
 PCOD9161474
Probable space group: P 21/M
;
_chemical_formula_sum "Si O2"
_cell_formula_units_Z 24
_cell_length_a 6.798570
_cell_length_b 21.480184
_cell_length_c 9.107654
_cell_angle_alpha 90.000000
_cell_angle_beta 100.085781
_cell_angle_gamma 90.000000
_cell_volume 1309.478589
_symmetry_space_group_name_H-M "P 21/M"
_symmetry_group_IT_number 11
_symmetry_cell_setting 'monoclinic'
loop_
_space_group_symop_operation_xyz
x,y,z
-x,1/2+y,-z
-x,-y,-z
x,1/2-y,z
loop_
_atom_site_type_symbol
_atom_site_label
_atom_site_fract_x
_atom_site_fract_y
_atom_site_fract_z
Si Si1 0.947853 0.426982 0.464303
Si Si2 0.245745 0.322465 0.633750
Si Si3 0.022390 0.178044 0.891991
Si Si4 0.344738 0.884054 0.332661
Si Si5 0.332427 0.515076 0.096602
Si Si6 0.984063 0.582180 0.865177
O O1 0.111396 0.376678 0.543312
O O2 0.937475 0.415812 0.289508
O O3 0.000000 0.500000 0.500000
O O4 0.748879 0.410718 0.530069
O O5 0.191999 0.250000 0.590814
O O6 0.473124 0.337217 0.623150
O O7 0.207952 0.329419 0.804157
O O8 0.982690 0.250000 0.907669
O O9 0.836438 0.148522 0.779201
O O10 0.052121 0.145408 0.051241
O O11 0.412094 0.940390 0.235491
O O12 0.221837 0.456467 0.155344
O O13 0.500000 0.500000 0.000000
O O14 0.153554 0.548266 0.984054
#
# Coordination Sequence:
#
# PCOD9161474 Si02
#       6
#     4   4   4   4   4   4
#     4  11  23  38  57  87 123 157 191 235 293 352
#     4  10  22  39  60  84 114 153 197 239 288 348
#     4   9  19  37  59  80 107 148 193 240 286 340
#     4  10  20  36  59  83 112 149 192 235 285 345
#     4  10  20  33  56  81 111 143 185 239 286 329
#     4  10  21  36  53  83 115 144 189 234 285 345
#
# _framework density 18.327905999999999
#
# number of rings (size 3 to 8) (size 9 to 14) (size 15 to 20)
#    0.000    2.000    1.667    1.500    4.667    3.333 
#    0.000    0.000    0.000    0.000    0.000    0.000 
#    0.000    0.000    0.000    0.000    0.000    0.000 
#
# Total GULP energy -133810.767826 kJ/mol
# GULP energy per Si atom -5575.448659 kJ/mol
# Density = 1.828619 g / cm^3
# Si number density = 18.327906 Si / 1000 Ang^3
#
#
#
# Elastic Constant Matrix: (Units=GPa)
#
#
# Indices 1 2 3 4 5 6 
#
# 1 65.5249 24.4083 6.8199 0.0000 -25.7985 0.0000
# 2 24.4083 104.8279 43.6303 0.0000 -18.5509 0.0000
# 3 6.8199 43.6303 108.3927 0.0000 -28.8672 0.0000
# 4 0.0000 0.0000 0.0000 25.2138 0.0000 -5.2265
# 5 -25.7985 -18.5509 -28.8672 0.0000 28.8118 0.0000
# 6 0.0000 0.0000 0.0000 -5.2265 0.0000 28.1471
#
#
#
# Elastic Compliance Matrix: (Units=1/GPa)
#
#
# Indices 1 2 3 4 5 6 
#
# 1 0.028066 -0.004555 0.008156 0.000000 0.030369 0.000000
# 2 -0.004555 0.012505 -0.005031 0.000000 -0.001068 0.000000
# 3 0.008156 -0.005031 0.016122 0.000000 0.020216 0.000000
# 4 0.000000 0.000000 0.000000 0.041249 0.000000 0.007659
# 5 0.030369 -0.001068 0.020216 0.000000 0.081468 0.000000
# 6 0.000000 0.000000 0.000000 0.007659 0.000000 0.036950
#
#
# Mechanical properties :
#
#
# Convention : Reuss Voigt Hill
#
# Bulk Modulus (GPa) = 18.57659 47.60694 33.09176
# Shear Modulus (GPa) = 21.08237 30.02701 25.55469
#
# Velocity S-wave (km/s) = 3.39527 4.05201 3.73809
# Velocity P-wave (km/s) = 5.05254 6.92266 6.06017
#
# Compressibility (1/GPa) = 0.05383120
#
# Stress axis : x y z
#
# Youngs Moduli (GPa) = 35.62992 79.96692 62.02825
#
# Poissons Ratio (x) = 0.36426 -0.50588
# Poissons Ratio (y) = 0.16230 0.31209
# Poissons Ratio (z) = -0.29058 0.40235
#
# Static dielectric constant tensor:
#      x y z
#    x 1.634950 0.000000 -0.003100 
#    y 0.000000 1.655500 0.000000 
#    z -0.003100 0.000000 1.612830 
# 
# From -- ./inp_files/5429.got.cif
#   From: 2010.05.17/outbox.cif.g08.bks.cpg/sg11_3_cif.got.tgz:5429.got - 2010.06.03 12:22:45.
