data_PCOD9161079
_publ_section_title
;
Structure prediction by ZEFSAII (Michael W. Deem and Ramdas Pophale) SiO2 
 PCOD9161079
Probable space group: P 21/M
;
_chemical_formula_sum "Si O2"
_cell_formula_units_Z 28
_cell_length_a 9.676325
_cell_length_b 7.619795
_cell_length_c 30.393790
_cell_angle_alpha 90.000000
_cell_angle_beta 37.482603
_cell_angle_gamma 90.000000
_cell_volume 1363.684216
_symmetry_space_group_name_H-M "P 21/M"
_symmetry_group_IT_number 11
_symmetry_cell_setting 'monoclinic'
loop_
_space_group_symop_operation_xyz
x,y,z
-x,1/2+y,-z
-x,-y,-z
x,1/2-y,z
loop_
_atom_site_type_symbol
_atom_site_label
_atom_site_fract_x
_atom_site_fract_y
_atom_site_fract_z
Si Si1 0.905142 0.964470 0.201961
Si Si2 0.266505 0.039018 0.930345
Si Si3 0.495684 0.540633 0.364027
Si Si4 0.175451 0.964969 0.366962
Si Si5 0.664442 0.956943 0.498484
Si Si6 0.419942 0.539039 0.069497
Si Si7 0.414555 0.463954 0.797316
O O1 0.910722 0.750000 0.200841
O O2 0.735239 0.022976 0.283707
O O3 0.783864 0.015924 0.186777
O O4 0.162522 0.026518 0.140946
O O5 0.289110 0.250000 0.924287
O O6 0.405955 0.972409 0.937373
O O7 0.366857 0.973876 0.858557
O O8 0.000000 0.000000 0.000000
O O9 0.500898 0.750000 0.357565
O O10 0.295321 0.477797 0.382191
O O11 0.444453 0.504690 0.427334
O O12 0.173129 0.750000 0.367235
O O13 0.346068 0.018030 0.284725
O O14 0.918889 0.031295 0.428794
O O15 0.692769 0.750000 0.491701
O O16 0.500000 0.000000 0.500000
O O17 0.412997 0.750000 0.075482
O O18 0.500000 0.500000 0.000000
O O19 0.414305 0.250000 0.798000
#
# Coordination Sequence:
#
# PCOD9161079 Si02
#       7
#     4   4   4   4   4   4   4
#     4   8  15  29  51  75  98 125 161 202 247 297
#     4  10  20  32  50  74 100 129 164 203 244 290
#     4   9  17  33  56  78  98 125 162 205 249 299
#     4   8  16  31  53  77  98 124 163 204 245 293
#     4  11  22  34  49  73 104 136 167 204 246 290
#     4  10  20  33  50  75 102 132 168 206 248 295
#     4   8  14  28  50  74  96 123 161 204 243 288
#
# _framework density 20.532613000000001
#
# number of rings (size 3 to 8) (size 9 to 14) (size 15 to 20)
#    0.000    2.857    0.000    3.429    0.000    2.857 
#    0.000    5.714    0.000    6.857    0.000    0.000 
#    0.000    0.000    0.000    0.000    0.000    0.000 
#
# Total GULP energy -156257.828488 kJ/mol
# GULP energy per Si atom -5580.636732 kJ/mol
# Density = 2.048588 g / cm^3
# Si number density = 20.532613 Si / 1000 Ang^3
#
#
#
# Elastic Constant Matrix: (Units=GPa)
#
#
# Indices 1 2 3 4 5 6 
#
# 1 198.1243 3.2974 161.2175 0.0000 -1.0341 0.0000
# 2 3.2974 37.9336 3.0577 0.0000 -3.1185 0.0000
# 3 161.2175 3.0577 199.9940 0.0000 -2.1523 0.0000
# 4 0.0000 0.0000 0.0000 21.6820 0.0000 3.4047
# 5 -1.0341 -3.1185 -2.1523 0.0000 41.8055 0.0000
# 6 0.0000 0.0000 0.0000 3.4047 0.0000 14.6260
#
#
#
# Elastic Compliance Matrix: (Units=1/GPa)
#
#
# Indices 1 2 3 4 5 6 
#
# 1 0.014677 -0.000345 -0.011829 0.000000 -0.000272 0.000000
# 2 -0.000345 0.026562 -0.000107 0.000000 0.001967 0.000000
# 3 -0.011829 -0.000107 0.014542 0.000000 0.000448 0.000000
# 4 0.000000 0.000000 0.000000 0.047871 0.000000 -0.011144
# 5 -0.000272 0.001967 0.000448 0.000000 0.024083 0.000000
# 6 0.000000 0.000000 0.000000 -0.011144 0.000000 0.070965
#
#
# Mechanical properties :
#
#
# Convention : Reuss Voigt Hill
#
# Bulk Modulus (GPa) = 32.03092 85.68855 58.85974
# Shear Modulus (GPa) = 21.39768 33.52133 27.45951
#
# Velocity S-wave (km/s) = 3.23171 4.04491 3.66096
# Velocity P-wave (km/s) = 5.43683 7.97738 6.82634
#
# Compressibility (1/GPa) = 0.03121983
#
# Stress axis : x y z
#
# Youngs Moduli (GPa) = 68.13251 37.64753 68.76517
#
# Poissons Ratio (x) = 0.01298 0.81344
# Poissons Ratio (y) = 0.02348 0.00736
# Poissons Ratio (z) = 0.80595 0.00403
#
# Static dielectric constant tensor:
#      x y z
#    x 1.689340 0.000000 -0.020510 
#    y 0.000000 1.794720 0.000000 
#    z -0.020510 0.000000 1.720720 
# 
# From -- ./inp_files/26436.got.cif
#   From: 2010.05.17/outbox.cif.g08.bks.cpg/sg11_14_cif.got.tgz:26436.got - 2010.06.03 12:22:45.
