data_PCOD9161734
_publ_section_title
;
Structure prediction by ZEFSAII (Michael W. Deem and Ramdas Pophale) SiO2 
 PCOD9161734
Probable space group: P 21/M
;
_chemical_formula_sum "Si O2"
_cell_formula_units_Z 32
_cell_length_a 22.013507
_cell_length_b 9.227080
_cell_length_c 28.220152
_cell_angle_alpha 90.000000
_cell_angle_beta 163.218614
_cell_angle_gamma 90.000000
_cell_volume 1654.972955
_symmetry_space_group_name_H-M "P 21/M"
_symmetry_group_IT_number 11
_symmetry_cell_setting 'monoclinic'
loop_
_space_group_symop_operation_xyz
x,y,z
-x,1/2+y,-z
-x,-y,-z
x,1/2-y,z
loop_
_atom_site_type_symbol
_atom_site_label
_atom_site_fract_x
_atom_site_fract_y
_atom_site_fract_z
Si Si1 0.532259 0.078477 0.272893
Si Si2 0.089123 0.079205 0.389976
Si Si3 0.167088 0.579181 0.054006
Si Si4 0.361588 0.911851 0.432907
Si Si5 0.743523 0.913675 0.784998
Si Si6 0.638096 0.577733 0.063496
Si Si7 0.401390 0.418141 0.072917
Si Si8 0.975572 0.584107 0.767614
O O1 0.537379 0.250000 0.287860
O O2 0.718939 0.995379 0.439192
O O3 0.308947 0.011827 0.123555
O O4 0.551838 0.062206 0.230448
O O5 0.070213 0.250000 0.388170
O O6 0.123336 0.071860 0.358812
O O7 0.869352 0.995570 0.235042
O O8 0.201449 0.750000 0.071529
O O9 0.242049 0.528271 0.162251
O O10 0.915634 0.554046 0.872293
O O11 0.325716 0.750000 0.388705
O O12 0.511617 0.908307 0.591018
O O13 0.500000 0.000000 0.500000
O O14 0.148818 0.987773 0.288497
O O15 0.797453 0.750000 0.842793
O O16 0.657250 0.750000 0.086582
O O17 0.532743 0.559914 0.932465
O O18 0.500000 0.500000 0.000000
O O19 0.326124 0.250000 0.019321
O O20 0.210292 0.527019 0.937975
O O21 0.969250 0.750000 0.778104
#
# Coordination Sequence:
#
# PCOD9161734 Si02
#       8
#     4   4   4   4   4   4   4   4
#     4  11  22  36  56  84 116 150 188 232 286 338
#     4  10  21  38  61  90 118 151 192 232 278 334
#     4  10  20  34  54  77 103 139 182 231 284 340
#     4  11  23  36  51  73 103 140 186 237 289 341
#     4   9  20  37  52  71 100 137 184 234 287 343
#     4  10  20  39  66  93 123 156 192 232 275 331
#     4   9  21  39  59  86 118 153 191 233 283 340
#     4  10  21  37  57  80 109 146 191 240 288 343
#
# _framework density 19.335663
#
# number of rings (size 3 to 8) (size 9 to 14) (size 15 to 20)
#    0.000    2.000    0.000    3.000    1.750    6.500 
#    0.000    0.625    0.000    0.000    0.000    0.000 
#    0.000    0.000    0.000    0.000    0.000    0.000 
#
# Total GULP energy -178606.184374 kJ/mol
# GULP energy per Si atom -5581.443262 kJ/mol
# Density = 1.929165 g / cm^3
# Si number density = 19.335663 Si / 1000 Ang^3
#
#
#
# Elastic Constant Matrix: (Units=GPa)
#
#
# Indices 1 2 3 4 5 6 
#
# 1 89.2561 58.4836 14.2002 0.0000 6.9385 0.0000
# 2 58.4836 128.6937 22.4280 0.0000 2.5057 0.0000
# 3 14.2002 22.4280 35.0401 0.0000 -9.0046 0.0000
# 4 0.0000 0.0000 0.0000 25.1233 0.0000 6.3374
# 5 6.9385 2.5057 -9.0046 0.0000 30.5335 0.0000
# 6 0.0000 0.0000 0.0000 6.3374 0.0000 33.6482
#
#
#
# Elastic Compliance Matrix: (Units=1/GPa)
#
#
# Indices 1 2 3 4 5 6 
#
# 1 0.016561 -0.006850 -0.003408 0.000000 -0.004206 0.000000
# 2 -0.006850 0.011769 -0.004982 0.000000 -0.000879 0.000000
# 3 -0.003408 -0.004982 0.036153 0.000000 0.011845 0.000000
# 4 0.000000 0.000000 0.000000 0.041789 0.000000 -0.007871
# 5 -0.004206 -0.000879 0.011845 0.000000 0.037272 0.000000
# 6 0.000000 0.000000 0.000000 -0.007871 0.000000 0.031202
#
#
# Mechanical properties :
#
#
# Convention : Reuss Voigt Hill
#
# Bulk Modulus (GPa) = 29.41020 49.24595 39.32808
# Shear Modulus (GPa) = 23.08813 28.38621 25.73717
#
# Velocity S-wave (km/s) = 3.45928 3.83570 3.65234
# Velocity P-wave (km/s) = 5.58559 6.71871 6.17819
#
# Compressibility (1/GPa) = 0.03400181
#
# Stress axis : x y z
#
# Youngs Moduli (GPa) = 60.38101 84.96964 27.66028
#
# Poissons Ratio (x) = 0.58208 0.09426
# Poissons Ratio (y) = 0.41363 0.13782
# Poissons Ratio (z) = 0.20577 0.42336
#
# Static dielectric constant tensor:
#      x y z
#    x 1.701220 0.000000 -0.039810 
#    y 0.000000 1.669950 0.000000 
#    z -0.039810 0.000000 1.676660 
# 
# From -- ./inp_files/72214.got.cif
#   From: 2010.05.17/outbox.cif.g08.bks.cpg/sg11_37_cif.got.tgz:72214.got - 2010.06.03 12:22:45.
