data_PCOD9161727
_publ_section_title
;
Structure prediction by ZEFSAII (Michael W. Deem and Ramdas Pophale) SiO2 
 PCOD9161727
Probable space group: P 21/M
;
_chemical_formula_sum "Si O2"
_cell_formula_units_Z 32
_cell_length_a 8.613883
_cell_length_b 22.441484
_cell_length_c 8.441834
_cell_angle_alpha 90.000000
_cell_angle_beta 92.497984
_cell_angle_gamma 90.000000
_cell_volume 1630.326046
_symmetry_space_group_name_H-M "P 21/M"
_symmetry_group_IT_number 11
_symmetry_cell_setting 'monoclinic'
loop_
_space_group_symop_operation_xyz
x,y,z
-x,1/2+y,-z
-x,-y,-z
x,1/2-y,z
loop_
_atom_site_type_symbol
_atom_site_label
_atom_site_fract_x
_atom_site_fract_y
_atom_site_fract_z
Si Si1 0.766434 0.399338 0.542804
Si Si2 0.694888 0.879530 0.685628
Si Si3 0.661068 0.918555 0.213236
Si Si4 0.088059 0.439433 0.539850
Si Si5 0.512991 0.817469 0.423930
Si Si6 0.396158 0.550390 0.782693
Si Si7 0.197519 0.947157 0.096952
Si Si8 0.126527 0.087303 0.046132
O O1 0.658943 0.341104 0.543180
O O2 0.702050 0.435851 0.384709
O O3 0.756298 0.428623 0.720563
O O4 0.950686 0.391244 0.525690
O O5 0.766106 0.926668 0.564306
O O6 0.623007 0.825900 0.582497
O O7 0.550416 0.911351 0.764405
O O8 0.844438 0.870685 0.802234
O O9 0.828411 0.940331 0.289109
O O10 0.580786 0.865864 0.304094
O O11 0.565865 0.979823 0.209075
O O12 0.724514 0.895609 0.051752
O O13 0.000000 0.500000 0.500000
O O14 0.514230 0.750000 0.367829
O O15 0.311104 0.562428 0.948341
O O16 0.154296 0.017682 0.095855
O O17 0.041885 0.911058 0.039452
#
# Coordination Sequence:
#
# PCOD9161727 Si02
#       8
#     4   4   4   4   4   4   4   4
#     4  11  21  37  65  85 127 166 201 250 312 371
#     4  10  23  36  61  85 128 161 197 250 304 372
#     4  10  21  34  59  88 126 160 197 248 304 367
#     4  11  19  32  56  92 123 156 193 233 309 378
#     4  10  25  44  60  83 113 162 222 266 302 347
#     4  10  22  35  55 100 129 164 195 242 313 384
#     4  10  21  34  58  93 141 157 192 235 306 386
#     4  10  20  34  53  96 130 165 186 238 304 380
#
# _framework density 19.627973999999998
#
# number of rings (size 3 to 8) (size 9 to 14) (size 15 to 20)
#    0.000    1.750    2.500    1.500    8.750    2.500 
#    0.000    3.125    0.000    0.750    0.000    0.000 
#    0.000    0.000    0.000    0.000    0.000    0.000 
#
# Total GULP energy -178164.864461 kJ/mol
# GULP energy per Si atom -5567.652014 kJ/mol
# Density = 1.958330 g / cm^3
# Si number density = 19.627974 Si / 1000 Ang^3
#
#
#
# Elastic Constant Matrix: (Units=GPa)
#
#
# Indices 1 2 3 4 5 6 
#
# 1 74.7685 6.2788 30.4451 0.0000 2.9085 0.0000
# 2 6.2788 58.8001 9.5922 0.0000 -11.0660 0.0000
# 3 30.4451 9.5922 112.8150 0.0000 -1.4597 0.0000
# 4 0.0000 0.0000 0.0000 6.5797 0.0000 0.9780
# 5 2.9085 -11.0660 -1.4597 0.0000 34.4178 0.0000
# 6 0.0000 0.0000 0.0000 0.9780 0.0000 12.2906
#
#
#
# Elastic Compliance Matrix: (Units=1/GPa)
#
#
# Indices 1 2 3 4 5 6 
#
# 1 0.015192 -0.001321 -0.004012 0.000000 -0.001879 0.000000
# 2 -0.001321 0.018462 -0.001136 0.000000 0.005999 0.000000
# 3 -0.004012 -0.001136 0.010048 0.000000 0.000400 0.000000
# 4 0.000000 0.000000 0.000000 0.153802 0.000000 -0.012239
# 5 -0.001879 0.005999 0.000400 0.000000 0.031159 0.000000
# 6 0.000000 0.000000 0.000000 -0.012239 0.000000 0.082337
#
#
# Mechanical properties :
#
#
# Convention : Reuss Voigt Hill
#
# Bulk Modulus (GPa) = 32.50411 37.66842 35.08627
# Shear Modulus (GPa) = 14.96139 23.99545 19.47842
#
# Velocity S-wave (km/s) = 2.76388 3.50024 3.15362
# Velocity P-wave (km/s) = 5.17508 5.96393 5.58345
#
# Compressibility (1/GPa) = 0.03076534
#
# Stress axis : x y z
#
# Youngs Moduli (GPa) = 65.82295 54.16480 99.51767
#
# Poissons Ratio (x) = 0.07157 0.39925
# Poissons Ratio (y) = 0.08698 0.11301
# Poissons Ratio (z) = 0.26407 0.06151
#
# Static dielectric constant tensor:
#      x y z
#    x 1.752570 0.000000 0.011920 
#    y 0.000000 1.649800 0.000000 
#    z 0.011920 0.000000 1.840380 
# 
# From -- ./inp_files/14815.got.cif
#   From: 2010.05.17/outbox.cif.g08.bks.cpg/sg11_8_cif.got.tgz:14815.got - 2010.06.03 12:22:45.
