data_PCOD9161236
_publ_section_title
;
Structure prediction by ZEFSAII (Michael W. Deem and Ramdas Pophale) SiO2 
 PCOD9161236
Probable space group: P 21/M
;
_chemical_formula_sum "Si O2"
_cell_formula_units_Z 28
_cell_length_a 24.200712
_cell_length_b 7.540079
_cell_length_c 27.220245
_cell_angle_alpha 90.000000
_cell_angle_beta 14.212479
_cell_angle_gamma 90.000000
_cell_volume 1219.495875
_symmetry_space_group_name_H-M "P 21/M"
_symmetry_group_IT_number 11
_symmetry_cell_setting 'monoclinic'
loop_
_space_group_symop_operation_xyz
x,y,z
-x,1/2+y,-z
-x,-y,-z
x,1/2-y,z
loop_
_atom_site_type_symbol
_atom_site_label
_atom_site_fract_x
_atom_site_fract_y
_atom_site_fract_z
Si Si1 0.809245 0.044376 0.592593
Si Si2 0.969294 0.538355 0.226062
Si Si3 0.544713 0.962602 0.180402
Si Si4 0.715033 0.961266 0.782231
Si Si5 0.339095 0.465784 0.708222
Si Si6 0.516902 0.543588 0.313752
Si Si7 0.158589 0.458621 0.766203
O O1 0.843851 0.250000 0.549262
O O2 0.643572 0.966742 0.694449
O O3 0.057818 0.967403 0.387569
O O4 0.696245 0.036491 0.743639
O O5 0.943230 0.750000 0.246187
O O6 0.743469 0.465473 0.444843
O O7 0.984715 0.469270 0.156085
O O8 0.198259 0.495504 0.056787
O O9 0.515478 0.750000 0.208139
O O10 0.528084 0.037297 0.250029
O O11 0.741122 0.750000 0.754016
O O12 0.500000 0.000000 0.000000
O O13 0.332062 0.250000 0.714802
O O14 0.337789 0.531132 0.765667
O O15 0.167998 0.533192 0.813547
O O16 0.586328 0.518712 0.474616
O O17 0.578072 0.750000 0.257517
O O18 0.112342 0.250000 0.810438
#
# Coordination Sequence:
#
# PCOD9161236 Si02
#       7
#     4   4   4   4   4   4   4
#     4   9  20  38  57  79 109 144 179 214 253 300
#     4  10  20  33  50  74 104 137 174 219 272 323
#     4  10  21  37  55  75 104 142 180 216 255 305
#     4  10  20  36  60  88 115 142 174 212 255 302
#     4   8  13  24  44  67  91 123 167 216 262 312
#     4   9  18  33  53  75  99 134 180 223 264 315
#     4   8  14  25  42  65  94 127 163 210 268 320
#
# _framework density 22.960307
#
# number of rings (size 3 to 8) (size 9 to 14) (size 15 to 20)
#    0.000    2.857    0.000    0.857    0.000    3.429 
#    0.000    3.571    0.000    0.000    0.000    0.000 
#    0.000    0.000    0.000    0.000    0.000    0.000 
#
# Total GULP energy -156300.185103 kJ/mol
# GULP energy per Si atom -5582.149468 kJ/mol
# Density = 2.290805 g / cm^3
# Si number density = 22.960307 Si / 1000 Ang^3
#
#
#
# Elastic Constant Matrix: (Units=GPa)
#
#
# Indices 1 2 3 4 5 6 
#
# 1 136.0720 -1.5570 68.3205 0.0000 -37.6350 0.0000
# 2 -1.5570 81.3506 -3.8238 0.0000 -3.1973 0.0000
# 3 68.3205 -3.8238 94.3807 0.0000 -5.5524 0.0000
# 4 0.0000 0.0000 0.0000 7.2595 0.0000 7.5623
# 5 -37.6350 -3.1973 -5.5524 0.0000 29.3251 0.0000
# 6 0.0000 0.0000 0.0000 7.5623 0.0000 9.8910
#
#
#
# Elastic Compliance Matrix: (Units=1/GPa)
#
#
# Indices 1 2 3 4 5 6 
#
# 1 0.021029 0.000717 -0.013754 0.000000 0.024462 0.000000
# 2 0.000717 0.012402 0.000118 0.000000 0.002295 0.000000
# 3 -0.013754 0.000118 0.019739 0.000000 -0.013902 0.000000
# 4 0.000000 0.000000 0.000000 0.676773 0.000000 -0.517437
# 5 0.024462 0.002295 -0.013902 0.000000 0.063112 0.000000
# 6 0.000000 0.000000 0.000000 -0.517437 0.000000 0.496715
#
#
# Mechanical properties :
#
#
# Convention : Reuss Voigt Hill
#
# Bulk Modulus (GPa) = 36.58683 48.63142 42.60913
# Shear Modulus (GPa) = 3.77439 25.88603 14.83021
#
# Velocity S-wave (km/s) = 1.28353 3.36136 2.54423
# Velocity P-wave (km/s) = 4.26216 6.02425 5.21812
#
# Compressibility (1/GPa) = 0.02733224
#
# Stress axis : x y z
#
# Youngs Moduli (GPa) = 47.55372 80.63241 50.66162
#
# Poissons Ratio (x) = -0.05785 0.69681
# Poissons Ratio (y) = -0.03411 -0.00599
# Poissons Ratio (z) = 0.65407 -0.00953
#
# Static dielectric constant tensor:
#      x y z
#    x 1.897470 0.000000 -0.007410 
#    y 0.000000 1.912140 0.000000 
#    z -0.007410 0.000000 1.877730 
# 
# From -- ./inp_files/69755.got.cif
#   From: 2010.05.17/outbox.cif.g08.bks.cpg/sg11_35_cif.got.tgz:69755.got - 2010.06.03 12:22:45.
