data_PCOD9161029
_publ_section_title
;
Structure prediction by ZEFSAII (Michael W. Deem and Ramdas Pophale) SiO2 
 PCOD9161029
Probable space group: P 21/M
;
_chemical_formula_sum "Si O2"
_cell_formula_units_Z 28
_cell_length_a 23.545824
_cell_length_b 7.337985
_cell_length_c 20.303316
_cell_angle_alpha 90.000000
_cell_angle_beta 20.504693
_cell_angle_gamma 90.000000
_cell_volume 1228.791258
_symmetry_space_group_name_H-M "P 21/M"
_symmetry_group_IT_number 11
_symmetry_cell_setting 'monoclinic'
loop_
_space_group_symop_operation_xyz
x,y,z
-x,1/2+y,-z
-x,-y,-z
x,1/2-y,z
loop_
_atom_site_type_symbol
_atom_site_label
_atom_site_fract_x
_atom_site_fract_y
_atom_site_fract_z
Si Si1 0.250429 0.027916 0.599526
Si Si2 0.539656 0.466893 0.381027
Si Si3 0.964883 0.967729 0.461864
Si Si4 0.899613 0.472085 0.950341
Si Si5 0.465494 0.471787 0.246822
Si Si6 0.608370 0.967731 0.818377
Si Si7 0.177811 0.971785 0.109874
O O1 0.248158 0.250000 0.605077
O O2 0.388378 0.965461 0.501135
O O3 0.317627 0.975817 0.454327
O O4 0.063472 0.968139 0.809578
O O5 0.500000 0.500000 0.500000
O O6 0.546328 0.250000 0.361011
O O7 0.722103 0.534537 0.167409
O O8 0.961956 0.750000 0.457142
O O9 0.787774 0.039249 0.636679
O O10 0.094070 0.035012 0.268132
O O11 0.000000 0.000000 0.500000
O O12 0.898603 0.250000 0.954631
O O13 0.910418 0.524183 0.861536
O O14 0.466174 0.250000 0.245315
O O15 0.456271 0.535009 0.181527
O O16 0.635255 0.528877 0.094232
O O17 0.618946 0.750000 0.800152
O O18 0.500000 0.000000 0.000000
O O19 0.177665 0.750000 0.110846
#
# Coordination Sequence:
#
# PCOD9161029 Si02
#       7
#     4   4   4   4   4   4   4
#     4   9  16  28  48  74 101 128 164 207 247 289
#     4  10  20  34  52  76 104 132 162 202 250 298
#     4  10  20  32  47  70  99 131 167 207 254 303
#     4   9  16  28  48  74 101 128 164 207 247 289
#     4   9  15  26  46  71  97 125 161 207 251 288
#     4  10  20  32  47  70  99 131 167 207 254 303
#     4   9  15  26  46  71  97 125 161 207 251 288
#
# _framework density 22.786619999999999
#
# number of rings (size 3 to 8) (size 9 to 14) (size 15 to 20)
#    0.000    2.571    1.429    1.714    0.000    5.714 
#    0.000    0.000    0.000    1.714    0.000    0.000 
#    0.000    0.000    0.000    0.000    0.000    0.000 
#
# Total GULP energy -156361.239761 kJ/mol
# GULP energy per Si atom -5584.329991 kJ/mol
# Density = 2.273476 g / cm^3
# Si number density = 22.786620 Si / 1000 Ang^3
#
#
#
# Elastic Constant Matrix: (Units=GPa)
#
#
# Indices 1 2 3 4 5 6 
#
# 1 146.2161 -3.0441 89.5574 0.0000 -11.8708 0.0000
# 2 -3.0441 86.7314 2.3663 0.0000 -5.9052 0.0000
# 3 89.5574 2.3663 176.1365 0.0000 -20.8178 0.0000
# 4 0.0000 0.0000 0.0000 0.0602 0.0000 11.3371
# 5 -11.8708 -5.9052 -20.8178 0.0000 43.5341 0.0000
# 6 0.0000 0.0000 0.0000 11.3371 0.0000 10.4409
#
#
#
# Elastic Compliance Matrix: (Units=1/GPa)
#
#
# Indices 1 2 3 4 5 6 
#
# 1 0.009959 0.000513 -0.005025 0.000000 0.000382 0.000000
# 2 0.000513 0.011664 -0.000227 0.000000 0.001614 0.000000
# 3 -0.005025 -0.000227 0.008553 0.000000 0.002689 0.000000
# 4 0.000000 0.000000 0.000000 -0.081633 0.000000 0.088640
# 5 0.000382 0.001614 0.002689 0.000000 0.024580 0.000000
# 6 0.000000 0.000000 0.000000 0.088640 0.000000 -0.000471
#
#
# Mechanical properties :
#
#
# Convention : Reuss Voigt Hill
#
# Bulk Modulus (GPa) = 48.31497 65.20480 56.75989
# Shear Modulus (GPa) = -455.79830 32.15399 -211.82215
#
# Velocity S-wave (km/s) = -14.15850 3.76052 -9.65198
# Velocity P-wave (km/s) = 15.68550 6.89441 9.96248
#
# Compressibility (1/GPa) = 0.02069752
#
# Stress axis : x y z
#
# Youngs Moduli (GPa) = 100.41230 85.73468 116.91139
#
# Poissons Ratio (x) = -0.04395 0.58753
# Poissons Ratio (y) = -0.05148 0.02650
# Poissons Ratio (z) = 0.50461 0.01943
#
# Static dielectric constant tensor:
#      x y z
#    x 1.821660 0.000000 -0.013130 
#    y 0.000000 1.950570 0.000000 
#    z -0.013130 0.000000 1.833670 
# 
# From -- ./inp_files/27457.got.cif
#   From: 2010.05.17/outbox.cif.g08.bks.cpg/sg11_14_cif.got.tgz:27457.got - 2010.06.03 12:22:45.
