data_PCOD9161809
_publ_section_title
;
Structure prediction by ZEFSAII (Michael W. Deem and Ramdas Pophale) SiO2 
 PCOD9161809
Probable space group: P 21/M
;
_chemical_formula_sum "Si O2"
_cell_formula_units_Z 28
_cell_length_a 8.326977
_cell_length_b 7.553806
_cell_length_c 23.093582
_cell_angle_alpha 90.000000
_cell_angle_beta 130.949496
_cell_angle_gamma 90.000000
_cell_volume 1097.126827
_symmetry_space_group_name_H-M "P 21/M"
_symmetry_group_IT_number 11
_symmetry_cell_setting 'monoclinic'
loop_
_space_group_symop_operation_xyz
x,y,z
-x,1/2+y,-z
-x,-y,-z
x,1/2-y,z
loop_
_atom_site_type_symbol
_atom_site_label
_atom_site_fract_x
_atom_site_fract_y
_atom_site_fract_z
Si Si1 0.742372 0.966572 0.166058
Si Si2 0.143919 0.463799 0.110126
Si Si3 0.263872 0.963285 0.465302
Si Si4 0.332104 0.547726 0.606765
Si Si5 0.844646 0.954579 0.312842
Si Si6 0.220484 0.956846 0.254727
Si Si7 0.688003 0.453579 0.976460
O O1 0.731286 0.750000 0.158701
O O2 0.718463 0.025769 0.227622
O O3 0.548824 0.032586 0.080270
O O4 0.981375 0.023967 0.207776
O O5 0.141709 0.250000 0.104528
O O6 0.261193 0.517843 0.196099
O O7 0.245369 0.540227 0.075942
O O8 0.898111 0.531290 0.056060
O O9 0.240876 0.750000 0.462827
O O10 0.241405 0.030267 0.525966
O O11 0.078744 0.032596 0.379832
O O12 0.500000 0.000000 0.500000
O O13 0.262732 0.750000 0.595265
O O14 0.266643 0.459837 0.651318
O O15 0.588346 0.542224 0.664856
O O16 0.877948 0.750000 0.305023
O O17 0.223030 0.750000 0.270052
O O18 0.675058 0.250000 0.991802
#
# Coordination Sequence:
#
# PCOD9161809 Si02
#       7
#     4   4   4   4   4   4   4
#     4   9  19  35  56  80 105 139 186 230 268 321
#     4  10  20  34  54  82 113 143 181 229 276 327
#     4  10  22  38  58  85 117 150 186 228 274 326
#     4  11  23  38  56  83 115 145 183 231 278 324
#     4  10  20  37  60  84 110 145 188 229 272 327
#     4  11  22  37  57  79 107 146 187 227 277 334
#     4   9  18  35  57  80 109 146 185 225 273 330
#
# _framework density 25.521203
#
# number of rings (size 3 to 8) (size 9 to 14) (size 15 to 20)
#    0.000    2.000    0.000    3.429    0.000    5.143 
#    0.000    2.857    0.000    0.000    0.000    0.000 
#    0.000    0.000    0.000    0.000    0.000    0.000 
#
# Total GULP energy -156615.030813 kJ/mol
# GULP energy per Si atom -5593.393958 kJ/mol
# Density = 2.546312 g / cm^3
# Si number density = 25.521203 Si / 1000 Ang^3
#
#
#
# Elastic Constant Matrix: (Units=GPa)
#
#
# Indices 1 2 3 4 5 6 
#
# 1 72.1702 -1.9667 2.4679 0.0000 7.4713 0.0000
# 2 -1.9667 80.2395 6.1065 0.0000 0.1033 0.0000
# 3 2.4679 6.1065 125.1745 0.0000 10.9921 0.0000
# 4 0.0000 0.0000 0.0000 13.5770 0.0000 3.8251
# 5 7.4713 0.1033 10.9921 0.0000 50.7443 0.0000
# 6 0.0000 0.0000 0.0000 3.8251 0.0000 17.2108
#
#
#
# Elastic Compliance Matrix: (Units=1/GPa)
#
#
# Indices 1 2 3 4 5 6 
#
# 1 0.014082 0.000357 -0.000115 0.000000 -0.002049 0.000000
# 2 0.000357 0.012519 -0.000623 0.000000 0.000057 0.000000
# 3 -0.000115 -0.000623 0.008175 0.000000 -0.001753 0.000000
# 4 0.000000 0.000000 0.000000 0.078574 0.000000 -0.017463
# 5 -0.002049 0.000057 -0.001753 0.000000 0.020388 0.000000
# 6 0.000000 0.000000 0.000000 -0.017463 0.000000 0.061984
#
#
# Mechanical properties :
#
#
# Convention : Reuss Voigt Hill
#
# Bulk Modulus (GPa) = 29.40005 32.31106 30.85556
# Shear Modulus (GPa) = 24.05901 34.37154 29.21527
#
# Velocity S-wave (km/s) = 3.07368 3.67384 3.38708
# Velocity P-wave (km/s) = 4.91341 5.53932 5.23573
#
# Compressibility (1/GPa) = 0.03401354
#
# Stress axis : x y z
#
# Youngs Moduli (GPa) = 71.01299 79.88021 122.31807
#
# Poissons Ratio (x) = -0.02848 0.01408
# Poissons Ratio (y) = -0.02532 0.07617
# Poissons Ratio (z) = 0.00817 0.04974
#
# Static dielectric constant tensor:
#      x y z
#    x 2.056500 0.000000 0.024410 
#    y 0.000000 1.939310 0.000000 
#    z 0.024410 0.000000 1.991810 
# 
# From -- ./inp_files/70930.got.cif
#   From: 2010.05.17/outbox.cif.g08.bks.cpg/sg11_36_cif.got.tgz:70930.got - 2010.06.03 12:22:45.
