data_PCOD9161514
_publ_section_title
;
Structure prediction by ZEFSAII (Michael W. Deem and Ramdas Pophale) SiO2 
 PCOD9161514
Probable space group: P 21/M
;
_chemical_formula_sum "Si O2"
_cell_formula_units_Z 28
_cell_length_a 20.232418
_cell_length_b 8.609477
_cell_length_c 15.999074
_cell_angle_alpha 90.000000
_cell_angle_beta 36.372157
_cell_angle_gamma 90.000000
_cell_volume 1652.701300
_symmetry_space_group_name_H-M "P 21/M"
_symmetry_group_IT_number 11
_symmetry_cell_setting 'monoclinic'
loop_
_space_group_symop_operation_xyz
x,y,z
-x,1/2+y,-z
-x,-y,-z
x,1/2-y,z
loop_
_atom_site_type_symbol
_atom_site_label
_atom_site_fract_x
_atom_site_fract_y
_atom_site_fract_z
Si Si1 0.125746 0.064250 0.370807
Si Si2 0.876003 0.062769 0.130082
Si Si3 0.139413 0.937402 0.531992
Si Si4 0.731057 0.439342 0.436014
Si Si5 0.496560 0.436494 0.598426
Si Si6 0.121789 0.062624 0.189519
Si Si7 0.737213 0.063915 0.107953
O O1 0.123506 0.250000 0.377748
O O2 0.167644 0.021349 0.235454
O O3 0.177918 0.998119 0.402323
O O4 0.000000 0.000000 0.500000
O O5 0.879087 0.250000 0.127785
O O6 0.813143 0.011209 0.277858
O O7 0.806605 0.014177 0.119403
O O8 0.000000 0.000000 0.000000
O O9 0.139168 0.750000 0.529522
O O10 0.218486 0.990495 0.526913
O O11 0.009622 0.984148 0.680405
O O12 0.731274 0.250000 0.437193
O O13 0.606866 0.487814 0.536674
O O14 0.500000 0.500000 0.500000
O O15 0.497877 0.250000 0.592328
O O16 0.385194 0.492732 0.757607
O O17 0.124395 0.250000 0.178910
O O18 0.194942 0.989590 0.042236
O O19 0.728328 0.250000 0.117915
#
# Coordination Sequence:
#
# PCOD9161514 Si02
#       7
#     4   4   4   4   4   4   4
#     4   9  17  30  49  74 106 138 170 207 252 307
#     4  10  20  34  49  71 103 134 165 202 252 306
#     4   9  17  31  53  78 105 136 170 207 256 312
#     4   9  18  34  53  72 101 136 168 208 255 306
#     4  11  21  37  57  74  99 136 179 219 257 303
#     4   9  18  32  51  76 105 138 169 202 254 314
#     4  11  22  35  52  75 103 134 173 219 257 299
#
# _framework density 16.941960000000002
#
# number of rings (size 3 to 8) (size 9 to 14) (size 15 to 20)
#    0.000    2.286    1.429    3.000    0.000    5.143 
#    0.000    2.143    0.000    0.857    0.000    0.000 
#    0.000    0.000    0.000    0.000    0.000    0.000 
#
# Total GULP energy -156132.307690 kJ/mol
# GULP energy per Si atom -5576.153846 kJ/mol
# Density = 1.690340 g / cm^3
# Si number density = 16.941960 Si / 1000 Ang^3
#
#
#
# Elastic Constant Matrix: (Units=GPa)
#
#
# Indices 1 2 3 4 5 6 
#
# 1 178.0120 33.0086 86.8167 0.0000 13.5762 0.0000
# 2 33.0086 20.9279 22.4036 0.0000 2.9404 0.0000
# 3 86.8167 22.4036 54.9796 0.0000 -4.3343 0.0000
# 4 0.0000 0.0000 0.0000 28.1695 0.0000 4.5133
# 5 13.5762 2.9404 -4.3343 0.0000 33.0431 0.0000
# 6 0.0000 0.0000 0.0000 4.5133 0.0000 24.1585
#
#
#
# Elastic Compliance Matrix: (Units=1/GPa)
#
#
# Indices 1 2 3 4 5 6 
#
# 1 0.039005 0.018614 -0.071307 0.000000 -0.027035 0.000000
# 2 0.018614 0.098801 -0.071691 0.000000 -0.025843 0.000000
# 3 -0.071307 -0.071691 0.164515 0.000000 0.057257 0.000000
# 4 0.000000 0.000000 0.000000 0.036595 0.000000 -0.006837
# 5 -0.027035 -0.025843 0.057257 0.000000 0.051181 0.000000
# 6 0.000000 0.000000 0.000000 -0.006837 0.000000 0.042670
#
#
# Mechanical properties :
#
#
# Convention : Reuss Voigt Hill
#
# Bulk Modulus (GPa) = 18.67318 59.81970 39.24644
# Shear Modulus (GPa) = 7.14912 24.52025 15.83469
#
# Velocity S-wave (km/s) = 2.05644 3.80848 3.06051
# Velocity P-wave (km/s) = 4.08465 7.39761 5.97532
#
# Compressibility (1/GPa) = 0.05355274
#
# Stress axis : x y z
#
# Youngs Moduli (GPa) = 25.63798 10.12134 6.07847
#
# Poissons Ratio (x) = -0.18840 0.43344
# Poissons Ratio (y) = -0.47722 0.43577
# Poissons Ratio (z) = 1.82818 0.72560
#
# Static dielectric constant tensor:
#      x y z
#    x 1.589530 0.000000 0.013680 
#    y 0.000000 1.580350 0.000000 
#    z 0.013680 0.000000 1.544350 
# 
# From -- ./inp_files/37157.got.cif
#   From: 2010.05.17/outbox.cif.g08.bks.cpg/sg11_19_cif.got.tgz:37157.got - 2010.06.03 12:22:45.
