data_PCOD9161504
_publ_section_title
;
Structure prediction by ZEFSAII (Michael W. Deem and Ramdas Pophale) SiO2 
 PCOD9161504
Probable space group: P 21/M
;
_chemical_formula_sum "Si O2"
_cell_formula_units_Z 26
_cell_length_a 11.700023
_cell_length_b 20.096648
_cell_length_c 7.586921
_cell_angle_alpha 90.000000
_cell_angle_beta 44.671474
_cell_angle_gamma 90.000000
_cell_volume 1254.169942
_symmetry_space_group_name_H-M "P 21/M"
_symmetry_group_IT_number 11
_symmetry_cell_setting 'monoclinic'
loop_
_space_group_symop_operation_xyz
x,y,z
-x,1/2+y,-z
-x,-y,-z
x,1/2-y,z
loop_
_atom_site_type_symbol
_atom_site_label
_atom_site_fract_x
_atom_site_fract_y
_atom_site_fract_z
Si Si1 0.657346 0.250000 0.124252
Si Si2 0.627217 0.750000 0.856079
Si Si3 0.872600 0.385752 0.602802
Si Si4 0.500766 0.888179 0.076571
Si Si5 0.114601 0.535461 0.736054
Si Si6 0.994901 0.750000 0.455731
Si Si7 0.269081 0.890833 0.851969
Si Si8 0.462114 0.478549 0.309856
O O1 0.516056 0.250000 0.133068
O O2 0.843056 0.250000 0.844682
O O3 0.648342 0.319036 0.234656
O O4 0.597274 0.819598 0.991021
O O5 0.811981 0.750000 0.581309
O O6 0.939140 0.443487 0.401292
O O7 0.980608 0.319752 0.470967
O O8 0.836521 0.400949 0.850562
O O9 0.691503 0.372109 0.725111
O O10 0.533555 0.925300 0.855514
O O11 0.527890 0.948497 0.181874
O O12 0.272644 0.489218 0.547797
O O13 0.165108 0.600968 0.791037
O O14 0.000000 0.500000 0.000000
O O15 0.411536 0.945757 0.695057
#
# Coordination Sequence:
#
# PCOD9161504 Si02
#       8
#     2   2   4   4   4   2   4   4
#     4  10  20  41  58  93 128 154 210 252 308 375
#     4  12  18  32  63  96 118 159 211 250 307 370
#     4   9  19  40  58  84 123 158 197 250 306 358
#     4   9  17  33  61  89 116 158 203 251 299 363
#     4  11  24  36  58  89 122 163 198 253 310 361
#     4  10  20  33  63  91 118 161 197 252 305 365
#     4  10  20  40  65  86 119 166 202 253 310 363
#     4   9  18  35  59  84 118 159 201 246 304 360
#
# _framework density 20.730841999999999
#
# number of rings (size 3 to 8) (size 9 to 14) (size 15 to 20)
#    0.000    2.154    4.615    1.385    0.000    4.923 
#    0.000    0.769    0.000    1.846    0.000    0.000 
#    0.000    0.000    0.000    0.000    0.000    0.000 
#
# Total GULP energy -144801.962136 kJ/mol
# GULP energy per Si atom -5569.306236 kJ/mol
# Density = 2.068366 g / cm^3
# Si number density = 20.730842 Si / 1000 Ang^3
#
#
#
# Elastic Constant Matrix: (Units=GPa)
#
#
# Indices 1 2 3 4 5 6 
#
# 1 32.3974 21.1018 18.6816 0.0000 13.2547 0.0000
# 2 21.1018 122.9945 32.9941 0.0000 -7.7273 0.0000
# 3 18.6816 32.9941 79.2461 0.0000 0.3600 0.0000
# 4 0.0000 0.0000 0.0000 9.3704 0.0000 -0.1183
# 5 13.2547 -7.7273 0.3600 0.0000 30.9325 0.0000
# 6 0.0000 0.0000 0.0000 -0.1183 0.0000 10.7235
#
#
#
# Elastic Compliance Matrix: (Units=1/GPa)
#
#
# Indices 1 2 3 4 5 6 
#
# 1 0.050524 -0.007857 -0.008533 0.000000 -0.023513 0.000000
# 2 -0.007857 0.010546 -0.002566 0.000000 0.006031 0.000000
# 3 -0.008533 -0.002566 0.015686 0.000000 0.002833 0.000000
# 4 0.000000 0.000000 0.000000 0.106734 0.000000 0.001177
# 5 -0.023513 0.006031 0.002833 0.000000 0.043877 0.000000
# 6 0.000000 0.000000 0.000000 0.001177 0.000000 0.093266
#
#
# Mechanical properties :
#
#
# Convention : Reuss Voigt Hill
#
# Bulk Modulus (GPa) = 25.74324 42.24366 33.99345
# Shear Modulus (GPa) = 13.45923 20.99598 17.22761
#
# Velocity S-wave (km/s) = 2.55078 3.18589 2.88586
# Velocity P-wave (km/s) = 4.59566 5.82706 5.24760
#
# Compressibility (1/GPa) = 0.03884515
#
# Stress axis : x y z
#
# Youngs Moduli (GPa) = 19.79254 94.82625 63.75151
#
# Poissons Ratio (x) = 0.74501 0.54397
# Poissons Ratio (y) = 0.15550 0.16358
# Poissons Ratio (z) = 0.16888 0.24332
#
# Static dielectric constant tensor:
#      x y z
#    x 1.777100 0.000000 0.019770 
#    y 0.000000 1.791040 0.000000 
#    z 0.019770 0.000000 1.809580 
# 
# From -- ./inp_files/19317.got.cif
#   From: 2010.05.17/outbox.cif.g08.bks.cpg/sg11_10_cif.got.tgz:19317.got - 2010.06.03 12:22:45.
