data_PCOD9161768
_publ_section_title
;
Structure prediction by ZEFSAII (Michael W. Deem and Ramdas Pophale) SiO2 
 PCOD9161768
Probable space group: P 21/M
;
_chemical_formula_sum "Si O2"
_cell_formula_units_Z 28
_cell_length_a 8.132440
_cell_length_b 7.555261
_cell_length_c 27.010153
_cell_angle_alpha 90.000000
_cell_angle_beta 38.910564
_cell_angle_gamma 90.000000
_cell_volume 1042.391106
_symmetry_space_group_name_H-M "P 21/M"
_symmetry_group_IT_number 11
_symmetry_cell_setting 'monoclinic'
loop_
_space_group_symop_operation_xyz
x,y,z
-x,1/2+y,-z
-x,-y,-z
x,1/2-y,z
loop_
_atom_site_type_symbol
_atom_site_label
_atom_site_fract_x
_atom_site_fract_y
_atom_site_fract_z
Si Si1 0.428726 0.463798 0.735753
Si Si2 0.130680 0.542141 0.121282
Si Si3 0.974881 0.454929 0.301090
Si Si4 0.798921 0.539362 0.447472
Si Si5 0.457233 0.453940 0.839142
Si Si6 0.598888 0.960839 0.593840
Si Si7 0.696292 0.964960 0.023125
O O1 0.432841 0.250000 0.737467
O O2 0.462153 0.534921 0.783423
O O3 0.627492 0.507950 0.645389
O O4 0.133682 0.527460 0.792316
O O5 0.139957 0.750000 0.129415
O O6 0.409065 0.467747 0.072416
O O7 0.113574 0.520926 0.065583
O O8 0.987755 0.250000 0.284360
O O9 0.233907 0.544788 0.219234
O O10 0.969402 0.466101 0.362505
O O11 0.694055 0.531307 0.350222
O O12 0.500000 0.500000 0.500000
O O13 0.847296 0.750000 0.436181
O O14 0.794406 0.470942 0.505419
O O15 0.376509 0.250000 0.853459
O O16 0.290055 0.531309 0.923604
O O17 0.590087 0.750000 0.588306
O O18 0.697243 0.750000 0.023611
#
# Coordination Sequence:
#
# PCOD9161768 Si02
#       7
#     4   4   4   4   4   4   4
#     4  10  21  35  52  75 104 139 176 211 253 307
#     4   9  18  33  52  75 101 130 168 212 255 302
#     4  10  20  34  54  80 105 134 174 216 260 309
#     4   9  17  31  52  79 107 134 169 215 262 306
#     4  10  21  36  52  74 105 139 175 213 255 306
#     4   9  19  34  53  78 105 132 168 213 257 304
#     4   9  18  33  53  75 100 132 169 210 257 305
#
# _framework density 26.861318000000001
#
# number of rings (size 3 to 8) (size 9 to 14) (size 15 to 20)
#    0.000    2.571    0.000    2.571    0.000    6.857 
#    0.000    3.571    0.000    0.000    0.000    0.000 
#    0.000    0.000    0.000    0.000    0.000    0.000 
#
# Total GULP energy -156550.198620 kJ/mol
# GULP energy per Si atom -5591.078522 kJ/mol
# Density = 2.680018 g / cm^3
# Si number density = 26.861318 Si / 1000 Ang^3
#
#
#
# Elastic Constant Matrix: (Units=GPa)
#
#
# Indices 1 2 3 4 5 6 
#
# 1 77.7583 -3.7979 41.2683 0.0000 24.7171 0.0000
# 2 -3.7979 86.6284 -3.4742 0.0000 -0.4870 0.0000
# 3 41.2683 -3.4742 214.3981 0.0000 25.3606 0.0000
# 4 0.0000 0.0000 0.0000 21.2606 0.0000 10.3785
# 5 24.7171 -0.4870 25.3606 0.0000 55.4346 0.0000
# 6 0.0000 0.0000 0.0000 10.3785 0.0000 11.7137
#
#
#
# Elastic Compliance Matrix: (Units=1/GPa)
#
#
# Indices 1 2 3 4 5 6 
#
# 1 0.016077 0.000576 -0.002366 0.000000 -0.006081 0.000000
# 2 0.000576 0.011572 0.000100 0.000000 -0.000201 0.000000
# 3 -0.002366 0.000100 0.005282 0.000000 -0.001361 0.000000
# 4 0.000000 0.000000 0.000000 0.082885 0.000000 -0.073437
# 5 -0.006081 -0.000201 -0.001361 0.000000 0.021371 0.000000
# 6 0.000000 0.000000 0.000000 -0.073437 0.000000 0.150437
#
#
# Mechanical properties :
#
#
# Convention : Reuss Voigt Hill
#
# Bulk Modulus (GPa) = 33.83910 49.64191 41.74051
# Shear Modulus (GPa) = 16.61934 40.66768 28.64351
#
# Velocity S-wave (km/s) = 2.49008 3.89522 3.26904
# Velocity P-wave (km/s) = 4.57082 6.22505 5.46094
#
# Compressibility (1/GPa) = 0.02955161
#
# Stress axis : x y z
#
# Youngs Moduli (GPa) = 62.20008 86.41772 189.31451
#
# Poissons Ratio (x) = -0.04976 0.44791
# Poissons Ratio (y) = -0.03581 -0.01902
# Poissons Ratio (z) = 0.14716 -0.00868
#
# Static dielectric constant tensor:
#      x y z
#    x 2.303770 0.000000 0.034640 
#    y 0.000000 1.922730 0.000000 
#    z 0.034640 0.000000 2.064280 
# 
# From -- ./inp_files/28328.got.cif
#   From: 2010.05.17/outbox.cif.g08.bks.cpg/sg11_15_cif.got.tgz:28328.got - 2010.06.03 12:22:45.
