data_PCOD9161893
_publ_section_title
;
Structure prediction by ZEFSAII (Michael W. Deem and Ramdas Pophale) SiO2 
 PCOD9161893
Probable space group: P 21/M
;
_chemical_formula_sum "Si O2"
_cell_formula_units_Z 32
_cell_length_a 16.523630
_cell_length_b 7.859044
_cell_length_c 21.304643
_cell_angle_alpha 90.000000
_cell_angle_beta 151.441522
_cell_angle_gamma 90.000000
_cell_volume 1322.597591
_symmetry_space_group_name_H-M "P 21/M"
_symmetry_group_IT_number 11
_symmetry_cell_setting 'monoclinic'
loop_
_space_group_symop_operation_xyz
x,y,z
-x,1/2+y,-z
-x,-y,-z
x,1/2-y,z
loop_
_atom_site_type_symbol
_atom_site_label
_atom_site_fract_x
_atom_site_fract_y
_atom_site_fract_z
Si Si1 0.981864 0.442006 0.674421
Si Si2 0.497207 0.451287 0.581369
Si Si3 0.480504 0.445853 0.837863
Si Si4 0.322112 0.942979 0.850852
Si Si5 0.196206 0.545734 0.137839
Si Si6 0.347218 0.952776 0.614660
Si Si7 0.158583 0.054010 0.292884
Si Si8 0.187404 0.540938 0.993680
O O1 0.944237 0.250000 0.670531
O O2 0.169361 0.453672 0.776240
O O3 0.853267 0.479988 0.530443
O O4 0.931071 0.553950 0.699372
O O5 0.505582 0.250000 0.574252
O O6 0.687927 0.519691 0.725455
O O7 0.422645 0.476930 0.600896
O O8 0.348103 0.522409 0.433939
O O9 0.488005 0.250000 0.863719
O O10 0.355163 0.539846 0.799291
O O11 0.412060 0.457238 0.720799
O O12 0.674556 0.512045 0.964152
O O13 0.285581 0.750000 0.842864
O O14 0.500000 0.000000 0.000000
O O15 0.209975 0.750000 0.149634
O O16 0.254363 0.488048 0.107931
O O17 0.000000 0.500000 0.000000
O O18 0.380161 0.750000 0.641004
O O19 0.181091 0.250000 0.289485
O O20 0.004234 0.976616 0.147195
O O21 0.182479 0.750000 0.989322
#
# Coordination Sequence:
#
# PCOD9161893 Si02
#       8
#     4   4   4   4   4   4   4   4
#     4  10  21  37  55  79 113 149 185 232 282 333
#     4   9  17  33  56  80 109 143 184 225 273 335
#     4  11  21  36  58  81 109 146 186 233 283 333
#     4  12  25  40  56  78 109 147 189 235 286 340
#     4  10  20  36  55  80 111 145 180 222 274 332
#     4  10  20  34  55  83 111 142 185 231 279 330
#     4   9  17  32  58  84 105 143 188 231 278 330
#     4   9  18  34  56  81 109 138 179 226 273 331
#
# _framework density 24.194811999999999
#
# number of rings (size 3 to 8) (size 9 to 14) (size 15 to 20)
#    0.000    2.000    1.250    3.000    0.000    3.500 
#    0.000    1.875    0.000    0.000    0.000    0.000 
#    0.000    0.000    0.000    0.000    0.000    0.000 
#
# Total GULP energy -178754.021496 kJ/mol
# GULP energy per Si atom -5586.063172 kJ/mol
# Density = 2.413974 g / cm^3
# Si number density = 24.194812 Si / 1000 Ang^3
#
#
#
# Elastic Constant Matrix: (Units=GPa)
#
#
# Indices 1 2 3 4 5 6 
#
# 1 59.5430 12.6157 28.5176 0.0000 1.4176 0.0000
# 2 12.6157 51.9479 7.9201 0.0000 -0.6487 0.0000
# 3 28.5176 7.9201 180.7665 0.0000 -1.3664 0.0000
# 4 0.0000 0.0000 0.0000 21.7839 0.0000 -0.0297
# 5 1.4176 -0.6487 -1.3664 0.0000 50.3755 0.0000
# 6 0.0000 0.0000 0.0000 -0.0297 0.0000 29.1475
#
#
#
# Elastic Compliance Matrix: (Units=1/GPa)
#
#
# Indices 1 2 3 4 5 6 
#
# 1 0.019055 -0.004205 -0.002827 0.000000 -0.000667 0.000000
# 2 -0.004205 0.020310 -0.000224 0.000000 0.000374 0.000000
# 3 -0.002827 -0.000224 0.005990 0.000000 0.000239 0.000000
# 4 0.000000 0.000000 0.000000 0.045906 0.000000 0.000047
# 5 -0.000667 0.000374 0.000239 0.000000 0.019881 0.000000
# 6 0.000000 0.000000 0.000000 0.000047 0.000000 0.034308
#
#
# Mechanical properties :
#
#
# Convention : Reuss Voigt Hill
#
# Bulk Modulus (GPa) = 32.42149 43.37382 37.89766
# Shear Modulus (GPa) = 29.36989 36.47496 32.92242
#
# Velocity S-wave (km/s) = 3.48788 3.88693 3.69280
# Velocity P-wave (km/s) = 5.44515 6.17334 5.82064
#
# Compressibility (1/GPa) = 0.03084374
#
# Stress axis : x y z
#
# Youngs Moduli (GPa) = 52.47868 49.23675 166.95640
#
# Poissons Ratio (x) = 0.20704 0.47198
# Poissons Ratio (y) = 0.22067 0.03734
# Poissons Ratio (z) = 0.14836 0.01101
#
# Static dielectric constant tensor:
#      x y z
#    x 1.918250 0.000000 -0.008740 
#    y 0.000000 1.891170 0.000000 
#    z -0.008740 0.000000 1.991420 
# 
# From -- ./inp_files/72190.got.cif
#   From: 2010.05.17/outbox.cif.g08.bks.cpg/sg11_37_cif.got.tgz:72190.got - 2010.06.03 12:22:45.
