data_PCOD9161914
_publ_section_title
;
Structure prediction by ZEFSAII (Michael W. Deem and Ramdas Pophale) SiO2 
 PCOD9161914
Probable space group: P 21/M
;
_chemical_formula_sum "Si O2"
_cell_formula_units_Z 32
_cell_length_a 23.424913
_cell_length_b 11.057154
_cell_length_c 8.399982
_cell_angle_alpha 90.000000
_cell_angle_beta 45.131311
_cell_angle_gamma 90.000000
_cell_volume 1541.976465
_symmetry_space_group_name_H-M "P 21/M"
_symmetry_group_IT_number 11
_symmetry_cell_setting 'monoclinic'
loop_
_space_group_symop_operation_xyz
x,y,z
-x,1/2+y,-z
-x,-y,-z
x,1/2-y,z
loop_
_atom_site_type_symbol
_atom_site_label
_atom_site_fract_x
_atom_site_fract_y
_atom_site_fract_z
Si Si1 0.238630 0.381584 0.580686
Si Si2 0.945827 0.886598 0.158562
Si Si3 0.308452 0.879347 0.482435
Si Si4 0.445828 0.386598 0.658561
Si Si5 0.738629 0.881584 0.080692
Si Si6 0.493438 0.881846 0.118457
Si Si7 0.191547 0.879347 0.017559
Si Si8 0.006561 0.618154 0.381545
O O1 0.264408 0.250000 0.465885
O O2 0.144639 0.398666 0.727798
O O3 0.287507 0.499072 0.428913
O O4 0.250002 0.376443 0.749994
O O5 0.974697 0.750000 0.053899
O O6 0.949094 0.888310 0.343203
O O7 0.000000 0.000000 0.000000
O O8 0.297670 0.750000 0.418180
O O9 0.400457 0.883564 0.359105
O O10 0.249999 0.877566 0.749997
O O11 0.500000 0.500000 0.500000
O O12 0.474697 0.250000 0.553897
O O13 0.355361 0.398666 0.772203
O O14 0.449095 0.388309 0.843200
O O15 0.764408 0.750000 0.965891
O O16 0.787507 0.999072 0.928921
O O17 0.505946 0.750000 0.013258
O O18 0.500000 0.000000 0.000000
O O19 0.202330 0.750000 0.081812
O O20 0.099541 0.883564 0.140895
O O21 0.994053 0.750000 0.486743
O O22 0.000000 0.500000 0.500000
#
# Coordination Sequence:
#
# PCOD9161914 Si02
#       8
#     4   4   4   4   4   4   4   4
#     4   9  17  29  48  77 108 136 172 221 275 328
#     4  10  20  34  55  84 114 147 191 237 282 337
#     4   9  17  32  55  79 104 139 184 231 276 325
#     4  10  20  34  55  84 114 147 191 237 282 337
#     4   9  17  29  48  77 108 136 172 221 275 328
#     4  10  22  39  58  83 116 153 191 234 287 341
#     4   9  17  32  55  79 104 139 184 231 276 325
#     4  10  22  39  58  83 116 153 191 234 287 341
#
# _framework density 20.752586000000001
#
# number of rings (size 3 to 8) (size 9 to 14) (size 15 to 20)
#    0.000    2.500    0.000    3.000    0.000    5.000 
#    0.000    1.250    0.000    7.500    0.000    0.000 
#    0.000    0.000    0.000    0.000    0.000    0.000 
#
# Total GULP energy -178275.817285 kJ/mol
# GULP energy per Si atom -5571.119290 kJ/mol
# Density = 2.070535 g / cm^3
# Si number density = 20.752586 Si / 1000 Ang^3
#
#
#
# Elastic Constant Matrix: (Units=GPa)
#
#
# Indices 1 2 3 4 5 6 
#
# 1 126.6006 74.5529 24.7907 0.0000 -22.3777 0.0000
# 2 74.5529 217.1966 12.8616 0.0000 -0.6022 0.0000
# 3 24.7907 12.8616 30.6859 0.0000 -7.9038 0.0000
# 4 0.0000 0.0000 0.0000 27.0410 0.0000 -8.3667
# 5 -22.3777 -0.6022 -7.9038 0.0000 16.8973 0.0000
# 6 0.0000 0.0000 0.0000 -8.3667 0.0000 27.8672
#
#
#
# Elastic Compliance Matrix: (Units=1/GPa)
#
#
# Indices 1 2 3 4 5 6 
#
# 1 0.014691 -0.004663 -0.005623 0.000000 0.016659 0.000000
# 2 -0.004663 0.006213 -0.000421 0.000000 -0.006151 0.000000
# 3 -0.005623 -0.000421 0.040233 0.000000 0.011357 0.000000
# 4 0.000000 0.000000 0.000000 0.040768 0.000000 0.012240
# 5 0.016659 -0.006151 0.011357 0.000000 0.086337 0.000000
# 6 0.000000 0.000000 0.000000 0.012240 0.000000 0.039559
#
#
# Mechanical properties :
#
#
# Convention : Reuss Voigt Hill
#
# Bulk Modulus (GPa) = 25.17522 66.54372 45.85947
# Shear Modulus (GPa) = 19.05088 31.84630 25.44859
#
# Velocity S-wave (km/s) = 3.03314 3.92161 3.50563
# Velocity P-wave (km/s) = 4.94207 7.25536 6.20743
#
# Compressibility (1/GPa) = 0.03972160
#
# Stress axis : x y z
#
# Youngs Moduli (GPa) = 68.06972 160.95980 24.85547
#
# Poissons Ratio (x) = 0.75063 0.13976
# Poissons Ratio (y) = 0.31744 0.01046
# Poissons Ratio (z) = 0.38275 0.06774
#
# Static dielectric constant tensor:
#      x y z
#    x 1.689740 0.000000 -0.011590 
#    y 0.000000 1.882600 0.000000 
#    z -0.011590 0.000000 1.727450 
# 
# From -- ./inp_files/26584.got.cif
#   From: 2010.05.17/outbox.cif.g08.bks.cpg/sg11_14_cif.got.tgz:26584.got - 2010.06.03 12:22:45.
