data_PCOD9161964
_publ_section_title
;
Structure prediction by ZEFSAII (Michael W. Deem and Ramdas Pophale) SiO2 
 PCOD9161964
Probable space group: P 21/M
;
_chemical_formula_sum "Si O2"
_cell_formula_units_Z 28
_cell_length_a 19.125092
_cell_length_b 8.797748
_cell_length_c 9.149155
_cell_angle_alpha 90.000000
_cell_angle_beta 76.411704
_cell_angle_gamma 90.000000
_cell_volume 1496.326366
_symmetry_space_group_name_H-M "P 21/M"
_symmetry_group_IT_number 11
_symmetry_cell_setting 'monoclinic'
loop_
_space_group_symop_operation_xyz
x,y,z
-x,1/2+y,-z
-x,-y,-z
x,1/2-y,z
loop_
_atom_site_type_symbol
_atom_site_label
_atom_site_fract_x
_atom_site_fract_y
_atom_site_fract_z
Si Si1 0.850844 0.430970 0.751562
Si Si2 0.157933 0.932400 0.590286
Si Si3 0.295786 0.431286 0.676354
Si Si4 0.567044 0.932913 0.878437
Si Si5 0.998611 0.568273 0.663939
Si Si6 0.432499 0.568391 0.446254
Si Si7 0.286679 0.067862 0.022808
O O1 0.856856 0.250000 0.757374
O O2 0.840301 0.469727 0.584248
O O3 0.925984 0.503131 0.768581
O O4 0.782794 0.489143 0.874348
O O5 0.168351 0.750000 0.598302
O O6 0.077548 0.969602 0.687622
O O7 0.220378 0.019330 0.642931
O O8 0.306168 0.250000 0.655975
O O9 0.359876 0.516884 0.562681
O O10 0.295978 0.469872 0.847879
O O11 0.561653 0.750000 0.874930
O O12 0.641290 0.972928 0.924173
O O13 0.567733 0.001398 0.716478
O O14 0.500000 0.000000 0.000000
O O15 0.993958 0.750000 0.657446
O O16 0.000000 0.500000 0.500000
O O17 0.500000 0.500000 0.500000
O O18 0.437695 0.750000 0.438930
O O19 0.277312 0.250000 0.038678
#
# Coordination Sequence:
#
# PCOD9161964 Si02
#       7
#     4   4   4   4   4   4   4
#     4  10  20  34  56  84 112 145 190 238 287 342
#     4   9  19  35  55  83 114 147 188 235 286 343
#     4  11  23  39  59  85 116 152 194 238 286 342
#     4  11  23  41  65  91 120 155 193 237 288 342
#     4   9  17  31  53  80 112 146 186 235 286 340
#     4  12  25  42  64  90 120 153 193 239 287 344
#     4  10  23  40  57  81 115 152 191 234 282 339
#
# _framework density 18.712495000000001
#
# number of rings (size 3 to 8) (size 9 to 14) (size 15 to 20)
#    0.000    1.714    0.000    5.571    0.000    9.143 
#    0.000    0.714    0.000    0.000    0.000    0.000 
#    0.000    0.000    0.000    0.000    0.000    0.000 
#
# Total GULP energy -156447.622414 kJ/mol
# GULP energy per Si atom -5587.415086 kJ/mol
# Density = 1.866990 g / cm^3
# Si number density = 18.712495 Si / 1000 Ang^3
#
#
#
# Elastic Constant Matrix: (Units=GPa)
#
#
# Indices 1 2 3 4 5 6 
#
# 1 187.8755 79.0742 90.7768 0.0000 -15.1437 0.0000
# 2 79.0742 80.6251 64.3639 0.0000 -6.6095 0.0000
# 3 90.7768 64.3639 124.6411 0.0000 -8.0021 0.0000
# 4 0.0000 0.0000 0.0000 31.0302 0.0000 -5.0732
# 5 -15.1437 -6.6095 -8.0021 0.0000 31.8470 0.0000
# 6 0.0000 0.0000 0.0000 -5.0732 0.0000 38.3627
#
#
#
# Elastic Compliance Matrix: (Units=1/GPa)
#
#
# Indices 1 2 3 4 5 6 
#
# 1 0.010202 -0.006801 -0.003758 0.000000 0.002495 0.000000
# 2 -0.006801 0.025724 -0.008330 0.000000 0.000012 0.000000
# 3 -0.003758 -0.008330 0.015079 0.000000 0.000273 0.000000
# 4 0.000000 0.000000 0.000000 0.032939 0.000000 0.004356
# 5 0.002495 0.000012 0.000273 0.000000 0.032658 0.000000
# 6 0.000000 0.000000 0.000000 0.004356 0.000000 0.026643
#
#
# Mechanical properties :
#
#
# Convention : Reuss Voigt Hill
#
# Bulk Modulus (GPa) = 75.60035 95.73017 85.66526
# Shear Modulus (GPa) = 26.96411 30.84309 28.90360
#
# Velocity S-wave (km/s) = 3.80013 4.06428 3.93442
# Velocity P-wave (km/s) = 7.72938 8.56119 8.15590
#
# Compressibility (1/GPa) = 0.01322745
#
# Stress axis : x y z
#
# Youngs Moduli (GPa) = 98.01885 38.87398 66.31815
#
# Poissons Ratio (x) = 0.26439 0.24922
# Poissons Ratio (y) = 0.66666 0.55240
# Poissons Ratio (z) = 0.36834 0.32381
#
# Static dielectric constant tensor:
#      x y z
#    x 1.613990 0.000000 0.051950 
#    y 0.000000 1.649640 0.000000 
#    z 0.051950 0.000000 1.520450 
# 
# From -- ./inp_files/23997.got.cif
#   From: 2010.05.17/outbox.cif.g08.bks.cpg/sg11_12_cif.got.tgz:23997.got - 2010.06.03 12:22:45.
