data_PCOD9161667
_publ_section_title
;
Structure prediction by ZEFSAII (Michael W. Deem and Ramdas Pophale) SiO2 
 PCOD9161667
Probable space group: P 21/M
;
_chemical_formula_sum "Si O2"
_cell_formula_units_Z 32
_cell_length_a 16.136113
_cell_length_b 8.949288
_cell_length_c 14.495034
_cell_angle_alpha 90.000000
_cell_angle_beta 116.689113
_cell_angle_gamma 90.000000
_cell_volume 1870.166112
_symmetry_space_group_name_H-M "P 21/M"
_symmetry_group_IT_number 11
_symmetry_cell_setting 'monoclinic'
loop_
_space_group_symop_operation_xyz
x,y,z
-x,1/2+y,-z
-x,-y,-z
x,1/2-y,z
loop_
_atom_site_type_symbol
_atom_site_label
_atom_site_fract_x
_atom_site_fract_y
_atom_site_fract_z
Si Si1 0.899033 0.071446 0.693793
Si Si2 0.255606 0.929535 0.020882
Si Si3 0.755619 0.929531 0.270821
Si Si4 0.600929 0.928561 0.556441
Si Si5 0.600929 0.571439 0.044488
Si Si6 0.255606 0.570465 0.234724
Si Si7 0.755620 0.929531 0.484799
Si Si8 0.100967 0.571446 0.794760
O O1 0.906268 0.250000 0.691216
O O2 0.836206 0.033636 0.751953
O O3 0.841333 0.008572 0.578181
O O4 1.000000 1.000000 0.749553
O O5 0.268379 0.750000 0.021729
O O6 0.247356 0.971347 0.123678
O O7 0.163794 0.966363 0.915747
O O8 0.341348 0.008383 0.013230
O O9 0.768394 0.750000 0.271635
O O10 0.663737 0.966228 0.165652
O O11 0.747363 0.971198 0.373681
O O12 0.841333 0.008571 0.263151
O O13 0.593753 0.750000 0.558692
O O14 0.663737 0.966228 0.498084
O O15 0.500000 0.000000 0.500000
O O16 0.658652 0.991618 0.671882
O O17 0.593752 0.750000 0.035061
O O18 0.500000 0.500000 0.000000
O O19 0.268379 0.750000 0.246650
O O20 0.768394 0.750000 0.496760
O O21 0.093732 0.750000 0.784948
#
# Coordination Sequence:
#
# PCOD9161667 Si02
#       8
#     4   4   4   4   4   4   4   4
#     4  10  20  34  53  77 104 134 168 208 254 304
#     4   9  19  36  55  75 102 136 173 213 256 301
#     4   9  19  36  55  74  99 133 172 212 253 298
#     4  10  20  34  53  78 106 136 171 211 256 306
#     4  10  20  34  53  78 106 136 171 211 256 306
#     4   9  19  36  55  75 102 136 173 213 256 301
#     4   9  19  36  55  74  99 133 172 212 253 298
#     4  10  20  34  53  77 104 134 168 208 254 304
#
# _framework density 17.110779999999998
#
# number of rings (size 3 to 8) (size 9 to 14) (size 15 to 20)
#    0.000    2.500    0.000    1.500    0.000    5.000 
#    0.000    2.500    0.000    0.000    0.000    0.000 
#    0.000    0.000    0.000    0.000    0.000    0.000 
#
# Total GULP energy -178551.539618 kJ/mol
# GULP energy per Si atom -5579.735613 kJ/mol
# Density = 1.707183 g / cm^3
# Si number density = 17.110780 Si / 1000 Ang^3
#
#
#
# Elastic Constant Matrix: (Units=GPa)
#
#
# Indices 1 2 3 4 5 6 
#
# 1 150.8171 62.4216 117.6090 0.0000 18.6517 0.0000
# 2 62.4216 39.9184 56.6653 0.0000 4.9853 0.0000
# 3 117.6090 56.6653 145.6555 0.0000 -14.1809 0.0000
# 4 0.0000 0.0000 0.0000 28.5667 0.0000 3.6023
# 5 18.6517 4.9853 -14.1809 0.0000 34.2696 0.0000
# 6 0.0000 0.0000 0.0000 3.6023 0.0000 32.7263
#
#
#
# Elastic Compliance Matrix: (Units=1/GPa)
#
#
# Indices 1 2 3 4 5 6 
#
# 1 0.040201 -0.019533 -0.027836 0.000000 -0.030557 0.000000
# 2 -0.019533 0.078362 -0.015409 0.000000 -0.007145 0.000000
# 3 -0.027836 -0.015409 0.038584 0.000000 0.033358 0.000000
# 4 0.000000 0.000000 0.000000 0.035499 0.000000 -0.003907
# 5 -0.030557 -0.007145 0.033358 0.000000 0.060655 0.000000
# 6 0.000000 0.000000 0.000000 -0.003907 0.000000 0.030987
#
#
# Mechanical properties :
#
#
# Convention : Reuss Voigt Hill
#
# Bulk Modulus (GPa) = 31.65553 89.97587 60.81570
# Shear Modulus (GPa) = 11.89417 25.75884 18.82651
#
# Velocity S-wave (km/s) = 2.63939 3.88418 3.32063
# Velocity P-wave (km/s) = 5.27532 8.53313 7.09377
#
# Compressibility (1/GPa) = 0.03159006
#
# Stress axis : x y z
#
# Youngs Moduli (GPa) = 24.87497 12.76128 25.91738
#
# Poissons Ratio (x) = 0.24927 0.72144
# Poissons Ratio (y) = 0.48589 0.39937
# Poissons Ratio (z) = 0.69242 0.19664
#
# Static dielectric constant tensor:
#      x y z
#    x 1.549620 0.000000 -0.010090 
#    y 0.000000 1.573050 0.000000 
#    z -0.010090 0.000000 1.561260 
# 
# From -- ./inp_files/51675.got.cif
#   From: 2010.05.17/outbox.cif.g08.bks.cpg/sg11_26_cif.got.tgz:51675.got - 2010.06.03 12:22:45.
