data_PCOD9161374
_publ_section_title
;
Structure prediction by ZEFSAII (Michael W. Deem and Ramdas Pophale) SiO2 
 PCOD9161374
Probable space group: P 21/M
;
_chemical_formula_sum "Si O2"
_cell_formula_units_Z 32
_cell_length_a 27.526162
_cell_length_b 9.208802
_cell_length_c 22.312432
_cell_angle_alpha 90.000000
_cell_angle_beta 19.041869
_cell_angle_gamma 90.000000
_cell_volume 1845.262758
_symmetry_space_group_name_H-M "P 21/M"
_symmetry_group_IT_number 11
_symmetry_cell_setting 'monoclinic'
loop_
_space_group_symop_operation_xyz
x,y,z
-x,1/2+y,-z
-x,-y,-z
x,1/2-y,z
loop_
_atom_site_type_symbol
_atom_site_label
_atom_site_fract_x
_atom_site_fract_y
_atom_site_fract_z
Si Si1 0.337196 0.078336 0.564278
Si Si2 0.311869 0.424325 0.459450
Si Si3 0.339703 0.576630 0.679112
Si Si4 0.854983 0.922250 0.852892
Si Si5 0.151632 0.080361 0.526779
Si Si6 0.477445 0.422316 0.089466
Si Si7 0.304899 0.578887 0.851919
Si Si8 0.408576 0.075747 0.928041
O O1 0.316843 0.250000 0.599478
O O2 0.273845 0.042360 0.572556
O O3 0.516600 0.053491 0.350936
O O4 0.276534 0.987865 0.691205
O O5 0.343483 0.250000 0.419104
O O6 0.187079 0.455498 0.555104
O O7 0.458303 0.510896 0.268006
O O8 0.500000 0.500000 0.500000
O O9 0.358832 0.750000 0.652239
O O10 0.259518 0.547220 0.835983
O O11 0.861151 0.750000 0.850828
O O12 0.745601 0.958172 0.925422
O O13 0.018730 0.986862 0.655922
O O14 0.781702 0.987990 0.998179
O O15 0.111308 0.250000 0.570929
O O16 0.306912 0.060359 0.310850
O O17 0.508026 0.250000 0.050528
O O18 0.500000 0.500000 0.000000
O O19 0.575501 0.498986 0.026430
O O20 0.280646 0.750000 0.891257
O O21 0.424717 0.250000 0.914535
#
# Coordination Sequence:
#
# PCOD9161374 Si02
#       8
#     4   4   4   4   4   4   4   4
#     4   9  16  27  46  71  98 129 168 218 269 315
#     4   9  17  32  52  75 101 134 177 219 264 315
#     4   9  17  27  40  64  96 131 170 214 264 315
#     4  11  22  33  50  78 109 139 174 217 260 302
#     4   9  20  36  55  78 106 139 172 207 254 310
#     4  10  21  39  63  87 109 139 173 208 251 301
#     4   9  17  29  46  67  97 137 172 211 264 316
#     4  10  20  33  52  81 110 138 174 215 255 300
#
# _framework density 17.341704
#
# number of rings (size 3 to 8) (size 9 to 14) (size 15 to 20)
#    0.000    2.500    1.250    3.000    0.000    7.000 
#    0.000    0.625    0.000    0.750    0.000    0.000 
#    0.000    0.000    0.000    0.000    0.000    0.000 
#
# Total GULP energy -178412.438172 kJ/mol
# GULP energy per Si atom -5575.388693 kJ/mol
# Density = 1.730223 g / cm^3
# Si number density = 17.341704 Si / 1000 Ang^3
#
#
#
# Elastic Constant Matrix: (Units=GPa)
#
#
# Indices 1 2 3 4 5 6 
#
# 1 157.3389 75.9460 43.2924 0.0000 3.4196 0.0000
# 2 75.9460 69.8005 39.6293 0.0000 -6.1408 0.0000
# 3 43.2924 39.6293 38.8575 0.0000 -12.8304 0.0000
# 4 0.0000 0.0000 0.0000 22.5497 0.0000 1.5513
# 5 3.4196 -6.1408 -12.8304 0.0000 19.6968 0.0000
# 6 0.0000 0.0000 0.0000 1.5513 0.0000 32.1497
#
#
#
# Elastic Compliance Matrix: (Units=1/GPa)
#
#
# Indices 1 2 3 4 5 6 
#
# 1 0.014886 -0.013510 -0.006435 0.000000 -0.010988 0.000000
# 2 -0.013510 0.050335 -0.038637 0.000000 -0.007129 0.000000
# 3 -0.006435 -0.038637 0.087526 0.000000 0.046085 0.000000
# 4 0.000000 0.000000 0.000000 0.044494 0.000000 -0.002147
# 5 -0.010988 -0.007129 0.046085 0.000000 0.080475 0.000000
# 6 0.000000 0.000000 0.000000 -0.002147 0.000000 0.031208
#
#
# Mechanical properties :
#
#
# Convention : Reuss Voigt Hill
#
# Bulk Modulus (GPa) = 28.10323 64.85914 46.48118
# Shear Modulus (GPa) = 11.41685 22.02118 16.71901
#
# Velocity S-wave (km/s) = 2.56861 3.56735 3.10835
# Velocity P-wave (km/s) = 5.00377 7.37901 6.30427
#
# Compressibility (1/GPa) = 0.03558310
#
# Stress axis : x y z
#
# Youngs Moduli (GPa) = 67.17500 19.86678 11.42524
#
# Poissons Ratio (x) = 0.26841 0.07352
# Poissons Ratio (y) = 0.90756 0.44143
# Poissons Ratio (z) = 0.43227 0.76759
#
# Static dielectric constant tensor:
#      x y z
#    x 1.615800 0.000000 -0.007910 
#    y 0.000000 1.574610 0.000000 
#    z -0.007910 0.000000 1.568560 
# 
# From -- ./inp_files/70328.got.cif
#   From: 2010.05.17/outbox.cif.g08.bks.cpg/sg11_36_cif.got.tgz:70328.got - 2010.06.03 12:22:45.
