data_PCOD9161889
_publ_section_title
;
Structure prediction by ZEFSAII (Michael W. Deem and Ramdas Pophale) SiO2 
 PCOD9161889
Probable space group: P 21/M
;
_chemical_formula_sum "Si O2"
_cell_formula_units_Z 28
_cell_length_a 13.366231
_cell_length_b 7.587497
_cell_length_c 19.320057
_cell_angle_alpha 90.000000
_cell_angle_beta 142.863231
_cell_angle_gamma 90.000000
_cell_volume 1182.908764
_symmetry_space_group_name_H-M "P 21/M"
_symmetry_group_IT_number 11
_symmetry_cell_setting 'monoclinic'
loop_
_space_group_symop_operation_xyz
x,y,z
-x,1/2+y,-z
-x,-y,-z
x,1/2-y,z
loop_
_atom_site_type_symbol
_atom_site_label
_atom_site_fract_x
_atom_site_fract_y
_atom_site_fract_z
Si Si1 0.693416 0.457056 0.455963
Si Si2 0.678726 0.038825 0.065357
Si Si3 0.180476 0.962444 0.133444
Si Si4 0.598164 0.036121 0.872429
Si Si5 0.224941 0.954965 0.648003
Si Si6 0.611615 0.056639 0.628334
Si Si7 0.038382 0.535981 0.677072
O O1 0.651946 0.250000 0.426242
O O2 0.756396 0.533661 0.417742
O O3 0.534198 0.555732 0.395008
O O4 0.853628 0.477157 0.592403
O O5 0.692921 0.250000 0.072002
O O6 0.826142 0.971256 0.194132
O O7 0.691176 0.978583 0.993187
O O8 0.500000 0.000000 0.000000
O O9 0.192750 0.750000 0.144529
O O10 0.312442 0.024984 0.148078
O O11 0.237969 0.028567 0.242346
O O12 0.000000 0.000000 0.000000
O O13 0.591566 0.250000 0.866843
O O14 0.411905 0.967977 0.778736
O O15 0.180836 0.750000 0.614978
O O16 0.100872 0.030347 0.636248
O O17 0.671258 0.250000 0.641595
O O18 0.500000 0.000000 0.500000
O O19 0.041250 0.750000 0.677425
#
# Coordination Sequence:
#
# PCOD9161889 Si02
#       7
#     4   4   4   4   4   4   4
#     4  11  23  38  59  89 120 157 206 252 301 360
#     4  10  20  34  55  82 116 156 198 242 293 353
#     4  10  23  42  65  94 125 158 203 257 314 377
#     4  10  20  36  59  86 115 152 195 240 296 357
#     4  10  20  35  57  85 118 156 200 243 288 347
#     4  11  24  44  68  94 125 163 207 260 320 379
#     4  10  21  36  54  84 125 165 203 245 297 355
#
# _framework density 23.670466000000001
#
# number of rings (size 3 to 8) (size 9 to 14) (size 15 to 20)
#    0.000    1.714    2.857    1.286    0.000    4.571 
#    0.000    1.429    0.000    0.000    0.000    0.000 
#    0.000    0.000    0.000    0.000    0.000    0.000 
#
# Total GULP energy -156248.225746 kJ/mol
# GULP energy per Si atom -5580.293777 kJ/mol
# Density = 2.361659 g / cm^3
# Si number density = 23.670466 Si / 1000 Ang^3
#
#
#
# Elastic Constant Matrix: (Units=GPa)
#
#
# Indices 1 2 3 4 5 6 
#
# 1 46.1346 0.4516 30.9613 0.0000 -14.9377 0.0000
# 2 0.4516 65.5406 3.4579 0.0000 -10.2044 0.0000
# 3 30.9613 3.4579 146.8650 0.0000 -17.8614 0.0000
# 4 0.0000 0.0000 0.0000 27.0923 0.0000 3.3812
# 5 -14.9377 -10.2044 -17.8614 0.0000 47.1951 0.0000
# 6 0.0000 0.0000 0.0000 3.3812 0.0000 14.0385
#
#
#
# Elastic Compliance Matrix: (Units=1/GPa)
#
#
# Indices 1 2 3 4 5 6 
#
# 1 0.027233 0.001163 -0.004916 0.000000 0.007011 0.000000
# 2 0.001163 0.015839 -0.000164 0.000000 0.003731 0.000000
# 3 -0.004916 -0.000164 0.008025 0.000000 0.001446 0.000000
# 4 0.000000 0.000000 0.000000 0.038055 0.000000 -0.009166
# 5 0.007011 0.003731 0.001446 0.000000 0.024761 0.000000
# 6 0.000000 0.000000 0.000000 -0.009166 0.000000 0.073440
#
#
# Mechanical properties :
#
#
# Convention : Reuss Voigt Hill
#
# Bulk Modulus (GPa) = 23.11424 36.47575 29.79499
# Shear Modulus (GPa) = 23.85390 32.57647 28.21519
#
# Velocity S-wave (km/s) = 3.17795 3.71381 3.45628
# Velocity P-wave (km/s) = 4.82204 5.81662 5.34252
#
# Compressibility (1/GPa) = 0.04326338
#
# Stress axis : x y z
#
# Youngs Moduli (GPa) = 36.71957 63.13434 124.61033
#
# Poissons Ratio (x) = -0.07344 0.61258
# Poissons Ratio (y) = -0.04271 0.02049
# Poissons Ratio (z) = 0.18051 0.01038
#
# Static dielectric constant tensor:
#      x y z
#    x 1.872940 0.000000 -0.071900 
#    y 0.000000 1.963970 0.000000 
#    z -0.071900 0.000000 1.995210 
# 
# From -- ./inp_files/54460.got.cif
#   From: 2010.05.17/outbox.cif.g08.bks.cpg/sg11_28_cif.got.tgz:54460.got - 2010.06.03 12:22:45.
