data_PCOD9161030
_publ_section_title
;
Structure prediction by ZEFSAII (Michael W. Deem and Ramdas Pophale) SiO2 
 PCOD9161030
Probable space group: P 21/M
;
_chemical_formula_sum "Si O2"
_cell_formula_units_Z 32
_cell_length_a 7.744643
_cell_length_b 20.706680
_cell_length_c 12.902141
_cell_angle_alpha 90.000000
_cell_angle_beta 53.111492
_cell_angle_gamma 90.000000
_cell_volume 1654.846867
_symmetry_space_group_name_H-M "P 21/M"
_symmetry_group_IT_number 11
_symmetry_cell_setting 'monoclinic'
loop_
_space_group_symop_operation_xyz
x,y,z
-x,1/2+y,-z
-x,-y,-z
x,1/2-y,z
loop_
_atom_site_type_symbol
_atom_site_label
_atom_site_fract_x
_atom_site_fract_y
_atom_site_fract_z
Si Si1 0.709383 0.070777 0.338358
Si Si2 0.327925 0.426885 0.625916
Si Si3 0.616764 0.176694 0.841715
Si Si4 0.098955 0.823531 0.862365
Si Si5 0.676315 0.823531 0.862365
Si Si6 0.800193 0.676694 0.158286
Si Si7 0.113901 0.070777 0.338358
Si Si8 0.920244 0.073115 0.625916
O O1 0.544647 0.092561 0.487558
O O2 0.735705 0.123246 0.239008
O O3 0.944552 0.065242 0.305448
O O4 0.640763 0.997775 0.334600
O O5 0.244304 0.374950 0.737419
O O6 0.147333 0.434142 0.602667
O O7 0.704079 0.250000 0.811424
O O8 0.409472 0.176621 0.840528
O O9 0.780857 0.125050 0.737420
O O10 0.523235 0.161726 0.989412
O O11 0.183679 0.750000 0.831648
O O12 0.890463 0.823152 0.859537
O O13 0.002059 0.838274 0.010588
O O14 0.653025 0.750000 0.831648
O O15 0.713721 0.876754 0.760992
O O16 0.826927 0.750000 0.188577
O O17 0.980237 0.092561 0.487558
O O18 0.190037 0.997776 0.334600
#
# Coordination Sequence:
#
# PCOD9161030 Si02
#       8
#     4   4   4   4   4   4   4   4
#     4   9  18  33  51  71  97 129 164 200 238 283
#     4  10  20  32  47  71 102 131 159 196 241 287
#     4   9  18  33  52  72  94 123 160 200 241 287
#     4   8  15  30  52  74  93 118 159 205 240 278
#     4   8  15  30  52  74  93 118 159 205 240 278
#     4   9  18  33  52  72  94 123 160 200 241 287
#     4   9  18  33  51  71  97 129 164 200 238 283
#     4  10  20  32  47  71 102 131 159 196 241 287
#
# _framework density 19.337136999999998
#
# number of rings (size 3 to 8) (size 9 to 14) (size 15 to 20)
#    0.000    3.000    0.000    2.250    0.000    3.500 
#    0.000    3.750    0.000    1.500    0.000    0.000 
#    0.000    0.000    0.000    0.000    0.000    0.000 
#
# Total GULP energy -178407.413308 kJ/mol
# GULP energy per Si atom -5575.231666 kJ/mol
# Density = 1.929312 g / cm^3
# Si number density = 19.337137 Si / 1000 Ang^3
#
#
#
# Elastic Constant Matrix: (Units=GPa)
#
#
# Indices 1 2 3 4 5 6 
#
# 1 23.7211 -3.2695 -11.6390 0.0000 0.2729 0.0000
# 2 -3.2695 124.8341 111.3874 0.0000 -6.9890 0.0000
# 3 -11.6390 111.3874 125.8526 0.0000 -6.4985 0.0000
# 4 0.0000 0.0000 0.0000 46.8599 0.0000 -2.0410
# 5 0.2729 -6.9890 -6.4985 0.0000 15.8536 0.0000
# 6 0.0000 0.0000 0.0000 -2.0410 0.0000 13.3771
#
#
#
# Elastic Compliance Matrix: (Units=1/GPa)
#
#
# Indices 1 2 3 4 5 6 
#
# 1 0.048167 -0.012904 0.015875 0.000000 -0.000011 0.000000
# 2 -0.012904 0.041697 -0.037940 0.000000 0.003052 0.000000
# 3 0.015875 -0.037940 0.043026 0.000000 0.000638 0.000000
# 4 0.000000 0.000000 0.000000 0.021483 0.000000 0.003278
# 5 -0.000011 0.003052 0.000638 0.000000 0.064684 0.000000
# 6 0.000000 0.000000 0.000000 0.003278 0.000000 0.075255
#
#
# Mechanical properties :
#
#
# Convention : Reuss Voigt Hill
#
# Bulk Modulus (GPa) = 15.88516 51.92952 33.90734
# Shear Modulus (GPa) = 12.97911 27.08005 20.02958
#
# Velocity S-wave (km/s) = 2.59357 3.74627 3.22189
# Velocity P-wave (km/s) = 4.14746 6.75469 5.60479
#
# Compressibility (1/GPa) = 0.06295184
#
# Stress axis : x y z
#
# Youngs Moduli (GPa) = 20.76101 23.98261 23.24167
#
# Poissons Ratio (x) = 0.30946 -0.36895
# Poissons Ratio (y) = 0.26789 0.88179
# Poissons Ratio (z) = -0.32957 0.90990
#
# Static dielectric constant tensor:
#      x y z
#    x 1.732640 0.000000 0.005620 
#    y 0.000000 1.679740 0.000000 
#    z 0.005620 0.000000 1.640430 
# 
# From -- ./inp_files/32800.got.cif
#   From: 2010.05.17/outbox.cif.g08.bks.cpg/sg11_17_cif.got.tgz:32800.got - 2010.06.03 12:22:45.
