data_PCOD9161310
_publ_section_title
;
Structure prediction by ZEFSAII (Michael W. Deem and Ramdas Pophale) SiO2 
 PCOD9161310
Probable space group: P 21/M
;
_chemical_formula_sum "Si O2"
_cell_formula_units_Z 28
_cell_length_a 15.207625
_cell_length_b 13.714569
_cell_length_c 7.982687
_cell_angle_alpha 90.000000
_cell_angle_beta 140.316659
_cell_angle_gamma 90.000000
_cell_volume 1063.123077
_symmetry_space_group_name_H-M "P 21/M"
_symmetry_group_IT_number 11
_symmetry_cell_setting 'monoclinic'
loop_
_space_group_symop_operation_xyz
x,y,z
-x,1/2+y,-z
-x,-y,-z
x,1/2-y,z
loop_
_atom_site_type_symbol
_atom_site_label
_atom_site_fract_x
_atom_site_fract_y
_atom_site_fract_z
Si Si1 0.780083 0.861530 0.288736
Si Si2 0.396162 0.356454 0.309585
Si Si3 0.813687 0.002492 0.886865
Si Si4 0.474817 0.131506 0.903291
Si Si5 0.746790 0.366077 0.482692
Si Si6 0.005371 0.632412 0.371199
Si Si7 0.338180 0.638722 0.129242
O O1 0.809260 0.750000 0.383654
O O2 0.922956 0.899433 0.419536
O O3 0.676644 0.860339 0.976971
O O4 0.679443 0.905322 0.282799
O O5 0.363198 0.250000 0.334604
O O6 0.323414 0.437452 0.312038
O O7 0.559971 0.362428 0.559174
O O8 0.816255 0.068006 0.726560
O O9 0.790598 0.075740 0.008489
O O10 0.930074 0.926184 0.110626
O O11 0.464305 0.250000 0.878185
O O12 0.586992 0.111695 0.212571
O O13 0.559333 0.100589 0.863290
O O14 0.757905 0.250000 0.539978
O O15 0.834042 0.379946 0.437318
O O16 0.978634 0.750000 0.320475
O O17 0.300348 0.750000 0.037906
#
# Coordination Sequence:
#
# PCOD9161310 Si02
#       7
#     4   4   4   4   4   4   4
#     4   8  14  29  53  75  97 130 172 212 252 302
#     4   9  18  33  52  75 106 140 172 213 264 313
#     4  11  19  32  53  81 105 135 175 221 264 313
#     4   9  18  33  53  77 105 139 177 215 257 311
#     4  10  20  35  56  79 105 140 179 216 260 315
#     4   9  19  35  55  78 105 139 178 220 263 310
#     4  10  20  33  51  79 113 141 170 215 267 312
#
# _framework density 26.337496999999999
#
# number of rings (size 3 to 8) (size 9 to 14) (size 15 to 20)
#    0.000    2.571    0.000    3.429    0.000    3.429 
#    0.000    7.143    0.000    3.429    0.000   20.000 
#    0.000    0.000    0.000    0.000    0.000    0.000 
#
# Total GULP energy -156496.659433 kJ/mol
# GULP energy per Si atom -5589.166408 kJ/mol
# Density = 2.627755 g / cm^3
# Si number density = 26.337497 Si / 1000 Ang^3
#
#
#
# Elastic Constant Matrix: (Units=GPa)
#
#
# Indices 1 2 3 4 5 6 
#
# 1 175.9272 39.9000 28.8008 0.0000 14.0565 0.0000
# 2 39.9000 100.5132 10.3678 0.0000 3.9102 0.0000
# 3 28.8008 10.3678 71.8455 0.0000 13.8511 0.0000
# 4 0.0000 0.0000 0.0000 -46.6137 0.0000 6.2863
# 5 14.0565 3.9102 13.8511 0.0000 48.3107 0.0000
# 6 0.0000 0.0000 0.0000 6.2863 0.0000 29.6787
#
#
#
# Elastic Compliance Matrix: (Units=1/GPa)
#
#
# Indices 1 2 3 4 5 6 
#
# 1 0.006660 -0.002382 -0.002106 0.000000 -0.001141 0.000000
# 2 -0.002382 0.010960 -0.000624 0.000000 -0.000015 0.000000
# 3 -0.002106 -0.000624 0.015587 0.000000 -0.003806 0.000000
# 4 0.000000 0.000000 0.000000 -0.020857 0.000000 0.004418
# 5 -0.001141 -0.000015 -0.003806 0.000000 0.022124 0.000000
# 6 0.000000 0.000000 0.000000 0.004418 0.000000 0.032758
#
#
# Mechanical properties :
#
#
# Convention : Reuss Voigt Hill
#
# Bulk Modulus (GPa) = 43.51135 56.26921 49.89028
# Shear Modulus (GPa) = 58.74282 24.22297 41.48290
#
# Velocity S-wave (km/s) = 4.72782 3.03597 3.97300
# Velocity P-wave (km/s) = 6.80879 5.80522 6.32693
#
# Compressibility (1/GPa) = 0.02298251
#
# Stress axis : x y z
#
# Youngs Moduli (GPa) = 150.13988 91.24467 64.15717
#
# Poissons Ratio (x) = 0.21737 0.13513
# Poissons Ratio (y) = 0.35768 0.04001
# Poissons Ratio (z) = 0.31622 0.05690
#
# Static dielectric constant tensor:
#      x y z
#    x 2.103710 0.000000 -0.050220 
#    y 0.000000 2.123850 0.000000 
#    z -0.050220 0.000000 2.077410 
# 
# From -- ./inp_files/22274.got.cif
#   From: 2010.05.17/outbox.cif.g08.bks.cpg/sg11_12_cif.got.tgz:22274.got - 2010.06.03 12:22:45.
