data_PCOD9161294
_publ_section_title
;
Structure prediction by ZEFSAII (Michael W. Deem and Ramdas Pophale) SiO2 
 PCOD9161294
Probable space group: P 21/M
;
_chemical_formula_sum "Si O2"
_cell_formula_units_Z 28
_cell_length_a 18.736504
_cell_length_b 7.641186
_cell_length_c 14.364343
_cell_angle_alpha 90.000000
_cell_angle_beta 33.593966
_cell_angle_gamma 90.000000
_cell_volume 1137.886051
_symmetry_space_group_name_H-M "P 21/M"
_symmetry_group_IT_number 11
_symmetry_cell_setting 'monoclinic'
loop_
_space_group_symop_operation_xyz
x,y,z
-x,1/2+y,-z
-x,-y,-z
x,1/2-y,z
loop_
_atom_site_type_symbol
_atom_site_label
_atom_site_fract_x
_atom_site_fract_y
_atom_site_fract_z
Si Si1 0.871104 0.948836 0.723584
Si Si2 0.995810 0.554555 0.897380
Si Si3 0.504278 0.041722 0.603484
Si Si4 0.602531 0.959914 0.968463
Si Si5 0.230062 0.951206 0.969692
Si Si6 0.618282 0.462817 0.659467
Si Si7 0.109674 0.535169 0.575653
O O1 0.891493 0.750000 0.669999
O O2 0.013130 0.023355 0.596935
O O3 0.749094 0.032659 0.801224
O O4 0.806886 0.947982 0.896744
O O5 0.048029 0.750000 0.840573
O O6 0.059925 0.476134 0.733011
O O7 0.846880 0.538855 0.030899
O O8 0.000000 0.500000 0.000000
O O9 0.494806 0.250000 0.622518
O O10 0.619886 0.988538 0.548189
O O11 0.500000 0.000000 0.500000
O O12 0.377307 0.958773 0.783886
O O13 0.618066 0.750000 0.957358
O O14 0.517760 0.020589 0.148978
O O15 0.500000 0.000000 0.000000
O O16 0.190153 0.750000 0.024893
O O17 0.621175 0.250000 0.662284
O O18 0.741760 0.522688 0.584473
O O19 0.103159 0.750000 0.579912
#
# Coordination Sequence:
#
# PCOD9161294 Si02
#       7
#     4   4   4   4   4   4   4
#     4   9  17  35  58  80 108 141 181 228 282 336
#     4  10  20  33  51  76 109 145 191 241 284 336
#     4  11  22  36  54  79 113 150 193 238 287 339
#     4  10  20  36  59  85 112 145 183 229 284 345
#     4  11  21  34  53  76 106 147 193 233 281 336
#     4   9  18  35  57  80 111 146 186 233 282 341
#     4   8  16  31  54  78 102 142 185 226 279 337
#
# _framework density 24.607033999999999
#
# number of rings (size 3 to 8) (size 9 to 14) (size 15 to 20)
#    0.000    2.286    1.429    3.000    2.000    0.571 
#    0.000    0.714    0.000    5.143    0.000    0.000 
#    0.000    0.000    0.000    0.000    0.000    0.000 
#
# Total GULP energy -156096.948100 kJ/mol
# GULP energy per Si atom -5574.891004 kJ/mol
# Density = 2.455103 g / cm^3
# Si number density = 24.607034 Si / 1000 Ang^3
#
#
#
# Elastic Constant Matrix: (Units=GPa)
#
#
# Indices 1 2 3 4 5 6 
#
# 1 163.2197 -6.1537 45.2184 0.0000 -20.5144 0.0000
# 2 -6.1537 65.3574 8.6792 0.0000 8.9638 0.0000
# 3 45.2184 8.6792 81.0927 0.0000 -28.8371 0.0000
# 4 0.0000 0.0000 0.0000 14.8464 0.0000 7.3326
# 5 -20.5144 8.9638 -28.8371 0.0000 48.6721 0.0000
# 6 0.0000 0.0000 0.0000 7.3326 0.0000 27.0973
#
#
#
# Elastic Compliance Matrix: (Units=1/GPa)
#
#
# Indices 1 2 3 4 5 6 
#
# 1 0.007354 0.001164 -0.004054 0.000000 0.000484 0.000000
# 2 0.001164 0.016673 -0.004246 0.000000 -0.005095 0.000000
# 3 -0.004054 -0.004246 0.018645 0.000000 0.010120 0.000000
# 4 0.000000 0.000000 0.000000 0.077747 0.000000 -0.021039
# 5 0.000484 -0.005095 0.010120 0.000000 0.027684 0.000000
# 6 0.000000 0.000000 0.000000 -0.021039 0.000000 0.042597
#
#
# Mechanical properties :
#
#
# Convention : Reuss Voigt Hill
#
# Bulk Modulus (GPa) = 35.20796 45.01751 40.11274
# Shear Modulus (GPa) = 23.31679 35.58489 29.45084
#
# Velocity S-wave (km/s) = 3.08160 3.80692 3.46330
# Velocity P-wave (km/s) = 5.19623 6.13660 5.68589
#
# Compressibility (1/GPa) = 0.02840267
#
# Stress axis : x y z
#
# Youngs Moduli (GPa) = 135.97310 59.97815 53.63348
#
# Poissons Ratio (x) = -0.06984 0.21741
# Poissons Ratio (y) = -0.15833 0.22771
# Poissons Ratio (z) = 0.55117 0.25465
#
# Static dielectric constant tensor:
#      x y z
#    x 2.052270 0.000000 -0.012670 
#    y 0.000000 1.976180 0.000000 
#    z -0.012670 0.000000 1.997800 
# 
# From -- ./inp_files/53187.got.cif
#   From: 2010.05.17/outbox.cif.g08.bks.cpg/sg11_27_cif.got.tgz:53187.got - 2010.06.03 12:22:45.
