data_PCOD9161866
_publ_section_title
;
Structure prediction by ZEFSAII (Michael W. Deem and Ramdas Pophale) SiO2 
 PCOD9161866
Probable space group: P 21/M
;
_chemical_formula_sum "Si O2"
_cell_formula_units_Z 32
_cell_length_a 15.629173
_cell_length_b 8.359899
_cell_length_c 12.692155
_cell_angle_alpha 90.000000
_cell_angle_beta 88.248117
_cell_angle_gamma 90.000000
_cell_volume 1657.560366
_symmetry_space_group_name_H-M "P 21/M"
_symmetry_group_IT_number 11
_symmetry_cell_setting 'monoclinic'
loop_
_space_group_symop_operation_xyz
x,y,z
-x,1/2+y,-z
-x,-y,-z
x,1/2-y,z
loop_
_atom_site_type_symbol
_atom_site_label
_atom_site_fract_x
_atom_site_fract_y
_atom_site_fract_z
Si Si1 0.129085 0.943295 0.970231
Si Si2 0.027633 0.058320 0.170836
Si Si3 0.678624 0.056926 0.039349
Si Si4 0.063119 0.941657 0.405767
Si Si5 0.407538 0.441867 0.544285
Si Si6 0.257399 0.556907 0.398190
Si Si7 0.444257 0.442593 0.773740
Si Si8 0.362223 0.554724 0.195148
O O1 0.127173 0.750000 0.973807
O O2 0.101586 0.002886 0.087108
O O3 0.224753 0.995160 0.938500
O O4 0.059189 0.995830 0.886441
O O5 0.027263 0.250000 0.175576
O O6 0.036699 0.993868 0.288628
O O7 0.677211 0.250000 0.039436
O O8 0.609561 0.998267 0.124874
O O9 0.656934 0.001753 0.922222
O O10 0.063534 0.750000 0.408073
O O11 0.160806 0.999723 0.421560
O O12 0.000000 0.000000 0.500000
O O13 0.500000 0.500000 0.500000
O O14 0.407106 0.250000 0.540109
O O15 0.328715 0.505203 0.479208
O O16 0.401980 0.495381 0.665960
O O17 0.255542 0.750000 0.397465
O O18 0.292358 0.502331 0.282896
O O19 0.446394 0.250000 0.773690
O O20 0.542780 0.497611 0.775014
O O21 0.361520 0.750000 0.195422
#
# Coordination Sequence:
#
# PCOD9161866 Si02
#       8
#     4   4   4   4   4   4   4   4
#     4   9  19  36  57  84 115 151 192 236 290 349
#     4  10  20  36  60  86 115 148 192 244 292 349
#     4  10  20  34  55  81 111 148 192 231 275 342
#     4  11  24  41  62  86 119 157 196 246 302 361
#     4  11  22  38  60  85 116 152 193 243 290 344
#     4  10  21  40  64  86 111 151 196 241 296 350
#     4  10  21  36  53  77 114 150 182 231 288 333
#     4   9  17  34  57  79 109 145 184 231 283 337
#
# _framework density 19.305482000000001
#
# number of rings (size 3 to 8) (size 9 to 14) (size 15 to 20)
#    0.000    2.000    1.250    2.250    0.000    6.000 
#    0.000    4.375    0.000    0.000    0.000    0.000 
#    0.000    0.000    0.000    0.000    0.000    0.000 
#
# Total GULP energy -178682.341457 kJ/mol
# GULP energy per Si atom -5583.823171 kJ/mol
# Density = 1.926154 g / cm^3
# Si number density = 19.305482 Si / 1000 Ang^3
#
#
#
# Elastic Constant Matrix: (Units=GPa)
#
#
# Indices 1 2 3 4 5 6 
#
# 1 140.2807 19.5444 99.1603 0.0000 -18.8486 0.0000
# 2 19.5444 16.2533 20.4034 0.0000 -1.9321 0.0000
# 3 99.1603 20.4034 131.3731 0.0000 -1.5405 0.0000
# 4 0.0000 0.0000 0.0000 33.2922 0.0000 -3.8751
# 5 -18.8486 -1.9321 -1.5405 0.0000 29.1653 0.0000
# 6 0.0000 0.0000 0.0000 -3.8751 0.0000 24.3578
#
#
#
# Elastic Compliance Matrix: (Units=1/GPa)
#
#
# Indices 1 2 3 4 5 6 
#
# 1 0.018534 -0.004448 -0.013170 0.000000 0.010988 0.000000
# 2 -0.004448 0.078073 -0.008746 0.000000 0.001835 0.000000
# 3 -0.013170 -0.008746 0.018816 0.000000 -0.008097 0.000000
# 4 0.000000 0.000000 0.000000 0.030604 0.000000 0.004869
# 5 0.010988 0.001835 -0.008097 0.000000 0.041082 0.000000
# 6 0.000000 0.000000 0.000000 0.004869 0.000000 0.041829
#
#
# Mechanical properties :
#
#
# Convention : Reuss Voigt Hill
#
# Bulk Modulus (GPa) = 15.95054 62.90258 39.42656
# Shear Modulus (GPa) = 16.52544 27.28300 21.90422
#
# Velocity S-wave (km/s) = 2.92892 3.76337 3.37205
# Velocity P-wave (km/s) = 4.44052 7.17896 5.96890
#
# Compressibility (1/GPa) = 0.06269380
#
# Stress axis : x y z
#
# Youngs Moduli (GPa) = 53.95514 12.80860 53.14679
#
# Poissons Ratio (x) = 0.05698 0.69993
# Poissons Ratio (y) = 0.24001 0.46484
# Poissons Ratio (z) = 0.71057 0.11203
#
# Static dielectric constant tensor:
#      x y z
#    x 1.674120 0.000000 0.016360 
#    y 0.000000 1.670320 0.000000 
#    z 0.016360 0.000000 1.652100 
# 
# From -- ./inp_files/38144.got.cif
#   From: 2010.05.17/outbox.cif.g08.bks.cpg/sg11_20_cif.got.tgz:38144.got - 2010.06.03 12:22:45.
