data_PCOD9161662
_publ_section_title
;
Structure prediction by ZEFSAII (Michael W. Deem and Ramdas Pophale) SiO2 
 PCOD9161662
Probable space group: P 21/M
;
_chemical_formula_sum "Si O2"
_cell_formula_units_Z 28
_cell_length_a 7.583319
_cell_length_b 8.966242
_cell_length_c 26.055283
_cell_angle_alpha 90.000000
_cell_angle_beta 129.220283
_cell_angle_gamma 90.000000
_cell_volume 1372.494889
_symmetry_space_group_name_H-M "P 21/M"
_symmetry_group_IT_number 11
_symmetry_cell_setting 'monoclinic'
loop_
_space_group_symop_operation_xyz
x,y,z
-x,1/2+y,-z
-x,-y,-z
x,1/2-y,z
loop_
_atom_site_type_symbol
_atom_site_label
_atom_site_fract_x
_atom_site_fract_y
_atom_site_fract_z
Si Si1 0.319720 0.573097 0.790941
Si Si2 0.318681 0.584487 0.084008
Si Si3 0.988814 0.568506 0.176962
Si Si4 0.029622 0.570620 0.343403
Si Si5 0.615476 0.069250 0.679680
Si Si6 0.186098 0.082558 0.965262
Si Si7 0.904653 0.570031 0.430786
O O1 0.304476 0.750000 0.786417
O O2 0.569282 0.518736 0.852285
O O3 0.172295 0.503321 0.810191
O O4 0.204124 0.500823 0.720080
O O5 0.420964 0.750000 0.105381
O O6 0.054030 0.597319 0.049122
O O7 0.339461 0.517523 0.030705
O O8 0.981147 0.750000 0.176480
O O9 0.242692 0.525670 0.243130
O O10 0.891984 0.522029 0.104122
O O11 0.009217 0.750000 0.335561
O O12 0.232131 0.524282 0.341969
O O13 0.052194 0.531961 0.407315
O O14 0.609787 0.250000 0.678699
O O15 0.356038 0.019230 0.627124
O O16 0.282753 0.250000 0.977778
O O17 0.903543 0.750000 0.435276
O O18 0.000000 0.500000 0.500000
#
# Coordination Sequence:
#
# PCOD9161662 Si02
#       7
#     4   4   4   4   4   4   4
#     4  11  22  35  53  79 109 140 179 228 278 325
#     4  10  20  34  53  76 107 145 182 223 275 333
#     4   9  18  35  57  78 102 137 183 227 274 329
#     4   9  19  37  59  80 108 147 188 227 275 330
#     4   8  16  33  56  81 108 142 183 226 268 324
#     4   9  19  34  54  78 104 138 183 232 277 323
#     4  10  21  36  58  85 114 146 183 221 269 331
#
# _framework density 20.400805999999999
#
# number of rings (size 3 to 8) (size 9 to 14) (size 15 to 20)
#    0.000    2.571    0.000    2.571    2.000    2.857 
#    0.000    2.857    0.000    0.000    0.000    0.000 
#    0.000    0.000    0.000    0.000    0.000    0.000 
#
# Total GULP energy -156148.316459 kJ/mol
# GULP energy per Si atom -5576.725588 kJ/mol
# Density = 2.035437 g / cm^3
# Si number density = 20.400806 Si / 1000 Ang^3
#
#
#
# Elastic Constant Matrix: (Units=GPa)
#
#
# Indices 1 2 3 4 5 6 
#
# 1 49.6542 7.6585 35.5031 0.0000 -14.7298 0.0000
# 2 7.6585 19.4984 15.9641 0.0000 -11.6329 0.0000
# 3 35.5031 15.9641 80.4897 0.0000 -26.4526 0.0000
# 4 0.0000 0.0000 0.0000 33.3251 0.0000 -4.1931
# 5 -14.7298 -11.6329 -26.4526 0.0000 43.3292 0.0000
# 6 0.0000 0.0000 0.0000 -4.1931 0.0000 11.9559
#
#
#
# Elastic Compliance Matrix: (Units=1/GPa)
#
#
# Indices 1 2 3 4 5 6 
#
# 1 0.029653 -0.000102 -0.012204 0.000000 0.002603 0.000000
# 2 -0.000102 0.065987 -0.009047 0.000000 0.012158 0.000000
# 3 -0.012204 -0.009047 0.021817 0.000000 0.006742 0.000000
# 4 0.000000 0.000000 0.000000 0.031393 0.000000 0.011010
# 5 0.002603 0.012158 0.006742 0.000000 0.031344 0.000000
# 6 0.000000 0.000000 0.000000 0.011010 0.000000 0.087502
#
#
# Mechanical properties :
#
#
# Convention : Reuss Voigt Hill
#
# Bulk Modulus (GPa) = 13.37778 29.76596 21.57187
# Shear Modulus (GPa) = 14.91115 23.75646 19.33381
#
# Velocity S-wave (km/s) = 2.70647 3.41616 3.08181
# Velocity P-wave (km/s) = 4.04207 5.49386 4.82290
#
# Compressibility (1/GPa) = 0.07475079
#
# Stress axis : x y z
#
# Youngs Moduli (GPa) = 33.72337 15.15446 45.83601
#
# Poissons Ratio (x) = 0.00155 0.55938
# Poissons Ratio (y) = 0.00345 0.41467
# Poissons Ratio (z) = 0.41156 0.13710
#
# Static dielectric constant tensor:
#      x y z
#    x 1.776660 0.000000 0.020960 
#    y 0.000000 1.707260 0.000000 
#    z 0.020960 0.000000 1.747420 
# 
# From -- ./inp_files/72769.got.cif
#   From: 2010.05.17/outbox.cif.g08.bks.cpg/sg11_37_cif.got.tgz:72769.got - 2010.06.03 12:22:45.
