data_PCOD9161257
_publ_section_title
;
Structure prediction by ZEFSAII (Michael W. Deem and Ramdas Pophale) SiO2 
 PCOD9161257
Probable space group: P 21/M
;
_chemical_formula_sum "Si O2"
_cell_formula_units_Z 32
_cell_length_a 23.844307
_cell_length_b 9.430706
_cell_length_c 9.162758
_cell_angle_alpha 90.000000
_cell_angle_beta 126.684851
_cell_angle_gamma 90.000000
_cell_volume 1652.317691
_symmetry_space_group_name_H-M "P 21/M"
_symmetry_group_IT_number 11
_symmetry_cell_setting 'monoclinic'
loop_
_space_group_symop_operation_xyz
x,y,z
-x,1/2+y,-z
-x,-y,-z
x,1/2-y,z
loop_
_atom_site_type_symbol
_atom_site_label
_atom_site_fract_x
_atom_site_fract_y
_atom_site_fract_z
Si Si1 0.728705 0.420654 0.751097
Si Si2 0.122486 0.920491 0.863112
Si Si3 0.721609 0.423827 0.402746
Si Si4 0.602455 0.092731 0.746751
Si Si5 0.507007 0.401973 0.314090
Si Si6 0.999904 0.078304 0.844038
Si Si7 0.140771 0.579022 0.554346
Si Si8 0.571415 0.413032 0.125291
O O1 0.716165 0.250000 0.726299
O O2 0.726244 0.471064 0.579432
O O3 0.669679 0.475754 0.773021
O O4 0.804961 0.442399 0.937967
O O5 0.106825 0.750000 0.844288
O O6 0.131953 0.964317 0.708828
O O7 0.062241 0.011390 0.845677
O O8 0.720692 0.250000 0.402890
O O9 0.788835 0.471984 0.415775
O O10 0.648885 0.467096 0.212397
O O11 0.621613 0.250000 0.828181
O O12 0.545366 0.101837 0.528404
O O13 0.556012 0.013069 0.794508
O O14 0.472770 0.250000 0.234417
O O15 0.570883 0.412402 0.302272
O O16 0.005981 0.250000 0.868327
O O17 0.927279 0.046208 0.647524
O O18 0.000000 0.000000 0.000000
O O19 0.146345 0.750000 0.566986
O O20 0.562043 0.250000 0.062311
O O21 0.500000 0.500000 0.000000
#
# Coordination Sequence:
#
# PCOD9161257 Si02
#       8
#     4   4   4   4   4   4   4   4
#     4   9  16  29  53  80 106 139 185 231 267 315
#     4  10  20  35  57  87 117 144 177 223 274 327
#     4   9  16  31  53  76 103 140 182 225 270 317
#     4   9  16  28  49  73  95 127 171 215 258 311
#     4   9  17  30  45  68  99 129 162 211 271 318
#     4  11  22  38  60  87 116 148 184 223 265 318
#     4   9  19  34  56  85 114 143 181 226 271 319
#     4  10  20  33  51  72 100 136 175 220 271 322
#
# _framework density 19.366734999999998
#
# number of rings (size 3 to 8) (size 9 to 14) (size 15 to 20)
#    0.000    2.500    1.250    1.500    0.000    3.500 
#    0.000    3.750    0.000    4.500    0.000    0.000 
#    0.000    0.000    0.000    0.000    0.000    0.000 
#
# Total GULP energy -178161.280559 kJ/mol
# GULP energy per Si atom -5567.540017 kJ/mol
# Density = 1.932266 g / cm^3
# Si number density = 19.366735 Si / 1000 Ang^3
#
#
#
# Elastic Constant Matrix: (Units=GPa)
#
#
# Indices 1 2 3 4 5 6 
#
# 1 168.0241 41.0014 63.1789 0.0000 24.8584 0.0000
# 2 41.0014 37.2110 29.8852 0.0000 15.2862 0.0000
# 3 63.1789 29.8852 110.5111 0.0000 11.5823 0.0000
# 4 0.0000 0.0000 0.0000 18.5835 0.0000 0.9295
# 5 24.8584 15.2862 11.5823 0.0000 30.3919 0.0000
# 6 0.0000 0.0000 0.0000 0.9295 0.0000 25.0975
#
#
#
# Elastic Compliance Matrix: (Units=1/GPa)
#
#
# Indices 1 2 3 4 5 6 
#
# 1 0.009137 -0.006196 -0.003220 0.000000 -0.003130 0.000000
# 2 -0.006196 0.045753 -0.007239 0.000000 -0.015186 0.000000
# 3 -0.003220 -0.007239 0.012697 0.000000 0.001436 0.000000
# 4 0.000000 0.000000 0.000000 0.053911 0.000000 -0.001997
# 5 -0.003130 -0.015186 0.001436 0.000000 0.042554 0.000000
# 6 0.000000 0.000000 0.000000 -0.001997 0.000000 0.039919
#
#
# Mechanical properties :
#
#
# Convention : Reuss Voigt Hill
#
# Bulk Modulus (GPa) = 29.17422 64.87525 47.02474
# Shear Modulus (GPa) = 20.10391 26.92662 23.51527
#
# Velocity S-wave (km/s) = 3.22540 3.73279 3.48833
# Velocity P-wave (km/s) = 5.38216 7.22145 6.36856
#
# Compressibility (1/GPa) = 0.03427684
#
# Stress axis : x y z
#
# Youngs Moduli (GPa) = 109.44016 21.85640 78.75904
#
# Poissons Ratio (x) = 0.13543 0.25362
# Poissons Ratio (y) = 0.67811 0.57014
# Poissons Ratio (z) = 0.35242 0.15822
#
# Static dielectric constant tensor:
#      x y z
#    x 1.709130 0.000000 -0.046830 
#    y 0.000000 1.727670 0.000000 
#    z -0.046830 0.000000 1.739770 
# 
# From -- ./inp_files/26638.got.cif
#   From: 2010.05.17/outbox.cif.g08.bks.cpg/sg11_14_cif.got.tgz:26638.got - 2010.06.03 12:22:45.
