data_PCOD9161995
_publ_section_title
;
Structure prediction by ZEFSAII (Michael W. Deem and Ramdas Pophale) SiO2 
 PCOD9161995
Probable space group: P 21/M
;
_chemical_formula_sum "Si O2"
_cell_formula_units_Z 32
_cell_length_a 12.859496
_cell_length_b 9.308644
_cell_length_c 13.093783
_cell_angle_alpha 90.000000
_cell_angle_beta 90.511830
_cell_angle_gamma 90.000000
_cell_volume 1567.321819
_symmetry_space_group_name_H-M "P 21/M"
_symmetry_group_IT_number 11
_symmetry_cell_setting 'monoclinic'
loop_
_space_group_symop_operation_xyz
x,y,z
-x,1/2+y,-z
-x,-y,-z
x,1/2-y,z
loop_
_atom_site_type_symbol
_atom_site_label
_atom_site_fract_x
_atom_site_fract_y
_atom_site_fract_z
Si Si1 0.165781 0.917036 0.822641
Si Si2 0.508881 0.916405 0.656014
Si Si3 0.900468 0.421570 0.549042
Si Si4 0.821272 0.923819 0.962380
Si Si5 0.933687 0.582832 0.753783
Si Si6 0.600201 0.906676 0.985619
Si Si7 0.665631 0.417342 0.523016
Si Si8 0.358149 0.090895 0.776802
O O1 0.193353 0.750000 0.839432
O O2 0.058311 0.924291 0.761079
O O3 0.256662 0.994276 0.759910
O O4 0.151233 0.993006 0.933250
O O5 0.522804 0.750000 0.681850
O O6 0.413830 0.927794 0.572930
O O7 0.612188 0.982641 0.607591
O O8 0.463712 0.011654 0.746609
O O9 0.916133 0.250000 0.543798
O O10 0.894508 0.478919 0.665130
O O11 0.785766 0.454037 0.501548
O O12 0.000000 0.500000 0.500000
O O13 0.824707 0.750000 0.979609
O O14 0.892719 0.955690 0.866178
O O15 0.702400 0.962969 0.930140
O O16 0.904155 0.750000 0.733295
O O17 0.572275 0.750000 0.944185
O O18 0.641297 0.892828 0.101625
O O19 0.500000 0.000000 0.000000
O O20 0.664107 0.250000 0.556159
O O21 0.352230 0.250000 0.729473
#
# Coordination Sequence:
#
# PCOD9161995 Si02
#       8
#     4   4   4   4   4   4   4   4
#     4  10  20  34  56  86 117 149 191 243 290 341
#     4  10  20  36  62  90 113 146 191 239 293 348
#     4  11  25  43  62  86 119 158 200 246 295 352
#     4   9  19  37  57  80 113 150 188 235 289 346
#     4  10  22  39  59  84 115 152 193 240 293 347
#     4   9  19  34  52  76 109 146 182 224 274 331
#     4   9  21  41  60  83 117 149 186 242 296 343
#     4  10  21  36  54  81 116 150 188 233 285 344
#
# _framework density 20.416993000000002
#
# number of rings (size 3 to 8) (size 9 to 14) (size 15 to 20)
#    0.000    2.250    0.000    2.625    1.750    6.500 
#    0.000    2.500    0.000    0.000    0.000    0.000 
#    0.000    0.000    0.000    0.000    0.000    0.000 
#
# Total GULP energy -178494.064165 kJ/mol
# GULP energy per Si atom -5577.939505 kJ/mol
# Density = 2.037052 g / cm^3
# Si number density = 20.416993 Si / 1000 Ang^3
#
#
#
# Elastic Constant Matrix: (Units=GPa)
#
#
# Indices 1 2 3 4 5 6 
#
# 1 112.7054 43.9591 4.9180 0.0000 -11.0647 0.0000
# 2 43.9591 80.7044 19.3124 0.0000 -7.3307 0.0000
# 3 4.9180 19.3124 38.5118 0.0000 -10.4350 0.0000
# 4 0.0000 0.0000 0.0000 28.0523 0.0000 -5.6336
# 5 -11.0647 -7.3307 -10.4350 0.0000 28.1297 0.0000
# 6 0.0000 0.0000 0.0000 -5.6336 0.0000 33.1586
#
#
#
# Elastic Compliance Matrix: (Units=1/GPa)
#
#
# Indices 1 2 3 4 5 6 
#
# 1 0.011769 -0.006759 0.002961 0.000000 0.003966 0.000000
# 2 -0.006759 0.017997 -0.008462 0.000000 -0.001107 0.000000
# 3 0.002961 -0.008462 0.032851 0.000000 0.011146 0.000000
# 4 0.000000 0.000000 0.000000 0.036907 0.000000 0.006270
# 5 0.003966 -0.001107 0.011146 0.000000 0.040956 0.000000
# 6 0.000000 0.000000 0.000000 0.006270 0.000000 0.031223
#
#
# Mechanical properties :
#
#
# Convention : Reuss Voigt Hill
#
# Bulk Modulus (GPa) = 26.24801 40.92228 33.58515
# Shear Modulus (GPa) = 23.93248 28.78361 26.35804
#
# Velocity S-wave (km/s) = 3.42743 3.75879 3.59693
# Velocity P-wave (km/s) = 5.34293 6.23897 5.80825
#
# Compressibility (1/GPa) = 0.03809812
#
# Stress axis : x y z
#
# Youngs Moduli (GPa) = 84.96869 55.56603 30.44030
#
# Poissons Ratio (x) = 0.37556 -0.09014
# Poissons Ratio (y) = 0.57429 0.25757
# Poissons Ratio (z) = -0.25160 0.47018
#
# Static dielectric constant tensor:
#      x y z
#    x 1.748840 0.000000 0.008200 
#    y 0.000000 1.723800 0.000000 
#    z 0.008200 0.000000 1.752580 
# 
# From -- ./inp_files/45233.got.cif
#   From: 2010.05.17/outbox.cif.g08.bks.cpg/sg11_23_cif.got.tgz:45233.got - 2010.06.03 12:22:45.
