data_PCOD9161203
_publ_section_title
;
Structure prediction by ZEFSAII (Michael W. Deem and Ramdas Pophale) SiO2 
 PCOD9161203
Probable space group: P 21/M
;
_chemical_formula_sum "Si O2"
_cell_formula_units_Z 32
_cell_length_a 21.930258
_cell_length_b 8.733416
_cell_length_c 22.038313
_cell_angle_alpha 90.000000
_cell_angle_beta 25.876517
_cell_angle_gamma 90.000000
_cell_volume 1842.145287
_symmetry_space_group_name_H-M "P 21/M"
_symmetry_group_IT_number 11
_symmetry_cell_setting 'monoclinic'
loop_
_space_group_symop_operation_xyz
x,y,z
-x,1/2+y,-z
-x,-y,-z
x,1/2-y,z
loop_
_atom_site_type_symbol
_atom_site_label
_atom_site_fract_x
_atom_site_fract_y
_atom_site_fract_z
Si Si1 0.245116 0.567180 0.552579
Si Si2 0.929942 0.566854 0.622830
Si Si3 0.386738 0.065120 0.676349
Si Si4 0.434732 0.433046 0.765073
Si Si5 0.627170 0.434456 0.924648
Si Si6 0.306282 0.431250 0.621421
Si Si7 0.008276 0.066347 0.678968
Si Si8 0.303182 0.566638 0.003737
O O1 0.234388 0.750000 0.557538
O O2 0.403200 0.522052 0.391250
O O3 0.226017 0.517724 0.639839
O O4 0.133379 0.488122 0.609351
O O5 0.926760 0.750000 0.623693
O O6 0.773476 0.500757 0.769600
O O7 0.011207 0.510172 0.610139
O O8 0.000000 0.500000 0.500000
O O9 0.413967 0.250000 0.649217
O O10 0.351034 0.027834 0.777912
O O11 0.283348 0.029660 0.713097
O O12 0.531590 0.977301 0.534220
O O13 0.432815 0.250000 0.772452
O O14 0.371262 0.501994 0.882388
O O15 0.630684 0.250000 0.917890
O O16 0.500000 0.500000 0.000000
O O17 0.619742 0.478458 0.002627
O O18 0.287690 0.250000 0.630152
O O19 0.009440 0.250000 0.670888
O O20 0.859016 0.021680 0.842273
O O21 0.307291 0.750000 0.996745
#
# Coordination Sequence:
#
# PCOD9161203 Si02
#       8
#     4   4   4   4   4   4   4   4
#     4  10  20  33  49  75 106 134 170 214 256 303
#     4  11  22  38  59  82 107 138 174 214 260 310
#     4   8  15  27  42  66  99 130 164 208 255 303
#     4   9  18  31  49  74 103 132 166 208 251 300
#     4  10  21  38  57  80 108 138 174 216 261 310
#     4   9  15  25  44  68  96 131 166 206 257 304
#     4  10  21  38  56  76 103 136 173 212 256 307
#     4   9  20  36  53  74 102 133 167 207 251 302
#
# _framework density 17.37105
#
# number of rings (size 3 to 8) (size 9 to 14) (size 15 to 20)
#    0.000    2.500    0.000    4.125    0.000    7.000 
#    0.000    2.500    0.000    0.750    0.000    0.000 
#    0.000    0.000    0.000    0.000    0.000    0.000 
#
# Total GULP energy -178348.926339 kJ/mol
# GULP energy per Si atom -5573.403948 kJ/mol
# Density = 1.733151 g / cm^3
# Si number density = 17.371050 Si / 1000 Ang^3
#
#
#
# Elastic Constant Matrix: (Units=GPa)
#
#
# Indices 1 2 3 4 5 6 
#
# 1 172.0906 53.5677 80.0849 0.0000 23.4640 0.0000
# 2 53.5677 62.1355 29.9079 0.0000 7.6215 0.0000
# 3 80.0849 29.9079 64.9131 0.0000 25.8957 0.0000
# 4 0.0000 0.0000 0.0000 27.4480 0.0000 2.5407
# 5 23.4640 7.6215 25.8957 0.0000 25.5116 0.0000
# 6 0.0000 0.0000 0.0000 2.5407 0.0000 34.4897
#
#
#
# Elastic Compliance Matrix: (Units=1/GPa)
#
#
# Indices 1 2 3 4 5 6 
#
# 1 0.015569 -0.004711 -0.019975 0.000000 0.007364 0.000000
# 2 -0.004711 0.022642 -0.006134 0.000000 0.003795 0.000000
# 3 -0.019975 -0.006134 0.058506 0.000000 -0.039183 0.000000
# 4 0.000000 0.000000 0.000000 0.036683 0.000000 -0.002702
# 5 0.007364 0.003795 -0.039183 0.000000 0.071064 0.000000
# 6 0.000000 0.000000 0.000000 -0.002702 0.000000 0.029193
#
#
# Mechanical properties :
#
#
# Convention : Reuss Voigt Hill
#
# Bulk Modulus (GPa) = 28.50831 69.58449 49.04640
# Shear Modulus (GPa) = 16.28720 26.52842 21.40781
#
# Velocity S-wave (km/s) = 3.06536 3.91213 3.51434
# Velocity P-wave (km/s) = 5.38290 7.78146 6.69054
#
# Compressibility (1/GPa) = 0.03507749
#
# Stress axis : x y z
#
# Youngs Moduli (GPa) = 64.23115 44.16536 17.09223
#
# Poissons Ratio (x) = 0.20805 0.34141
# Poissons Ratio (y) = 0.30258 0.10485
# Poissons Ratio (z) = 1.28300 0.27092
#
# Static dielectric constant tensor:
#      x y z
#    x 1.614970 0.000000 0.015760 
#    y 0.000000 1.579230 0.000000 
#    z 0.015760 0.000000 1.576390 
# 
# From -- ./inp_files/66397.got.cif
#   From: 2010.05.17/outbox.cif.g08.bks.cpg/sg11_34_cif.got.tgz:66397.got - 2010.06.03 12:22:45.
