data_PCOD9161819
_publ_section_title
;
Structure prediction by ZEFSAII (Michael W. Deem and Ramdas Pophale) SiO2 
 PCOD9161819
Probable space group: P 21/M
;
_chemical_formula_sum "Si O2"
_cell_formula_units_Z 32
_cell_length_a 5.367186
_cell_length_b 15.368904
_cell_length_c 18.156574
_cell_angle_alpha 90.000000
_cell_angle_beta 68.572832
_cell_angle_gamma 90.000000
_cell_volume 1394.178579
_symmetry_space_group_name_H-M "P 21/M"
_symmetry_group_IT_number 11
_symmetry_cell_setting 'monoclinic'
loop_
_space_group_symop_operation_xyz
x,y,z
-x,1/2+y,-z
-x,-y,-z
x,1/2-y,z
loop_
_atom_site_type_symbol
_atom_site_label
_atom_site_fract_x
_atom_site_fract_y
_atom_site_fract_z
Si Si1 0.289263 0.340742 0.698202
Si Si2 0.560345 0.850331 0.995812
Si Si3 0.734448 0.601033 0.531868
Si Si4 0.232235 0.575237 0.398213
Si Si5 0.172041 0.991609 0.086553
Si Si6 0.126018 0.651689 0.625109
Si Si7 0.881677 0.001153 0.739604
Si Si8 0.251747 0.156371 0.864840
O O1 0.145180 0.250000 0.699280
O O2 0.546620 0.351895 0.620359
O O3 0.090991 0.420290 0.717697
O O4 0.392484 0.338229 0.771582
O O5 0.540706 0.750000 0.968872
O O6 0.335960 0.926261 0.013349
O O7 0.568730 0.841366 0.082917
O O8 0.816281 0.908627 0.943082
O O9 0.713997 0.497241 0.546107
O O10 0.435845 0.637580 0.568001
O O11 0.931107 0.610085 0.440558
O O12 0.922075 0.635950 0.578748
O O13 0.284613 0.523926 0.315995
O O14 0.250885 0.000571 0.165290
O O15 0.902709 0.934894 0.117721
O O16 0.095415 0.750000 0.653817
O O17 0.040593 0.585721 0.699134
O O18 0.088606 0.250000 0.886842
#
# Coordination Sequence:
#
# PCOD9161819 Si02
#       8
#     4   4   4   4   4   4   4   4
#     4  10  20  34  54  83 114 150 196 250 310 373
#     4  10  20  34  56  83 114 151 196 243 296 358
#     4  10  23  39  65  89 120 164 212 260 311 372
#     4  10  21  37  59  82 119 153 203 250 316 363
#     4  10  20  35  56  84 114 153 194 242 301 357
#     4  11  23  42  64  91 125 169 214 258 313 374
#     4  10  22  38  58  85 119 158 196 255 310 374
#     4   9  18  33  54  79 112 149 189 239 299 359
#
# _framework density 22.952584000000002
#
# number of rings (size 3 to 8) (size 9 to 14) (size 15 to 20)
#    0.000    2.000    1.250    1.875    1.750    4.000 
#    0.000    0.000    0.000    0.000    0.000    0.000 
#    0.000    0.000    0.000    0.000    0.000    0.000 
#
# Total GULP energy -178199.851042 kJ/mol
# GULP energy per Si atom -5568.745345 kJ/mol
# Density = 2.290034 g / cm^3
# Si number density = 22.952584 Si / 1000 Ang^3
#
#
#
# Elastic Constant Matrix: (Units=GPa)
#
#
# Indices 1 2 3 4 5 6 
#
# 1 56.7327 19.0831 6.8045 0.0000 -6.7910 0.0000
# 2 19.0831 198.1325 34.6366 0.0000 -21.3636 0.0000
# 3 6.8045 34.6366 58.9157 0.0000 0.4063 0.0000
# 4 0.0000 0.0000 0.0000 1262.3920 0.0000 -453.1857
# 5 -6.7910 -21.3636 0.4063 0.0000 28.8569 0.0000
# 6 0.0000 0.0000 0.0000 -453.1857 0.0000 182.0832
#
#
#
# Elastic Compliance Matrix: (Units=1/GPa)
#
#
# Indices 1 2 3 4 5 6 
#
# 1 0.018618 -0.001148 -0.001500 0.000000 0.003553 0.000000
# 2 -0.001148 0.006259 -0.003578 0.000000 0.004414 0.000000
# 3 -0.001500 -0.003578 0.019272 0.000000 -0.003273 0.000000
# 4 0.000000 0.000000 0.000000 0.007437 0.000000 0.018510
# 5 0.003553 0.004414 -0.003273 0.000000 0.038804 0.000000
# 6 0.000000 0.000000 0.000000 0.018510 0.000000 0.051562
#
#
# Mechanical properties :
#
#
# Convention : Reuss Voigt Hill
#
# Bulk Modulus (GPa) = 31.54718 48.31435 39.93077
# Shear Modulus (GPa) = 30.30878 311.55020 170.92949
#
# Velocity S-wave (km/s) = 3.63780 11.66324 8.63900
# Velocity P-wave (km/s) = 5.60528 14.22920 10.81410
#
# Compressibility (1/GPa) = 0.03169855
#
# Stress axis : x y z
#
# Youngs Moduli (GPa) = 53.71207 159.76909 51.88751
#
# Poissons Ratio (x) = 0.18340 0.07783
# Poissons Ratio (y) = 0.06166 0.18563
# Poissons Ratio (z) = 0.08056 0.57158
#
# Static dielectric constant tensor:
#      x y z
#    x 1.938130 0.000000 0.005270 
#    y 0.000000 1.929620 0.000000 
#    z 0.005270 0.000000 1.929980 
# 
# From -- ./inp_files/62841.got.cif
#   From: 2010.05.17/outbox.cif.g08.bks.cpg/sg11_32_cif.got.tgz:62841.got - 2010.06.03 12:22:45.
