data_PCOD9161337
_publ_section_title
;
Structure prediction by ZEFSAII (Michael W. Deem and Ramdas Pophale) SiO2 
 PCOD9161337
Probable space group: P 21/M
;
_chemical_formula_sum "Si O2"
_cell_formula_units_Z 28
_cell_length_a 20.941838
_cell_length_b 7.686494
_cell_length_c 24.113532
_cell_angle_alpha 90.000000
_cell_angle_beta 160.804986
_cell_angle_gamma 90.000000
_cell_volume 1276.189607
_symmetry_space_group_name_H-M "P 21/M"
_symmetry_group_IT_number 11
_symmetry_cell_setting 'monoclinic'
loop_
_space_group_symop_operation_xyz
x,y,z
-x,1/2+y,-z
-x,-y,-z
x,1/2-y,z
loop_
_atom_site_type_symbol
_atom_site_label
_atom_site_fract_x
_atom_site_fract_y
_atom_site_fract_z
Si Si1 0.904746 0.959246 0.480531
Si Si2 0.890948 0.036636 0.240473
Si Si3 0.189840 0.458447 0.120603
Si Si4 0.254860 0.037785 0.465727
Si Si5 0.531659 0.048842 0.881127
Si Si6 0.356455 0.046658 0.146483
Si Si7 0.566806 0.942098 0.494558
O O1 0.894861 0.750000 0.479298
O O2 0.683696 0.028578 0.300859
O O3 0.034313 0.022564 0.638280
O O4 0.000000 0.000000 0.500000
O O5 0.885165 0.250000 0.235684
O O6 0.055292 0.986043 0.330728
O O7 0.681525 0.972541 0.048464
O O8 0.224284 0.250000 0.150784
O O9 0.197775 0.510208 0.062282
O O10 0.368632 0.552629 0.296744
O O11 0.000000 0.500000 0.000000
O O12 0.263180 0.250000 0.471595
O O13 0.285780 0.970071 0.428168
O O14 0.436024 0.979029 0.652326
O O15 0.502784 0.250000 0.873319
O O16 0.632292 0.044459 0.903316
O O17 0.328127 0.250000 0.112232
O O18 0.645268 0.750000 0.567895
O O19 0.500000 0.000000 0.500000
#
# Coordination Sequence:
#
# PCOD9161337 Si02
#       7
#     4   4   4   4   4   4   4
#     4  10  21  38  59  84 116 151 187 231 282 337
#     4   9  18  35  59  85 110 142 191 236 270 329
#     4  10  21  36  53  76 108 147 190 237 290 346
#     4   9  17  34  57  78 104 146 192 230 278 343
#     4  10  20  36  60  85 111 150 193 230 276 338
#     4  10  20  34  54  81 112 144 183 237 291 336
#     4  10  20  33  52  77 109 148 189 236 287 343
#
# _framework density 21.940311999999999
#
# number of rings (size 3 to 8) (size 9 to 14) (size 15 to 20)
#    0.000    2.286    1.429    1.286    0.000    4.571 
#    0.000    2.857    0.000    0.000    0.000    0.000 
#    0.000    0.000    0.000    0.000    0.000    0.000 
#
# Total GULP energy -156207.326609 kJ/mol
# GULP energy per Si atom -5578.833093 kJ/mol
# Density = 2.189038 g / cm^3
# Si number density = 21.940312 Si / 1000 Ang^3
#
#
#
# Elastic Constant Matrix: (Units=GPa)
#
#
# Indices 1 2 3 4 5 6 
#
# 1 156.1648 -0.9271 67.1354 0.0000 -15.4229 0.0000
# 2 -0.9271 41.7489 -0.6063 0.0000 -1.9599 0.0000
# 3 67.1354 -0.6063 106.2932 0.0000 -17.7740 0.0000
# 4 0.0000 0.0000 0.0000 5.3595 0.0000 -1.1057
# 5 -15.4229 -1.9599 -17.7740 0.0000 26.9215 0.0000
# 6 0.0000 0.0000 0.0000 -1.1057 0.0000 26.6205
#
#
#
# Elastic Compliance Matrix: (Units=1/GPa)
#
#
# Indices 1 2 3 4 5 6 
#
# 1 0.008849 0.000193 -0.005326 0.000000 0.001567 0.000000
# 2 0.000193 0.024061 0.000367 0.000000 0.002105 0.000000
# 3 -0.005326 0.000367 0.013791 0.000000 0.006080 0.000000
# 4 0.000000 0.000000 0.000000 0.188198 0.000000 0.007817
# 5 0.001567 0.002105 0.006080 0.000000 0.042210 0.000000
# 6 0.000000 0.000000 0.000000 0.007817 0.000000 0.037890
#
#
# Mechanical properties :
#
#
# Convention : Reuss Voigt Hill
#
# Bulk Modulus (GPa) = 26.90388 48.37900 37.64144
# Shear Modulus (GPa) = 14.84032 27.68729 21.26381
#
# Velocity S-wave (km/s) = 2.60358 3.55623 3.11652
# Velocity P-wave (km/s) = 4.61813 6.24183 5.49034
#
# Compressibility (1/GPa) = 0.03716936
#
# Stress axis : x y z
#
# Youngs Moduli (GPa) = 113.00662 41.56076 72.51279
#
# Poissons Ratio (x) = -0.00801 0.38620
# Poissons Ratio (y) = -0.02178 -0.02665
# Poissons Ratio (z) = 0.60187 -0.01527
#
# Static dielectric constant tensor:
#      x y z
#    x 1.821910 0.000000 0.005220 
#    y 0.000000 1.638640 0.000000 
#    z 0.005220 0.000000 1.804500 
# 
# From -- ./inp_files/29116.got.cif
#   From: 2010.05.17/outbox.cif.g08.bks.cpg/sg11_15_cif.got.tgz:29116.got - 2010.06.03 12:22:45.
