data_PCOD9161045
_publ_section_title
;
Structure prediction by ZEFSAII (Michael W. Deem and Ramdas Pophale) SiO2 
 PCOD9161045
Probable space group: P 21/M
;
_chemical_formula_sum "Si O2"
_cell_formula_units_Z 32
_cell_length_a 18.437394
_cell_length_b 8.626823
_cell_length_c 26.852690
_cell_angle_alpha 90.000000
_cell_angle_beta 25.350706
_cell_angle_gamma 90.000000
_cell_volume 1828.698376
_symmetry_space_group_name_H-M "P 21/M"
_symmetry_group_IT_number 11
_symmetry_cell_setting 'monoclinic'
loop_
_space_group_symop_operation_xyz
x,y,z
-x,1/2+y,-z
-x,-y,-z
x,1/2-y,z
loop_
_atom_site_type_symbol
_atom_site_label
_atom_site_fract_x
_atom_site_fract_y
_atom_site_fract_z
Si Si1 0.416391 0.061283 0.735809
Si Si2 0.085143 0.936582 0.237976
Si Si3 0.797201 0.436304 0.481992
Si Si4 0.048185 0.436069 0.416484
Si Si5 0.757900 0.564747 0.052316
Si Si6 0.316985 0.564880 0.007611
Si Si7 0.076797 0.064102 0.900815
Si Si8 0.336187 0.564791 0.171434
O O1 0.421101 0.250000 0.734506
O O2 0.604698 0.006367 0.606336
O O3 0.348603 0.011543 0.832642
O O4 0.274199 0.019096 0.782979
O O5 0.076796 0.750000 0.244233
O O6 0.154253 0.985208 0.141263
O O7 0.228131 0.983410 0.189942
O O8 0.907428 0.001209 0.367662
O O9 0.793519 0.250000 0.480938
O O10 0.902488 0.476230 0.466601
O O11 0.066488 0.250000 0.406057
O O12 0.219563 0.513556 0.290094
O O13 0.000000 0.500000 0.500000
O O14 0.760593 0.750000 0.052011
O O15 0.681411 0.507919 0.048034
O O16 0.950360 0.503093 0.938255
O O17 0.313750 0.750000 0.005086
O O18 0.483558 0.515284 0.934530
O O19 0.066651 0.250000 0.906186
O O20 0.000000 0.000000 0.000000
O O21 0.356908 0.750000 0.157710
#
# Coordination Sequence:
#
# PCOD9161045 Si02
#       8
#     4   4   4   4   4   4   4   4
#     4   8  16  31  52  77 103 132 164 204 251 302
#     4   9  20  37  53  72 101 134 170 216 262 302
#     4   9  18  33  53  74  97 131 173 210 249 303
#     4  10  20  32  48  71 103 139 172 210 255 303
#     4  10  20  33  51  77 108 137 168 206 258 312
#     4  11  22  35  52  76 104 132 170 217 262 307
#     4   9  16  30  51  74 105 138 168 205 254 308
#     4  10  20  35  53  72  97 134 176 215 259 306
#
# _framework density 17.498785000000002
#
# number of rings (size 3 to 8) (size 9 to 14) (size 15 to 20)
#    0.000    2.500    0.000    3.000    1.750    2.000 
#    0.000    3.750    0.000    0.750    0.000    0.000 
#    0.000    0.000    0.000    0.000    0.000    0.000 
#
# Total GULP energy -178400.083534 kJ/mol
# GULP energy per Si atom -5575.002610 kJ/mol
# Density = 1.745896 g / cm^3
# Si number density = 17.498785 Si / 1000 Ang^3
#
#
#
# Elastic Constant Matrix: (Units=GPa)
#
#
# Indices 1 2 3 4 5 6 
#
# 1 31.1075 10.0317 33.8298 0.0000 -5.7691 0.0000
# 2 10.0317 28.4342 16.4790 0.0000 -4.0084 0.0000
# 3 33.8298 16.4790 127.0165 0.0000 -13.2428 0.0000
# 4 0.0000 0.0000 0.0000 25.4679 0.0000 -2.2054
# 5 -5.7691 -4.0084 -13.2428 0.0000 23.7468 0.0000
# 6 0.0000 0.0000 0.0000 -2.2054 0.0000 23.2653
#
#
#
# Elastic Compliance Matrix: (Units=1/GPa)
#
#
# Indices 1 2 3 4 5 6 
#
# 1 0.048197 -0.010011 -0.011141 0.000000 0.003806 0.000000
# 2 -0.010011 0.040450 -0.002254 0.000000 0.003139 0.000000
# 3 -0.011141 -0.002254 0.011478 0.000000 0.003314 0.000000
# 4 0.000000 0.000000 0.000000 0.039590 0.000000 0.003753
# 5 0.003806 0.003139 0.003314 0.000000 0.045413 0.000000
# 6 0.000000 0.000000 0.000000 0.003753 0.000000 0.043338
#
#
# Mechanical properties :
#
#
# Convention : Reuss Voigt Hill
#
# Bulk Modulus (GPa) = 18.75736 34.13770 26.44753
# Shear Modulus (GPa) = 17.06192 22.91052 19.98622
#
# Velocity S-wave (km/s) = 3.12594 3.62230 3.38324
# Velocity P-wave (km/s) = 4.87557 6.08652 5.51439
#
# Compressibility (1/GPa) = 0.05331242
#
# Stress axis : x y z
#
# Youngs Moduli (GPa) = 20.74816 24.72208 87.12019
#
# Poissons Ratio (x) = 0.24748 0.97063
# Poissons Ratio (y) = 0.20770 0.19641
# Poissons Ratio (z) = 0.23116 0.05573
#
# Static dielectric constant tensor:
#      x y z
#    x 1.589650 0.000000 -0.007280 
#    y 0.000000 1.588970 0.000000 
#    z -0.007280 0.000000 1.617020 
# 
# From -- ./inp_files/69464.got.cif
#   From: 2010.05.17/outbox.cif.g08.bks.cpg/sg11_35_cif.got.tgz:69464.got - 2010.06.03 12:22:45.
