data_PCOD9161415
_publ_section_title
;
Structure prediction by ZEFSAII (Michael W. Deem and Ramdas Pophale) SiO2 
 PCOD9161415
Probable space group: P 21/M
;
_chemical_formula_sum "Si O2"
_cell_formula_units_Z 28
_cell_length_a 15.803267
_cell_length_b 9.571182
_cell_length_c 12.598062
_cell_angle_alpha 90.000000
_cell_angle_beta 127.372784
_cell_angle_gamma 90.000000
_cell_volume 1514.331889
_symmetry_space_group_name_H-M "P 21/M"
_symmetry_group_IT_number 11
_symmetry_cell_setting 'monoclinic'
loop_
_space_group_symop_operation_xyz
x,y,z
-x,1/2+y,-z
-x,-y,-z
x,1/2-y,z
loop_
_atom_site_type_symbol
_atom_site_label
_atom_site_fract_x
_atom_site_fract_y
_atom_site_fract_z
Si Si1 0.652799 0.584933 0.595083
Si Si2 0.128765 0.404359 0.340946
Si Si3 0.436497 0.082160 0.042352
Si Si4 0.805175 0.586917 0.088511
Si Si5 0.493882 0.083070 0.326627
Si Si6 0.008113 0.912090 0.399885
Si Si7 0.065247 0.592618 0.965984
O O1 0.631981 0.750000 0.562933
O O2 0.776567 0.561173 0.667643
O O3 0.610206 0.551803 0.680210
O O4 0.587074 0.497461 0.458709
O O5 0.151431 0.250000 0.405726
O O6 0.106190 0.523105 0.408755
O O7 0.020259 0.392822 0.193402
O O8 0.448380 0.250000 0.036859
O O9 0.479172 0.045216 0.192768
O O10 0.309667 0.051587 0.949695
O O11 0.500000 0.000000 0.000000
O O12 0.800706 0.750000 0.050470
O O13 0.899658 0.575800 0.247504
O O14 0.837338 0.490579 0.013281
O O15 0.511568 0.250000 0.344553
O O16 0.024915 0.750000 0.435259
O O17 0.000000 0.000000 0.500000
O O18 0.091450 0.750000 0.024307
O O19 0.000000 0.500000 0.000000
#
# Coordination Sequence:
#
# PCOD9161415 Si02
#       7
#     4   4   4   4   4   4   4
#     4   9  18  34  56  80 107 141 181 226 276 330
#     4   9  19  34  53  77 105 140 178 216 263 324
#     4  10  22  39  59  80 109 148 190 234 280 333
#     4   9  20  38  57  77 106 144 183 225 270 322
#     4   9  19  35  55  79 107 142 182 228 281 328
#     4  10  20  35  55  79 108 142 179 221 268 321
#     4  10  20  33  53  81 111 142 175 215 265 325
#
# _framework density 18.490000999999999
#
# number of rings (size 3 to 8) (size 9 to 14) (size 15 to 20)
#    0.000    2.571    0.000    0.857    2.000    4.000 
#    0.000    4.286    0.000    0.000    0.000    0.000 
#    0.000    0.000    0.000    0.000    0.000    0.000 
#
# Total GULP energy -156054.776008 kJ/mol
# GULP energy per Si atom -5573.384857 kJ/mol
# Density = 1.844792 g / cm^3
# Si number density = 18.490001 Si / 1000 Ang^3
#
#
#
# Elastic Constant Matrix: (Units=GPa)
#
#
# Indices 1 2 3 4 5 6 
#
# 1 145.1382 70.2819 35.8704 0.0000 -11.2719 0.0000
# 2 70.2819 98.1033 34.8224 0.0000 -21.3947 0.0000
# 3 35.8704 34.8224 43.4397 0.0000 -16.4029 0.0000
# 4 0.0000 0.0000 0.0000 25.7506 0.0000 -6.7244
# 5 -11.2719 -21.3947 -16.4029 0.0000 29.6819 0.0000
# 6 0.0000 0.0000 0.0000 -6.7244 0.0000 35.9588
#
#
#
# Elastic Compliance Matrix: (Units=1/GPa)
#
#
# Indices 1 2 3 4 5 6 
#
# 1 0.011277 -0.007093 -0.004978 0.000000 -0.003581 0.000000
# 2 -0.007093 0.019321 -0.006811 0.000000 0.007469 0.000000
# 3 -0.004978 -0.006811 0.037941 0.000000 0.014167 0.000000
# 4 0.000000 0.000000 0.000000 0.040828 0.000000 0.007635
# 5 -0.003581 0.007469 0.014167 0.000000 0.045543 0.000000
# 6 0.000000 0.000000 0.000000 0.007635 0.000000 0.029237
#
#
# Mechanical properties :
#
#
# Convention : Reuss Voigt Hill
#
# Bulk Modulus (GPa) = 32.49472 63.18116 47.83794
# Shear Modulus (GPa) = 21.53595 27.99202 24.76399
#
# Velocity S-wave (km/s) = 3.41652 3.89511 3.66364
# Velocity P-wave (km/s) = 5.75985 7.38064 6.62003
#
# Compressibility (1/GPa) = 0.03077423
#
# Stress axis : x y z
#
# Youngs Moduli (GPa) = 88.67753 51.75681 26.35682
#
# Poissons Ratio (x) = 0.36709 0.13122
# Poissons Ratio (y) = 0.62896 0.17952
# Poissons Ratio (z) = 0.44148 0.35253
#
# Static dielectric constant tensor:
#      x y z
#    x 1.649150 0.000000 0.003920 
#    y 0.000000 1.648430 0.000000 
#    z 0.003920 0.000000 1.634600 
# 
# From -- ./inp_files/37836.got.cif
#   From: 2010.05.17/outbox.cif.g08.bks.cpg/sg11_19_cif.got.tgz:37836.got - 2010.06.03 12:22:45.
