data_PCOD9161332
_publ_section_title
;
Structure prediction by ZEFSAII (Michael W. Deem and Ramdas Pophale) SiO2 
 PCOD9161332
Probable space group: P 21/M
;
_chemical_formula_sum "Si O2"
_cell_formula_units_Z 32
_cell_length_a 15.312015
_cell_length_b 8.676833
_cell_length_c 23.771410
_cell_angle_alpha 90.000000
_cell_angle_beta 39.751264
_cell_angle_gamma 90.000000
_cell_volume 2019.571201
_symmetry_space_group_name_H-M "P 21/M"
_symmetry_group_IT_number 11
_symmetry_cell_setting 'monoclinic'
loop_
_space_group_symop_operation_xyz
x,y,z
-x,1/2+y,-z
-x,-y,-z
x,1/2-y,z
loop_
_atom_site_type_symbol
_atom_site_label
_atom_site_fract_x
_atom_site_fract_y
_atom_site_fract_z
Si Si1 0.274159 0.433633 0.925898
Si Si2 0.276958 0.564156 0.800591
Si Si3 0.293066 0.935299 0.579262
Si Si4 0.006686 0.435468 0.240525
Si Si5 0.707882 0.434097 0.870924
Si Si6 0.455258 0.566165 0.933134
Si Si7 0.536808 0.064733 0.394543
Si Si8 0.000568 0.434708 0.882634
O O1 0.260073 0.250000 0.932368
O O2 0.299947 0.496235 0.850740
O O3 0.392972 0.484349 0.909793
O O4 0.134367 0.507875 0.018505
O O5 0.271224 0.750000 0.805789
O O6 0.394770 0.518084 0.697904
O O7 0.134055 0.502132 0.846862
O O8 0.298888 0.750000 0.574444
O O9 0.363369 0.984777 0.603548
O O10 0.134952 0.980985 0.659220
O O11 0.388066 0.000744 0.483092
O O12 0.011051 0.250000 0.234251
O O13 0.141237 0.496718 0.204583
O O14 0.004365 0.503938 0.178750
O O15 0.711166 0.250000 0.863066
O O16 0.604034 0.506959 0.877595
O O17 0.643123 0.468583 0.964661
O O18 0.455842 0.750000 0.924921
O O19 0.531565 0.250000 0.398242
O O20 0.004253 0.250000 0.880852
#
# Coordination Sequence:
#
# PCOD9161332 Si02
#       8
#     4   4   4   4   4   4   4   4
#     4  12  24  37  53  74 102 138 177 216 256 300
#     4  11  22  38  54  72 102 138 178 217 255 302
#     4   9  18  32  50  74 102 133 168 209 257 305
#     4  11  20  33  52  76 106 140 172 209 257 306
#     4  10  20  33  52  77 104 134 170 211 257 305
#     4  10  20  35  53  75 102 135 172 211 257 302
#     4   9  18  33  51  73  99 133 170 212 257 299
#     4  12  23  35  50  73 103 139 179 215 252 299
#
# _framework density 15.844948
#
# number of rings (size 3 to 8) (size 9 to 14) (size 15 to 20)
#    0.000    1.500    2.500    4.125    0.000    3.000 
#    0.000    0.000    0.000    0.000    0.000    0.875 
#    0.000    0.000    0.000    0.000    0.000    0.000 
#
# Total GULP energy -178734.244007 kJ/mol
# GULP energy per Si atom -5585.445125 kJ/mol
# Density = 1.580888 g / cm^3
# Si number density = 15.844948 Si / 1000 Ang^3
#
#
#
# Elastic Constant Matrix: (Units=GPa)
#
#
# Indices 1 2 3 4 5 6 
#
# 1 90.1019 32.3628 73.1351 0.0000 -10.3928 0.0000
# 2 32.3628 58.9063 34.8558 0.0000 -5.2414 0.0000
# 3 73.1351 34.8558 119.0111 0.0000 -13.6883 0.0000
# 4 0.0000 0.0000 0.0000 25.9275 0.0000 -1.8997
# 5 -10.3928 -5.2414 -13.6883 0.0000 24.1458 0.0000
# 6 0.0000 0.0000 0.0000 -1.8997 0.0000 28.3489
#
#
#
# Elastic Compliance Matrix: (Units=1/GPa)
#
#
# Indices 1 2 3 4 5 6 
#
# 1 0.023490 -0.005234 -0.012698 0.000000 0.001776 0.000000
# 2 -0.005234 0.021729 -0.003064 0.000000 0.000727 0.000000
# 3 -0.012698 -0.003064 0.017542 0.000000 0.003814 0.000000
# 4 0.000000 0.000000 0.000000 0.038759 0.000000 0.002597
# 5 0.001776 0.000727 0.003814 0.000000 0.044499 0.000000
# 6 0.000000 0.000000 0.000000 0.002597 0.000000 0.035449
#
#
# Mechanical properties :
#
#
# Convention : Reuss Voigt Hill
#
# Bulk Modulus (GPa) = 48.14776 60.96964 54.55870
# Shear Modulus (GPa) = 21.70285 24.19549 22.94917
#
# Velocity S-wave (km/s) = 3.70496 3.91194 3.80986
# Velocity P-wave (km/s) = 6.98249 7.67899 7.33900
#
# Compressibility (1/GPa) = 0.02076940
#
# Stress axis : x y z
#
# Youngs Moduli (GPa) = 42.57073 46.02084 57.00585
#
# Poissons Ratio (x) = 0.24086 0.72388
# Poissons Ratio (y) = 0.22280 0.17468
# Poissons Ratio (z) = 0.54057 0.14102
#
# Static dielectric constant tensor:
#      x y z
#    x 1.510370 0.000000 -0.008010 
#    y 0.000000 1.528590 0.000000 
#    z -0.008010 0.000000 1.519330 
# 
# From -- ./inp_files/54309.got.cif
#   From: 2010.05.17/outbox.cif.g08.bks.cpg/sg11_28_cif.got.tgz:54309.got - 2010.06.03 12:22:45.
