data_PCOD9161145
_publ_section_title
;
Structure prediction by ZEFSAII (Michael W. Deem and Ramdas Pophale) SiO2 
 PCOD9161145
Probable space group: P 21/M
;
_chemical_formula_sum "Si O2"
_cell_formula_units_Z 24
_cell_length_a 14.605087
_cell_length_b 7.821136
_cell_length_c 16.791221
_cell_angle_alpha 90.000000
_cell_angle_beta 42.602497
_cell_angle_gamma 90.000000
_cell_volume 1298.332540
_symmetry_space_group_name_H-M "P 21/M"
_symmetry_group_IT_number 11
_symmetry_cell_setting 'monoclinic'
loop_
_space_group_symop_operation_xyz
x,y,z
-x,1/2+y,-z
-x,-y,-z
x,1/2-y,z
loop_
_atom_site_type_symbol
_atom_site_label
_atom_site_fract_x
_atom_site_fract_y
_atom_site_fract_z
Si Si1 0.648692 0.455454 0.371610
Si Si2 0.249507 0.956944 0.530487
Si Si3 0.453569 0.956401 0.725537
Si Si4 0.990289 0.954324 0.598864
Si Si5 0.560156 0.049299 0.089097
Si Si6 0.693948 0.047719 0.843316
O O1 0.500000 0.500000 0.500000
O O2 0.662435 0.250000 0.359413
O O3 0.746393 0.517457 0.379809
O O4 0.643759 0.519368 0.283811
O O5 0.245025 0.750000 0.534451
O O6 0.120987 0.020068 0.563323
O O7 0.391558 0.004534 0.398212
O O8 0.442903 0.750000 0.734437
O O9 0.423654 0.024599 0.832946
O O10 0.989686 0.750000 0.605764
O O11 0.849524 0.019237 0.724501
O O12 0.000000 0.000000 0.500000
O O13 0.593370 0.250000 0.073463
O O14 0.405199 0.032010 0.159170
O O15 0.648702 0.978618 0.959029
O O16 0.665345 0.250000 0.860301
#
# Coordination Sequence:
#
# PCOD9161145 Si02
#       6
#     4   4   4   4   4   4
#     4   8  14  26  43  64  89 115 144 179 221 265
#     4   9  18  30  44  65  93 121 147 180 223 269
#     4   9  16  27  47  71  91 114 146 184 224 265
#     4  11  22  34  48  67  92 122 154 186 223 269
#     4   9  18  32  49  69  92 118 151 189 226 267
#     4  10  20  33  48  67  92 122 153 186 226 268
#
# _framework density 18.485247999999999
#
# number of rings (size 3 to 8) (size 9 to 14) (size 15 to 20)
#    0.000    2.667    0.000    2.000    0.000    5.333 
#    0.000    0.000    0.000    1.000    0.000    0.000 
#    0.000    0.000    0.000    0.000    0.000    0.667 
#
# Total GULP energy -133717.623989 kJ/mol
# GULP energy per Si atom -5571.567666 kJ/mol
# Density = 1.844317 g / cm^3
# Si number density = 18.485248 Si / 1000 Ang^3
#
#
#
# Elastic Constant Matrix: (Units=GPa)
#
#
# Indices 1 2 3 4 5 6 
#
# 1 156.8543 -3.5911 69.5593 0.0000 35.7116 0.0000
# 2 -3.5911 23.2832 0.4171 0.0000 4.3192 0.0000
# 3 69.5593 0.4171 80.1992 0.0000 23.9395 0.0000
# 4 0.0000 0.0000 0.0000 16.6219 0.0000 -0.5875
# 5 35.7116 4.3192 23.9395 0.0000 39.2669 0.0000
# 6 0.0000 0.0000 0.0000 -0.5875 0.0000 15.2353
#
#
#
# Elastic Compliance Matrix: (Units=1/GPa)
#
#
# Indices 1 2 3 4 5 6 
#
# 1 0.011359 0.002951 -0.008175 0.000000 -0.005672 0.000000
# 2 0.002951 0.044755 -0.000637 0.000000 -0.007218 0.000000
# 3 -0.008175 -0.000637 0.021176 0.000000 -0.005405 0.000000
# 4 0.000000 0.000000 0.000000 0.060244 0.000000 0.002323
# 5 -0.005672 -0.007218 -0.005405 0.000000 0.034714 0.000000
# 6 0.000000 0.000000 0.000000 0.002323 0.000000 0.065727
#
#
# Mechanical properties :
#
#
# Convention : Reuss Voigt Hill
#
# Bulk Modulus (GPa) = 15.25152 43.67858 29.46505
# Shear Modulus (GPa) = 18.41255 27.15491 22.78373
#
# Velocity S-wave (km/s) = 3.15948 3.83692 3.51456
# Velocity P-wave (km/s) = 4.64524 6.58099 5.69595
#
# Compressibility (1/GPa) = 0.06556725
#
# Stress axis : x y z
#
# Youngs Moduli (GPa) = 88.03304 22.34393 47.22330
#
# Poissons Ratio (x) = -0.06593 0.38604
# Poissons Ratio (y) = -0.25975 0.03010
# Poissons Ratio (z) = 0.71964 0.01424
#
# Static dielectric constant tensor:
#      x y z
#    x 1.673740 0.000000 0.054610 
#    y 0.000000 1.681770 0.000000 
#    z 0.054610 0.000000 1.617720 
# 
# From -- ./inp_files/37234.got.cif
#   From: 2010.05.17/outbox.cif.g08.bks.cpg/sg11_19_cif.got.tgz:37234.got - 2010.06.03 12:22:45.
