data_PCOD9161312
_publ_section_title
;
Structure prediction by ZEFSAII (Michael W. Deem and Ramdas Pophale) SiO2 
 PCOD9161312
Probable space group: P 21/M
;
_chemical_formula_sum "Si O2"
_cell_formula_units_Z 28
_cell_length_a 26.014243
_cell_length_b 7.797778
_cell_length_c 9.621477
_cell_angle_alpha 90.000000
_cell_angle_beta 39.666012
_cell_angle_gamma 90.000000
_cell_volume 1245.822974
_symmetry_space_group_name_H-M "P 21/M"
_symmetry_group_IT_number 11
_symmetry_cell_setting 'monoclinic'
loop_
_space_group_symop_operation_xyz
x,y,z
-x,1/2+y,-z
-x,-y,-z
x,1/2-y,z
loop_
_atom_site_type_symbol
_atom_site_label
_atom_site_fract_x
_atom_site_fract_y
_atom_site_fract_z
Si Si1 0.538630 0.043994 0.568898
Si Si2 0.918710 0.553090 0.249064
Si Si3 0.749696 0.961101 0.485139
Si Si4 0.383500 0.047907 0.031881
Si Si5 0.993044 0.954157 0.674747
Si Si6 0.187257 0.456343 0.935140
Si Si7 0.691412 0.046898 0.104369
O O1 0.541940 0.250000 0.579619
O O2 0.629100 0.980602 0.353580
O O3 0.500000 0.000000 0.500000
O O4 0.473206 0.975455 0.815305
O O5 0.909682 0.750000 0.230888
O O6 0.832571 0.476650 0.386000
O O7 0.939009 0.531446 0.368449
O O8 0.000000 0.500000 0.000000
O O9 0.746884 0.750000 0.495477
O O10 0.671277 0.024048 0.730733
O O11 0.758273 0.013975 0.307418
O O12 0.394060 0.250000 0.036227
O O13 0.332541 0.031476 0.993932
O O14 0.996984 0.750000 0.684643
O O15 0.903798 0.014683 0.904064
O O16 0.000000 0.000000 0.500000
O O17 0.185879 0.250000 0.939493
O O18 0.221561 0.514283 0.011776
O O19 0.679690 0.250000 0.112520
#
# Coordination Sequence:
#
# PCOD9161312 Si02
#       7
#     4   4   4   4   4   4   4
#     4   8  15  29  50  76 106 137 172 215 264 315
#     4  11  21  38  60  83 110 146 186 227 273 324
#     4   9  19  36  57  79 104 137 181 222 260 317
#     4   9  17  33  58  81 102 138 181 219 264 322
#     4  11  24  41  59  82 111 144 184 230 276 328
#     4  10  21  39  56  74 106 146 181 215 263 325
#     4  10  20  33  51  80 113 140 173 222 270 313
#
# _framework density 22.475103000000001
#
# number of rings (size 3 to 8) (size 9 to 14) (size 15 to 20)
#    0.000    2.286    1.429    1.286    2.000    1.714 
#    0.000    2.143    0.000    0.000    0.000    0.000 
#    0.000    0.000    0.000    0.000    0.000    0.000 
#
# Total GULP energy -156185.706980 kJ/mol
# GULP energy per Si atom -5578.060964 kJ/mol
# Density = 2.242395 g / cm^3
# Si number density = 22.475103 Si / 1000 Ang^3
#
#
#
# Elastic Constant Matrix: (Units=GPa)
#
#
# Indices 1 2 3 4 5 6 
#
# 1 31.6064 -20.1865 -26.5906 0.0000 2.2459 0.0000
# 2 -20.1865 27.5600 1.6052 0.0000 -6.1075 0.0000
# 3 -26.5906 1.6052 94.1566 0.0000 14.4612 0.0000
# 4 0.0000 0.0000 0.0000 17.4519 0.0000 3.5099
# 5 2.2459 -6.1075 14.4612 0.0000 22.9951 0.0000
# 6 0.0000 0.0000 0.0000 3.5099 0.0000 10.8616
#
#
#
# Elastic Compliance Matrix: (Units=1/GPa)
#
#
# Indices 1 2 3 4 5 6 
#
# 1 0.102140 0.071038 0.029077 0.000000 -0.009394 0.000000
# 2 0.071038 0.088486 0.017721 0.000000 0.005419 0.000000
# 3 0.029077 0.017721 0.020194 0.000000 -0.010833 0.000000
# 4 0.000000 0.000000 0.000000 0.061283 0.000000 -0.019803
# 5 -0.009394 0.005419 -0.010833 0.000000 0.052657 0.000000
# 6 0.000000 0.000000 0.000000 -0.019803 0.000000 0.098466
#
#
# Mechanical properties :
#
#
# Convention : Reuss Voigt Hill
#
# Bulk Modulus (GPa) = 2.23969 6.99768 4.61868
# Shear Modulus (GPa) = 14.86393 23.49472 19.17933
#
# Velocity S-wave (km/s) = 2.57446 3.23672 2.92440
# Velocity P-wave (km/s) = 3.13621 4.13386 3.66910
#
# Compressibility (1/GPa) = 0.44649109
#
# Stress axis : x y z
#
# Youngs Moduli (GPa) = 9.79048 11.30127 49.52005
#
# Poissons Ratio (x) = -0.80282 -1.43989
# Poissons Ratio (y) = -0.69550 -0.87754
# Poissons Ratio (z) = -0.28468 -0.20027
#
# Static dielectric constant tensor:
#      x y z
#    x 1.806120 0.000000 -0.037860 
#    y 0.000000 1.907570 0.000000 
#    z -0.037860 0.000000 1.899560 
# 
# From -- ./inp_files/24071.got.cif
#   From: 2010.05.17/outbox.cif.g08.bks.cpg/sg11_13_cif.got.tgz:24071.got - 2010.06.03 12:22:45.
