data_PCOD9161238
_publ_section_title
;
Structure prediction by ZEFSAII (Michael W. Deem and Ramdas Pophale) SiO2 
 PCOD9161238
Probable space group: P 21/M
;
_chemical_formula_sum "Si O2"
_cell_formula_units_Z 32
_cell_length_a 22.256861
_cell_length_b 7.512082
_cell_length_c 11.915688
_cell_angle_alpha 90.000000
_cell_angle_beta 128.761416
_cell_angle_gamma 90.000000
_cell_volume 1553.474658
_symmetry_space_group_name_H-M "P 21/M"
_symmetry_group_IT_number 11
_symmetry_cell_setting 'monoclinic'
loop_
_space_group_symop_operation_xyz
x,y,z
-x,1/2+y,-z
-x,-y,-z
x,1/2-y,z
loop_
_atom_site_type_symbol
_atom_site_label
_atom_site_fract_x
_atom_site_fract_y
_atom_site_fract_z
Si Si1 0.227316 0.467926 0.809401
Si Si2 0.492482 0.963591 0.821136
Si Si3 0.735323 0.968032 0.890759
Si Si4 0.926825 0.536783 0.491796
Si Si5 0.040865 0.464841 0.218405
Si Si6 0.377184 0.037900 0.856937
Si Si7 0.440184 0.036848 0.332119
Si Si8 0.120599 0.038032 0.085856
O O1 0.226332 0.250000 0.810253
O O2 0.147740 0.529878 0.662311
O O3 0.296220 0.527320 0.808109
O O4 0.243449 0.521758 0.956720
O O5 0.498106 0.750000 0.826071
O O6 0.519139 0.032135 0.732850
O O7 0.407523 0.004374 0.767416
O O8 0.555608 0.033797 0.983343
O O9 0.736208 0.750000 0.890488
O O10 0.648123 0.026945 0.760134
O O11 0.801494 0.029526 0.881769
O O12 0.918409 0.750000 0.491557
O O13 0.937921 0.469667 0.632319
O O14 0.000000 0.500000 0.500000
O O15 0.046215 0.250000 0.225609
O O16 0.094996 0.530611 0.179008
O O17 0.953097 0.508721 0.081113
O O18 0.375187 0.250000 0.868319
O O19 0.433348 0.250000 0.313425
O O20 0.500000 0.000000 0.500000
O O21 0.130342 0.250000 0.109335
#
# Coordination Sequence:
#
# PCOD9161238 Si02
#       8
#     4   4   4   4   4   4   4   4
#     4   9  16  29  50  74  98 128 165 205 244 286
#     4   9  17  31  50  70  99 129 155 197 252 293
#     4   9  16  30  52  74  95 124 167 206 239 288
#     4  10  20  33  50  74 105 133 161 201 249 294
#     4   9  18  32  48  73 107 132 157 200 248 287
#     4   9  16  29  51  75  95 123 164 202 237 286
#     4  10  20  35  52  72 100 131 163 205 250 292
#     4   9  17  31  54  76  95 130 171 201 234 285
#
# _framework density 20.598983
#
# number of rings (size 3 to 8) (size 9 to 14) (size 15 to 20)
#    0.000    2.750    1.250    0.750    0.000    2.000 
#    2.250    1.250    0.000    1.500    0.000    0.000 
#    0.000    0.000    0.000    0.000    0.000    0.000 
#
# Total GULP energy -178453.551154 kJ/mol
# GULP energy per Si atom -5576.673474 kJ/mol
# Density = 2.055210 g / cm^3
# Si number density = 20.598983 Si / 1000 Ang^3
#
#
#
# Elastic Constant Matrix: (Units=GPa)
#
#
# Indices 1 2 3 4 5 6 
#
# 1 235.5261 3.0631 117.5257 0.0000 11.5630 0.0000
# 2 3.0631 51.6622 -1.3350 0.0000 -1.6701 0.0000
# 3 117.5257 -1.3350 151.6780 0.0000 2.1948 0.0000
# 4 0.0000 0.0000 0.0000 15.7011 0.0000 2.2108
# 5 11.5630 -1.6701 2.1948 0.0000 23.8115 0.0000
# 6 0.0000 0.0000 0.0000 2.2108 0.0000 16.7328
#
#
#
# Elastic Compliance Matrix: (Units=1/GPa)
#
#
# Indices 1 2 3 4 5 6 
#
# 1 0.007146 -0.000663 -0.005500 0.000000 -0.003010 0.000000
# 2 -0.000663 0.019466 0.000662 0.000000 0.001626 0.000000
# 3 -0.005500 0.000662 0.010835 0.000000 0.001718 0.000000
# 4 0.000000 0.000000 0.000000 0.064897 0.000000 -0.008574
# 5 -0.003010 0.001626 0.001718 0.000000 0.043414 0.000000
# 6 0.000000 0.000000 0.000000 -0.008574 0.000000 0.060896
#
#
# Mechanical properties :
#
#
# Convention : Reuss Voigt Hill
#
# Bulk Modulus (GPa) = 37.81452 75.26377 56.53914
# Shear Modulus (GPa) = 22.07786 32.55657 27.31721
#
# Velocity S-wave (km/s) = 3.27738 3.97986 3.64558
# Velocity P-wave (km/s) = 5.72005 7.59842 6.72513
#
# Compressibility (1/GPa) = 0.02644487
#
# Stress axis : x y z
#
# Youngs Moduli (GPa) = 139.92874 51.37290 92.29174
#
# Poissons Ratio (x) = 0.03407 0.50757
# Poissons Ratio (y) = 0.09279 -0.06106
# Poissons Ratio (z) = 0.76956 -0.03399
#
# Static dielectric constant tensor:
#      x y z
#    x 1.767720 0.000000 -0.011750 
#    y 0.000000 1.797450 0.000000 
#    z -0.011750 0.000000 1.718990 
# 
# From -- ./inp_files/42941.got.cif
#   From: 2010.05.17/outbox.cif.g08.bks.cpg/sg11_22_cif.got.tgz:42941.got - 2010.06.03 12:22:45.
