data_PCOD9161579
_publ_section_title
;
Structure prediction by ZEFSAII (Michael W. Deem and Ramdas Pophale) SiO2 
 PCOD9161579
Probable space group: P 21/M
;
_chemical_formula_sum "Si O2"
_cell_formula_units_Z 32
_cell_length_a 11.908865
_cell_length_b 7.411813
_cell_length_c 20.493714
_cell_angle_alpha 90.000000
_cell_angle_beta 54.472142
_cell_angle_gamma 90.000000
_cell_volume 1472.145831
_symmetry_space_group_name_H-M "P 21/M"
_symmetry_group_IT_number 11
_symmetry_cell_setting 'monoclinic'
loop_
_space_group_symop_operation_xyz
x,y,z
-x,1/2+y,-z
-x,-y,-z
x,1/2-y,z
loop_
_atom_site_type_symbol
_atom_site_label
_atom_site_fract_x
_atom_site_fract_y
_atom_site_fract_z
Si Si1 0.156352 0.466465 0.921541
Si Si2 0.671699 0.470052 0.896220
Si Si3 0.772517 0.529497 0.250000
Si Si4 0.035862 0.970052 0.396219
Si Si5 0.970606 0.469631 0.750000
Si Si6 0.500567 0.533535 0.421541
Si Si7 0.400404 0.457200 0.930903
Si Si8 0.762212 0.457201 0.569095
O O1 0.164985 0.250000 0.917340
O O2 0.196115 0.528941 0.834964
O O3 0.275809 0.535626 0.930340
O O4 0.000000 0.500000 0.000000
O O5 0.665414 0.250000 0.899961
O O6 0.824234 0.526615 0.826951
O O7 0.555589 0.533189 0.883817
O O8 0.641729 0.536997 0.978991
O O9 0.768534 0.750000 0.250000
O O10 0.633956 0.471060 0.334964
O O11 0.901689 0.471397 0.250000
O O12 0.034668 0.750000 0.399958
O O13 0.021869 0.026617 0.326949
O O14 0.176776 0.033189 0.383818
O O15 0.900290 0.036994 0.478989
O O16 0.972465 0.250000 0.750000
O O17 0.500000 0.500000 0.500000
O O18 0.500334 0.750000 0.417341
O O19 0.363511 0.464374 0.430341
O O20 0.415379 0.250000 0.903915
O O21 0.723212 0.250000 0.596082
#
# Coordination Sequence:
#
# PCOD9161579 Si02
#       8
#     4   4   4   4   4   4   4   4
#     4  10  20  34  52  73 100 133 166 202 244 290
#     4   9  17  30  49  70  93 122 155 194 237 283
#     4   9  18  31  48  72  99 129 166 203 240 288
#     4   9  17  30  49  70  93 122 155 194 237 283
#     4   9  16  27  46  70  91 117 158 197 230 276
#     4  10  20  34  52  73 100 133 166 202 244 290
#     4   9  18  31  47  70  96 122 156 195 237 283
#     4   9  18  31  47  70  96 122 156 195 237 283
#
# _framework density 21.736979000000002
#
# number of rings (size 3 to 8) (size 9 to 14) (size 15 to 20)
#    0.000    2.750    0.000    1.500    0.000    4.000 
#    0.000    6.250    0.000    4.500    0.000    5.250 
#    0.000    0.000    0.000    0.000    0.000    0.000 
#
# Total GULP energy -178412.805890 kJ/mol
# GULP energy per Si atom -5575.400184 kJ/mol
# Density = 2.168750 g / cm^3
# Si number density = 21.736979 Si / 1000 Ang^3
#
#
#
# Elastic Constant Matrix: (Units=GPa)
#
#
# Indices 1 2 3 4 5 6 
#
# 1 268.8562 7.5061 102.2552 0.0000 -4.1943 0.0000
# 2 7.5061 75.1079 -2.3585 0.0000 -0.4502 0.0000
# 3 102.2552 -2.3585 114.8386 0.0000 -2.8367 0.0000
# 4 0.0000 0.0000 0.0000 10.6996 0.0000 0.1004
# 5 -4.1943 -0.4502 -2.8367 0.0000 37.4306 0.0000
# 6 0.0000 0.0000 0.0000 0.1004 0.0000 8.4967
#
#
#
# Elastic Compliance Matrix: (Units=1/GPa)
#
#
# Indices 1 2 3 4 5 6 
#
# 1 0.005665 -0.000723 -0.005054 0.000000 0.000243 0.000000
# 2 -0.000723 0.013416 0.000923 0.000000 0.000150 0.000000
# 3 -0.005054 0.000923 0.013238 0.000000 0.000448 0.000000
# 4 0.000000 0.000000 0.000000 0.093472 0.000000 -0.001105
# 5 0.000243 0.000150 0.000448 0.000000 0.026779 0.000000
# 6 0.000000 0.000000 0.000000 -0.001105 0.000000 0.117706
#
#
# Mechanical properties :
#
#
# Convention : Reuss Voigt Hill
#
# Bulk Modulus (GPa) = 44.22343 74.84537 59.53440
# Shear Modulus (GPa) = 17.39002 34.75204 26.07103
#
# Velocity S-wave (km/s) = 2.83153 4.00278 3.46697
# Velocity P-wave (km/s) = 5.57486 7.47462 6.59352
#
# Compressibility (1/GPa) = 0.02261245
#
# Stress axis : x y z
#
# Youngs Moduli (GPa) = 176.50736 74.53581 75.54178
#
# Poissons Ratio (x) = 0.05392 0.38175
# Poissons Ratio (y) = 0.12769 -0.06976
# Poissons Ratio (z) = 0.89199 -0.06883
#
# Static dielectric constant tensor:
#      x y z
#    x 1.799370 0.000000 -0.001790 
#    y 0.000000 1.857810 0.000000 
#    z -0.001790 0.000000 1.760110 
# 
# From -- ./inp_files/64371.got.cif
#   From: 2010.05.17/outbox.cif.g08.bks.cpg/sg11_33_cif.got.tgz:64371.got - 2010.06.03 12:22:45.
