data_PCOD9161952
_publ_section_title
;
Structure prediction by ZEFSAII (Michael W. Deem and Ramdas Pophale) SiO2 
 PCOD9161952
Probable space group: P 21/M
;
_chemical_formula_sum "Si O2"
_cell_formula_units_Z 32
_cell_length_a 11.591639
_cell_length_b 15.860866
_cell_length_c 11.433784
_cell_angle_alpha 90.000000
_cell_angle_beta 144.342918
_cell_angle_gamma 90.000000
_cell_volume 1225.406503
_symmetry_space_group_name_H-M "P 21/M"
_symmetry_group_IT_number 11
_symmetry_cell_setting 'monoclinic'
loop_
_space_group_symop_operation_xyz
x,y,z
-x,1/2+y,-z
-x,-y,-z
x,1/2-y,z
loop_
_atom_site_type_symbol
_atom_site_label
_atom_site_fract_x
_atom_site_fract_y
_atom_site_fract_z
Si Si1 0.005078 0.659823 0.587768
Si Si2 0.927675 0.850659 0.130805
Si Si3 0.497137 0.658016 0.668083
Si Si4 0.418032 0.840341 0.322174
Si Si5 0.140894 0.347602 0.287533
Si Si6 0.332566 0.930645 0.739348
Si Si7 0.744024 0.477068 0.713619
Si Si8 0.690382 0.611909 0.169637
O O1 0.102515 0.750000 0.652096
O O2 0.005604 0.639775 0.724901
O O3 0.789807 0.664938 0.352552
O O4 0.116744 0.592871 0.602376
O O5 0.988083 0.750000 0.187930
O O6 0.842977 0.882931 0.185482
O O7 0.098667 0.913705 0.225159
O O8 0.729806 0.851144 0.886891
O O9 0.436614 0.750000 0.664746
O O10 0.447666 0.660562 0.489820
O O11 0.383701 0.586361 0.646785
O O12 0.332939 0.750000 0.216859
O O13 0.643265 0.846940 0.471000
O O14 0.283261 0.921357 0.190154
O O15 0.120013 0.250000 0.223185
O O16 0.156327 0.431874 0.222496
O O17 0.354984 0.025184 0.799997
O O18 0.483568 0.870756 0.935436
O O19 0.500000 0.500000 0.500000
#
# Coordination Sequence:
#
# PCOD9161952 Si02
#       8
#     4   4   4   4   4   4   4   4
#     4  11  22  35  57  81 112 160 197 238 299 358
#     4  10  20  36  57  85 121 151 190 248 301 357
#     4   9  19  34  56  86 117 151 193 246 302 353
#     4   9  18  34  57  83 112 147 191 241 289 350
#     4   9  20  37  54  76 112 153 197 241 288 355
#     4  10  21  37  57  87 121 157 194 251 304 362
#     4  10  20  34  56  83 108 146 190 239 294 346
#     4  10  22  37  57  88 121 155 199 246 301 363
#
# _framework density 26.113783999999999
#
# number of rings (size 3 to 8) (size 9 to 14) (size 15 to 20)
#    0.000    2.250    0.000    2.250    3.500    2.000 
#    0.000    2.500    5.500    0.000    0.000    0.000 
#    0.000    0.000    0.000    0.000    0.000    0.000 
#
# Total GULP energy -178211.127429 kJ/mol
# GULP energy per Si atom -5569.097732 kJ/mol
# Density = 2.605435 g / cm^3
# Si number density = 26.113784 Si / 1000 Ang^3
#
#
#
# Elastic Constant Matrix: (Units=GPa)
#
#
# Indices 1 2 3 4 5 6 
#
# 1 109.6272 29.0534 18.5897 0.0000 10.3829 0.0000
# 2 29.0534 121.4519 24.1101 0.0000 28.2431 0.0000
# 3 18.5897 24.1101 92.1962 0.0000 7.6628 0.0000
# 4 0.0000 0.0000 0.0000 12.4656 0.0000 11.0547
# 5 10.3829 28.2431 7.6628 0.0000 25.9408 0.0000
# 6 0.0000 0.0000 0.0000 11.0547 0.0000 29.9387
#
#
#
# Elastic Compliance Matrix: (Units=1/GPa)
#
#
# Indices 1 2 3 4 5 6 
#
# 1 0.009978 -0.001705 -0.001423 0.000000 -0.001717 0.000000
# 2 -0.001705 0.011663 -0.001750 0.000000 -0.011499 0.000000
# 3 -0.001423 -0.001750 0.011672 0.000000 -0.000972 0.000000
# 4 0.000000 0.000000 0.000000 0.119279 0.000000 -0.044043
# 5 -0.001717 -0.011499 -0.000972 0.000000 0.052043 0.000000
# 6 0.000000 0.000000 0.000000 -0.044043 0.000000 0.049664
#
#
# Mechanical properties :
#
#
# Convention : Reuss Voigt Hill
#
# Bulk Modulus (GPa) = 42.45373 51.86465 47.15919
# Shear Modulus (GPa) = 18.38859 30.43716 24.41288
#
# Velocity S-wave (km/s) = 2.65650 3.41773 3.06087
# Velocity P-wave (km/s) = 5.06970 5.95640 5.53085
#
# Compressibility (1/GPa) = 0.02355506
#
# Stress axis : x y z
#
# Youngs Moduli (GPa) = 100.22412 85.74095 85.67524
#
# Poissons Ratio (x) = 0.14619 0.12194
# Poissons Ratio (y) = 0.17089 0.14997
# Poissons Ratio (z) = 0.14264 0.15009
#
# Static dielectric constant tensor:
#      x y z
#    x 2.030050 0.000000 0.010450 
#    y 0.000000 2.129440 0.000000 
#    z 0.010450 0.000000 2.212900 
# 
# From -- ./inp_files/50690.got.cif
#   From: 2010.05.17/outbox.cif.g08.bks.cpg/sg11_26_cif.got.tgz:50690.got - 2010.06.03 12:22:45.
