data_PCOD9161492
_publ_section_title
;
Structure prediction by ZEFSAII (Michael W. Deem and Ramdas Pophale) SiO2 
 PCOD9161492
Probable space group: P 21/M
;
_chemical_formula_sum "Si O2"
_cell_formula_units_Z 28
_cell_length_a 12.091129
_cell_length_b 22.219608
_cell_length_c 5.571723
_cell_angle_alpha 90.000000
_cell_angle_beta 67.738968
_cell_angle_gamma 90.000000
_cell_volume 1385.332345
_symmetry_space_group_name_H-M "P 21/M"
_symmetry_group_IT_number 11
_symmetry_cell_setting 'monoclinic'
loop_
_space_group_symop_operation_xyz
x,y,z
-x,1/2+y,-z
-x,-y,-z
x,1/2-y,z
loop_
_atom_site_type_symbol
_atom_site_label
_atom_site_fract_x
_atom_site_fract_y
_atom_site_fract_z
Si Si1 0.612048 0.884967 0.407721
Si Si2 0.552921 0.441823 0.821738
Si Si3 0.236373 0.316665 0.104760
Si Si4 0.834876 0.048487 0.595473
Si Si5 0.505202 0.816061 0.869433
Si Si6 0.046372 0.931894 0.995935
Si Si7 0.840279 0.911724 0.485235
O O1 0.533554 0.933331 0.334698
O O2 0.518669 0.835804 0.583003
O O3 0.700620 0.915052 0.526485
O O4 0.706877 0.849810 0.167721
O O5 0.693257 0.449235 0.667541
O O6 0.500000 0.500000 0.000000
O O7 0.541456 0.376417 0.963946
O O8 0.189259 0.250000 0.092591
O O9 0.356395 0.310205 0.166488
O O10 0.150294 0.360323 0.323062
O O11 0.867485 0.070908 0.838379
O O12 0.871230 0.977654 0.559691
O O13 0.895455 0.080965 0.312741
O O14 0.449128 0.750000 0.953446
O O15 0.928171 0.898274 0.190418
O O16 0.000000 0.000000 0.000000
#
# Coordination Sequence:
#
# PCOD9161492 Si02
#       7
#     4   4   4   4   4   4   4
#     4  10  20  33  58  86 118 155 191 246 310 365
#     4  11  24  36  58  90 128 155 195 255 320 366
#     4   9  18  32  53  84 115 146 191 246 301 354
#     4  11  24  39  60  89 121 159 197 243 298 364
#     4   9  19  36  55  82 118 162 205 242 296 373
#     4  10  23  39  62  84 116 157 202 240 290 367
#     4  10  21  35  59  82 116 150 197 242 301 355
#
# _framework density 20.211755
#
# number of rings (size 3 to 8) (size 9 to 14) (size 15 to 20)
#    0.000    2.000    0.000    4.714   12.000    2.286 
#    0.000    0.000    0.000    1.714    0.000    0.000 
#    0.000    0.000    0.000    0.000    0.000    0.000 
#
# Total GULP energy -155885.297917 kJ/mol
# GULP energy per Si atom -5567.332068 kJ/mol
# Density = 2.016575 g / cm^3
# Si number density = 20.211755 Si / 1000 Ang^3
#
#
#
# Elastic Constant Matrix: (Units=GPa)
#
#
# Indices 1 2 3 4 5 6 
#
# 1 87.0192 20.8365 20.5183 0.0000 0.0795 0.0000
# 2 20.8365 100.8768 31.3124 0.0000 -5.3379 0.0000
# 3 20.5183 31.3124 89.6404 0.0000 -8.3944 0.0000
# 4 0.0000 0.0000 0.0000 -17.9141 0.0000 -24.3599
# 5 0.0795 -5.3379 -8.3944 0.0000 35.1240 0.0000
# 6 0.0000 0.0000 0.0000 -24.3599 0.0000 3.7096
#
#
#
# Elastic Compliance Matrix: (Units=1/GPa)
#
#
# Indices 1 2 3 4 5 6 
#
# 1 0.012487 -0.001921 -0.002268 0.000000 -0.000862 0.000000
# 2 -0.001921 0.011435 -0.003469 0.000000 0.000913 0.000000
# 3 -0.002268 -0.003469 0.013132 0.000000 0.002616 0.000000
# 4 0.000000 0.000000 0.000000 -0.005622 0.000000 -0.036917
# 5 -0.000862 0.000913 0.002616 0.000000 0.029237 0.000000
# 6 0.000000 0.000000 0.000000 -0.036917 0.000000 0.027148
#
#
# Mechanical properties :
#
#
# Convention : Reuss Voigt Hill
#
# Bulk Modulus (GPa) = 46.00310 46.98563 46.49437
# Shear Modulus (GPa) = 45.29842 17.84185 31.57013
#
# Velocity S-wave (km/s) = 4.73926 2.97433 3.95646
# Velocity P-wave (km/s) = 7.26343 5.92391 6.62760
#
# Compressibility (1/GPa) = 0.02173767
#
# Stress axis : x y z
#
# Youngs Moduli (GPa) = 80.08175 87.45076 76.15192
#
# Poissons Ratio (x) = 0.16798 0.17271
# Poissons Ratio (y) = 0.15383 0.26418
# Poissons Ratio (z) = 0.18163 0.30338
#
# Static dielectric constant tensor:
#      x y z
#    x 1.750300 0.000000 0.052160 
#    y 0.000000 1.758290 0.000000 
#    z 0.052160 0.000000 1.819380 
# 
# From -- ./inp_files/5015.got.cif
#   From: 2010.05.17/outbox.cif.g08.bks.cpg/sg11_3_cif.got.tgz:5015.got - 2010.06.03 12:22:45.
