data_PCOD9161705
_publ_section_title
;
Structure prediction by ZEFSAII (Michael W. Deem and Ramdas Pophale) SiO2 
 PCOD9161705
Probable space group: P 21/M
;
_chemical_formula_sum "Si O2"
_cell_formula_units_Z 24
_cell_length_a 21.680955
_cell_length_b 7.785217
_cell_length_c 11.112439
_cell_angle_alpha 90.000000
_cell_angle_beta 34.328646
_cell_angle_gamma 90.000000
_cell_volume 1057.768551
_symmetry_space_group_name_H-M "P 21/M"
_symmetry_group_IT_number 11
_symmetry_cell_setting 'monoclinic'
loop_
_space_group_symop_operation_xyz
x,y,z
-x,1/2+y,-z
-x,-y,-z
x,1/2-y,z
loop_
_atom_site_type_symbol
_atom_site_label
_atom_site_fract_x
_atom_site_fract_y
_atom_site_fract_z
Si Si1 0.362339 0.953334 0.984053
Si Si2 0.433477 0.044310 0.486187
Si Si3 0.231113 0.457973 0.956969
Si Si4 0.829503 0.546440 0.324588
Si Si5 0.375784 0.445152 0.218773
Si Si6 0.964565 0.958309 0.875373
O O1 0.369661 0.750000 0.995127
O O2 0.282742 0.980610 0.998799
O O3 0.325662 0.040409 0.165777
O O4 0.484335 0.019194 0.749626
O O5 0.428112 0.250000 0.479970
O O6 0.500000 0.000000 0.500000
O O7 0.312074 0.985290 0.716877
O O8 0.235462 0.250000 0.952116
O O9 0.107946 0.509832 0.122634
O O10 0.816393 0.750000 0.323361
O O11 0.711134 0.471498 0.549683
O O12 0.913463 0.523468 0.300225
O O13 0.893999 0.478597 0.104699
O O14 0.383561 0.250000 0.245651
O O15 0.500000 0.500000 0.000000
O O16 0.969427 0.750000 0.870014
#
# Coordination Sequence:
#
# PCOD9161705 Si02
#       6
#     4   4   4   4   4   4
#     4  10  20  34  53  79 113 148 184 228 274 328
#     4   8  15  27  46  71 104 141 174 215 264 315
#     4   9  17  31  54  81 110 144 182 226 278 331
#     4   9  20  38  58  81 112 146 182 229 279 327
#     4  11  24  40  59  81 111 150 188 226 274 332
#     4   9  18  34  60  86 110 142 182 230 280 329
#
# _framework density 22.689271999999999
#
# number of rings (size 3 to 8) (size 9 to 14) (size 15 to 20)
#    0.000    2.667    0.000    1.000    2.333    2.667 
#    0.000    0.833    0.000    0.000    0.000    0.000 
#    0.000    0.000    0.000    0.000    0.000    0.000 
#
# Total GULP energy -133834.260533 kJ/mol
# GULP energy per Si atom -5576.427522 kJ/mol
# Density = 2.263763 g / cm^3
# Si number density = 22.689272 Si / 1000 Ang^3
#
#
#
# Elastic Constant Matrix: (Units=GPa)
#
#
# Indices 1 2 3 4 5 6 
#
# 1 87.3812 -4.2747 22.4389 0.0000 -13.8863 0.0000
# 2 -4.2747 33.9673 6.5343 0.0000 -1.7158 0.0000
# 3 22.4389 6.5343 94.8526 0.0000 -11.5455 0.0000
# 4 0.0000 0.0000 0.0000 13.5614 0.0000 -4.8608
# 5 -13.8863 -1.7158 -11.5455 0.0000 31.4643 0.0000
# 6 0.0000 0.0000 0.0000 -4.8608 0.0000 21.1177
#
#
#
# Elastic Compliance Matrix: (Units=1/GPa)
#
#
# Indices 1 2 3 4 5 6 
#
# 1 0.013021 0.002396 -0.002648 0.000000 0.004905 0.000000
# 2 0.002396 0.030301 -0.002433 0.000000 0.001817 0.000000
# 3 -0.002648 -0.002433 0.011701 0.000000 0.002992 0.000000
# 4 0.000000 0.000000 0.000000 0.080369 0.000000 0.018499
# 5 0.004905 0.001817 0.002992 0.000000 0.035144 0.000000
# 6 0.000000 0.000000 0.000000 0.018499 0.000000 0.051612
#
#
# Mechanical properties :
#
#
# Convention : Reuss Voigt Hill
#
# Bulk Modulus (GPa) = 20.13998 29.51089 24.82544
# Shear Modulus (GPa) = 20.48594 25.99552 23.24073
#
# Velocity S-wave (km/s) = 3.00807 3.38852 3.20395
# Velocity P-wave (km/s) = 4.57825 5.32393 4.96511
#
# Compressibility (1/GPa) = 0.04965248
#
# Stress axis : x y z
#
# Youngs Moduli (GPa) = 76.79935 33.00177 85.46293
#
# Poissons Ratio (x) = -0.07907 0.22633
# Poissons Ratio (y) = -0.18400 0.20794
# Poissons Ratio (z) = 0.20339 0.08030
#
# Static dielectric constant tensor:
#      x y z
#    x 1.879960 0.000000 -0.014440 
#    y 0.000000 1.840150 0.000000 
#    z -0.014440 0.000000 1.897540 
# 
# From -- ./inp_files/43896.got.cif
#   From: 2010.05.17/outbox.cif.g08.bks.cpg/sg11_22_cif.got.tgz:43896.got - 2010.06.03 12:22:45.
