data_PCOD9161721
_publ_section_title
;
Structure prediction by ZEFSAII (Michael W. Deem and Ramdas Pophale) SiO2 
 PCOD9161721
Probable space group: P 21/M
;
_chemical_formula_sum "Si O2"
_cell_formula_units_Z 32
_cell_length_a 12.508695
_cell_length_b 10.921574
_cell_length_c 24.199345
_cell_angle_alpha 90.000000
_cell_angle_beta 147.893646
_cell_angle_gamma 90.000000
_cell_volume 1757.106173
_symmetry_space_group_name_H-M "P 21/M"
_symmetry_group_IT_number 11
_symmetry_cell_setting 'monoclinic'
loop_
_space_group_symop_operation_xyz
x,y,z
-x,1/2+y,-z
-x,-y,-z
x,1/2-y,z
loop_
_atom_site_type_symbol
_atom_site_label
_atom_site_fract_x
_atom_site_fract_y
_atom_site_fract_z
Si Si1 0.559970 0.473964 0.179477
Si Si2 0.642245 0.603930 0.720367
Si Si3 0.561384 0.105986 0.982137
Si Si4 0.797749 0.617380 0.374893
Si Si5 0.987323 0.895943 0.793350
Si Si6 0.178337 0.396726 0.079901
Si Si7 0.197998 0.988318 0.510583
Si Si8 0.030894 0.609824 0.688563
O O1 0.524905 0.574645 0.116115
O O2 0.667722 0.523874 0.281974
O O3 0.347462 0.417351 0.106057
O O4 0.736634 0.392697 0.229440
O O5 0.645411 0.750000 0.717363
O O6 0.806886 0.551114 0.750145
O O7 0.709235 0.578728 0.812462
O O8 0.421279 0.561874 0.607330
O O9 0.518756 0.250000 0.979100
O O10 0.801607 0.092206 0.083486
O O11 0.500000 0.000000 0.000000
O O12 0.714466 0.750000 0.326334
O O13 0.797518 0.590401 0.439542
O O14 0.029436 0.606465 0.457839
O O15 0.954279 0.750000 0.773308
O O16 0.012343 0.943378 0.742069
O O17 0.116955 0.250000 0.052278
O O18 0.000000 0.500000 0.000000
O O19 0.109792 0.037703 0.415106
O O20 0.964723 0.750000 0.659453
#
# Coordination Sequence:
#
# PCOD9161721 Si02
#       8
#     4   4   4   4   4   4   4   4
#     4  11  21  37  61  89 117 156 197 248 303 362
#     4  10  20  38  59  81 115 156 200 240 296 361
#     4  11  22  38  63  91 122 159 204 252 305 362
#     4  10  20  34  53  82 119 150 190 245 300 352
#     4   9  19  36  58  82 112 154 195 243 294 356
#     4  11  24  41  62  90 123 162 205 253 308 370
#     4  10  20  34  54  84 111 153 196 241 298 349
#     4  10  20  35  57  86 116 151 197 245 299 357
#
# _framework density 18.211763000000001
#
# number of rings (size 3 to 8) (size 9 to 14) (size 15 to 20)
#    0.000    1.750    2.500    2.250    0.000    3.000 
#    0.000    0.000    0.000    1.500    0.000    0.000 
#    0.000    0.000    0.000    0.000    0.000    0.000 
#
# Total GULP energy -178178.107905 kJ/mol
# GULP energy per Si atom -5568.065872 kJ/mol
# Density = 1.817031 g / cm^3
# Si number density = 18.211763 Si / 1000 Ang^3
#
#
#
# Elastic Constant Matrix: (Units=GPa)
#
#
# Indices 1 2 3 4 5 6 
#
# 1 93.1594 23.3911 43.6820 0.0000 11.3568 0.0000
# 2 23.3911 58.3234 23.0965 0.0000 6.5016 0.0000
# 3 43.6820 23.0965 103.1582 0.0000 3.9048 0.0000
# 4 0.0000 0.0000 0.0000 15.2293 0.0000 -18.4929
# 5 11.3568 6.5016 3.9048 0.0000 26.5798 0.0000
# 6 0.0000 0.0000 0.0000 -18.4929 0.0000 -37.2953
#
#
#
# Elastic Compliance Matrix: (Units=1/GPa)
#
#
# Indices 1 2 3 4 5 6 
#
# 1 0.014591 -0.003242 -0.005276 0.000000 -0.004666 0.000000
# 2 -0.003242 0.019968 -0.002982 0.000000 -0.003061 0.000000
# 3 -0.005276 -0.002982 0.012552 0.000000 0.001140 0.000000
# 4 0.000000 0.000000 0.000000 0.040985 0.000000 -0.020323
# 5 -0.004666 -0.003061 0.001140 0.000000 0.040198 0.000000
# 6 0.000000 0.000000 0.000000 -0.020323 0.000000 -0.016736
#
#
# Mechanical properties :
#
#
# Convention : Reuss Voigt Hill
#
# Bulk Modulus (GPa) = 41.47451 48.33115 44.90283
# Shear Modulus (GPa) = 35.06403 11.86753 23.46578
#
# Velocity S-wave (km/s) = 4.39264 2.55549 3.59346
# Velocity P-wave (km/s) = 6.96778 5.94167 6.47508
#
# Compressibility (1/GPa) = 0.02411119
#
# Stress axis : x y z
#
# Youngs Moduli (GPa) = 68.53469 50.07947 79.66576
#
# Poissons Ratio (x) = 0.16238 0.42032
# Poissons Ratio (y) = 0.22222 0.23756
# Poissons Ratio (z) = 0.36159 0.14933
#
# Static dielectric constant tensor:
#      x y z
#    x 1.661700 0.000000 0.007170 
#    y 0.000000 1.651160 0.000000 
#    z 0.007170 0.000000 1.594420 
# 
# From -- ./inp_files/35106.got.cif
#   From: 2010.05.17/outbox.cif.g08.bks.cpg/sg11_18_cif.got.tgz:35106.got - 2010.06.03 12:22:45.
