data_PCOD9161152
_publ_section_title
;
Structure prediction by ZEFSAII (Michael W. Deem and Ramdas Pophale) SiO2 
 PCOD9161152
Probable space group: P 21/M
;
_chemical_formula_sum "Si O2"
_cell_formula_units_Z 28
_cell_length_a 22.166127
_cell_length_b 8.473625
_cell_length_c 11.700000
_cell_angle_alpha 90.000000
_cell_angle_beta 129.817591
_cell_angle_gamma 90.000000
_cell_volume 1687.933418
_symmetry_space_group_name_H-M "P 21/M"
_symmetry_group_IT_number 11
_symmetry_cell_setting 'monoclinic'
loop_
_space_group_symop_operation_xyz
x,y,z
-x,1/2+y,-z
-x,-y,-z
x,1/2-y,z
loop_
_atom_site_type_symbol
_atom_site_label
_atom_site_fract_x
_atom_site_fract_y
_atom_site_fract_z
Si Si1 0.932938 0.058647 0.274231
Si Si2 0.898879 0.562150 0.489234
Si Si3 0.542801 0.561550 0.378359
Si Si4 0.764466 0.442050 0.021423
Si Si5 0.735183 0.060124 0.247977
Si Si6 0.380978 0.559026 0.304126
Si Si7 0.427186 0.561290 0.837829
O O1 0.932674 0.250000 0.284264
O O2 0.855327 0.013191 0.109142
O O3 0.021586 0.012082 0.347363
O O4 0.916880 0.988124 0.380287
O O5 0.892161 0.750000 0.488578
O O6 0.813979 0.489458 0.410460
O O7 0.543409 0.750000 0.369913
O O8 0.455514 0.513530 0.315390
O O9 0.601640 0.507798 0.549673
O O10 0.563002 0.489901 0.280919
O O11 0.761513 0.250000 0.017991
O O12 0.742265 0.493080 0.123911
O O13 0.699426 0.495780 0.852525
O O14 0.733659 0.250000 0.243095
O O15 0.655188 0.002880 0.208802
O O16 0.380359 0.750000 0.310157
O O17 0.426681 0.750000 0.843658
O O18 0.500000 0.500000 0.000000
#
# Coordination Sequence:
#
# PCOD9161152 Si02
#       7
#     4   4   4   4   4   4   4
#     4   8  14  24  38  59  89 121 149 182 227 272
#     4   9  15  23  38  61  88 118 152 186 221 266
#     4  10  20  33  48  68  94 121 152 190 229 268
#     4   8  13  25  45  65  87 117 151 183 218 266
#     4   9  18  31  45  63  91 125 154 182 223 273
#     4   9  17  31  50  68  88 119 156 189 225 271
#     4  11  22  35  51  70  93 122 155 189 227 272
#
# _framework density 16.588332000000001
#
# number of rings (size 3 to 8) (size 9 to 14) (size 15 to 20)
#    0.000    2.857    0.000    3.000    0.000    4.571 
#    0.000    2.857    0.000    0.000    0.000    1.000 
#    0.000    0.000    0.000    0.000    0.000    0.000 
#
# Total GULP energy -155886.040198 kJ/mol
# GULP energy per Si atom -5567.358578 kJ/mol
# Density = 1.655058 g / cm^3
# Si number density = 16.588332 Si / 1000 Ang^3
#
#
#
# Elastic Constant Matrix: (Units=GPa)
#
#
# Indices 1 2 3 4 5 6 
#
# 1 94.5562 18.0492 75.3594 0.0000 23.3558 0.0000
# 2 18.0492 12.1509 20.5935 0.0000 4.7131 0.0000
# 3 75.3594 20.5935 147.3422 0.0000 32.8236 0.0000
# 4 0.0000 0.0000 0.0000 23.8164 0.0000 1.8379
# 5 23.3558 4.7131 32.8236 0.0000 28.4272 0.0000
# 6 0.0000 0.0000 0.0000 1.8379 0.0000 20.0174
#
#
#
# Elastic Compliance Matrix: (Units=1/GPa)
#
#
# Indices 1 2 3 4 5 6 
#
# 1 0.020860 -0.016823 -0.006894 0.000000 -0.006388 0.000000
# 2 -0.016823 0.121420 -0.009371 0.000000 0.004511 0.000000
# 3 -0.006894 -0.009371 0.013483 0.000000 -0.008350 0.000000
# 4 0.000000 0.000000 0.000000 0.042288 0.000000 -0.003883
# 5 -0.006388 0.004511 -0.008350 0.000000 0.049320 0.000000
# 6 0.000000 0.000000 0.000000 -0.003883 0.000000 0.050313
#
#
# Mechanical properties :
#
#
# Convention : Reuss Voigt Hill
#
# Bulk Modulus (GPa) = 11.16243 53.56150 32.36196
# Shear Modulus (GPa) = 12.69930 23.78867 18.24398
#
# Velocity S-wave (km/s) = 2.76987 3.79101 3.31993
# Velocity P-wave (km/s) = 4.11986 7.17782 5.85211
#
# Compressibility (1/GPa) = 0.08958622
#
# Stress axis : x y z
#
# Youngs Moduli (GPa) = 47.93967 8.23584 74.16684
#
# Poissons Ratio (x) = 0.13855 0.51134
# Poissons Ratio (y) = 0.80647 0.69505
# Poissons Ratio (z) = 0.33051 0.07718
#
# Static dielectric constant tensor:
#      x y z
#    x 1.562060 0.000000 0.047020 
#    y 0.000000 1.571360 0.000000 
#    z 0.047020 0.000000 1.577730 
# 
# From -- ./inp_files/42611.got.cif
#   From: 2010.05.17/outbox.cif.g08.bks.cpg/sg11_22_cif.got.tgz:42611.got - 2010.06.03 12:22:45.
