data_PCOD9161552
_publ_section_title
;
Structure prediction by ZEFSAII (Michael W. Deem and Ramdas Pophale) SiO2 
 PCOD9161552
Probable space group: P 21/M
;
_chemical_formula_sum "Si O2"
_cell_formula_units_Z 32
_cell_length_a 12.685054
_cell_length_b 7.511256
_cell_length_c 15.994658
_cell_angle_alpha 90.000000
_cell_angle_beta 99.810353
_cell_angle_gamma 90.000000
_cell_volume 1501.697022
_symmetry_space_group_name_H-M "P 21/M"
_symmetry_group_IT_number 11
_symmetry_cell_setting 'monoclinic'
loop_
_space_group_symop_operation_xyz
x,y,z
-x,1/2+y,-z
-x,-y,-z
x,1/2-y,z
loop_
_atom_site_type_symbol
_atom_site_label
_atom_site_fract_x
_atom_site_fract_y
_atom_site_fract_z
Si Si1 0.082725 0.039342 0.390932
Si Si2 0.849797 0.964047 0.417711
Si Si3 0.804878 0.043692 0.764341
Si Si4 0.423744 0.952845 0.236089
Si Si5 0.396146 0.038071 0.042021
Si Si6 0.661880 0.531449 0.273626
Si Si7 0.226901 0.467395 0.884209
Si Si8 0.005399 0.536516 0.098949
O O1 0.101073 0.250000 0.389939
O O2 0.130166 0.969568 0.485358
O O3 0.137054 0.960392 0.316799
O O4 0.955662 0.007810 0.378790
O O5 0.844683 0.750000 0.421557
O O6 0.743418 0.025600 0.356883
O O7 0.788030 0.250000 0.786803
O O8 0.686096 0.963397 0.745096
O O9 0.887593 0.964598 0.842797
O O10 0.429774 0.750000 0.269261
O O11 0.540580 0.032565 0.268680
O O12 0.409710 0.952153 0.133959
O O13 0.387691 0.250000 0.053578
O O14 0.293391 0.977341 0.975096
O O15 0.500000 0.000000 0.000000
O O16 0.659769 0.750000 0.271806
O O17 0.711023 0.476335 0.190878
O O18 0.226874 0.250000 0.883825
O O19 0.104482 0.528122 0.873342
O O20 0.006686 0.750000 0.110714
O O21 0.000000 0.500000 0.000000
#
# Coordination Sequence:
#
# PCOD9161552 Si02
#       8
#     4   4   4   4   4   4   4   4
#     4  10  20  34  55  83 109 135 171 216 264 314
#     4   9  18  34  58  82 105 135 171 215 266 318
#     4  10  21  36  55  77 106 144 179 211 256 317
#     4  10  20  35  54  76 102 137 181 220 258 309
#     4  11  20  32  50  73 102 137 176 218 262 308
#     4   9  16  31  54  76 100 131 172 216 259 312
#     4   9  17  29  49  72  95 130 171 208 251 307
#     4  10  20  34  51  73 101 134 173 213 257 305
#
# _framework density 21.309225999999999
#
# number of rings (size 3 to 8) (size 9 to 14) (size 15 to 20)
#    0.000    2.250    1.250    2.250    0.000    3.500 
#    0.000    1.875    0.000    0.000    0.000    0.000 
#    0.000    0.000    0.000    0.000    0.000    0.000 
#
# Total GULP energy -178752.696321 kJ/mol
# GULP energy per Si atom -5586.021760 kJ/mol
# Density = 2.126073 g / cm^3
# Si number density = 21.309226 Si / 1000 Ang^3
#
#
#
# Elastic Constant Matrix: (Units=GPa)
#
#
# Indices 1 2 3 4 5 6 
#
# 1 203.1789 2.4313 76.6484 0.0000 16.9988 0.0000
# 2 2.4313 61.3964 -7.7332 0.0000 6.1436 0.0000
# 3 76.6484 -7.7332 88.4755 0.0000 6.8123 0.0000
# 4 0.0000 0.0000 0.0000 13.3724 0.0000 -3.4308
# 5 16.9988 6.1436 6.8123 0.0000 36.5756 0.0000
# 6 0.0000 0.0000 0.0000 -3.4308 0.0000 2.9183
#
#
#
# Elastic Compliance Matrix: (Units=1/GPa)
#
#
# Indices 1 2 3 4 5 6 
#
# 1 0.007546 -0.000895 -0.006449 0.000000 -0.002155 0.000000
# 2 -0.000895 0.016924 0.002477 0.000000 -0.002888 0.000000
# 3 -0.006449 0.002477 0.017154 0.000000 -0.000614 0.000000
# 4 0.000000 0.000000 0.000000 0.107078 0.000000 0.125884
# 5 -0.002155 -0.002888 -0.000614 0.000000 0.028942 0.000000
# 6 0.000000 0.000000 0.000000 0.125884 0.000000 0.490662
#
#
# Mechanical properties :
#
#
# Convention : Reuss Voigt Hill
#
# Bulk Modulus (GPa) = 31.35927 55.08264 43.22096
# Shear Modulus (GPa) = 7.26038 29.35353 18.30695
#
# Velocity S-wave (km/s) = 1.84785 3.71550 2.93424
# Velocity P-wave (km/s) = 4.39329 6.65672 5.63972
#
# Compressibility (1/GPa) = 0.03188850
#
# Stress axis : x y z
#
# Youngs Moduli (GPa) = 132.52334 59.08734 58.29663
#
# Poissons Ratio (x) = 0.05291 0.37598
# Poissons Ratio (y) = 0.11867 -0.14442
# Poissons Ratio (z) = 0.85470 -0.14638
#
# Static dielectric constant tensor:
#      x y z
#    x 1.783510 0.000000 0.023560 
#    y 0.000000 1.794770 0.000000 
#    z 0.023560 0.000000 1.729110 
# 
# From -- ./inp_files/49410.got.cif
#   From: 2010.05.17/outbox.cif.g08.bks.cpg/sg11_25_cif.got.tgz:49410.got - 2010.06.03 12:22:45.
