data_PCOD9161804
_publ_section_title
;
Structure prediction by ZEFSAII (Michael W. Deem and Ramdas Pophale) SiO2 
 PCOD9161804
Probable space group: P 21/M
;
_chemical_formula_sum "Si O2"
_cell_formula_units_Z 32
_cell_length_a 12.947648
_cell_length_b 9.427883
_cell_length_c 30.939430
_cell_angle_alpha 90.000000
_cell_angle_beta 154.841848
_cell_angle_gamma 90.000000
_cell_volume 1605.562377
_symmetry_space_group_name_H-M "P 21/M"
_symmetry_group_IT_number 11
_symmetry_cell_setting 'monoclinic'
loop_
_space_group_symop_operation_xyz
x,y,z
-x,1/2+y,-z
-x,-y,-z
x,1/2-y,z
loop_
_atom_site_type_symbol
_atom_site_label
_atom_site_fract_x
_atom_site_fract_y
_atom_site_fract_z
Si Si1 0.491062 0.919599 0.632364
Si Si2 0.267511 0.589244 0.425645
Si Si3 0.012114 0.080540 0.593287
Si Si4 0.857690 0.581883 0.849635
Si Si5 0.503353 0.919487 0.793729
Si Si6 0.147632 0.588110 0.284075
Si Si7 0.679609 0.416115 0.098452
Si Si8 0.347100 0.418016 0.053164
O O1 0.516898 0.750000 0.633944
O O2 0.201536 0.947909 0.522692
O O3 0.656404 0.953846 0.736693
O O4 0.604423 0.014568 0.637191
O O5 0.500000 0.500000 0.500000
O O6 0.347368 0.750000 0.466068
O O7 0.108922 0.541101 0.406133
O O8 0.119111 0.592514 0.324887
O O9 0.058176 0.250000 0.610856
O O10 0.262896 0.997054 0.685250
O O11 0.907622 0.750000 0.864422
O O12 0.725097 0.555241 0.845057
O O13 0.110518 0.497924 0.945180
O O14 0.457303 0.750000 0.777344
O O15 0.577234 0.966049 0.870084
O O16 0.132238 0.750000 0.262164
O O17 0.938631 0.485532 0.188751
O O18 0.684770 0.250000 0.090653
O O19 0.573649 0.434807 0.106551
O O20 0.500000 0.500000 0.000000
O O21 0.290570 0.250000 0.033830
#
# Coordination Sequence:
#
# PCOD9161804 Si02
#       8
#     4   4   4   4   4   4   4   4
#     4  10  21  38  58  82 117 156 192 233 286 341
#     4  10  20  34  54  81 112 147 187 228 271 325
#     4  10  21  37  57  84 117 153 192 231 279 340
#     4  10  22  39  61  86 111 146 190 238 290 344
#     4  10  22  40  60  85 115 146 188 240 291 339
#     4  11  22  35  55  85 116 150 194 234 276 336
#     4  11  23  38  57  83 116 153 189 230 283 339
#     4  10  22  40  61  85 113 147 188 237 289 342
#
# _framework density 19.930710999999999
#
# number of rings (size 3 to 8) (size 9 to 14) (size 15 to 20)
#    0.000    1.750    1.250    2.625    0.000    6.500 
#    0.000    0.000    0.000    0.000    0.000    0.000 
#    0.000    0.000    0.000    0.000    0.000    0.000 
#
# Total GULP energy -178620.648489 kJ/mol
# GULP energy per Si atom -5581.895265 kJ/mol
# Density = 1.988535 g / cm^3
# Si number density = 19.930711 Si / 1000 Ang^3
#
#
#
# Elastic Constant Matrix: (Units=GPa)
#
#
# Indices 1 2 3 4 5 6 
#
# 1 32.1374 14.4613 2.9013 0.0000 -6.7741 0.0000
# 2 14.4613 55.6165 36.8602 0.0000 9.8771 0.0000
# 3 2.9013 36.8602 91.4227 0.0000 3.0076 0.0000
# 4 0.0000 0.0000 0.0000 37.9859 0.0000 4.9785
# 5 -6.7741 9.8771 3.0076 0.0000 34.6129 0.0000
# 6 0.0000 0.0000 0.0000 4.9785 0.0000 21.7889
#
#
#
# Elastic Compliance Matrix: (Units=1/GPa)
#
#
# Indices 1 2 3 4 5 6 
#
# 1 0.040268 -0.015673 0.004648 0.000000 0.011949 0.000000
# 2 -0.015673 0.032021 -0.012046 0.000000 -0.011158 0.000000
# 3 0.004648 -0.012046 0.015549 0.000000 0.002996 0.000000
# 4 0.000000 0.000000 0.000000 0.027138 0.000000 -0.006201
# 5 0.011949 -0.011158 0.002996 0.000000 0.034153 0.000000
# 6 0.000000 0.000000 0.000000 -0.006201 0.000000 0.047312
#
#
# Mechanical properties :
#
#
# Convention : Reuss Voigt Hill
#
# Bulk Modulus (GPa) = 23.98312 31.95804 27.97058
# Shear Modulus (GPa) = 19.49464 27.20781 23.35123
#
# Velocity S-wave (km/s) = 3.13089 3.69876 3.42661
# Velocity P-wave (km/s) = 5.01291 5.85752 5.45160
#
# Compressibility (1/GPa) = 0.04169599
#
# Stress axis : x y z
#
# Youngs Moduli (GPa) = 24.83351 31.22997 64.31383
#
# Poissons Ratio (x) = 0.48947 -0.29894
# Poissons Ratio (y) = 0.38922 0.77470
# Poissons Ratio (z) = -0.11543 0.37619
#
# Static dielectric constant tensor:
#      x y z
#    x 1.729260 0.000000 -0.038880 
#    y 0.000000 1.679300 0.000000 
#    z -0.038880 0.000000 1.682220 
# 
# From -- ./inp_files/73144.got.cif
#   From: 2010.05.17/outbox.cif.g08.bks.cpg/sg11_37_cif.got.tgz:73144.got - 2010.06.03 12:22:45.
