data_PCOD9161399
_publ_section_title
;
Structure prediction by ZEFSAII (Michael W. Deem and Ramdas Pophale) SiO2 
 PCOD9161399
Probable space group: P 21/M
;
_chemical_formula_sum "Si O2"
_cell_formula_units_Z 32
_cell_length_a 8.016245
_cell_length_b 25.441623
_cell_length_c 11.956260
_cell_angle_alpha 90.000000
_cell_angle_beta 35.852394
_cell_angle_gamma 90.000000
_cell_volume 1428.189075
_symmetry_space_group_name_H-M "P 21/M"
_symmetry_group_IT_number 11
_symmetry_cell_setting 'monoclinic'
loop_
_space_group_symop_operation_xyz
x,y,z
-x,1/2+y,-z
-x,-y,-z
x,1/2-y,z
loop_
_atom_site_type_symbol
_atom_site_label
_atom_site_fract_x
_atom_site_fract_y
_atom_site_fract_z
Si Si1 0.008879 0.810998 0.711719
Si Si2 0.674818 0.692076 0.582493
Si Si3 0.512870 0.379282 0.962737
Si Si4 0.307921 0.809800 0.337858
Si Si5 0.883528 0.645279 0.250334
Si Si6 0.303155 0.031103 0.693201
Si Si7 0.221398 0.039260 0.986540
Si Si8 0.115227 0.855256 0.892850
O O1 0.933208 0.750000 0.734056
O O2 0.273732 0.823367 0.486422
O O3 0.086223 0.820427 0.798130
O O4 0.742571 0.849409 0.835519
O O5 0.553598 0.750000 0.671311
O O6 0.449512 0.647858 0.738607
O O7 0.976881 0.688829 0.479310
O O8 0.750386 0.684817 0.411095
O O9 0.537693 0.349095 0.829169
O O10 0.808227 0.371759 0.865630
O O11 0.418524 0.437376 0.976952
O O12 0.412111 0.750000 0.266263
O O13 0.705465 0.591728 0.337030
O O14 0.943629 0.665464 0.093050
O O15 0.381498 0.026737 0.782832
O O16 0.500000 0.000000 0.500000
O O17 0.981880 0.007821 0.865220
O O18 0.002416 0.086976 0.072611
#
# Coordination Sequence:
#
# PCOD9161399 Si02
#       8
#     4   4   4   4   4   4   4   4
#     4  10  20  33  53  79 108 148 188 223 268 320
#     4  10  20  34  53  78 109 145 182 219 263 318
#     4  10  20  36  55  80 112 142 181 229 275 325
#     4   9  19  34  51  74 107 147 185 220 265 320
#     4  10  22  37  57  82 110 145 181 224 275 324
#     4  10  20  39  60  79 108 142 177 224 277 326
#     4   9  21  36  56  82 106 139 181 221 272 332
#     4  10  20  35  53  79 110 140 180 227 271 317
#
# _framework density 22.405996999999999
#
# number of rings (size 3 to 8) (size 9 to 14) (size 15 to 20)
#    0.000    2.250    0.000    2.250    0.000    7.000 
#    0.000    0.625    0.000    0.000    0.000    0.000 
#    0.000    0.000    0.000    0.000    0.000    0.000 
#
# Total GULP energy -178847.671651 kJ/mol
# GULP energy per Si atom -5588.989739 kJ/mol
# Density = 2.235500 g / cm^3
# Si number density = 22.405997 Si / 1000 Ang^3
#
#
#
# Elastic Constant Matrix: (Units=GPa)
#
#
# Indices 1 2 3 4 5 6 
#
# 1 64.8767 4.3922 7.7764 0.0000 10.5128 0.0000
# 2 4.3922 57.5877 18.6882 0.0000 6.2826 0.0000
# 3 7.7764 18.6882 75.5168 0.0000 23.6039 0.0000
# 4 0.0000 0.0000 0.0000 36.7626 0.0000 2.3619
# 5 10.5128 6.2826 23.6039 0.0000 41.7517 0.0000
# 6 0.0000 0.0000 0.0000 2.3619 0.0000 21.2908
#
#
#
# Elastic Compliance Matrix: (Units=1/GPa)
#
#
# Indices 1 2 3 4 5 6 
#
# 1 0.016111 -0.000719 -0.000300 0.000000 -0.003779 0.000000
# 2 -0.000719 0.018915 -0.004584 0.000000 -0.000074 0.000000
# 3 -0.000300 -0.004584 0.017209 0.000000 -0.008964 0.000000
# 4 0.000000 0.000000 0.000000 0.027397 0.000000 -0.003039
# 5 -0.003779 -0.000074 -0.008964 0.000000 0.029981 0.000000
# 6 0.000000 0.000000 0.000000 -0.003039 0.000000 0.047306
#
#
# Mechanical properties :
#
#
# Convention : Reuss Voigt Hill
#
# Bulk Modulus (GPa) = 24.37285 28.85497 26.61391
# Shear Modulus (GPa) = 27.50254 31.10263 29.30258
#
# Velocity S-wave (km/s) = 3.50732 3.72982 3.62028
# Velocity P-wave (km/s) = 5.22524 5.60847 5.42024
#
# Compressibility (1/GPa) = 0.04102926
#
# Stress axis : x y z
#
# Youngs Moduli (GPa) = 62.07006 52.86732 58.10878
#
# Poissons Ratio (x) = 0.03802 0.01743
# Poissons Ratio (y) = 0.04464 0.26636
# Poissons Ratio (z) = 0.01862 0.24234
#
# Static dielectric constant tensor:
#      x y z
#    x 1.925200 0.000000 -0.015320 
#    y 0.000000 1.774710 0.000000 
#    z -0.015320 0.000000 1.833360 
# 
# From -- ./inp_files/3406.got.cif
#   From: 2010.05.17/outbox.cif.g08.bks.cpg/sg11_2_cif.got.tgz:3406.got - 2010.06.03 12:22:45.
