data_PCOD9161409
_publ_section_title
;
Structure prediction by ZEFSAII (Michael W. Deem and Ramdas Pophale) SiO2 
 PCOD9161409
Probable space group: P 21/M
;
_chemical_formula_sum "Si O2"
_cell_formula_units_Z 32
_cell_length_a 21.869826
_cell_length_b 9.005764
_cell_length_c 14.614084
_cell_angle_alpha 90.000000
_cell_angle_beta 35.404379
_cell_angle_gamma 90.000000
_cell_volume 1667.529803
_symmetry_space_group_name_H-M "P 21/M"
_symmetry_group_IT_number 11
_symmetry_cell_setting 'monoclinic'
loop_
_space_group_symop_operation_xyz
x,y,z
-x,1/2+y,-z
-x,-y,-z
x,1/2-y,z
loop_
_atom_site_type_symbol
_atom_site_label
_atom_site_fract_x
_atom_site_fract_y
_atom_site_fract_z
Si Si1 0.705985 0.582828 0.903016
Si Si2 0.556059 0.929439 0.638566
Si Si3 0.940925 0.569575 0.297124
Si Si4 0.340606 0.422706 0.833778
Si Si5 0.204158 0.070866 0.694767
Si Si6 0.080012 0.077394 0.470562
Si Si7 0.838509 0.072029 0.064676
Si Si8 0.491706 0.921180 0.913592
O O1 0.659379 0.750000 0.944841
O O2 0.807332 0.571030 0.716263
O O3 0.721102 0.571795 0.993423
O O4 0.627062 0.452525 0.973303
O O5 0.541023 0.750000 0.653993
O O6 0.670996 0.964669 0.458990
O O7 0.556489 0.975068 0.745697
O O8 0.456063 0.006319 0.711695
O O9 0.936082 0.750000 0.304791
O O10 0.854392 0.523873 0.327305
O O11 0.919615 0.516533 0.426432
O O12 0.057919 0.528325 0.120054
O O13 0.352702 0.250000 0.792927
O O14 0.267956 0.507919 0.850581
O O15 0.194640 0.250000 0.714124
O O16 0.152245 0.993576 0.845160
O O17 0.049202 0.250000 0.514890
O O18 0.000000 0.000000 0.500000
O O19 0.833759 0.250000 0.073066
O O20 0.517197 0.750000 0.895205
O O21 0.500000 0.000000 0.000000
#
# Coordination Sequence:
#
# PCOD9161409 Si02
#       8
#     4   4   4   4   4   4   4   4
#     4   9  19  34  54  80 110 146 185 226 272 323
#     4   9  20  37  58  83 111 147 189 232 279 335
#     4   9  20  37  59  84 112 150 189 230 280 338
#     4  10  20  36  58  84 115 150 187 233 282 333
#     4  10  21  39  61  83 109 146 191 234 283 339
#     4  10  20  35  57  83 114 149 187 228 274 330
#     4  11  22  37  58  84 112 146 189 236 288 339
#     4  10  20  33  53  80 110 146 183 222 268 327
#
# _framework density 19.190061
#
# number of rings (size 3 to 8) (size 9 to 14) (size 15 to 20)
#    0.000    2.250    0.000    2.250    1.750    2.500 
#    0.000    1.875    0.000    0.000    0.000    0.000 
#    0.000    0.000    0.000    0.000    0.000    0.000 
#
# Total GULP energy -178479.067166 kJ/mol
# GULP energy per Si atom -5577.470849 kJ/mol
# Density = 1.914638 g / cm^3
# Si number density = 19.190061 Si / 1000 Ang^3
#
#
#
# Elastic Constant Matrix: (Units=GPa)
#
#
# Indices 1 2 3 4 5 6 
#
# 1 95.0358 16.1974 24.3806 0.0000 8.5539 0.0000
# 2 16.1974 23.8958 20.7572 0.0000 1.5328 0.0000
# 3 24.3806 20.7572 67.4892 0.0000 1.9697 0.0000
# 4 0.0000 0.0000 0.0000 21.8552 0.0000 3.5470
# 5 8.5539 1.5328 1.9697 0.0000 20.6540 0.0000
# 6 0.0000 0.0000 0.0000 3.5470 0.0000 31.8438
#
#
#
# Elastic Compliance Matrix: (Units=1/GPa)
#
#
# Indices 1 2 3 4 5 6 
#
# 1 0.012617 -0.006028 -0.002572 0.000000 -0.004533 0.000000
# 2 -0.006028 0.060121 -0.016302 0.000000 -0.000411 0.000000
# 3 -0.002572 -0.016302 0.020751 0.000000 0.000296 0.000000
# 4 0.000000 0.000000 0.000000 0.046598 0.000000 -0.005190
# 5 -0.004533 -0.000411 0.000296 0.000000 0.050296 0.000000
# 6 0.000000 0.000000 0.000000 -0.005190 0.000000 0.031981
#
#
# Mechanical properties :
#
#
# Convention : Reuss Voigt Hill
#
# Bulk Modulus (GPa) = 22.88978 34.34346 28.61662
# Shear Modulus (GPa) = 17.43798 23.20964 20.32381
#
# Velocity S-wave (km/s) = 3.01773 3.48150 3.25788
# Velocity P-wave (km/s) = 4.90878 5.83922 5.39410
#
# Compressibility (1/GPa) = 0.04368763
#
# Stress axis : x y z
#
# Youngs Moduli (GPa) = 79.25516 16.63312 48.18951
#
# Poissons Ratio (x) = 0.10026 0.12394
# Poissons Ratio (y) = 0.47773 0.78556
# Poissons Ratio (z) = 0.20383 0.27115
#
# Static dielectric constant tensor:
#      x y z
#    x 1.693600 0.000000 -0.000820 
#    y 0.000000 1.662960 0.000000 
#    z -0.000820 0.000000 1.731660 
# 
# From -- ./inp_files/54295.got.cif
#   From: 2010.05.17/outbox.cif.g08.bks.cpg/sg11_28_cif.got.tgz:54295.got - 2010.06.03 12:22:45.
