data_PCOD9161506
_publ_section_title
;
Structure prediction by ZEFSAII (Michael W. Deem and Ramdas Pophale) SiO2 
 PCOD9161506
Probable space group: P 21/M
;
_chemical_formula_sum "Si O2"
_cell_formula_units_Z 30
_cell_length_a 14.252490
_cell_length_b 22.207077
_cell_length_c 4.937222
_cell_angle_alpha 90.000000
_cell_angle_beta 64.857096
_cell_angle_gamma 90.000000
_cell_volume 1414.600356
_symmetry_space_group_name_H-M "P 21/M"
_symmetry_group_IT_number 11
_symmetry_cell_setting 'monoclinic'
loop_
_space_group_symop_operation_xyz
x,y,z
-x,1/2+y,-z
-x,-y,-z
x,1/2-y,z
loop_
_atom_site_type_symbol
_atom_site_label
_atom_site_fract_x
_atom_site_fract_y
_atom_site_fract_z
Si Si1 0.773713 0.822927 0.772484
Si Si2 0.401851 0.750000 0.264879
Si Si3 0.419363 0.316249 0.639729
Si Si4 0.897309 0.676801 0.122823
Si Si5 0.885405 0.180177 0.895321
Si Si6 0.754935 0.148164 0.569434
Si Si7 0.525446 0.924383 0.778940
Si Si8 0.607426 0.046709 0.560561
O O1 0.770348 0.750000 0.770161
O O2 0.667402 0.840448 0.048785
O O3 0.867262 0.841230 0.857922
O O4 0.804679 0.842781 0.436143
O O5 0.475059 0.801067 0.330535
O O6 0.330156 0.696218 0.221933
O O7 0.383934 0.250000 0.577534
O O8 0.440075 0.359624 0.365861
O O9 0.901091 0.750000 0.117007
O O10 0.006826 0.657555 0.110460
O O11 0.899548 0.250000 0.790073
O O12 0.841200 0.144032 0.695344
O O13 0.802977 0.177744 0.240428
O O14 0.703725 0.085758 0.541172
O O15 0.427032 0.940475 0.704428
O O16 0.610531 0.975324 0.607051
O O17 0.488100 0.931987 0.130294
#
# Coordination Sequence:
#
# PCOD9161506 Si02
#       8
#     4   2   4   4   4   4   4   4
#     4   9  17  32  48  73  99 130 168 204 263 306
#     4  10  20  34  48  78 118 140 166 206 258 310
#     4   9  19  34  54  81 107 141 166 211 261 318
#     4   9  18  32  50  69 101 131 166 219 252 306
#     4  11  21  33  51  77 103 137 176 210 266 308
#     4  12  21  34  50  77 108 145 171 207 254 315
#     4  10  20  37  52  73 102 141 182 209 245 294
#     4  10  21  35  53  70 102 145 181 211 239 292
#
# _framework density 21.207405999999999
#
# number of rings (size 3 to 8) (size 9 to 14) (size 15 to 20)
#    0.400    1.600    2.667    1.600    0.000    3.200 
#    1.200    1.333    0.000    0.000    0.000    5.600 
#    0.000    0.000    0.000    0.000    0.000    0.000 
#
# Total GULP energy -167083.995578 kJ/mol
# GULP energy per Si atom -5569.466519 kJ/mol
# Density = 2.115914 g / cm^3
# Si number density = 21.207406 Si / 1000 Ang^3
#
#
#
# Elastic Constant Matrix: (Units=GPa)
#
#
# Indices 1 2 3 4 5 6 
#
# 1 80.1269 -3.9759 2.5570 0.0000 9.5926 0.0000
# 2 -3.9759 48.6495 4.8899 0.0000 -7.6681 0.0000
# 3 2.5570 4.8899 45.0300 0.0000 11.9563 0.0000
# 4 0.0000 0.0000 0.0000 19.5949 0.0000 0.3141
# 5 9.5926 -7.6681 11.9563 0.0000 26.8480 0.0000
# 6 0.0000 0.0000 0.0000 0.3141 0.0000 6.7582
#
#
#
# Elastic Compliance Matrix: (Units=1/GPa)
#
#
# Indices 1 2 3 4 5 6 
#
# 1 0.013053 0.000256 0.000510 0.000000 -0.004818 0.000000
# 2 0.000256 0.022365 -0.004667 0.000000 0.008375 0.000000
# 3 0.000510 -0.004667 0.026184 0.000000 -0.013176 0.000000
# 4 0.000000 0.000000 0.000000 0.051072 0.000000 -0.002373
# 5 -0.004818 0.008375 -0.013176 0.000000 0.047228 0.000000
# 6 0.000000 0.000000 0.000000 -0.002373 0.000000 0.148080
#
#
# Mechanical properties :
#
#
# Convention : Reuss Voigt Hill
#
# Bulk Modulus (GPa) = 18.58695 20.08316 19.33505
# Shear Modulus (GPa) = 14.98280 21.99588 18.48934
#
# Velocity S-wave (km/s) = 2.66087 3.22402 2.95589
# Velocity P-wave (km/s) = 4.26892 4.83213 4.55923
#
# Compressibility (1/GPa) = 0.05380120
#
# Stress axis : x y z
#
# Youngs Moduli (GPa) = 76.60818 44.71233 38.19189
#
# Poissons Ratio (x) = -0.01145 -0.01949
# Poissons Ratio (y) = -0.01962 0.17823
# Poissons Ratio (z) = -0.03909 0.20866
#
# Static dielectric constant tensor:
#      x y z
#    x 1.815540 0.000000 -0.028550 
#    y 0.000000 1.793310 0.000000 
#    z -0.028550 0.000000 1.805800 
# 
# From -- ./inp_files/7159.got.cif
#   From: 2010.05.17/outbox.cif.g08.bks.cpg/sg11_4_cif.got.tgz:7159.got - 2010.06.03 12:22:45.
