data_PCOD9161159
_publ_section_title
;
Structure prediction by ZEFSAII (Michael W. Deem and Ramdas Pophale) SiO2 
 PCOD9161159
Probable space group: P 21/M
;
_chemical_formula_sum "Si O2"
_cell_formula_units_Z 32
_cell_length_a 11.819116
_cell_length_b 8.856754
_cell_length_c 22.594160
_cell_angle_alpha 90.000000
_cell_angle_beta 125.209206
_cell_angle_gamma 90.000000
_cell_volume 1932.438217
_symmetry_space_group_name_H-M "P 21/M"
_symmetry_group_IT_number 11
_symmetry_cell_setting 'monoclinic'
loop_
_space_group_symop_operation_xyz
x,y,z
-x,1/2+y,-z
-x,-y,-z
x,1/2-y,z
loop_
_atom_site_type_symbol
_atom_site_label
_atom_site_fract_x
_atom_site_fract_y
_atom_site_fract_z
Si Si1 0.424428 0.068901 0.651050
Si Si2 0.310415 0.568845 0.913725
Si Si3 0.877592 0.430713 0.623363
Si Si4 0.856819 0.069006 0.479301
Si Si5 0.578860 0.428295 0.933443
Si Si6 0.161211 0.570088 0.754044
Si Si7 0.542321 0.069511 0.213892
Si Si8 0.414456 0.932437 0.419441
O O1 0.416954 0.250000 0.651254
O O2 0.517071 0.024685 0.622256
O O3 0.272150 0.001146 0.594163
O O4 0.480399 0.004827 0.729538
O O5 0.341338 0.750000 0.917463
O O6 0.437698 0.475011 0.924931
O O7 0.184871 0.537777 0.831096
O O8 0.304105 0.536156 0.981805
O O9 0.887842 0.250000 0.630114
O O10 0.844581 0.468498 0.545177
O O11 0.745547 0.480203 0.622124
O O12 0.023744 0.497208 0.687046
O O13 0.856926 0.250000 0.472403
O O14 0.000000 0.000000 0.500000
O O15 0.580723 0.250000 0.922403
O O16 0.567695 0.516183 0.868604
O O17 0.150497 0.750000 0.743780
O O18 0.303482 0.523743 0.763429
O O19 0.541001 0.250000 0.217724
O O20 0.419489 0.750000 0.425651
O O21 0.500000 0.000000 0.500000
#
# Coordination Sequence:
#
# PCOD9161159 Si02
#       8
#     4   4   4   4   4   4   4   4
#     4  11  22  35  53  74  95 124 165 207 250 297
#     4   8  15  27  42  65  99 134 165 199 240 287
#     4  10  21  35  50  70  96 126 160 201 247 289
#     4  11  22  35  51  71 100 132 163 198 242 295
#     4   9  15  25  44  68  96 131 168 201 237 286
#     4   9  18  31  47  70 100 133 164 195 237 289
#     4  10  20  33  48  70 104 136 163 200 246 296
#     4  10  21  38  56  73  93 121 162 211 253 295
#
# _framework density 16.559391000000002
#
# number of rings (size 3 to 8) (size 9 to 14) (size 15 to 20)
#    0.000    2.250    1.250    3.000    0.000    7.000 
#    0.000    0.000    0.000    0.000    0.000    0.875 
#    0.000    0.000    0.000    0.000    0.000    0.000 
#
# Total GULP energy -178374.822797 kJ/mol
# GULP energy per Si atom -5574.213212 kJ/mol
# Density = 1.652170 g / cm^3
# Si number density = 16.559391 Si / 1000 Ang^3
#
#
#
# Elastic Constant Matrix: (Units=GPa)
#
#
# Indices 1 2 3 4 5 6 
#
# 1 54.5275 18.1807 16.9624 0.0000 -22.8641 0.0000
# 2 18.1807 28.6685 31.4656 0.0000 -13.0537 0.0000
# 3 16.9624 31.4656 103.6561 0.0000 -29.4519 0.0000
# 4 0.0000 0.0000 0.0000 31.0202 0.0000 -0.6139
# 5 -22.8641 -13.0537 -29.4519 0.0000 19.4355 0.0000
# 6 0.0000 0.0000 0.0000 -0.6139 0.0000 17.2031
#
#
#
# Elastic Compliance Matrix: (Units=1/GPa)
#
#
# Indices 1 2 3 4 5 6 
#
# 1 0.049859 -0.017930 0.018488 0.000000 0.074627 0.000000
# 2 -0.017930 0.063305 -0.017904 0.000000 -0.005706 0.000000
# 3 0.018488 -0.017904 0.026025 0.000000 0.049162 0.000000
# 4 0.000000 0.000000 0.000000 0.032260 0.000000 0.001151
# 5 0.074627 -0.005706 0.049162 0.000000 0.209911 0.000000
# 6 0.000000 0.000000 0.000000 0.001151 0.000000 0.058170
#
#
# Mechanical properties :
#
#
# Convention : Reuss Voigt Hill
#
# Bulk Modulus (GPa) = 9.56972 35.56327 22.56649
# Shear Modulus (GPa) = 9.82214 21.54800 15.68507
#
# Velocity S-wave (km/s) = 2.43810 3.61121 3.08100
# Velocity P-wave (km/s) = 3.70369 6.23783 5.12971
#
# Compressibility (1/GPa) = 0.10449629
#
# Stress axis : x y z
#
# Youngs Moduli (GPa) = 20.05664 15.79657 38.42421
#
# Poissons Ratio (x) = 0.28324 -0.71039
# Poissons Ratio (y) = 0.35962 0.68794
# Poissons Ratio (z) = -0.37081 0.28282
#
# Static dielectric constant tensor:
#      x y z
#    x 1.539780 0.000000 -0.021300 
#    y 0.000000 1.553000 0.000000 
#    z -0.021300 0.000000 1.584260 
# 
# From -- ./inp_files/40644.got.cif
#   From: 2010.05.17/outbox.cif.g08.bks.cpg/sg11_21_cif.got.tgz:40644.got - 2010.06.03 12:22:45.
