data_PCOD9161059
_publ_section_title
;
Structure prediction by ZEFSAII (Michael W. Deem and Ramdas Pophale) SiO2 
 PCOD9161059
Probable space group: P 21/M
;
_chemical_formula_sum "Si O2"
_cell_formula_units_Z 32
_cell_length_a 22.058529
_cell_length_b 8.124536
_cell_length_c 27.670260
_cell_angle_alpha 90.000000
_cell_angle_beta 160.713112
_cell_angle_gamma 90.000000
_cell_volume 1637.928055
_symmetry_space_group_name_H-M "P 21/M"
_symmetry_group_IT_number 11
_symmetry_cell_setting 'monoclinic'
loop_
_space_group_symop_operation_xyz
x,y,z
-x,1/2+y,-z
-x,-y,-z
x,1/2-y,z
loop_
_atom_site_type_symbol
_atom_site_label
_atom_site_fract_x
_atom_site_fract_y
_atom_site_fract_z
Si Si1 0.621399 0.548833 0.957362
Si Si2 0.599409 0.554104 0.409143
Si Si3 0.623417 0.053483 0.137493
Si Si4 0.580598 0.451060 0.630999
Si Si5 0.018164 0.945211 0.458156
Si Si6 0.397234 0.551842 0.697604
Si Si7 0.207508 0.555517 0.296787
Si Si8 0.030131 0.949664 0.258256
O O1 0.621702 0.750000 0.958545
O O2 0.476725 0.493727 0.888919
O O3 0.550195 0.496662 0.851149
O O4 0.829414 0.495487 0.124123
O O5 0.596069 0.750000 0.405897
O O6 0.446882 0.499676 0.333982
O O7 0.570232 0.493134 0.333194
O O8 0.799088 0.502249 0.580144
O O9 0.631130 0.250000 0.145558
O O10 0.830241 0.990264 0.290203
O O11 0.500000 0.000000 0.000000
O O12 0.570422 0.250000 0.620530
O O13 0.401248 0.524794 0.469706
O O14 0.754103 0.505538 0.728900
O O15 0.036393 0.750000 0.472654
O O16 0.199968 0.011595 0.568553
O O17 0.000000 0.000000 0.500000
O O18 0.393016 0.750000 0.696762
O O19 0.171920 0.750000 0.265950
O O20 0.064530 0.489890 0.228819
O O21 0.032123 0.750000 0.259167
#
# Coordination Sequence:
#
# PCOD9161059 Si02
#       8
#     4   4   4   4   4   4   4   4
#     4   9  19  37  56  74 101 136 170 209 256 303
#     4  10  20  32  48  76 107 135 168 211 258 302
#     4  11  23  40  58  82 111 140 175 217 265 315
#     4   8  14  25  41  65 101 132 159 203 254 296
#     4  11  22  39  61  82 104 137 177 221 266 314
#     4  10  21  38  56  73  99 138 175 209 253 305
#     4   8  13  23  43  70  95 127 167 204 246 299
#     4   9  17  31  53  77 101 132 172 212 254 307
#
# _framework density 19.536878999999999
#
# number of rings (size 3 to 8) (size 9 to 14) (size 15 to 20)
#    0.000    2.500    1.250    1.125    1.750    1.500 
#    0.000    1.250    0.000    0.750    0.000    0.000 
#    0.000    0.000    0.000    0.000    0.000    0.875 
#
# Total GULP energy -178316.192952 kJ/mol
# GULP energy per Si atom -5572.381030 kJ/mol
# Density = 1.949241 g / cm^3
# Si number density = 19.536879 Si / 1000 Ang^3
#
#
#
# Elastic Constant Matrix: (Units=GPa)
#
#
# Indices 1 2 3 4 5 6 
#
# 1 95.3295 2.7101 -1.9407 0.0000 -22.8129 0.0000
# 2 2.7101 16.2878 0.1494 0.0000 -1.4817 0.0000
# 3 -1.9407 0.1494 25.5973 0.0000 -16.9760 0.0000
# 4 0.0000 0.0000 0.0000 17.3618 0.0000 -2.6791
# 5 -22.8129 -1.4817 -16.9760 0.0000 25.3065 0.0000
# 6 0.0000 0.0000 0.0000 -2.6791 0.0000 20.4605
#
#
#
# Elastic Compliance Matrix: (Units=1/GPa)
#
#
# Indices 1 2 3 4 5 6 
#
# 1 0.018577 -0.000402 0.022520 0.000000 0.031829 0.000000
# 2 -0.000402 0.061925 0.003192 0.000000 0.005405 0.000000
# 3 0.022520 0.003192 0.097893 0.000000 0.086156 0.000000
# 4 0.000000 0.000000 0.000000 0.058785 0.000000 0.007697
# 5 0.031829 0.005405 0.086156 0.000000 0.126319 0.000000
# 6 0.000000 0.000000 0.000000 0.007697 0.000000 0.049883
#
#
# Mechanical properties :
#
#
# Convention : Reuss Voigt Hill
#
# Bulk Modulus (GPa) = 4.36653 15.45026 9.90839
# Shear Modulus (GPa) = 11.38691 21.71216 16.54954
#
# Velocity S-wave (km/s) = 2.41683 3.33730 2.91364
# Velocity P-wave (km/s) = 3.16670 4.77237 4.04990
#
# Compressibility (1/GPa) = 0.22901475
#
# Stress axis : x y z
#
# Youngs Moduli (GPa) = 53.83087 16.14857 10.21521
#
# Poissons Ratio (x) = 0.00649 -0.23004
# Poissons Ratio (y) = 0.02164 -0.03261
# Poissons Ratio (z) = -1.21225 -0.05155
#
# Static dielectric constant tensor:
#      x y z
#    x 1.746020 0.000000 0.023330 
#    y 0.000000 1.699480 0.000000 
#    z 0.023330 0.000000 1.657460 
# 
# From -- ./inp_files/72123.got.cif
#   From: 2010.05.17/outbox.cif.g08.bks.cpg/sg11_37_cif.got.tgz:72123.got - 2010.06.03 12:22:45.
