data_PCOD9161569
_publ_section_title
;
Structure prediction by ZEFSAII (Michael W. Deem and Ramdas Pophale) SiO2 
 PCOD9161569
Probable space group: P 21/M
;
_chemical_formula_sum "Si O2"
_cell_formula_units_Z 32
_cell_length_a 12.153356
_cell_length_b 7.568890
_cell_length_c 15.177119
_cell_angle_alpha 90.000000
_cell_angle_beta 86.195579
_cell_angle_gamma 90.000000
_cell_volume 1393.027417
_symmetry_space_group_name_H-M "P 21/M"
_symmetry_group_IT_number 11
_symmetry_cell_setting 'monoclinic'
loop_
_space_group_symop_operation_xyz
x,y,z
-x,1/2+y,-z
-x,-y,-z
x,1/2-y,z
loop_
_atom_site_type_symbol
_atom_site_label
_atom_site_fract_x
_atom_site_fract_y
_atom_site_fract_z
Si Si1 0.626337 0.538023 0.519025
Si Si2 0.561372 0.454541 0.862605
Si Si3 0.281145 0.535418 0.005560
Si Si4 0.331455 0.042893 0.810555
Si Si5 0.055070 0.961139 0.090384
Si Si6 0.720652 0.541033 0.699447
Si Si7 0.024225 0.536588 0.286278
Si Si8 0.208541 0.033189 0.642450
O O1 0.500000 0.500000 0.500000
O O2 0.636408 0.750000 0.520669
O O3 0.662564 0.473071 0.613411
O O4 0.713984 0.473913 0.441595
O O5 0.534608 0.250000 0.882156
O O6 0.451863 0.536088 0.825778
O O7 0.659545 0.458177 0.786289
O O8 0.609880 0.530667 0.950534
O O9 0.282282 0.750000 0.004317
O O10 0.268386 0.474040 0.906386
O O11 0.179428 0.474952 0.070199
O O12 0.346946 0.250000 0.789458
O O13 0.265807 0.972587 0.730533
O O14 0.056655 0.750000 0.098258
O O15 0.007885 0.026525 0.185620
O O16 0.000000 0.000000 0.000000
O O17 0.701034 0.750000 0.707084
O O18 0.852354 0.512987 0.691361
O O19 0.021228 0.750000 0.286487
O O20 0.919411 0.476511 0.349133
O O21 0.207743 0.250000 0.641289
#
# Coordination Sequence:
#
# PCOD9161569 Si02
#       8
#     4   4   4   4   4   4   4   4
#     4  10  22  41  63  90 119 149 188 235 289 346
#     4  10  20  37  58  80 112 153 194 230 280 351
#     4  10  20  34  51  77 114 149 184 234 287 338
#     4  10  20  34  57  84 108 145 193 236 280 341
#     4  10  20  34  53  78 110 149 194 238 280 332
#     4  11  23  37  58  88 119 148 189 246 292 332
#     4  10  20  38  60  80 112 156 196 232 280 346
#     4   9  19  37  60  84 112 148 191 234 279 340
#
# _framework density 22.971550000000001
#
# number of rings (size 3 to 8) (size 9 to 14) (size 15 to 20)
#    0.000    2.000    1.250    2.250    0.000    5.500 
#    0.000    1.875    0.000    0.000    0.000    0.000 
#    0.000    0.000    0.000    0.000    0.000    0.000 
#
# Total GULP energy -178756.553304 kJ/mol
# GULP energy per Si atom -5586.142291 kJ/mol
# Density = 2.291927 g / cm^3
# Si number density = 22.971550 Si / 1000 Ang^3
#
#
#
# Elastic Constant Matrix: (Units=GPa)
#
#
# Indices 1 2 3 4 5 6 
#
# 1 82.0688 -2.1783 13.7606 0.0000 -11.2873 0.0000
# 2 -2.1783 54.4796 -7.4957 0.0000 1.6214 0.0000
# 3 13.7606 -7.4957 95.1142 0.0000 0.2907 0.0000
# 4 0.0000 0.0000 0.0000 8.5870 0.0000 2.8136
# 5 -11.2873 1.6214 0.2907 0.0000 41.3597 0.0000
# 6 0.0000 0.0000 0.0000 2.8136 0.0000 17.1737
#
#
#
# Elastic Compliance Matrix: (Units=1/GPa)
#
#
# Indices 1 2 3 4 5 6 
#
# 1 0.012993 0.000155 -0.001878 0.000000 0.003553 0.000000
# 2 0.000155 0.018581 0.001444 0.000000 -0.000696 0.000000
# 3 -0.001878 0.001444 0.010901 0.000000 -0.000646 0.000000
# 4 0.000000 0.000000 0.000000 0.123060 0.000000 -0.020161
# 5 0.003553 -0.000696 -0.000646 0.000000 0.025180 0.000000
# 6 0.000000 0.000000 0.000000 -0.020161 0.000000 0.061531
#
#
# Mechanical properties :
#
#
# Convention : Reuss Voigt Hill
#
# Bulk Modulus (GPa) = 23.85674 26.64843 25.25258
# Shear Modulus (GPa) = 18.74230 28.59584 23.66907
#
# Velocity S-wave (km/s) = 2.85948 3.53205 3.21341
# Velocity P-wave (km/s) = 4.61628 5.31598 4.97844
#
# Compressibility (1/GPa) = 0.04191687
#
# Stress axis : x y z
#
# Youngs Moduli (GPa) = 76.96688 53.81815 91.73307
#
# Poissons Ratio (x) = -0.00836 0.17230
# Poissons Ratio (y) = -0.01196 -0.13246
# Poissons Ratio (z) = 0.14457 -0.07771
#
# Static dielectric constant tensor:
#      x y z
#    x 1.884480 0.000000 0.009670 
#    y 0.000000 1.863700 0.000000 
#    z 0.009670 0.000000 1.851070 
# 
# From -- ./inp_files/49374.got.cif
#   From: 2010.05.17/outbox.cif.g08.bks.cpg/sg11_25_cif.got.tgz:49374.got - 2010.06.03 12:22:45.
