data_PCOD9161853
_publ_section_title
;
Structure prediction by ZEFSAII (Michael W. Deem and Ramdas Pophale) SiO2 
 PCOD9161853
Probable space group: P 21/M
;
_chemical_formula_sum "Si O2"
_cell_formula_units_Z 32
_cell_length_a 11.637487
_cell_length_b 8.856877
_cell_length_c 28.296454
_cell_angle_alpha 90.000000
_cell_angle_beta 144.410343
_cell_angle_gamma 90.000000
_cell_volume 1697.372051
_symmetry_space_group_name_H-M "P 21/M"
_symmetry_group_IT_number 11
_symmetry_cell_setting 'monoclinic'
loop_
_space_group_symop_operation_xyz
x,y,z
-x,1/2+y,-z
-x,-y,-z
x,1/2-y,z
loop_
_atom_site_type_symbol
_atom_site_label
_atom_site_fract_x
_atom_site_fract_y
_atom_site_fract_z
Si Si1 0.540348 0.431155 0.161142
Si Si2 0.100971 0.431394 0.463386
Si Si3 0.999430 0.068575 0.326321
Si Si4 0.274152 0.932057 0.226222
Si Si5 0.829507 0.431026 0.910648
Si Si6 0.585150 0.571107 0.075985
Si Si7 0.692568 0.429316 0.380332
Si Si8 0.053352 0.928738 0.245715
O O1 0.522822 0.250000 0.158136
O O2 0.380115 0.508650 0.140752
O O3 0.505655 0.487406 0.096011
O O4 0.766361 0.473857 0.249540
O O5 0.129961 0.250000 0.475721
O O6 0.102934 0.479889 0.409516
O O7 0.252758 0.511486 0.549163
O O8 0.882240 0.463641 0.411016
O O9 0.004888 0.250000 0.326609
O O10 0.089442 0.005120 0.308222
O O11 0.277168 0.750000 0.228738
O O12 0.153827 0.975149 0.138966
O O13 0.178882 0.986836 0.243368
O O14 0.495623 0.992118 0.296513
O O15 0.835598 0.250000 0.915957
O O16 0.000000 0.500000 0.000000
O O17 0.543200 0.750000 0.064460
O O18 0.822098 0.551037 0.156336
O O19 0.500000 0.500000 0.000000
O O20 0.666099 0.250000 0.371653
O O21 0.089218 0.750000 0.262689
#
# Coordination Sequence:
#
# PCOD9161853 Si02
#       8
#     4   4   4   4   4   4   4   4
#     4  10  20  36  56  79 111 143 179 229 280 330
#     4   9  18  34  56  83 117 146 177 224 278 329
#     4   9  18  34  57  83 109 143 183 227 277 325
#     4  10  22  40  58  77 111 152 183 222 281 336
#     4  11  24  39  57  82 110 145 187 229 279 338
#     4  10  20  34  55  81 107 140 185 233 282 332
#     4  10  20  34  56  87 114 144 185 226 270 326
#     4   9  20  37  55  77 107 145 185 227 277 332
#
# _framework density 18.852672999999999
#
# number of rings (size 3 to 8) (size 9 to 14) (size 15 to 20)
#    0.000    2.250    0.000    2.250    1.750    4.500 
#    0.000    0.625    0.000    0.000    0.000    0.000 
#    0.000    0.000    0.000    0.000    0.000    0.000 
#
# Total GULP energy -178662.342960 kJ/mol
# GULP energy per Si atom -5583.198217 kJ/mol
# Density = 1.880976 g / cm^3
# Si number density = 18.852673 Si / 1000 Ang^3
#
#
#
# Elastic Constant Matrix: (Units=GPa)
#
#
# Indices 1 2 3 4 5 6 
#
# 1 84.5766 20.7274 33.6475 0.0000 -23.6496 0.0000
# 2 20.7274 23.4090 19.8921 0.0000 -7.8811 0.0000
# 3 33.6475 19.8921 74.3950 0.0000 -31.2789 0.0000
# 4 0.0000 0.0000 0.0000 29.1658 0.0000 -2.4113
# 5 -23.6496 -7.8811 -31.2789 0.0000 34.2683 0.0000
# 6 0.0000 0.0000 0.0000 -2.4113 0.0000 29.6986
#
#
#
# Elastic Compliance Matrix: (Units=1/GPa)
#
#
# Indices 1 2 3 4 5 6 
#
# 1 0.017487 -0.011556 -0.001400 0.000000 0.008133 0.000000
# 2 -0.011556 0.062949 -0.014396 0.000000 -0.006638 0.000000
# 3 -0.001400 -0.014396 0.026169 0.000000 0.019609 0.000000
# 4 0.000000 0.000000 0.000000 0.034518 0.000000 0.002803
# 5 0.008133 -0.006638 0.019609 0.000000 0.051166 0.000000
# 6 0.000000 0.000000 0.000000 0.002803 0.000000 0.033899
#
#
# Mechanical properties :
#
#
# Convention : Reuss Voigt Hill
#
# Bulk Modulus (GPa) = 19.26745 36.76828 28.01787
# Shear Modulus (GPa) = 16.76772 25.83413 21.30093
#
# Velocity S-wave (km/s) = 2.98553 3.70579 3.36499
# Velocity P-wave (km/s) = 4.70390 6.15271 5.47643
#
# Compressibility (1/GPa) = 0.05190100
#
# Stress axis : x y z
#
# Youngs Moduli (GPa) = 57.18663 15.88577 38.21384
#
# Poissons Ratio (x) = 0.18358 0.05348
# Poissons Ratio (y) = 0.66085 0.55013
# Poissons Ratio (z) = 0.08003 0.22869
#
# Static dielectric constant tensor:
#      x y z
#    x 1.661410 0.000000 -0.011480 
#    y 0.000000 1.630830 0.000000 
#    z -0.011480 0.000000 1.638280 
# 
# From -- ./inp_files/73195.got.cif
#   From: 2010.05.17/outbox.cif.g08.bks.cpg/sg11_37_cif.got.tgz:73195.got - 2010.06.03 12:22:45.
