data_PCOD9161963
_publ_section_title
;
Structure prediction by ZEFSAII (Michael W. Deem and Ramdas Pophale) SiO2 
 PCOD9161963
Probable space group: P 21/M
;
_chemical_formula_sum "Si O2"
_cell_formula_units_Z 30
_cell_length_a 14.121649
_cell_length_b 20.399328
_cell_length_c 14.975817
_cell_angle_alpha 90.000000
_cell_angle_beta 19.424316
_cell_angle_gamma 90.000000
_cell_volume 1434.708391
_symmetry_space_group_name_H-M "P 21/M"
_symmetry_group_IT_number 11
_symmetry_cell_setting 'monoclinic'
loop_
_space_group_symop_operation_xyz
x,y,z
-x,1/2+y,-z
-x,-y,-z
x,1/2-y,z
loop_
_atom_site_type_symbol
_atom_site_label
_atom_site_fract_x
_atom_site_fract_y
_atom_site_fract_z
Si Si1 0.323608 0.611843 0.330731
Si Si2 0.680874 0.637081 0.851388
Si Si3 0.746262 0.972415 0.664718
Si Si4 0.040209 0.138315 0.653406
Si Si5 0.739552 0.170699 0.284419
Si Si6 0.675660 0.173287 0.138898
Si Si7 0.941424 0.750000 0.493921
Si Si8 0.640390 0.670856 0.217084
O O1 0.405986 0.536187 0.238927
O O2 0.458408 0.638443 0.301122
O O3 0.982182 0.618567 0.631638
O O4 0.457361 0.651762 0.128238
O O5 0.578573 0.576423 0.880224
O O6 0.773311 0.693676 0.702373
O O7 0.880099 0.928321 0.467588
O O8 0.000000 0.000000 0.500000
O O9 0.341146 0.169632 0.416621
O O10 0.917475 0.191776 0.694299
O O11 0.840775 0.133206 0.916620
O O12 0.736197 0.250000 0.281279
O O13 0.728673 0.148289 0.191990
O O14 0.479639 0.152138 0.578822
O O15 0.029302 0.152391 0.077009
O O16 0.766363 0.250000 0.051569
O O17 0.617425 0.750000 0.228413
#
# Coordination Sequence:
#
# PCOD9161963 Si02
#       8
#     4   4   4   4   4   4   2   4
#     4  11  22  38  58  80 110 155 198 233 269 338
#     4  10  23  35  57  79 115 150 188 239 283 334
#     4   9  22  42  58  81 114 161 202 228 275 334
#     4  11  22  36  59  87 118 146 190 237 276 351
#     4   9  19  35  56  83 116 147 176 232 294 354
#     4  11  20  36  60  89 118 145 183 232 302 348
#     4  10  22  36  52  86 116 142 178 240 302 320
#     4  10  20  34  56  84 111 144 191 235 285 338
#
# _framework density 20.910171999999999
#
# number of rings (size 3 to 8) (size 9 to 14) (size 15 to 20)
#    0.000    1.867    1.333    2.000    1.867   11.733 
#    0.000    0.000    0.000    4.800    0.000    0.000 
#    0.000    0.000    0.000    0.000    0.000    0.000 
#
# Total GULP energy -167186.250424 kJ/mol
# GULP energy per Si atom -5572.875014 kJ/mol
# Density = 2.086258 g / cm^3
# Si number density = 20.910172 Si / 1000 Ang^3
#
#
#
# Elastic Constant Matrix: (Units=GPa)
#
#
# Indices 1 2 3 4 5 6 
#
# 1 76.2981 14.5626 1.0934 0.0000 20.9012 0.0000
# 2 14.5626 51.2632 -17.7509 0.0000 7.8791 0.0000
# 3 1.0934 -17.7509 63.4854 0.0000 13.4821 0.0000
# 4 0.0000 0.0000 0.0000 13.4603 0.0000 4.6395
# 5 20.9012 7.8791 13.4821 0.0000 24.7382 0.0000
# 6 0.0000 0.0000 0.0000 4.6395 0.0000 17.9976
#
#
#
# Elastic Compliance Matrix: (Units=1/GPa)
#
#
# Indices 1 2 3 4 5 6 
#
# 1 0.017737 -0.001708 0.002583 0.000000 -0.015850 0.000000
# 2 -0.001708 0.025104 0.009545 0.000000 -0.011754 0.000000
# 3 0.002583 0.009545 0.022035 0.000000 -0.017231 0.000000
# 4 0.000000 0.000000 0.000000 0.081538 0.000000 -0.021019
# 5 -0.015850 -0.011754 -0.017231 0.000000 0.066949 0.000000
# 6 0.000000 0.000000 0.000000 -0.021019 0.000000 0.060981
#
#
# Mechanical properties :
#
#
# Convention : Reuss Voigt Hill
#
# Bulk Modulus (GPa) = 11.66649 20.76188 16.21418
# Shear Modulus (GPa) = 17.72556 24.11532 20.92044
#
# Velocity S-wave (km/s) = 2.91469 3.39968 3.16649
# Velocity P-wave (km/s) = 4.11323 5.03598 4.59781
#
# Compressibility (1/GPa) = 0.08571561
#
# Stress axis : x y z
#
# Youngs Moduli (GPa) = 56.37790 39.83402 45.38175
#
# Poissons Ratio (x) = 0.06805 -0.11721
# Poissons Ratio (y) = 0.09631 -0.43316
# Poissons Ratio (z) = -0.14561 -0.38021
#
# Static dielectric constant tensor:
#      x y z
#    x 1.770370 0.000000 -0.017030 
#    y 0.000000 1.748430 0.000000 
#    z -0.017030 0.000000 1.756010 
# 
# From -- ./inp_files/52644.got.cif
#   From: 2010.05.17/outbox.cif.g08.bks.cpg/sg11_27_cif.got.tgz:52644.got - 2010.06.03 12:22:45.
