data_PCOD9161071
_publ_section_title
;
Structure prediction by ZEFSAII (Michael W. Deem and Ramdas Pophale) SiO2 
 PCOD9161071
Probable space group: P 21/M
;
_chemical_formula_sum "Si O2"
_cell_formula_units_Z 24
_cell_length_a 12.259396
_cell_length_b 8.506116
_cell_length_c 21.026286
_cell_angle_alpha 90.000000
_cell_angle_beta 140.050581
_cell_angle_gamma 90.000000
_cell_volume 1407.904230
_symmetry_space_group_name_H-M "P 21/M"
_symmetry_group_IT_number 11
_symmetry_cell_setting 'monoclinic'
loop_
_space_group_symop_operation_xyz
x,y,z
-x,1/2+y,-z
-x,-y,-z
x,1/2-y,z
loop_
_atom_site_type_symbol
_atom_site_label
_atom_site_fract_x
_atom_site_fract_y
_atom_site_fract_z
Si Si1 0.332410 0.064771 0.741006
Si Si2 0.965606 0.566550 0.578803
Si Si3 0.026559 0.065961 0.265800
Si Si4 0.349509 0.562064 0.889151
Si Si5 0.390334 0.439195 0.390977
Si Si6 0.599153 0.559334 0.365413
O O1 0.358608 0.250000 0.760850
O O2 0.430447 0.012509 0.721112
O O3 0.374034 0.982512 0.826137
O O4 0.132956 0.031929 0.638730
O O5 0.996013 0.750000 0.575585
O O6 0.791436 0.511508 0.469712
O O7 0.941555 0.560410 0.644173
O O8 0.017311 0.250000 0.243200
O O9 0.836851 0.998853 0.172392
O O10 0.195969 0.999705 0.309390
O O11 0.343342 0.750000 0.890167
O O12 0.500000 0.500000 0.000000
O O13 0.500000 0.500000 0.500000
O O14 0.387484 0.250000 0.393949
O O15 0.475547 0.491108 0.363276
O O16 0.594187 0.750000 0.366828
#
# Coordination Sequence:
#
# PCOD9161071 Si02
#       6
#     4   4   4   4   4   4
#     4  10  20  32  49  75 104 133 171 213 258 309
#     4   9  16  30  48  67 102 141 172 209 254 298
#     4   8  16  31  50  72 102 135 165 206 259 298
#     4  10  20  37  59  79 101 128 163 213 269 317
#     4  11  20  32  50  73 104 143 181 210 245 299
#     4  10  20  33  47  69 106 144 174 211 253 295
#
# _framework density 17.046613000000001
#
# number of rings (size 3 to 8) (size 9 to 14) (size 15 to 20)
#    0.000    2.333    1.667    3.000    0.000    2.000 
#    0.000    2.500    0.000    1.000    0.000    0.000 
#    0.000    0.000    0.000    0.000    0.000    0.000 
#
# Total GULP energy -133777.143820 kJ/mol
# GULP energy per Si atom -5574.047659 kJ/mol
# Density = 1.700781 g / cm^3
# Si number density = 17.046613 Si / 1000 Ang^3
#
#
#
# Elastic Constant Matrix: (Units=GPa)
#
#
# Indices 1 2 3 4 5 6 
#
# 1 134.7052 24.6139 70.0032 0.0000 -3.5367 0.0000
# 2 24.6139 27.9963 23.4444 0.0000 -2.3419 0.0000
# 3 70.0032 23.4444 117.7456 0.0000 8.2549 0.0000
# 4 0.0000 0.0000 0.0000 21.8298 0.0000 -0.2060
# 5 -3.5367 -2.3419 8.2549 0.0000 7.8452 0.0000
# 6 0.0000 0.0000 0.0000 -0.2060 0.0000 25.5544
#
#
#
# Elastic Compliance Matrix: (Units=1/GPa)
#
#
# Indices 1 2 3 4 5 6 
#
# 1 0.012263 -0.003506 -0.007457 0.000000 0.012328 0.000000
# 2 -0.003506 0.048301 -0.009105 0.000000 0.022418 0.000000
# 3 -0.007457 -0.009105 0.016373 0.000000 -0.023308 0.000000
# 4 0.000000 0.000000 0.000000 0.045812 0.000000 0.000369
# 5 0.012328 0.022418 -0.023308 0.000000 0.164241 0.000000
# 6 0.000000 0.000000 0.000000 0.000369 0.000000 0.039135
#
#
# Mechanical properties :
#
#
# Convention : Reuss Voigt Hill
#
# Bulk Modulus (GPa) = 27.17223 57.39668 42.28446
# Shear Modulus (GPa) = 13.20908 21.87159 17.54033
#
# Velocity S-wave (km/s) = 2.78669 3.58585 3.21123
# Velocity P-wave (km/s) = 5.13115 7.13358 6.21356
#
# Compressibility (1/GPa) = 0.03680228
#
# Stress axis : x y z
#
# Youngs Moduli (GPa) = 81.54509 20.70364 61.07513
#
# Poissons Ratio (x) = 0.07258 0.45544
# Poissons Ratio (y) = 0.28586 0.55607
# Poissons Ratio (z) = 0.60809 0.18850
#
# Static dielectric constant tensor:
#      x y z
#    x 1.598950 0.000000 0.011740 
#    y 0.000000 1.583030 0.000000 
#    z 0.011740 0.000000 1.566310 
# 
# From -- ./inp_files/33831.got.cif
#   From: 2010.05.17/outbox.cif.g08.bks.cpg/sg11_17_cif.got.tgz:33831.got - 2010.06.03 12:22:45.
