data_PCOD9161503
_publ_section_title
;
Structure prediction by ZEFSAII (Michael W. Deem and Ramdas Pophale) SiO2 
 PCOD9161503
Probable space group: P 21/M
;
_chemical_formula_sum "Si O2"
_cell_formula_units_Z 24
_cell_length_a 17.541661
_cell_length_b 7.614056
_cell_length_c 23.885169
_cell_angle_alpha 90.000000
_cell_angle_beta 24.154330
_cell_angle_gamma 90.000000
_cell_volume 1305.408182
_symmetry_space_group_name_H-M "P 21/M"
_symmetry_group_IT_number 11
_symmetry_cell_setting 'monoclinic'
loop_
_space_group_symop_operation_xyz
x,y,z
-x,1/2+y,-z
-x,-y,-z
x,1/2-y,z
loop_
_atom_site_type_symbol
_atom_site_label
_atom_site_fract_x
_atom_site_fract_y
_atom_site_fract_z
Si Si1 0.330010 0.250000 0.357207
Si Si2 0.543601 0.544052 0.148461
Si Si3 0.537770 0.750000 0.604735
Si Si4 0.958068 0.537844 0.861382
Si Si5 0.396021 0.043432 0.127771
Si Si6 0.659429 0.448410 0.349507
Si Si7 0.091829 0.750000 0.322513
Si Si8 0.037854 0.250000 0.717709
O O1 0.401088 0.420041 0.276319
O O2 0.424805 0.250000 0.355061
O O3 0.108150 0.250000 0.513850
O O4 0.508784 0.750000 0.181580
O O5 0.522514 0.504558 0.096478
O O6 0.756080 0.499163 0.022674
O O7 0.426322 0.920048 0.654881
O O8 0.738665 0.750000 0.439914
O O9 0.953659 0.750000 0.853927
O O10 0.980449 0.423389 0.790336
O O11 0.135625 0.473879 0.779637
O O12 0.353168 0.250000 0.157966
O O13 0.214750 0.920733 0.253929
O O14 0.500000 0.000000 0.000000
O O15 0.500000 0.500000 0.500000
O O16 0.696579 0.250000 0.342247
O O17 0.053770 0.750000 0.281611
#
# Coordination Sequence:
#
# PCOD9161503 Si02
#       8
#     2   4   2   4   4   4   2   2
#     4  11  25  46  62  84 128 174 213 258 295 375
#     4  11  23  42  64  87 120 169 214 258 307 368
#     4   9  20  36  59  86 128 158 202 252 307 373
#     4  10  20  33  61  90 117 157 203 247 316 369
#     4  12  23  42  67  98 128 154 200 267 320 369
#     4   9  16  32  56  89 121 152 189 254 311 366
#     4  11  26  40  61  94 124 165 212 250 314 369
#     4  11  19  34  58  90 124 157 191 252 318 377
#
# _framework density 18.385055000000001
#
# number of rings (size 3 to 8) (size 9 to 14) (size 15 to 20)
#    0.500    1.000    4.167    1.500    0.000    3.333 
#    0.000    4.167    0.000    0.000    0.000    0.000 
#    0.000    0.000    0.000    0.000    0.000    0.000 
#
# Total GULP energy -133657.126313 kJ/mol
# GULP energy per Si atom -5569.046930 kJ/mol
# Density = 1.834321 g / cm^3
# Si number density = 18.385055 Si / 1000 Ang^3
#
#
#
# Elastic Constant Matrix: (Units=GPa)
#
#
# Indices 1 2 3 4 5 6 
#
# 1 70.0997 15.2659 45.2004 0.0000 -11.6196 0.0000
# 2 15.2659 100.5871 46.0538 0.0000 -4.8139 0.0000
# 3 45.2004 46.0538 115.1624 0.0000 -12.6265 0.0000
# 4 0.0000 0.0000 0.0000 22.4548 0.0000 7.9495
# 5 -11.6196 -4.8139 -12.6265 0.0000 33.4546 0.0000
# 6 0.0000 0.0000 0.0000 7.9495 0.0000 14.6742
#
#
#
# Elastic Compliance Matrix: (Units=1/GPa)
#
#
# Indices 1 2 3 4 5 6 
#
# 1 0.019654 0.000660 -0.007531 0.000000 0.004079 0.000000
# 2 0.000660 0.012192 -0.005130 0.000000 0.000048 0.000000
# 3 -0.007531 -0.005130 0.013898 0.000000 0.001892 0.000000
# 4 0.000000 0.000000 0.000000 0.055102 0.000000 -0.029850
# 5 0.004079 0.000048 0.001892 0.000000 0.032029 0.000000
# 6 0.000000 0.000000 0.000000 -0.029850 0.000000 0.084318
#
#
# Mechanical properties :
#
#
# Convention : Reuss Voigt Hill
#
# Bulk Modulus (GPa) = 45.99044 55.43217 50.71131
# Shear Modulus (GPa) = 20.12558 26.07199 23.09878
#
# Velocity S-wave (km/s) = 3.31217 3.76986 3.54840
# Velocity P-wave (km/s) = 6.30053 7.01180 6.66566
#
# Compressibility (1/GPa) = 0.02174365
#
# Stress axis : x y z
#
# Youngs Moduli (GPa) = 50.88147 82.01877 71.95309
#
# Poissons Ratio (x) = -0.05416 0.54186
# Poissons Ratio (y) = -0.03360 0.36910
# Poissons Ratio (z) = 0.38318 0.42073
#
# Static dielectric constant tensor:
#      x y z
#    x 1.884860 0.000000 -0.408070 
#    y 0.000000 1.642330 0.000000 
#    z -0.408070 0.000000 2.188250 
# 
# From -- ./inp_files/69525.got.cif
#   From: 2010.05.17/outbox.cif.g08.bks.cpg/sg11_35_cif.got.tgz:69525.got - 2010.06.03 12:22:45.
