data_PCOD9161583
_publ_section_title
;
Structure prediction by ZEFSAII (Michael W. Deem and Ramdas Pophale) SiO2 
 PCOD9161583
Probable space group: P 21/M
;
_chemical_formula_sum "Si O2"
_cell_formula_units_Z 28
_cell_length_a 15.313867
_cell_length_b 7.548772
_cell_length_c 12.359409
_cell_angle_alpha 90.000000
_cell_angle_beta 110.367980
_cell_angle_gamma 90.000000
_cell_volume 1339.427898
_symmetry_space_group_name_H-M "P 21/M"
_symmetry_group_IT_number 11
_symmetry_cell_setting 'monoclinic'
loop_
_space_group_symop_operation_xyz
x,y,z
-x,1/2+y,-z
-x,-y,-z
x,1/2-y,z
loop_
_atom_site_type_symbol
_atom_site_label
_atom_site_fract_x
_atom_site_fract_y
_atom_site_fract_z
Si Si1 0.769735 0.545872 0.711342
Si Si2 0.333433 0.040029 0.126873
Si Si3 0.545635 0.033418 0.226123
Si Si4 0.297313 0.964043 0.866656
Si Si5 0.400817 0.960984 0.512789
Si Si6 0.876053 0.462711 0.349776
Si Si7 0.916430 0.962790 0.608754
O O1 0.795427 0.750000 0.745443
O O2 0.732369 0.465219 0.807116
O O3 0.681993 0.543689 0.591955
O O4 0.856128 0.466146 0.682527
O O5 0.341565 0.250000 0.152829
O O6 0.439218 0.969833 0.176830
O O7 0.295090 0.016658 0.990273
O O8 0.544066 0.250000 0.224543
O O9 0.608275 0.975312 0.152333
O O10 0.592400 0.980278 0.359766
O O11 0.297267 0.750000 0.862867
O O12 0.208900 0.028118 0.759496
O O13 0.385940 0.750000 0.505478
O O14 0.500000 0.000000 0.500000
O O15 0.877648 0.250000 0.340100
O O16 0.866298 0.501240 0.472746
O O17 0.977780 0.530284 0.356877
O O18 0.921265 0.750000 0.621141
#
# Coordination Sequence:
#
# PCOD9161583 Si02
#       7
#     4   4   4   4   4   4   4
#     4  10  20  35  52  74 105 138 171 208 255 306
#     4  10  20  35  50  67 100 138 172 211 253 297
#     4   9  18  33  51  71  99 134 167 206 253 298
#     4  10  20  34  52  73  98 131 173 213 252 298
#     4  11  20  33  53  77 106 136 168 207 255 305
#     4   9  18  34  54  78 106 131 162 213 265 303
#     4   9  18  33  56  80 102 132 168 206 255 315
#
# _framework density 20.904446
#
# number of rings (size 3 to 8) (size 9 to 14) (size 15 to 20)
#    0.000    2.286    1.429    1.714    0.000    2.857 
#    0.000    2.143    0.000    0.000    0.000    0.000 
#    0.000    0.000    0.000    0.000    0.000    0.000 
#
# Total GULP energy -156383.665494 kJ/mol
# GULP energy per Si atom -5585.130910 kJ/mol
# Density = 2.085687 g / cm^3
# Si number density = 20.904446 Si / 1000 Ang^3
#
#
#
# Elastic Constant Matrix: (Units=GPa)
#
#
# Indices 1 2 3 4 5 6 
#
# 1 143.5115 3.3332 81.5703 0.0000 -40.2888 0.0000
# 2 3.3332 52.6287 -0.0762 0.0000 -1.3338 0.0000
# 3 81.5703 -0.0762 126.1919 0.0000 -32.1349 0.0000
# 4 0.0000 0.0000 0.0000 17.7937 0.0000 2.5942
# 5 -40.2888 -1.3338 -32.1349 0.0000 29.8269 0.0000
# 6 0.0000 0.0000 0.0000 2.5942 0.0000 0.7755
#
#
#
# Elastic Compliance Matrix: (Units=1/GPa)
#
#
# Indices 1 2 3 4 5 6 
#
# 1 0.013681 -0.000563 -0.005711 0.000000 0.012301 0.000000
# 2 -0.000563 0.019055 0.000550 0.000000 0.000684 0.000000
# 3 -0.005711 0.000550 0.013310 0.000000 0.006650 0.000000
# 4 0.000000 0.000000 0.000000 0.109710 0.000000 -0.367028
# 5 0.012301 0.000684 0.006650 0.000000 0.057338 0.000000
# 6 0.000000 0.000000 0.000000 -0.367028 0.000000 2.517441
#
#
# Mechanical properties :
#
#
# Convention : Reuss Voigt Hill
#
# Bulk Modulus (GPa) = 28.90480 54.66518 41.78499
# Shear Modulus (GPa) = 1.81586 25.51285 13.66436
#
# Velocity S-wave (km/s) = 0.93302 3.49729 2.55945
# Velocity P-wave (km/s) = 3.87529 6.52034 5.36342
#
# Compressibility (1/GPa) = 0.03459633
#
# Stress axis : x y z
#
# Youngs Moduli (GPa) = 73.09655 52.48018 75.13254
#
# Poissons Ratio (x) = 0.02954 0.42908
# Poissons Ratio (y) = 0.04115 -0.04129
# Poissons Ratio (z) = 0.41745 -0.02884
#
# Static dielectric constant tensor:
#      x y z
#    x 1.768310 0.000000 -0.016550 
#    y 0.000000 1.790480 0.000000 
#    z -0.016550 0.000000 1.705920 
# 
# From -- ./inp_files/37382.got.cif
#   From: 2010.05.17/outbox.cif.g08.bks.cpg/sg11_19_cif.got.tgz:37382.got - 2010.06.03 12:22:45.
