data_PCOD9161639
_publ_section_title
;
Structure prediction by ZEFSAII (Michael W. Deem and Ramdas Pophale) SiO2 
 PCOD9161639
Probable space group: P 21/M
;
_chemical_formula_sum "Si O2"
_cell_formula_units_Z 28
_cell_length_a 15.535704
_cell_length_b 8.248455
_cell_length_c 22.133532
_cell_angle_alpha 90.000000
_cell_angle_beta 24.178808
_cell_angle_gamma 90.000000
_cell_volume 1161.713382
_symmetry_space_group_name_H-M "P 21/M"
_symmetry_group_IT_number 11
_symmetry_cell_setting 'monoclinic'
loop_
_space_group_symop_operation_xyz
x,y,z
-x,1/2+y,-z
-x,-y,-z
x,1/2-y,z
loop_
_atom_site_type_symbol
_atom_site_label
_atom_site_fract_x
_atom_site_fract_y
_atom_site_fract_z
Si Si1 0.917428 0.942243 0.182916
Si Si2 0.819224 0.054053 0.804954
Si Si3 0.345559 0.443131 0.969808
Si Si4 0.586494 0.060141 0.701905
Si Si5 0.660115 0.057850 0.244839
Si Si6 0.020423 0.936580 0.419315
Si Si7 0.269489 0.053581 0.576564
O O1 0.894222 0.750000 0.190923
O O2 0.755616 0.004626 0.338364
O O3 0.866423 0.020693 0.151477
O O4 0.143205 0.977120 0.067574
O O5 0.801572 0.250000 0.815157
O O6 0.833908 0.991321 0.726783
O O7 0.048599 0.012017 0.686055
O O8 0.655387 0.989436 0.959196
O O9 0.324348 0.250000 0.979502
O O10 0.536672 0.487037 0.803017
O O11 0.641924 0.250000 0.664059
O O12 0.383457 0.028422 0.790615
O O13 0.778303 0.956482 0.552921
O O14 0.644488 0.250000 0.245022
O O15 0.468957 0.997800 0.410778
O O16 0.079827 0.750000 0.385492
O O17 0.000000 0.000000 0.500000
O O18 0.279735 0.250000 0.571863
#
# Coordination Sequence:
#
# PCOD9161639 Si02
#       7
#     4   4   4   4   4   4   4
#     4  10  20  34  52  79 116 158 203 248 294 345
#     4   9  18  37  62  88 118 153 193 238 291 350
#     4  10  22  39  59  85 119 159 204 246 288 345
#     4  11  24  41  60  87 121 157 198 244 295 351
#     4  11  20  33  54  81 116 156 202 250 297 346
#     4  11  23  42  68  97 124 150 188 237 293 355
#     4   8  15  30  51  78 111 147 191 241 290 341
#
# _framework density 24.102329000000001
#
# number of rings (size 3 to 8) (size 9 to 14) (size 15 to 20)
#    0.000    2.000    1.429    3.429    0.000    4.000 
#    0.000    2.143    0.000    0.000    0.000    0.000 
#    0.000    0.000    0.000    0.000    0.000    0.000 
#
# Total GULP energy -156508.492630 kJ/mol
# GULP energy per Si atom -5589.589022 kJ/mol
# Density = 2.404747 g / cm^3
# Si number density = 24.102329 Si / 1000 Ang^3
#
#
#
# Elastic Constant Matrix: (Units=GPa)
#
#
# Indices 1 2 3 4 5 6 
#
# 1 132.2230 10.5305 31.7911 0.0000 35.1209 0.0000
# 2 10.5305 26.5544 3.3696 0.0000 9.9025 0.0000
# 3 31.7911 3.3696 97.5853 0.0000 24.7568 0.0000
# 4 0.0000 0.0000 0.0000 17.7265 0.0000 5.5531
# 5 35.1209 9.9025 24.7568 0.0000 46.0113 0.0000
# 6 0.0000 0.0000 0.0000 5.5531 0.0000 32.2343
#
#
#
# Elastic Compliance Matrix: (Units=1/GPa)
#
#
# Indices 1 2 3 4 5 6 
#
# 1 0.009708 -0.001303 -0.001516 0.000000 -0.006315 0.000000
# 2 -0.001303 0.041196 0.001157 0.000000 -0.008494 0.000000
# 3 -0.001516 0.001157 0.012126 0.000000 -0.005617 0.000000
# 4 0.000000 0.000000 0.000000 0.059631 0.000000 -0.010273
# 5 -0.006315 -0.008494 -0.005617 0.000000 0.031404 0.000000
# 6 0.000000 0.000000 0.000000 -0.010273 0.000000 0.032793
#
#
# Mechanical properties :
#
#
# Convention : Reuss Voigt Hill
#
# Bulk Modulus (GPa) = 16.74845 38.63835 27.69340
# Shear Modulus (GPa) = 23.80000 33.23919 28.51959
#
# Velocity S-wave (km/s) = 3.14579 3.71763 3.44360
# Velocity P-wave (km/s) = 4.48984 5.87312 5.22743
#
# Compressibility (1/GPa) = 0.05970703
#
# Stress axis : x y z
#
# Youngs Moduli (GPa) = 103.00287 24.27415 82.46603
#
# Poissons Ratio (x) = 0.03163 0.12501
# Poissons Ratio (y) = 0.13420 -0.09540
# Poissons Ratio (z) = 0.15614 -0.02808
#
# Static dielectric constant tensor:
#      x y z
#    x 1.981650 0.000000 -0.009100 
#    y 0.000000 1.840960 0.000000 
#    z -0.009100 0.000000 1.971400 
# 
# From -- ./inp_files/65365.got.cif
#   From: 2010.05.17/outbox.cif.g08.bks.cpg/sg11_33_cif.got.tgz:65365.got - 2010.06.03 12:22:45.
