data_PCOD9161107
_publ_section_title
;
Structure prediction by ZEFSAII (Michael W. Deem and Ramdas Pophale) SiO2 
 PCOD9161107
Probable space group: P 21/M
;
_chemical_formula_sum "Si O2"
_cell_formula_units_Z 32
_cell_length_a 14.458685
_cell_length_b 7.895562
_cell_length_c 26.103999
_cell_angle_alpha 90.000000
_cell_angle_beta 27.316659
_cell_angle_gamma 90.000000
_cell_volume 1367.553819
_symmetry_space_group_name_H-M "P 21/M"
_symmetry_group_IT_number 11
_symmetry_cell_setting 'monoclinic'
loop_
_space_group_symop_operation_xyz
x,y,z
-x,1/2+y,-z
-x,-y,-z
x,1/2-y,z
loop_
_atom_site_type_symbol
_atom_site_label
_atom_site_fract_x
_atom_site_fract_y
_atom_site_fract_z
Si Si1 0.844324 0.446776 0.620694
Si Si2 0.685614 0.938907 0.375759
Si Si3 0.108471 0.440699 0.189986
Si Si4 0.397735 0.546279 0.841367
Si Si5 0.445208 0.943486 0.390246
Si Si6 0.834288 0.952953 0.948819
Si Si7 0.985176 0.447281 0.359036
Si Si8 0.815355 0.054181 0.148702
O O1 0.875615 0.250000 0.615617
O O2 0.615208 0.479890 0.718036
O O3 0.000000 0.500000 0.500000
O O4 0.883623 0.542307 0.654570
O O5 0.751390 0.750000 0.358671
O O6 0.594608 0.932157 0.364593
O O7 0.500000 0.000000 0.500000
O O8 0.872576 0.061084 0.290445
O O9 0.192898 0.250000 0.153602
O O10 0.094457 0.518278 0.254273
O O11 0.195515 0.521183 0.094523
O O12 0.396686 0.750000 0.839974
O O13 0.221014 0.480087 0.890241
O O14 0.348638 0.488962 0.923041
O O15 0.406866 0.750000 0.389920
O O16 0.233933 0.016956 0.515209
O O17 0.584680 0.045376 0.282887
O O18 0.859929 0.750000 0.930032
O O19 0.028474 0.020308 0.886218
O O20 0.943548 0.250000 0.366437
O O21 0.872877 0.250000 0.115466
#
# Coordination Sequence:
#
# PCOD9161107 Si02
#       8
#     4   4   4   4   4   4   4   4
#     4  12  26  46  70  95 121 155 199 251 308 363
#     4  11  20  31  49  78 118 164 206 245 296 356
#     4  10  20  37  59  86 124 165 203 247 303 359
#     4  11  24  42  64  91 121 158 204 256 306 359
#     4  10  20  32  52  84 121 160 200 243 298 355
#     4  10  21  38  61  90 125 165 202 245 299 361
#     4  10  21  39  61  89 124 162 205 255 307 360
#     4  10  21  36  58  88 123 161 203 247 300 360
#
# _framework density 23.399446000000001
#
# number of rings (size 3 to 8) (size 9 to 14) (size 15 to 20)
#    0.000    1.500    2.500    3.000    0.000    5.500 
#    0.000    0.625    0.000    0.000    0.000    0.000 
#    0.000    0.000    0.000    0.000    0.000    0.000 
#
# Total GULP energy -178554.692255 kJ/mol
# GULP energy per Si atom -5579.834133 kJ/mol
# Density = 2.334619 g / cm^3
# Si number density = 23.399446 Si / 1000 Ang^3
#
#
#
# Elastic Constant Matrix: (Units=GPa)
#
#
# Indices 1 2 3 4 5 6 
#
# 1 90.6791 -2.8381 25.1305 0.0000 17.0751 0.0000
# 2 -2.8381 54.6321 4.9624 0.0000 5.2949 0.0000
# 3 25.1305 4.9624 117.6468 0.0000 19.6643 0.0000
# 4 0.0000 0.0000 0.0000 22.4365 0.0000 -2.2084
# 5 17.0751 5.2949 19.6643 0.0000 35.7242 0.0000
# 6 0.0000 0.0000 0.0000 -2.2084 0.0000 16.1387
#
#
#
# Elastic Compliance Matrix: (Units=1/GPa)
#
#
# Indices 1 2 3 4 5 6 
#
# 1 0.012562 0.001324 -0.001875 0.000000 -0.005168 0.000000
# 2 0.001324 0.018724 -0.000554 0.000000 -0.003103 0.000000
# 3 -0.001875 -0.000554 0.009648 0.000000 -0.004332 0.000000
# 4 0.000000 0.000000 0.000000 0.045179 0.000000 0.006182
# 5 -0.005168 -0.003103 -0.004332 0.000000 0.033307 0.000000
# 6 0.000000 0.000000 0.000000 0.006182 0.000000 0.062809
#
#
# Mechanical properties :
#
#
# Convention : Reuss Voigt Hill
#
# Bulk Modulus (GPa) = 25.82406 35.27418 30.54912
# Shear Modulus (GPa) = 25.33596 30.57344 27.95470
#
# Velocity S-wave (km/s) = 3.29410 3.61860 3.46015
# Velocity P-wave (km/s) = 5.05255 5.70671 5.38956
#
# Compressibility (1/GPa) = 0.03872358
#
# Stress axis : x y z
#
# Youngs Moduli (GPa) = 79.60346 53.40715 103.64710
#
# Poissons Ratio (x) = -0.07070 0.19438
# Poissons Ratio (y) = -0.10538 0.05741
# Poissons Ratio (z) = 0.14929 0.02958
#
# Static dielectric constant tensor:
#      x y z
#    x 1.821540 0.000000 0.045100 
#    y 0.000000 1.875500 0.000000 
#    z 0.045100 0.000000 1.933780 
# 
# From -- ./inp_files/55753.got.cif
#   From: 2010.05.17/outbox.cif.g08.bks.cpg/sg11_28_cif.got.tgz:55753.got - 2010.06.03 12:22:45.
