data_PCOD9161517
_publ_section_title
;
Structure prediction by ZEFSAII (Michael W. Deem and Ramdas Pophale) SiO2 
 PCOD9161517
Probable space group: P 21/M
;
_chemical_formula_sum "Si O2"
_cell_formula_units_Z 28
_cell_length_a 22.209492
_cell_length_b 8.498746
_cell_length_c 11.687184
_cell_angle_alpha 90.000000
_cell_angle_beta 50.098238
_cell_angle_gamma 90.000000
_cell_volume 1692.314423
_symmetry_space_group_name_H-M "P 21/M"
_symmetry_group_IT_number 11
_symmetry_cell_setting 'monoclinic'
loop_
_space_group_symop_operation_xyz
x,y,z
-x,1/2+y,-z
-x,-y,-z
x,1/2-y,z
loop_
_atom_site_type_symbol
_atom_site_label
_atom_site_fract_x
_atom_site_fract_y
_atom_site_fract_z
Si Si1 0.618756 0.059674 0.803995
Si Si2 0.542678 0.937893 0.122007
Si Si3 0.929395 0.937368 0.239990
Si Si4 0.572814 0.438307 0.337672
Si Si5 0.734397 0.441481 0.253511
Si Si6 0.095463 0.940665 0.988208
Si Si7 0.765627 0.439365 0.477422
O O1 0.764418 0.250000 0.476812
O O2 0.544697 0.014630 0.814110
O O3 0.699626 0.007262 0.647023
O O4 0.601063 0.991415 0.950246
O O5 0.380945 0.750000 0.188843
O O6 0.563224 0.010552 0.218546
O O7 0.924933 0.750000 0.254586
O O8 0.854444 0.008565 0.395142
O O9 0.917215 0.989013 0.122818
O O10 0.019538 0.987239 0.155668
O O11 0.500000 0.500000 0.500000
O O12 0.573124 0.250000 0.343664
O O13 0.654949 0.497403 0.291324
O O14 0.731684 0.250000 0.258396
O O15 0.815383 0.485602 0.090097
O O16 0.742371 0.492138 0.376656
O O17 0.093284 0.750000 0.980945
O O18 0.543434 0.750000 0.130876
#
# Coordination Sequence:
#
# PCOD9161517 Si02
#       7
#     4   4   4   4   4   4   4
#     4   9  18  33  51  68  88 119 154 184 219 268
#     4  10  20  34  50  68  91 117 149 189 229 264
#     4   9  15  22  37  62  88 112 142 181 221 260
#     4  11  21  33  49  68  92 121 154 187 221 264
#     4   8  15  28  45  63  86 121 155 179 211 262
#     4   8  14  26  40  55  82 118 150 178 214 261
#     4   9  16  28  45  64  90 120 148 178 216 264
#
# _framework density 16.545389
#
# number of rings (size 3 to 8) (size 9 to 14) (size 15 to 20)
#    0.000    2.857    0.000    3.000    0.000    4.000 
#    0.000    8.571    0.000    0.000    0.000    1.000 
#    0.000    0.000    0.000    0.000    0.000    0.000 
#
# Total GULP energy -155885.993939 kJ/mol
# GULP energy per Si atom -5567.356926 kJ/mol
# Density = 1.650773 g / cm^3
# Si number density = 16.545389 Si / 1000 Ang^3
#
#
#
# Elastic Constant Matrix: (Units=GPa)
#
#
# Indices 1 2 3 4 5 6 
#
# 1 90.7356 18.6748 74.5412 0.0000 -21.2871 0.0000
# 2 18.6748 16.3747 26.1499 0.0000 -5.3256 0.0000
# 3 74.5412 26.1499 151.2803 0.0000 -36.5672 0.0000
# 4 0.0000 0.0000 0.0000 26.6374 0.0000 -2.1912
# 5 -21.2871 -5.3256 -36.5672 0.0000 28.7028 0.0000
# 6 0.0000 0.0000 0.0000 -2.1912 0.0000 18.7088
#
#
#
# Elastic Compliance Matrix: (Units=1/GPa)
#
#
# Indices 1 2 3 4 5 6 
#
# 1 0.019815 -0.009994 -0.007127 0.000000 0.003762 0.000000
# 2 -0.009994 0.089753 -0.012075 0.000000 -0.006142 0.000000
# 3 -0.007127 -0.012075 0.015013 0.000000 0.011601 0.000000
# 4 0.000000 0.000000 0.000000 0.037906 0.000000 0.004440
# 5 0.003762 -0.006142 0.011601 0.000000 0.051270 0.000000
# 6 0.000000 0.000000 0.000000 0.004440 0.000000 0.053971
#
#
# Mechanical properties :
#
#
# Convention : Reuss Voigt Hill
#
# Bulk Modulus (GPa) = 15.10791 55.23581 35.17186
# Shear Modulus (GPa) = 14.36028 24.07811 19.21919
#
# Velocity S-wave (km/s) = 2.94927 3.81895 3.41193
# Velocity P-wave (km/s) = 4.55506 7.27342 6.06841
#
# Compressibility (1/GPa) = 0.06619048
#
# Stress axis : x y z
#
# Youngs Moduli (GPa) = 50.46580 11.14173 66.60777
#
# Poissons Ratio (x) = 0.11135 0.47471
# Poissons Ratio (y) = 0.50435 0.80427
# Poissons Ratio (z) = 0.35967 0.13453
#
# Static dielectric constant tensor:
#      x y z
#    x 1.562490 0.000000 -0.046890 
#    y 0.000000 1.567610 0.000000 
#    z -0.046890 0.000000 1.572460 
# 
# From -- ./inp_files/42373.got.cif
#   From: 2010.05.17/outbox.cif.g08.bks.cpg/sg11_22_cif.got.tgz:42373.got - 2010.06.03 12:22:45.
