data_PCOD9161364
_publ_section_title
;
Structure prediction by ZEFSAII (Michael W. Deem and Ramdas Pophale) SiO2 
 PCOD9161364
Probable space group: P 21/M
;
_chemical_formula_sum "Si O2"
_cell_formula_units_Z 32
_cell_length_a 13.394412
_cell_length_b 7.674116
_cell_length_c 14.532920
_cell_angle_alpha 90.000000
_cell_angle_beta 89.046399
_cell_angle_gamma 90.000000
_cell_volume 1493.635895
_symmetry_space_group_name_H-M "P 21/M"
_symmetry_group_IT_number 11
_symmetry_cell_setting 'monoclinic'
loop_
_space_group_symop_operation_xyz
x,y,z
-x,1/2+y,-z
-x,-y,-z
x,1/2-y,z
loop_
_atom_site_type_symbol
_atom_site_label
_atom_site_fract_x
_atom_site_fract_y
_atom_site_fract_z
Si Si1 0.728764 0.951163 0.400356
Si Si2 0.000773 0.043223 0.107398
Si Si3 0.813109 0.952681 0.781792
Si Si4 0.510560 0.457195 0.391340
Si Si5 0.796947 0.958913 0.213361
Si Si6 0.606313 0.961905 0.101978
Si Si7 0.708220 0.535382 0.608513
Si Si8 0.386812 0.545490 0.113982
O O1 0.757721 0.750000 0.412531
O O2 0.795130 0.028989 0.317884
O O3 0.726883 0.026447 0.503638
O O4 0.615041 0.957599 0.363020
O O5 0.008083 0.250000 0.111619
O O6 0.096886 0.968932 0.160276
O O7 0.898328 0.991238 0.157800
O O8 0.000000 0.000000 0.000000
O O9 0.837397 0.750000 0.765783
O O10 0.788394 0.026287 0.681392
O O11 0.709361 0.959785 0.839201
O O12 0.500000 0.500000 0.500000
O O13 0.520354 0.250000 0.378754
O O14 0.403129 0.516771 0.355866
O O15 0.784595 0.750000 0.220308
O O16 0.700808 0.024474 0.158584
O O17 0.605000 0.750000 0.101476
O O18 0.497459 0.020615 0.139914
O O19 0.617268 0.020621 0.996260
O O20 0.705750 0.750000 0.606645
O O21 0.381157 0.750000 0.135057
#
# Coordination Sequence:
#
# PCOD9161364 Si02
#       8
#     4   4   4   4   4   4   4   4
#     4   9  18  33  54  79 110 146 182 221 265 318
#     4  11  24  41  61  82 106 139 182 234 280 326
#     4  10  21  37  56  77 106 144 182 220 272 326
#     4   9  16  28  48  75 107 145 183 220 260 310
#     4  10  21  37  58  81 109 145 182 222 274 328
#     4   9  19  35  52  75 109 144 173 210 270 333
#     4   8  16  32  52  76 107 145 185 216 257 319
#     4  10  20  33  52  80 109 137 174 221 270 323
#
# _framework density 21.424232
#
# number of rings (size 3 to 8) (size 9 to 14) (size 15 to 20)
#    0.000    2.500    0.000    2.625    1.750    5.500 
#    0.000    3.125    0.000    0.000    0.000    0.000 
#    0.000    0.000    0.000    0.000    0.000    0.000 
#
# Total GULP energy -178574.610904 kJ/mol
# GULP energy per Si atom -5580.456591 kJ/mol
# Density = 2.137547 g / cm^3
# Si number density = 21.424232 Si / 1000 Ang^3
#
#
#
# Elastic Constant Matrix: (Units=GPa)
#
#
# Indices 1 2 3 4 5 6 
#
# 1 140.5914 -5.4189 93.6275 0.0000 11.6860 0.0000
# 2 -5.4189 44.9845 -3.3628 0.0000 5.0452 0.0000
# 3 93.6275 -3.3628 143.1912 0.0000 2.3203 0.0000
# 4 0.0000 0.0000 0.0000 8.3222 0.0000 2.0755
# 5 11.6860 5.0452 2.3203 0.0000 40.7659 0.0000
# 6 0.0000 0.0000 0.0000 2.0755 0.0000 15.1493
#
#
#
# Elastic Compliance Matrix: (Units=1/GPa)
#
#
# Indices 1 2 3 4 5 6 
#
# 1 0.013093 0.001329 -0.008474 0.000000 -0.003435 0.000000
# 2 0.001329 0.022725 -0.000284 0.000000 -0.003177 0.000000
# 3 -0.008474 -0.000284 0.012490 0.000000 0.001753 0.000000
# 4 0.000000 0.000000 0.000000 0.124412 0.000000 -0.017045
# 5 -0.003435 -0.003177 0.001753 0.000000 0.025809 0.000000
# 6 0.000000 0.000000 0.000000 -0.017045 0.000000 0.068345
#
#
# Mechanical properties :
#
#
# Convention : Reuss Voigt Hill
#
# Bulk Modulus (GPa) = 29.89563 55.38431 42.63997
# Shear Modulus (GPa) = 17.07181 29.10889 23.09035
#
# Velocity S-wave (km/s) = 2.82591 3.69004 3.28650
# Velocity P-wave (km/s) = 4.96307 6.63796 5.86066
#
# Compressibility (1/GPa) = 0.03344970
#
# Stress axis : x y z
#
# Youngs Moduli (GPa) = 76.37672 44.00424 80.06702
#
# Poissons Ratio (x) = -0.05848 0.67850
# Poissons Ratio (y) = -0.10151 0.02273
# Poissons Ratio (z) = 0.64723 0.01249
#
# Static dielectric constant tensor:
#      x y z
#    x 1.777690 0.000000 0.034890 
#    y 0.000000 1.808590 0.000000 
#    z 0.034890 0.000000 1.786000 
# 
# From -- ./inp_files/49358.got.cif
#   From: 2010.05.17/outbox.cif.g08.bks.cpg/sg11_25_cif.got.tgz:49358.got - 2010.06.03 12:22:45.
