data_PCOD9161443
_publ_section_title
;
Structure prediction by ZEFSAII (Michael W. Deem and Ramdas Pophale) SiO2 
 PCOD9161443
Probable space group: P 21/M
;
_chemical_formula_sum "Si O2"
_cell_formula_units_Z 32
_cell_length_a 13.927572
_cell_length_b 9.446452
_cell_length_c 22.617491
_cell_angle_alpha 90.000000
_cell_angle_beta 32.507495
_cell_angle_gamma 90.000000
_cell_volume 1599.168576
_symmetry_space_group_name_H-M "P 21/M"
_symmetry_group_IT_number 11
_symmetry_cell_setting 'monoclinic'
loop_
_space_group_symop_operation_xyz
x,y,z
-x,1/2+y,-z
-x,-y,-z
x,1/2-y,z
loop_
_atom_site_type_symbol
_atom_site_label
_atom_site_fract_x
_atom_site_fract_y
_atom_site_fract_z
Si Si1 0.355894 0.086508 0.502695
Si Si2 0.876634 0.584189 0.485682
Si Si3 0.171997 0.415726 0.934186
Si Si4 0.687380 0.579296 0.896451
Si Si5 0.780016 0.917941 0.714847
Si Si6 0.473493 0.418423 0.255190
Si Si7 0.059050 0.085001 0.125813
Si Si8 0.296532 0.084515 0.673263
O O1 0.412430 0.250000 0.465050
O O2 0.187690 0.062004 0.548313
O O3 0.305330 0.067141 0.597282
O O4 0.521147 0.987648 0.399884
O O5 0.914806 0.750000 0.475798
O O6 0.700148 0.549407 0.614911
O O7 0.054049 0.494818 0.402023
O O8 0.164709 0.250000 0.921257
O O9 0.353771 0.490690 0.819196
O O10 0.164628 0.424614 0.009459
O O11 0.000000 0.500000 0.000000
O O12 0.661608 0.750000 0.912103
O O13 0.764846 0.543809 0.791506
O O14 0.820802 0.540658 0.880609
O O15 0.500000 0.500000 0.000000
O O16 0.809266 0.750000 0.695063
O O17 0.597245 0.948098 0.774508
O O18 0.512025 0.250000 0.240954
O O19 0.009099 0.250000 0.160745
O O20 0.880186 0.993565 0.213519
O O21 0.292370 0.250000 0.689535
#
# Coordination Sequence:
#
# PCOD9161443 Si02
#       8
#     4   4   4   4   4   4   4   4
#     4   9  19  35  52  77 114 152 189 234 289 341
#     4  10  21  36  58  84 115 157 199 236 287 350
#     4  11  25  43  63  86 114 152 196 245 297 353
#     4  10  21  37  59  87 117 153 193 236 290 346
#     4  10  21  37  59  89 124 156 193 244 292 338
#     4  10  22  40  60  86 120 156 196 243 293 345
#     4  10  22  39  58  81 113 149 186 230 290 352
#     4  10  20  33  54  82 110 144 190 240 286 338
#
# _framework density 20.010400000000001
#
# number of rings (size 3 to 8) (size 9 to 14) (size 15 to 20)
#    0.000    2.000    0.000    2.625    1.750    4.000 
#    0.000    0.000    0.000    0.000    0.000    0.000 
#    0.000    0.000    0.000    0.000    0.000    0.000 
#
# Total GULP energy -178798.124779 kJ/mol
# GULP energy per Si atom -5587.441399 kJ/mol
# Density = 1.996486 g / cm^3
# Si number density = 20.010400 Si / 1000 Ang^3
#
#
#
# Elastic Constant Matrix: (Units=GPa)
#
#
# Indices 1 2 3 4 5 6 
#
# 1 64.3681 28.0084 24.8156 0.0000 -2.9779 0.0000
# 2 28.0084 65.9008 62.9488 0.0000 -19.7018 0.0000
# 3 24.8156 62.9488 100.8596 0.0000 -27.9456 0.0000
# 4 0.0000 0.0000 0.0000 41.2029 0.0000 -9.1160
# 5 -2.9779 -19.7018 -27.9456 0.0000 26.9685 0.0000
# 6 0.0000 0.0000 0.0000 -9.1160 0.0000 23.8946
#
#
#
# Elastic Compliance Matrix: (Units=1/GPa)
#
#
# Indices 1 2 3 4 5 6 
#
# 1 0.019578 -0.009644 -0.000212 0.000000 -0.005103 0.000000
# 2 -0.009644 0.042705 -0.022348 0.000000 0.006976 0.000000
# 3 -0.000212 -0.022348 0.027192 0.000000 0.011827 0.000000
# 4 0.000000 0.000000 0.000000 0.026508 0.000000 0.010113
# 5 -0.005103 0.006976 0.011827 0.000000 0.053869 0.000000
# 6 0.000000 0.000000 0.000000 0.010113 0.000000 0.045709
#
#
# Mechanical properties :
#
#
# Convention : Reuss Voigt Hill
#
# Bulk Modulus (GPa) = 39.89201 51.40823 45.65012
# Shear Modulus (GPa) = 17.34171 26.10359 21.72265
#
# Velocity S-wave (km/s) = 2.94706 3.61571 3.29837
# Velocity P-wave (km/s) = 5.61775 6.57097 6.11297
#
# Compressibility (1/GPa) = 0.02506767
#
# Stress axis : x y z
#
# Youngs Moduli (GPa) = 51.07887 23.41639 36.77600
#
# Poissons Ratio (x) = 0.22583 0.00779
# Poissons Ratio (y) = 0.49260 0.82186
# Poissons Ratio (z) = 0.01082 0.52330
#
# Static dielectric constant tensor:
#      x y z
#    x 1.742120 0.000000 0.044680 
#    y 0.000000 1.669360 0.000000 
#    z 0.044680 0.000000 1.681210 
# 
# From -- ./inp_files/68992.got.cif
#   From: 2010.05.17/outbox.cif.g08.bks.cpg/sg11_35_cif.got.tgz:68992.got - 2010.06.03 12:22:45.
