data_PCOD9161510
_publ_section_title
;
Structure prediction by ZEFSAII (Michael W. Deem and Ramdas Pophale) SiO2 
 PCOD9161510
Probable space group: P 21/M
;
_chemical_formula_sum "Si O2"
_cell_formula_units_Z 32
_cell_length_a 21.761394
_cell_length_b 8.600085
_cell_length_c 11.967084
_cell_angle_alpha 90.000000
_cell_angle_beta 120.522003
_cell_angle_gamma 90.000000
_cell_volume 1929.300602
_symmetry_space_group_name_H-M "P 21/M"
_symmetry_group_IT_number 11
_symmetry_cell_setting 'monoclinic'
loop_
_space_group_symop_operation_xyz
x,y,z
-x,1/2+y,-z
-x,-y,-z
x,1/2-y,z
loop_
_atom_site_type_symbol
_atom_site_label
_atom_site_fract_x
_atom_site_fract_y
_atom_site_fract_z
Si Si1 0.589030 0.566235 0.964878
Si Si2 0.720513 0.436738 0.376128
Si Si3 0.738055 0.063327 0.134132
Si Si4 0.125624 0.561712 0.882914
Si Si5 0.852425 0.937450 0.627437
Si Si6 0.919079 0.936593 0.924162
Si Si7 0.435146 0.937976 0.809110
Si Si8 0.012274 0.437402 0.388203
O O1 0.598468 0.750000 0.961555
O O2 0.513925 0.521063 0.836980
O O3 0.663753 0.485173 0.007838
O O4 0.575018 0.522331 0.081552
O O5 0.727030 0.250000 0.382699
O O6 0.737486 0.490390 0.263710
O O7 0.776561 0.504637 0.514431
O O8 0.637426 0.474730 0.323680
O O9 0.740215 0.250000 0.140608
O O10 0.806393 0.009733 0.127144
O O11 0.127053 0.750000 0.891018
O O12 0.053291 0.516152 0.751697
O O13 0.121095 0.493939 0.002444
O O14 0.852030 0.750000 0.626768
O O15 0.878005 0.987893 0.773901
O O16 0.913346 0.990790 0.596550
O O17 0.922951 0.750000 0.926612
O O18 0.000000 0.000000 0.000000
O O19 0.435205 0.750000 0.828823
O O20 0.012995 0.250000 0.392358
O O21 0.000000 0.500000 0.500000
#
# Coordination Sequence:
#
# PCOD9161510 Si02
#       8
#     4   4   4   4   4   4   4   4
#     4   9  15  24  42  66  94 128 164 196 229 278
#     4   9  17  30  48  70  97 130 163 190 230 289
#     4   9  18  31  47  69 102 133 157 194 240 286
#     4  10  20  36  53  70  96 128 161 200 244 284
#     4  10  21  35  49  68  96 123 153 200 246 278
#     4  11  22  38  56  72  92 121 161 207 248 288
#     4   8  15  27  41  62  95 131 162 194 233 278
#     4  10  20  34  49  68  96 126 156 190 232 284
#
# _framework density 16.586321999999999
#
# number of rings (size 3 to 8) (size 9 to 14) (size 15 to 20)
#    0.000    2.500    1.250    2.250    0.000    6.000 
#    0.000    0.000    0.000    0.000    0.000    0.875 
#    0.000    0.000    0.000    0.000    0.000    0.000 
#
# Total GULP energy -178278.681689 kJ/mol
# GULP energy per Si atom -5571.208803 kJ/mol
# Density = 1.654857 g / cm^3
# Si number density = 16.586322 Si / 1000 Ang^3
#
#
#
# Elastic Constant Matrix: (Units=GPa)
#
#
# Indices 1 2 3 4 5 6 
#
# 1 42.5931 8.6185 52.0193 0.0000 25.5950 0.0000
# 2 8.6185 5.0227 18.0676 0.0000 3.6078 0.0000
# 3 52.0193 18.0676 125.0405 0.0000 17.9536 0.0000
# 4 0.0000 0.0000 0.0000 25.8176 0.0000 2.6680
# 5 25.5950 3.6078 17.9536 0.0000 31.4057 0.0000
# 6 0.0000 0.0000 0.0000 2.6680 0.0000 24.6498
#
#
#
# Elastic Compliance Matrix: (Units=1/GPa)
#
#
# Indices 1 2 3 4 5 6 
#
# 1 0.105661 -0.020663 -0.031537 0.000000 -0.065710 0.000000
# 2 -0.020663 0.424850 -0.052513 0.000000 -0.001946 0.000000
# 3 -0.031537 -0.052513 0.026308 0.000000 0.016695 0.000000
# 4 0.000000 0.000000 0.000000 0.039171 0.000000 -0.004240
# 5 -0.065710 -0.001946 0.016695 0.000000 0.076073 0.000000
# 6 0.000000 0.000000 0.000000 -0.004240 0.000000 0.041027
#
#
# Mechanical properties :
#
#
# Convention : Reuss Voigt Hill
#
# Bulk Modulus (GPa) = 2.87857 36.67413 19.77635
# Shear Modulus (GPa) = 4.81550 22.63801 13.72675
#
# Velocity S-wave (km/s) = 1.70575 3.69841 2.87992
# Velocity P-wave (km/s) = 2.37039 6.35584 4.79664
#
# Compressibility (1/GPa) = 0.34739448
#
# Stress axis : x y z
#
# Youngs Moduli (GPa) = 9.46421 2.35377 38.01130
#
# Poissons Ratio (x) = 0.04864 1.19875
# Poissons Ratio (y) = 0.19556 1.99607
# Poissons Ratio (z) = 0.29847 0.12360
#
# Static dielectric constant tensor:
#      x y z
#    x 1.570870 0.000000 0.031600 
#    y 0.000000 1.568720 0.000000 
#    z 0.031600 0.000000 1.554530 
# 
# From -- ./inp_files/40643.got.cif
#   From: 2010.05.17/outbox.cif.g08.bks.cpg/sg11_21_cif.got.tgz:40643.got - 2010.06.03 12:22:45.
