data_PCOD9161009
_publ_section_title
;
Structure prediction by ZEFSAII (Michael W. Deem and Ramdas Pophale) SiO2 
 PCOD9161009
Probable space group: P 21/M
;
_chemical_formula_sum "Si O2"
_cell_formula_units_Z 32
_cell_length_a 17.895537
_cell_length_b 9.864863
_cell_length_c 10.315971
_cell_angle_alpha 90.000000
_cell_angle_beta 51.484239
_cell_angle_gamma 90.000000
_cell_volume 1424.935549
_symmetry_space_group_name_H-M "P 21/M"
_symmetry_group_IT_number 11
_symmetry_cell_setting 'monoclinic'
loop_
_space_group_symop_operation_xyz
x,y,z
-x,1/2+y,-z
-x,-y,-z
x,1/2-y,z
loop_
_atom_site_type_symbol
_atom_site_label
_atom_site_fract_x
_atom_site_fract_y
_atom_site_fract_z
Si Si1 0.695026 0.912215 0.921386
Si Si2 0.906261 0.098990 0.955411
Si Si3 0.728239 0.905748 0.171329
Si Si4 0.093135 0.404901 0.389849
Si Si5 0.554942 0.589789 0.544958
Si Si6 0.939754 0.397794 0.215146
Si Si7 0.193498 0.391589 0.556246
Si Si8 0.592930 0.903462 0.784141
O O1 0.698629 0.750000 0.889859
O O2 0.806653 0.958606 0.784276
O O3 0.617393 0.967377 0.899514
O O4 0.670399 0.927182 0.098977
O O5 0.899156 0.250000 0.904537
O O6 0.952990 0.117395 0.047005
O O7 0.976460 0.989281 0.816092
O O8 0.807287 0.021812 0.082050
O O9 0.766539 0.750000 0.120764
O O10 0.662555 0.913803 0.369412
O O11 0.074160 0.250000 0.363359
O O12 0.128966 0.390586 0.498416
O O13 0.000000 0.500000 0.500000
O O14 0.500000 0.500000 0.500000
O O15 0.527663 0.750000 0.571948
O O16 0.544259 0.539782 0.705558
O O17 0.935209 0.250000 0.279308
O O18 0.840619 0.476288 0.335022
O O19 0.174729 0.250000 0.649426
O O20 0.299710 0.392783 0.388961
O O21 0.554626 0.750000 0.845679
#
# Coordination Sequence:
#
# PCOD9161009 Si02
#       8
#     4   4   4   4   4   4   4   4
#     4   8  16  32  53  77 105 141 184 223 264 317
#     4  10  21  34  48  70 103 141 178 223 274 322
#     4  10  20  35  57  83 108 137 178 226 274 322
#     4   9  18  30  45  69 101 139 181 226 269 311
#     4  10  21  37  60  87 111 138 173 218 273 333
#     4  10  20  32  46  68 100 141 187 227 268 316
#     4   9  17  30  49  71  97 133 180 229 268 307
#     4   8  15  32  56  78 105 144 183 216 264 331
#
# _framework density 22.457156999999999
#
# number of rings (size 3 to 8) (size 9 to 14) (size 15 to 20)
#    0.000    2.750    0.000    3.000    1.750    3.500 
#    0.000    1.250    0.000    2.250    0.000    0.000 
#    0.000    0.000    0.000    0.000    0.000    0.000 
#
# Total GULP energy -178162.832612 kJ/mol
# GULP energy per Si atom -5567.588519 kJ/mol
# Density = 2.240604 g / cm^3
# Si number density = 22.457157 Si / 1000 Ang^3
#
#
#
# Elastic Constant Matrix: (Units=GPa)
#
#
# Indices 1 2 3 4 5 6 
#
# 1 99.5011 21.0010 8.0912 0.0000 28.0374 0.0000
# 2 21.0010 111.9212 8.5115 0.0000 -8.9158 0.0000
# 3 8.0912 8.5115 68.1513 0.0000 28.9096 0.0000
# 4 0.0000 0.0000 0.0000 13.2092 0.0000 3.4901
# 5 28.0374 -8.9158 28.9096 0.0000 39.9770 0.0000
# 6 0.0000 0.0000 0.0000 3.4901 0.0000 13.1812
#
#
#
# Elastic Compliance Matrix: (Units=1/GPa)
#
#
# Indices 1 2 3 4 5 6 
#
# 1 0.014816 -0.004382 0.005208 0.000000 -0.015135 0.000000
# 2 -0.004382 0.010802 -0.004550 0.000000 0.008773 0.000000
# 3 0.005208 -0.004550 0.023950 0.000000 -0.021987 0.000000
# 4 0.000000 0.000000 0.000000 0.081399 0.000000 -0.021553
# 5 -0.015135 0.008773 -0.021987 0.000000 0.053486 0.000000
# 6 0.000000 0.000000 0.000000 -0.021553 0.000000 0.081572
#
#
# Mechanical properties :
#
#
# Convention : Reuss Voigt Hill
#
# Bulk Modulus (GPa) = 23.74122 39.42012 31.58067
# Shear Modulus (GPa) = 17.39051 29.40481 23.39766
#
# Velocity S-wave (km/s) = 2.78580 3.62245 3.23132
# Velocity P-wave (km/s) = 4.57628 5.92350 5.29292
#
# Compressibility (1/GPa) = 0.04212083
#
# Stress axis : x y z
#
# Youngs Moduli (GPa) = 67.49386 92.57564 41.75343
#
# Poissons Ratio (x) = 0.40566 -0.21747
# Poissons Ratio (y) = 0.29575 0.18999
# Poissons Ratio (z) = -0.35154 0.42124
#
# Static dielectric constant tensor:
#      x y z
#    x 1.936330 0.000000 0.032180 
#    y 0.000000 1.862940 0.000000 
#    z 0.032180 0.000000 1.890410 
# 
# From -- ./inp_files/42457.got.cif
#   From: 2010.05.17/outbox.cif.g08.bks.cpg/sg11_22_cif.got.tgz:42457.got - 2010.06.03 12:22:45.
