data_PCOD9161767
_publ_section_title
;
Structure prediction by ZEFSAII (Michael W. Deem and Ramdas Pophale) SiO2 
 PCOD9161767
Probable space group: P 21/M
;
_chemical_formula_sum "Si O2"
_cell_formula_units_Z 32
_cell_length_a 28.640994
_cell_length_b 9.128619
_cell_length_c 22.379980
_cell_angle_alpha 90.000000
_cell_angle_beta 18.644944
_cell_angle_gamma 90.000000
_cell_volume 1870.678315
_symmetry_space_group_name_H-M "P 21/M"
_symmetry_group_IT_number 11
_symmetry_cell_setting 'monoclinic'
loop_
_space_group_symop_operation_xyz
x,y,z
-x,1/2+y,-z
-x,-y,-z
x,1/2-y,z
loop_
_atom_site_type_symbol
_atom_site_label
_atom_site_fract_x
_atom_site_fract_y
_atom_site_fract_z
Si Si1 0.553204 0.074489 0.741256
Si Si2 0.574138 0.426097 0.351864
Si Si3 0.142164 0.925517 0.563387
Si Si4 0.585530 0.073671 0.565652
Si Si5 0.928237 0.423960 0.143338
Si Si6 0.409794 0.581495 0.022596
Si Si7 0.725428 0.581500 0.706952
Si Si8 0.888154 0.573699 0.960696
O O1 0.540297 0.250000 0.762885
O O2 0.718351 0.037000 0.563271
O O3 0.532565 0.037398 0.696872
O O4 0.441505 0.997585 0.921662
O O5 0.500000 0.500000 0.500000
O O6 0.568054 0.250000 0.364005
O O7 0.491511 0.484537 0.393209
O O8 0.739383 0.484469 0.145468
O O9 0.146687 0.750000 0.550150
O O10 0.991498 0.962616 0.779081
O O11 0.167862 0.002392 0.468980
O O12 0.566482 0.250000 0.579704
O O13 0.757895 0.040615 0.355281
O O14 0.938316 0.250000 0.123081
O O15 0.015220 0.459206 0.098045
O O16 0.000000 0.500000 0.000000
O O17 0.368687 0.750000 0.064120
O O18 0.566539 0.578258 0.866917
O O19 0.297917 0.500003 0.202089
O O20 0.765707 0.750000 0.667083
O O21 0.859007 0.750000 0.994840
#
# Coordination Sequence:
#
# PCOD9161767 Si02
#       8
#     4   4   4   4   4   4   4   4
#     4   9  16  29  50  75 104 137 171 213 263 315
#     4  12  26  42  58  78 105 140 181 224 268 318
#     4   9  16  29  50  75 104 137 171 213 263 315
#     4  10  20  37  58  80 107 139 175 217 268 322
#     4  10  20  34  54  80 105 132 169 212 263 320
#     4   9  16  25  39  64 100 140 178 215 256 305
#     4   9  16  25  39  64 100 140 178 215 256 305
#     4  10  20  37  58  80 107 139 175 217 268 322
#
# _framework density 17.106093000000001
#
# number of rings (size 3 to 8) (size 9 to 14) (size 15 to 20)
#    0.000    2.250    1.250    2.625    0.000    7.000 
#    0.000    0.000    0.000    0.000    0.000    0.875 
#    0.000    0.000    0.000    0.000    0.000    0.000 
#
# Total GULP energy -178503.758230 kJ/mol
# GULP energy per Si atom -5578.242445 kJ/mol
# Density = 1.706716 g / cm^3
# Si number density = 17.106093 Si / 1000 Ang^3
#
#
#
# Elastic Constant Matrix: (Units=GPa)
#
#
# Indices 1 2 3 4 5 6 
#
# 1 124.0063 74.3131 80.1125 0.0000 28.4460 0.0000
# 2 74.3131 84.3673 76.6291 0.0000 19.6611 0.0000
# 3 80.1125 76.6291 130.7212 0.0000 30.8439 0.0000
# 4 0.0000 0.0000 0.0000 27.1461 0.0000 9.3788
# 5 28.4460 19.6611 30.8439 0.0000 39.5409 0.0000
# 6 0.0000 0.0000 0.0000 9.3788 0.0000 25.6413
#
#
#
# Elastic Compliance Matrix: (Units=1/GPa)
#
#
# Indices 1 2 3 4 5 6 
#
# 1 0.018612 -0.012709 -0.002804 0.000000 -0.004883 0.000000
# 2 -0.012709 0.034079 -0.012681 0.000000 0.002090 0.000000
# 3 -0.002804 -0.012681 0.018185 0.000000 -0.005863 0.000000
# 4 0.000000 0.000000 0.000000 0.042166 0.000000 -0.015423
# 5 -0.004883 0.002090 -0.005863 0.000000 0.032337 0.000000
# 6 0.000000 0.000000 0.000000 -0.015423 0.000000 0.044641
#
#
# Mechanical properties :
#
#
# Convention : Reuss Voigt Hill
#
# Bulk Modulus (GPa) = 69.02765 89.02269 79.02517
# Shear Modulus (GPa) = 19.90144 25.66833 22.78488
#
# Velocity S-wave (km/s) = 3.41458 3.87788 3.65358
# Velocity P-wave (km/s) = 7.48239 8.49736 8.00597
#
# Compressibility (1/GPa) = 0.01448695
#
# Stress axis : x y z
#
# Youngs Moduli (GPa) = 53.72909 29.34393 54.98889
#
# Poissons Ratio (x) = 0.37293 0.15419
# Poissons Ratio (y) = 0.68285 0.69733
# Poissons Ratio (z) = 0.15066 0.37212
#
# Static dielectric constant tensor:
#      x y z
#    x 1.728500 0.000000 0.174270 
#    y 0.000000 1.571370 0.000000 
#    z 0.174270 0.000000 1.766750 
# 
# From -- ./inp_files/67082.got.cif
#   From: 2010.05.17/outbox.cif.g08.bks.cpg/sg11_34_cif.got.tgz:67082.got - 2010.06.03 12:22:45.
