data_PCOD9161709
_publ_section_title
;
Structure prediction by ZEFSAII (Michael W. Deem and Ramdas Pophale) SiO2 
 PCOD9161709
Probable space group: P 21/M
;
_chemical_formula_sum "Si O2"
_cell_formula_units_Z 28
_cell_length_a 12.594488
_cell_length_b 9.194568
_cell_length_c 14.232008
_cell_angle_alpha 90.000000
_cell_angle_beta 104.863501
_cell_angle_gamma 90.000000
_cell_volume 1592.933754
_symmetry_space_group_name_H-M "P 21/M"
_symmetry_group_IT_number 11
_symmetry_cell_setting 'monoclinic'
loop_
_space_group_symop_operation_xyz
x,y,z
-x,1/2+y,-z
-x,-y,-z
x,1/2-y,z
loop_
_atom_site_type_symbol
_atom_site_label
_atom_site_fract_x
_atom_site_fract_y
_atom_site_fract_z
Si Si1 0.818553 0.575726 0.287037
Si Si2 0.166663 0.079466 0.492785
Si Si3 0.749024 0.925553 0.769933
Si Si4 0.940853 0.423665 0.705973
Si Si5 0.394048 0.080621 0.438412
Si Si6 0.625715 0.923608 0.931509
Si Si7 0.370473 0.923084 0.869431
O O1 0.800669 0.750000 0.280469
O O2 0.840457 0.535968 0.400589
O O3 0.713847 0.495335 0.221500
O O4 0.930067 0.543037 0.255210
O O5 0.134616 0.250000 0.476281
O O6 0.292982 0.068201 0.487984
O O7 0.097788 0.984060 0.404275
O O8 0.760948 0.750000 0.764145
O O9 0.656700 0.970824 0.672371
O O10 0.705763 0.960087 0.863650
O O11 0.861724 0.000532 0.763687
O O12 0.926944 0.250000 0.705393
O O13 0.421568 0.250000 0.433538
O O14 0.500000 0.000000 0.500000
O O15 0.633920 0.750000 0.951454
O O16 0.498597 0.953526 0.875382
O O17 0.649829 0.010055 0.031979
O O18 0.356123 0.750000 0.867531
#
# Coordination Sequence:
#
# PCOD9161709 Si02
#       7
#     4   4   4   4   4   4   4
#     4  10  21  36  54  77 109 143 177 218 265 312
#     4   9  19  35  52  72 104 146 181 212 260 314
#     4   9  19  36  56  74 102 143 177 210 262 319
#     4  10  20  34  53  80 108 138 179 223 261 306
#     4   9  18  30  46  72 104 135 170 209 250 303
#     4   9  19  38  59  78 106 140 172 214 269 319
#     4  10  21  35  56  85 108 132 173 221 264 316
#
# _framework density 17.577628000000001
#
# number of rings (size 3 to 8) (size 9 to 14) (size 15 to 20)
#    0.000    2.571    0.000    2.143    2.000    5.143 
#    0.000    0.714    0.000    0.000    0.000    0.000 
#    0.000    0.000    0.000    0.000    0.000    0.000 
#
# Total GULP energy -156191.435338 kJ/mol
# GULP energy per Si atom -5578.265548 kJ/mol
# Density = 1.753762 g / cm^3
# Si number density = 17.577628 Si / 1000 Ang^3
#
#
#
# Elastic Constant Matrix: (Units=GPa)
#
#
# Indices 1 2 3 4 5 6 
#
# 1 46.2107 28.8331 40.0279 0.0000 -12.6224 0.0000
# 2 28.8331 30.8239 22.4962 0.0000 -3.9974 0.0000
# 3 40.0279 22.4962 45.4220 0.0000 -19.1918 0.0000
# 4 0.0000 0.0000 0.0000 31.4617 0.0000 2.6883
# 5 -12.6224 -3.9974 -19.1918 0.0000 26.0732 0.0000
# 6 0.0000 0.0000 0.0000 2.6883 0.0000 25.7163
#
#
#
# Elastic Compliance Matrix: (Units=1/GPa)
#
#
# Indices 1 2 3 4 5 6 
#
# 1 0.150999 -0.064559 -0.107967 0.000000 -0.016269 0.000000
# 2 -0.064559 0.083177 0.011436 0.000000 -0.010083 0.000000
# 3 -0.107967 0.011436 0.130849 0.000000 0.045799 0.000000
# 4 0.000000 0.000000 0.000000 0.032071 0.000000 -0.003353
# 5 -0.016269 -0.010083 0.045799 0.000000 0.062643 0.000000
# 6 0.000000 0.000000 0.000000 -0.003353 0.000000 0.039236
#
#
# Mechanical properties :
#
#
# Convention : Reuss Voigt Hill
#
# Bulk Modulus (GPa) = 23.33961 33.90790 28.62376
# Shear Modulus (GPa) = 5.98489 18.72352 12.35421
#
# Velocity S-wave (km/s) = 1.84722 3.26727 2.65398
# Velocity P-wave (km/s) = 4.22569 5.79358 5.07061
#
# Compressibility (1/GPa) = 0.04284561
#
# Stress axis : x y z
#
# Youngs Moduli (GPa) = 6.62256 12.02252 7.64242
#
# Poissons Ratio (x) = 0.77616 0.82513
# Poissons Ratio (y) = 0.42754 -0.08740
# Poissons Ratio (z) = 0.71502 -0.13749
#
# Static dielectric constant tensor:
#      x y z
#    x 1.595150 0.000000 -0.013410 
#    y 0.000000 1.587400 0.000000 
#    z -0.013410 0.000000 1.579480 
# 
# From -- ./inp_files/37899.got.cif
#   From: 2010.05.17/outbox.cif.g08.bks.cpg/sg11_19_cif.got.tgz:37899.got - 2010.06.03 12:22:45.
