data_PCOD9161772
_publ_section_title
;
Structure prediction by ZEFSAII (Michael W. Deem and Ramdas Pophale) SiO2 
 PCOD9161772
Probable space group: P 21/M
;
_chemical_formula_sum "Si O2"
_cell_formula_units_Z 32
_cell_length_a 23.344395
_cell_length_b 8.889553
_cell_length_c 28.533783
_cell_angle_alpha 90.000000
_cell_angle_beta 162.375802
_cell_angle_gamma 90.000000
_cell_volume 1792.826349
_symmetry_space_group_name_H-M "P 21/M"
_symmetry_group_IT_number 11
_symmetry_cell_setting 'monoclinic'
loop_
_space_group_symop_operation_xyz
x,y,z
-x,1/2+y,-z
-x,-y,-z
x,1/2-y,z
loop_
_atom_site_type_symbol
_atom_site_label
_atom_site_fract_x
_atom_site_fract_y
_atom_site_fract_z
Si Si1 0.833819 0.430954 0.338254
Si Si2 0.826918 0.929890 0.076610
Si Si3 0.152571 0.931329 0.154276
Si Si4 0.569825 0.929855 0.203125
Si Si5 0.905157 0.929304 0.539000
Si Si6 0.421811 0.430222 0.541629
Si Si7 0.155996 0.928162 0.407982
Si Si8 0.098804 0.069228 0.214754
O O1 0.832733 0.250000 0.341816
O O2 0.644540 0.499898 0.212557
O O3 0.000000 0.500000 0.500000
O O4 0.902353 0.469051 0.339140
O O5 0.815008 0.750000 0.061263
O O6 0.974688 0.962201 0.233867
O O7 0.918172 0.005779 0.101907
O O8 0.625656 0.998497 0.932914
O O9 0.140454 0.750000 0.145265
O O10 0.364171 0.974648 0.302735
O O11 0.118058 0.995606 0.179135
O O12 0.000000 0.000000 0.000000
O O13 0.554887 0.750000 0.187027
O O14 0.730107 0.962384 0.367474
O O15 0.906767 0.750000 0.547775
O O16 0.877151 0.009564 0.566215
O O17 0.415401 0.250000 0.541206
O O18 0.334830 0.500680 0.520682
O O19 0.281413 0.470939 0.389247
O O20 0.179944 0.750000 0.428253
O O21 0.088323 0.250000 0.202985
#
# Coordination Sequence:
#
# PCOD9161772 Si02
#       8
#     4   4   4   4   4   4   4   4
#     4   9  17  31  51  76 105 139 178 221 266 318
#     4  10  21  37  55  79 109 140 176 220 264 314
#     4  11  23  38  56  82 113 143 175 218 266 312
#     4  10  20  34  54  80 106 139 180 222 268 319
#     4   9  19  34  53  77 106 138 175 217 264 316
#     4   9  20  38  59  79 104 140 179 216 261 316
#     4  10  21  35  55  81 107 137 177 220 264 313
#     4  10  20  37  60  82 104 138 179 218 263 318
#
# _framework density 17.848911999999999
#
# number of rings (size 3 to 8) (size 9 to 14) (size 15 to 20)
#    0.000    2.250    0.000    3.375    0.000    7.000 
#    0.000    1.875    0.000    0.000    0.000    0.000 
#    0.000    0.000    0.000    0.000    0.000    0.000 
#
# Total GULP energy -178582.129020 kJ/mol
# GULP energy per Si atom -5580.691532 kJ/mol
# Density = 1.780829 g / cm^3
# Si number density = 17.848912 Si / 1000 Ang^3
#
#
#
# Elastic Constant Matrix: (Units=GPa)
#
#
# Indices 1 2 3 4 5 6 
#
# 1 193.1099 70.3263 84.8928 0.0000 29.0343 0.0000
# 2 70.3263 59.7566 52.8099 0.0000 14.0046 0.0000
# 3 84.8928 52.8099 106.3298 0.0000 40.2767 0.0000
# 4 0.0000 0.0000 0.0000 29.1227 0.0000 3.4649
# 5 29.0343 14.0046 40.2767 0.0000 30.8438 0.0000
# 6 0.0000 0.0000 0.0000 3.4649 0.0000 34.1256
#
#
#
# Elastic Compliance Matrix: (Units=1/GPa)
#
#
# Indices 1 2 3 4 5 6 
#
# 1 0.009860 -0.008515 -0.003149 0.000000 -0.001302 0.000000
# 2 -0.008515 0.039386 -0.017859 0.000000 0.013453 0.000000
# 3 -0.003149 -0.017859 0.032837 0.000000 -0.031806 0.000000
# 4 0.000000 0.000000 0.000000 0.034757 0.000000 -0.003529
# 5 -0.001302 0.013453 -0.031806 0.000000 0.069072 0.000000
# 6 0.000000 0.000000 0.000000 -0.003529 0.000000 0.029662
#
#
# Mechanical properties :
#
#
# Convention : Reuss Voigt Hill
#
# Bulk Modulus (GPa) = 43.41198 86.13940 64.77569
# Shear Modulus (GPa) = 17.71172 28.89624 23.30398
#
# Velocity S-wave (km/s) = 3.15352 4.02797 3.61726
# Velocity P-wave (km/s) = 6.13468 8.36647 7.33594
#
# Compressibility (1/GPa) = 0.02303512
#
# Stress axis : x y z
#
# Youngs Moduli (GPa) = 101.42199 25.38983 30.45368
#
# Poissons Ratio (x) = 0.21620 0.09591
# Poissons Ratio (y) = 0.86363 0.54387
# Poissons Ratio (z) = 0.31942 0.45344
#
# Static dielectric constant tensor:
#      x y z
#    x 1.597280 0.000000 0.006380 
#    y 0.000000 1.592800 0.000000 
#    z 0.006380 0.000000 1.615020 
# 
# From -- ./inp_files/72233.got.cif
#   From: 2010.05.17/outbox.cif.g08.bks.cpg/sg11_37_cif.got.tgz:72233.got - 2010.06.03 12:22:45.
