data_PCOD9161286
_publ_section_title
;
Structure prediction by ZEFSAII (Michael W. Deem and Ramdas Pophale) SiO2 
 PCOD9161286
Probable space group: P 21/M
;
_chemical_formula_sum "Si O2"
_cell_formula_units_Z 32
_cell_length_a 23.398219
_cell_length_b 8.808519
_cell_length_c 28.889226
_cell_angle_alpha 90.000000
_cell_angle_beta 17.823365
_cell_angle_gamma 90.000000
_cell_volume 1822.475082
_symmetry_space_group_name_H-M "P 21/M"
_symmetry_group_IT_number 11
_symmetry_cell_setting 'monoclinic'
loop_
_space_group_symop_operation_xyz
x,y,z
-x,1/2+y,-z
-x,-y,-z
x,1/2-y,z
loop_
_atom_site_type_symbol
_atom_site_label
_atom_site_fract_x
_atom_site_fract_y
_atom_site_fract_z
Si Si1 0.347785 0.067568 0.652121
Si Si2 0.919684 0.568788 0.714575
Si Si3 0.075733 0.934588 0.038642
Si Si4 0.680699 0.932063 0.574242
Si Si5 0.597423 0.567752 0.036070
Si Si6 0.381587 0.933087 0.727535
Si Si7 0.634830 0.067427 0.108427
Si Si8 0.662919 0.432119 0.841906
O O1 0.353981 0.250000 0.645359
O O2 0.137743 0.016521 0.800438
O O3 0.500000 0.000000 0.500000
O O4 0.383735 0.011896 0.676522
O O5 0.912323 0.750000 0.716251
O O6 0.851167 0.497181 0.718843
O O7 0.123079 0.513719 0.572169
O O8 0.769535 0.522492 0.869848
O O9 0.077791 0.750000 0.037286
O O10 0.201908 0.979321 0.897111
O O11 0.184954 0.983993 0.000714
O O12 0.708470 0.750000 0.553402
O O13 0.563487 0.968637 0.618340
O O14 0.544712 0.971726 0.721840
O O15 0.601160 0.750000 0.036777
O O16 0.619562 0.498352 0.069289
O O17 0.406009 0.526076 0.156513
O O18 0.374831 0.750000 0.727058
O O19 0.642833 0.250000 0.099474
O O20 0.662881 0.250000 0.845433
O O21 0.500000 0.500000 0.000000
#
# Coordination Sequence:
#
# PCOD9161286 Si02
#       8
#     4   4   4   4   4   4   4   4
#     4  11  22  35  52  77 108 137 168 209 255 301
#     4  10  20  33  51  76 104 134 172 214 254 302
#     4   8  17  35  56  75  98 132 172 210 249 300
#     4   9  19  35  54  76 102 132 167 209 256 305
#     4   9  19  33  49  74 104 131 163 208 255 298
#     4   9  18  36  58  76  98 131 171 212 254 302
#     4   9  18  34  55  76  98 130 172 210 248 302
#     4   9  17  31  50  72 101 135 172 212 256 306
#
# _framework density 17.558540000000001
#
# number of rings (size 3 to 8) (size 9 to 14) (size 15 to 20)
#    0.000    2.750    0.000    3.750    0.000    5.000 
#    0.000    8.125    0.000    0.000    0.000    0.000 
#    0.000    0.000    0.000    0.000    0.000    0.000 
#
# Total GULP energy -178385.735648 kJ/mol
# GULP energy per Si atom -5574.554239 kJ/mol
# Density = 1.751858 g / cm^3
# Si number density = 17.558540 Si / 1000 Ang^3
#
#
#
# Elastic Constant Matrix: (Units=GPa)
#
#
# Indices 1 2 3 4 5 6 
#
# 1 199.9379 57.9465 118.1205 0.0000 -10.7446 0.0000
# 2 57.9465 36.9487 53.7357 0.0000 -9.7876 0.0000
# 3 118.1205 53.7357 152.7220 0.0000 -32.2247 0.0000
# 4 0.0000 0.0000 0.0000 25.9767 0.0000 -0.5276
# 5 -10.7446 -9.7876 -32.2247 0.0000 22.4731 0.0000
# 6 0.0000 0.0000 0.0000 -0.5276 0.0000 35.7026
#
#
#
# Elastic Compliance Matrix: (Units=1/GPa)
#
#
# Indices 1 2 3 4 5 6 
#
# 1 0.012019 -0.010066 -0.007838 0.000000 -0.009877 0.000000
# 2 -0.010066 0.064334 -0.014272 0.000000 0.002742 0.000000
# 3 -0.007838 -0.014272 0.022266 0.000000 0.021965 0.000000
# 4 0.000000 0.000000 0.000000 0.038508 0.000000 0.000569
# 5 -0.009877 0.002742 0.021965 0.000000 0.072465 0.000000
# 6 0.000000 0.000000 0.000000 0.000569 0.000000 0.028018
#
#
# Mechanical properties :
#
#
# Convention : Reuss Voigt Hill
#
# Bulk Modulus (GPa) = 29.18298 94.35711 61.77004
# Shear Modulus (GPa) = 15.95488 27.48422 21.71955
#
# Velocity S-wave (km/s) = 3.01768 3.96067 3.52089
# Velocity P-wave (km/s) = 5.36641 8.64703 7.19616
#
# Compressibility (1/GPa) = 0.03426655
#
# Stress axis : x y z
#
# Youngs Moduli (GPa) = 83.20353 15.54384 44.91136
#
# Poissons Ratio (x) = 0.15647 0.35201
# Poissons Ratio (y) = 0.83757 0.64097
# Poissons Ratio (z) = 0.65213 0.22184
#
# Static dielectric constant tensor:
#      x y z
#    x 1.594740 0.000000 -0.019050 
#    y 0.000000 1.592010 0.000000 
#    z -0.019050 0.000000 1.597850 
# 
# From -- ./inp_files/67117.got.cif
#   From: 2010.05.17/outbox.cif.g08.bks.cpg/sg11_34_cif.got.tgz:67117.got - 2010.06.03 12:22:45.
