data_PCOD9161885
_publ_section_title
;
Structure prediction by ZEFSAII (Michael W. Deem and Ramdas Pophale) SiO2 
 PCOD9161885
Probable space group: P 21/M
;
_chemical_formula_sum "Si O2"
_cell_formula_units_Z 30
_cell_length_a 11.828457
_cell_length_b 9.423711
_cell_length_c 14.576853
_cell_angle_alpha 90.000000
_cell_angle_beta 87.844040
_cell_angle_gamma 90.000000
_cell_volume 1623.701884
_symmetry_space_group_name_H-M "P 21/M"
_symmetry_group_IT_number 11
_symmetry_cell_setting 'monoclinic'
loop_
_space_group_symop_operation_xyz
x,y,z
-x,1/2+y,-z
-x,-y,-z
x,1/2-y,z
loop_
_atom_site_type_symbol
_atom_site_label
_atom_site_fract_x
_atom_site_fract_y
_atom_site_fract_z
Si Si1 0.630853 0.583602 0.085366
Si Si2 0.598895 0.917086 0.874458
Si Si3 0.510054 0.750000 0.540273
Si Si4 0.834090 0.916144 0.559942
Si Si5 0.092801 0.585413 0.618142
Si Si6 0.570323 0.540498 0.381589
Si Si7 0.214980 0.412723 0.755556
Si Si8 0.327135 0.587227 0.299187
O O1 0.599391 0.750000 0.102638
O O2 0.527013 0.483644 0.117799
O O3 0.739888 0.554198 0.144070
O O4 0.646981 0.567182 0.975967
O O5 0.594951 0.750000 0.851249
O O6 0.667538 0.004018 0.796712
O O7 0.574229 0.627096 0.475942
O O8 0.441566 0.624875 0.597347
O O9 0.803867 0.750000 0.553830
O O10 0.959655 0.924026 0.600214
O O11 0.844415 0.992656 0.461573
O O12 0.749129 0.000825 0.627289
O O13 0.126281 0.750000 0.610336
O O14 0.124830 0.518604 0.714525
O O15 0.673700 0.574830 0.311875
O O16 0.453946 0.587510 0.335915
O O17 0.174374 0.250000 0.753314
O O18 0.289248 0.750000 0.291320
#
# Coordination Sequence:
#
# PCOD9161885 Si02
#       8
#     4   4   2   4   4   4   4   4
#     4   9  19  36  55  80 114 148 185 228 275 330
#     4  10  20  34  55  82 113 148 184 227 277 333
#     4  10  24  36  46  68 118 152 180 216 272 328
#     4  10  23  41  59  80 109 147 190 233 276 323
#     4  10  23  40  58  82 111 145 188 234 276 322
#     4  11  23  35  49  78 110 149 181 222 268 330
#     4  11  21  35  57  79 111 147 185 224 272 330
#     4  12  23  36  57  81 113 145 185 229 274 333
#
# _framework density 18.476298
#
# number of rings (size 3 to 8) (size 9 to 14) (size 15 to 20)
#    0.000    1.600    2.667    1.600    6.533    2.667 
#    0.000    0.000    0.000    0.800    0.000    0.000 
#    0.000    0.000    0.000    0.000    0.000    0.000 
#
# Total GULP energy -167140.744245 kJ/mol
# GULP energy per Si atom -5571.358142 kJ/mol
# Density = 1.843425 g / cm^3
# Si number density = 18.476298 Si / 1000 Ang^3
#
#
#
# Elastic Constant Matrix: (Units=GPa)
#
#
# Indices 1 2 3 4 5 6 
#
# 1 38.7127 28.2251 30.8959 0.0000 9.7263 0.0000
# 2 28.2251 163.9974 54.3607 0.0000 15.1200 0.0000
# 3 30.8959 54.3607 79.4645 0.0000 18.3017 0.0000
# 4 0.0000 0.0000 0.0000 18.1685 0.0000 -3.7466
# 5 9.7263 15.1200 18.3017 0.0000 26.3624 0.0000
# 6 0.0000 0.0000 0.0000 -3.7466 0.0000 25.3956
#
#
#
# Elastic Compliance Matrix: (Units=1/GPa)
#
#
# Indices 1 2 3 4 5 6 
#
# 1 0.038419 -0.002060 -0.012541 0.000000 -0.004287 0.000000
# 2 -0.002060 0.008015 -0.004521 0.000000 -0.000698 0.000000
# 3 -0.012541 -0.004521 0.022485 0.000000 -0.008390 0.000000
# 4 0.000000 0.000000 0.000000 0.056767 0.000000 0.008375
# 5 -0.004287 -0.000698 -0.008390 0.000000 0.045740 0.000000
# 6 0.000000 0.000000 0.000000 0.008375 0.000000 0.040612
#
#
# Mechanical properties :
#
#
# Convention : Reuss Voigt Hill
#
# Bulk Modulus (GPa) = 32.59960 56.57089 44.58524
# Shear Modulus (GPa) = 19.19323 25.23149 22.21236
#
# Velocity S-wave (km/s) = 3.22654 3.69943 3.47105
# Velocity P-wave (km/s) = 5.61810 6.99516 6.34411
#
# Compressibility (1/GPa) = 0.03067522
#
# Stress axis : x y z
#
# Youngs Moduli (GPa) = 26.02887 124.76136 44.47311
#
# Poissons Ratio (x) = 0.25701 0.55773
# Poissons Ratio (y) = 0.05362 0.20108
# Poissons Ratio (z) = 0.32642 0.56410
#
# Static dielectric constant tensor:
#      x y z
#    x 1.649860 0.000000 0.038910 
#    y 0.000000 1.637420 0.000000 
#    z 0.038910 0.000000 1.652190 
# 
# From -- ./inp_files/48993.got.cif
#   From: 2010.05.17/outbox.cif.g08.bks.cpg/sg11_25_cif.got.tgz:48993.got - 2010.06.03 12:22:45.
