data_PCOD9161897
_publ_section_title
;
Structure prediction by ZEFSAII (Michael W. Deem and Ramdas Pophale) SiO2 
 PCOD9161897
Probable space group: P 21/M
;
_chemical_formula_sum "Si O2"
_cell_formula_units_Z 32
_cell_length_a 17.013447
_cell_length_b 9.150291
_cell_length_c 21.912846
_cell_angle_alpha 90.000000
_cell_angle_beta 152.647034
_cell_angle_gamma 90.000000
_cell_volume 1567.414803
_symmetry_space_group_name_H-M "P 21/M"
_symmetry_group_IT_number 11
_symmetry_cell_setting 'monoclinic'
loop_
_space_group_symop_operation_xyz
x,y,z
-x,1/2+y,-z
-x,-y,-z
x,1/2-y,z
loop_
_atom_site_type_symbol
_atom_site_label
_atom_site_fract_x
_atom_site_fract_y
_atom_site_fract_z
Si Si1 0.001846 0.419007 0.400814
Si Si2 0.315012 0.424895 0.875847
Si Si3 0.195081 0.416999 0.403622
Si Si4 0.496843 0.419196 0.332923
Si Si5 0.158368 0.921448 0.139792
Si Si6 0.655310 0.575645 0.964043
Si Si7 0.008948 0.923545 0.167965
Si Si8 0.678812 0.422586 0.326364
O O1 0.970051 0.250000 0.395698
O O2 0.093715 0.420903 0.397762
O O3 0.141629 0.493549 0.541906
O O4 0.824839 0.504169 0.265773
O O5 0.323692 0.250000 0.872388
O O6 0.272871 0.451438 0.918607
O O7 0.500000 0.500000 0.000000
O O8 0.249644 0.250000 0.431030
O O9 0.355350 0.523451 0.520894
O O10 0.080433 0.476629 0.270510
O O11 0.457350 0.250000 0.315271
O O12 0.330666 0.512384 0.232044
O O13 0.575906 0.434201 0.319633
O O14 0.152986 0.750000 0.123954
O O15 0.125443 0.943059 0.189107
O O16 0.000000 0.000000 0.000000
O O17 0.631034 0.750000 0.941869
O O18 0.464329 0.516761 0.819548
O O19 0.807113 0.536891 0.021729
O O20 0.012363 0.750000 0.186606
O O21 0.714813 0.250000 0.340806
#
# Coordination Sequence:
#
# PCOD9161897 Si02
#       8
#     4   4   4   4   4   4   4   4
#     4  10  20  36  57  86 120 150 186 230 280 339
#     4  11  22  38  62  88 117 151 185 228 281 338
#     4  10  20  34  55  83 112 143 185 236 284 332
#     4  10  20  35  56  79 111 149 189 233 283 340
#     4  11  23  37  54  76 108 146 187 237 288 342
#     4   9  18  35  60  86 111 142 189 237 279 333
#     4  10  20  36  57  80 107 145 192 235 281 337
#     4   9  18  35  60  86 111 149 195 236 280 333
#
# _framework density 20.415783999999999
#
# number of rings (size 3 to 8) (size 9 to 14) (size 15 to 20)
#    0.000    2.000    1.250    2.625    0.000    5.000 
#    0.000    2.500    0.000    0.000    0.000    0.000 
#    0.000    0.000    0.000    0.000    0.000    0.000 
#
# Total GULP energy -178614.921267 kJ/mol
# GULP energy per Si atom -5581.716290 kJ/mol
# Density = 2.036932 g / cm^3
# Si number density = 20.415784 Si / 1000 Ang^3
#
#
#
# Elastic Constant Matrix: (Units=GPa)
#
#
# Indices 1 2 3 4 5 6 
#
# 1 44.7408 28.5198 11.2278 0.0000 19.5234 0.0000
# 2 28.5198 44.6353 24.3293 0.0000 12.6407 0.0000
# 3 11.2278 24.3293 122.3567 0.0000 12.5641 0.0000
# 4 0.0000 0.0000 0.0000 39.2543 0.0000 6.0947
# 5 19.5234 12.6407 12.5641 0.0000 29.6074 0.0000
# 6 0.0000 0.0000 0.0000 6.0947 0.0000 13.5657
#
#
#
# Elastic Compliance Matrix: (Units=1/GPa)
#
#
# Indices 1 2 3 4 5 6 
#
# 1 0.047498 -0.025883 0.003000 0.000000 -0.021543 0.000000
# 2 -0.025883 0.041756 -0.006116 0.000000 0.001836 0.000000
# 3 0.003000 -0.006116 0.009461 0.000000 -0.003382 0.000000
# 4 0.000000 0.000000 0.000000 0.027385 0.000000 -0.012303
# 5 -0.021543 0.001836 -0.003382 0.000000 0.048632 0.000000
# 6 0.000000 0.000000 0.000000 -0.012303 0.000000 0.079243
#
#
# Mechanical properties :
#
#
# Convention : Reuss Voigt Hill
#
# Bulk Modulus (GPa) = 24.56014 37.76519 31.16266
# Shear Modulus (GPa) = 15.35890 26.32923 20.84406
#
# Velocity S-wave (km/s) = 2.74579 3.59507 3.19874
# Velocity P-wave (km/s) = 4.70198 5.98087 5.37957
#
# Compressibility (1/GPa) = 0.04071638
#
# Stress axis : x y z
#
# Youngs Moduli (GPa) = 21.05369 23.94894 105.69818
#
# Poissons Ratio (x) = 0.61987 -0.31711
# Poissons Ratio (y) = 0.54493 0.64645
# Poissons Ratio (z) = -0.06316 0.14647
#
# Static dielectric constant tensor:
#      x y z
#    x 1.729130 0.000000 -0.107190 
#    y 0.000000 1.683820 0.000000 
#    z -0.107190 0.000000 1.550610 
# 
# From -- ./inp_files/72120.got.cif
#   From: 2010.05.17/outbox.cif.g08.bks.cpg/sg11_37_cif.got.tgz:72120.got - 2010.06.03 12:22:45.
