data_PCOD9161116
_publ_section_title
;
Structure prediction by ZEFSAII (Michael W. Deem and Ramdas Pophale) SiO2 
 PCOD9161116
Probable space group: P 21/M
;
_chemical_formula_sum "Si O2"
_cell_formula_units_Z 32
_cell_length_a 14.557051
_cell_length_b 8.225250
_cell_length_c 21.353394
_cell_angle_alpha 90.000000
_cell_angle_beta 143.372924
_cell_angle_gamma 90.000000
_cell_volume 1525.371840
_symmetry_space_group_name_H-M "P 21/M"
_symmetry_group_IT_number 11
_symmetry_cell_setting 'monoclinic'
loop_
_space_group_symop_operation_xyz
x,y,z
-x,1/2+y,-z
-x,-y,-z
x,1/2-y,z
loop_
_atom_site_type_symbol
_atom_site_label
_atom_site_fract_x
_atom_site_fract_y
_atom_site_fract_z
Si Si1 0.952921 0.058119 0.330871
Si Si2 0.994979 0.055891 0.877004
Si Si3 0.661902 0.553782 0.236772
Si Si4 0.285650 0.444547 0.207374
Si Si5 0.666738 0.443918 0.906342
Si Si6 0.835302 0.056484 0.664809
Si Si7 0.770633 0.945734 0.434303
Si Si8 0.436853 0.557573 0.564558
O O1 0.964862 0.250000 0.326157
O O2 0.055357 0.019347 0.448634
O O3 0.777948 0.010784 0.248116
O O4 0.039476 0.970977 0.321355
O O5 0.995407 0.250000 0.874967
O O6 0.908795 0.988373 0.768194
O O7 0.887436 0.001259 0.875248
O O8 0.170014 0.000552 0.978177
O O9 0.665636 0.750000 0.236125
O O10 0.484510 0.498258 0.139046
O O11 0.727563 0.503852 0.340948
O O12 0.290842 0.250000 0.211079
O O13 0.343795 0.502035 0.171755
O O14 0.397158 0.509942 0.324101
O O15 0.663768 0.250000 0.905406
O O16 0.814741 0.250000 0.661502
O O17 0.670995 0.988313 0.549963
O O18 0.746134 0.750000 0.425588
O O19 0.664060 0.030942 0.427770
O O20 0.454391 0.750000 0.562724
#
# Coordination Sequence:
#
# PCOD9161116 Si02
#       8
#     4   4   4   4   4   4   4   4
#     4  10  20  32  54  85 115 147 185 230 275 331
#     4  11  24  41  61  82 109 150 194 236 282 334
#     4  10  20  34  54  80 113 150 185 225 279 338
#     4  11  22  37  60  89 118 145 182 232 285 340
#     4  11  23  40  61  84 114 149 189 236 282 331
#     4   9  20  40  60  80 113 153 191 230 278 332
#     4   9  17  31  50  79 116 150 183 221 276 333
#     4   9  18  33  56  85 115 148 183 226 278 333
#
# _framework density 20.978491000000002
#
# number of rings (size 3 to 8) (size 9 to 14) (size 15 to 20)
#    0.000    2.000    1.250    2.250    0.000    4.000 
#    0.000    0.625    0.000    0.000    0.000    0.000 
#    0.000    0.000    0.000    0.000    0.000    0.000 
#
# Total GULP energy -178687.566222 kJ/mol
# GULP energy per Si atom -5583.986444 kJ/mol
# Density = 2.093074 g / cm^3
# Si number density = 20.978491 Si / 1000 Ang^3
#
#
#
# Elastic Constant Matrix: (Units=GPa)
#
#
# Indices 1 2 3 4 5 6 
#
# 1 35.3142 -4.3839 32.1888 0.0000 15.0174 0.0000
# 2 -4.3839 22.6563 14.3954 0.0000 1.4719 0.0000
# 3 32.1888 14.3954 134.6888 0.0000 16.7299 0.0000
# 4 0.0000 0.0000 0.0000 4.1051 0.0000 5.9412
# 5 15.0174 1.4719 16.7299 0.0000 37.0925 0.0000
# 6 0.0000 0.0000 0.0000 5.9412 0.0000 17.6052
#
#
#
# Elastic Compliance Matrix: (Units=1/GPa)
#
#
# Indices 1 2 3 4 5 6 
#
# 1 0.046887 0.017153 -0.011225 0.000000 -0.014601 0.000000
# 2 0.017153 0.053635 -0.009222 0.000000 -0.004914 0.000000
# 3 -0.011225 -0.009222 0.011105 0.000000 -0.000098 0.000000
# 4 0.000000 0.000000 0.000000 0.476168 0.000000 -0.160692
# 5 -0.014601 -0.004914 -0.000098 0.000000 0.033110 0.000000
# 6 0.000000 0.000000 0.000000 -0.160692 0.000000 0.111030
#
#
# Mechanical properties :
#
#
# Convention : Reuss Voigt Hill
#
# Bulk Modulus (GPa) = 9.52010 30.78442 20.15226
# Shear Modulus (GPa) = 6.46382 21.79115 14.12749
#
# Velocity S-wave (km/s) = 1.75723 3.22644 2.59786
# Velocity P-wave (km/s) = 2.94364 5.34659 4.31573
#
# Compressibility (1/GPa) = 0.10504088
#
# Stress axis : x y z
#
# Youngs Moduli (GPa) = 21.32770 18.64444 90.04989
#
# Poissons Ratio (x) = -0.31981 1.01083
# Poissons Ratio (y) = -0.36584 0.83040
# Poissons Ratio (z) = 0.23941 0.17193
#
# Static dielectric constant tensor:
#      x y z
#    x 1.730990 0.000000 -0.004150 
#    y 0.000000 1.718070 0.000000 
#    z -0.004150 0.000000 1.808200 
# 
# From -- ./inp_files/69073.got.cif
#   From: 2010.05.17/outbox.cif.g08.bks.cpg/sg11_35_cif.got.tgz:69073.got - 2010.06.03 12:22:45.
