data_PCOD9161633
_publ_section_title
;
Structure prediction by ZEFSAII (Michael W. Deem and Ramdas Pophale) SiO2 
 PCOD9161633
Probable space group: P 21/M
;
_chemical_formula_sum "Si O2"
_cell_formula_units_Z 32
_cell_length_a 12.109328
_cell_length_b 13.357853
_cell_length_c 18.083205
_cell_angle_alpha 90.000000
_cell_angle_beta 147.007415
_cell_angle_gamma 90.000000
_cell_volume 1592.774570
_symmetry_space_group_name_H-M "P 21/M"
_symmetry_group_IT_number 11
_symmetry_cell_setting 'monoclinic'
loop_
_space_group_symop_operation_xyz
x,y,z
-x,1/2+y,-z
-x,-y,-z
x,1/2-y,z
loop_
_atom_site_type_symbol
_atom_site_label
_atom_site_fract_x
_atom_site_fract_y
_atom_site_fract_z
Si Si1 0.005160 0.864210 0.878969
Si Si2 0.198153 0.134994 0.758039
Si Si3 0.718664 0.980507 0.905168
Si Si4 0.813422 0.000730 0.526510
Si Si5 0.455485 0.128849 0.047603
Si Si6 0.894294 0.135416 0.228966
Si Si7 0.379742 0.134074 0.701023
Si Si8 0.579457 0.634941 0.686828
O O1 0.040239 0.750000 0.929753
O O2 0.131071 0.868178 0.873434
O O3 0.762822 0.869859 0.731266
O O4 0.070596 0.965160 0.958148
O O5 0.143828 0.250000 0.740429
O O6 0.340499 0.130061 0.766475
O O7 0.313765 0.102922 0.897590
O O8 0.995134 0.078858 0.621001
O O9 0.622194 0.929894 0.924289
O O10 0.690790 0.898548 0.825582
O O11 0.589331 0.077066 0.806853
O O12 0.777367 0.933013 0.433716
O O13 0.908409 0.928015 0.640825
O O14 0.608195 0.060307 0.430084
O O15 0.444256 0.250000 0.052286
O O16 0.689445 0.105730 0.157567
O O17 0.933002 0.250000 0.271380
O O18 0.376414 0.250000 0.676272
O O19 0.508946 0.750000 0.652581
#
# Coordination Sequence:
#
# PCOD9161633 Si02
#       8
#     4   4   4   4   4   4   4   4
#     4  10  21  38  59  82 110 144 184 229 274 321
#     4  10  20  34  52  78 112 146 180 219 269 329
#     4  11  20  35  60  84 109 141 181 225 275 328
#     4  11  21  35  55  77 106 146 188 226 268 320
#     4  10  21  36  57  87 117 142 174 222 277 330
#     4  10  21  37  58  84 113 144 179 223 275 328
#     4  10  21  34  50  77 111 143 178 222 272 328
#     4  10  23  40  56  78 109 147 189 230 271 318
#
# _framework density 20.090727999999999
#
# number of rings (size 3 to 8) (size 9 to 14) (size 15 to 20)
#    0.000    1.750    0.000    4.500    0.000    5.000 
#    0.000    2.500    0.000    2.250    0.000    0.000 
#    0.000    0.000    0.000    0.000    0.000    0.000 
#
# Total GULP energy -178434.728939 kJ/mol
# GULP energy per Si atom -5576.085279 kJ/mol
# Density = 2.004500 g / cm^3
# Si number density = 20.090728 Si / 1000 Ang^3
#
#
#
# Elastic Constant Matrix: (Units=GPa)
#
#
# Indices 1 2 3 4 5 6 
#
# 1 57.3956 22.0902 12.6681 0.0000 6.6152 0.0000
# 2 22.0902 112.2290 34.4189 0.0000 9.6503 0.0000
# 3 12.6681 34.4189 75.2581 0.0000 7.6565 0.0000
# 4 0.0000 0.0000 0.0000 39.3251 0.0000 0.0529
# 5 6.6152 9.6503 7.6565 0.0000 23.1340 0.0000
# 6 0.0000 0.0000 0.0000 0.0529 0.0000 23.6420
#
#
#
# Elastic Compliance Matrix: (Units=1/GPa)
#
#
# Indices 1 2 3 4 5 6 
#
# 1 0.019352 -0.003028 -0.001488 0.000000 -0.003778 0.000000
# 2 -0.003028 0.011023 -0.004296 0.000000 -0.002310 0.000000
# 3 -0.001488 -0.004296 0.015810 0.000000 -0.003015 0.000000
# 4 0.000000 0.000000 0.000000 0.025429 0.000000 -0.000057
# 5 -0.003778 -0.002310 -0.003015 0.000000 0.046268 0.000000
# 6 0.000000 0.000000 0.000000 -0.000057 0.000000 0.042298
#
#
# Mechanical properties :
#
#
# Convention : Reuss Voigt Hill
#
# Bulk Modulus (GPa) = 35.01477 42.58191 38.79834
# Shear Modulus (GPa) = 26.69158 28.93390 27.81274
#
# Velocity S-wave (km/s) = 3.64889 3.79906 3.72473
# Velocity P-wave (km/s) = 5.93453 6.36276 6.15237
#
# Compressibility (1/GPa) = 0.02855938
#
# Stress axis : x y z
#
# Youngs Moduli (GPa) = 51.67362 90.72253 63.25198
#
# Poissons Ratio (x) = 0.27469 0.09414
# Poissons Ratio (y) = 0.15646 0.27176
# Poissons Ratio (z) = 0.07691 0.38978
#
# Static dielectric constant tensor:
#      x y z
#    x 1.706530 0.000000 -0.012390 
#    y 0.000000 1.759110 0.000000 
#    z -0.012390 0.000000 1.730110 
# 
# From -- ./inp_files/59503.got.cif
#   From: 2010.05.17/outbox.cif.g08.bks.cpg/sg11_30_cif.got.tgz:59503.got - 2010.06.03 12:22:45.
