data_PCOD9161153
_publ_section_title
;
Structure prediction by ZEFSAII (Michael W. Deem and Ramdas Pophale) SiO2 
 PCOD9161153
Probable space group: P 21/M
;
_chemical_formula_sum "Si O2"
_cell_formula_units_Z 28
_cell_length_a 15.109852
_cell_length_b 13.482701
_cell_length_c 7.258229
_cell_angle_alpha 90.000000
_cell_angle_beta 128.493695
_cell_angle_gamma 90.000000
_cell_volume 1157.311212
_symmetry_space_group_name_H-M "P 21/M"
_symmetry_group_IT_number 11
_symmetry_cell_setting 'monoclinic'
loop_
_space_group_symop_operation_xyz
x,y,z
-x,1/2+y,-z
-x,-y,-z
x,1/2-y,z
loop_
_atom_site_type_symbol
_atom_site_label
_atom_site_fract_x
_atom_site_fract_y
_atom_site_fract_z
Si Si1 0.707759 0.995489 0.269375
Si Si2 0.390591 0.865687 0.129031
Si Si3 0.369240 0.131330 0.483935
Si Si4 0.863311 0.132066 0.065147
Si Si5 0.864043 0.632497 0.914205
Si Si6 0.095594 0.134442 0.480934
Si Si7 0.104172 0.630195 0.309727
O O1 0.793288 0.081632 0.449611
O O2 0.651693 0.930843 0.357850
O O3 0.800157 0.923002 0.293862
O O4 0.612698 0.051291 0.031495
O O5 0.397759 0.750000 0.074133
O O6 0.499819 0.881254 0.400171
O O7 0.266149 0.878702 0.050347
O O8 0.354051 0.250000 0.499071
O O9 0.264794 0.099386 0.219263
O O10 0.883800 0.250000 0.075791
O O11 0.877120 0.094375 0.876392
O O12 0.964874 0.102156 0.333331
O O13 0.865461 0.750000 0.948910
O O14 0.885574 0.622295 0.719316
O O15 0.973574 0.598184 0.169867
O O16 0.105525 0.250000 0.539967
O O17 0.111352 0.750000 0.335151
#
# Coordination Sequence:
#
# PCOD9161153 Si02
#       7
#     4   4   4   4   4   4   4
#     4  11  19  28  49  77  98 117 150 201 248 272
#     4  10  20  33  48  68  96 128 160 192 228 278
#     4   9  18  32  48  67  93 127 164 194 223 274
#     4   8  16  32  49  65  93 132 163 184 222 285
#     4   7  12  25  44  65  87 114 150 187 221 264
#     4   8  15  28  46  68  93 122 156 190 227 279
#     4   9  17  30  49  74  99 119 148 195 244 282
#
# _framework density 24.194011
#
# number of rings (size 3 to 8) (size 9 to 14) (size 15 to 20)
#    0.000    3.143    0.000    3.857    0.000    5.714 
#    0.000    0.714    0.000    0.000    0.000    4.000 
#    0.000   27.429    0.000    0.000    0.000    0.000 
#
# Total GULP energy -156201.082985 kJ/mol
# GULP energy per Si atom -5578.610107 kJ/mol
# Density = 2.413894 g / cm^3
# Si number density = 24.194011 Si / 1000 Ang^3
#
#
#
# Elastic Constant Matrix: (Units=GPa)
#
#
# Indices 1 2 3 4 5 6 
#
# 1 55.8854 10.1293 46.2755 0.0000 31.7266 0.0000
# 2 10.1293 109.9691 20.8181 0.0000 4.7802 0.0000
# 3 46.2755 20.8181 126.1400 0.0000 42.4571 0.0000
# 4 0.0000 0.0000 0.0000 25.5203 0.0000 2.9280
# 5 31.7266 4.7802 42.4571 0.0000 46.3725 0.0000
# 6 0.0000 0.0000 0.0000 2.9280 0.0000 8.7597
#
#
#
# Elastic Compliance Matrix: (Units=1/GPa)
#
#
# Indices 1 2 3 4 5 6 
#
# 1 0.032621 -0.001108 -0.006231 0.000000 -0.016499 0.000000
# 2 -0.001108 0.009438 -0.001559 0.000000 0.001213 0.000000
# 3 -0.006231 -0.001559 0.012983 0.000000 -0.007463 0.000000
# 4 0.000000 0.000000 0.000000 0.040747 0.000000 -0.013620
# 5 -0.016499 0.001213 -0.007463 0.000000 0.039560 0.000000
# 6 0.000000 0.000000 0.000000 -0.013620 0.000000 0.118712
#
#
# Mechanical properties :
#
#
# Convention : Reuss Voigt Hill
#
# Bulk Modulus (GPa) = 26.84936 49.60450 38.22693
# Shear Modulus (GPa) = 17.58876 30.44859 24.01868
#
# Velocity S-wave (km/s) = 2.69920 3.55141 3.15422
# Velocity P-wave (km/s) = 4.56463 6.11261 5.39443
#
# Compressibility (1/GPa) = 0.03724484
#
# Stress axis : x y z
#
# Youngs Moduli (GPa) = 30.65537 105.95459 77.02461
#
# Poissons Ratio (x) = 0.11739 0.47994
# Poissons Ratio (y) = 0.03396 0.12011
# Poissons Ratio (z) = 0.19101 0.16523
#
# Static dielectric constant tensor:
#      x y z
#    x 2.016830 0.000000 -0.022190 
#    y 0.000000 1.972820 0.000000 
#    z -0.022190 0.000000 1.921980 
# 
# From -- ./inp_files/24967.got.cif
#   From: 2010.05.17/outbox.cif.g08.bks.cpg/sg11_13_cif.got.tgz:24967.got - 2010.06.03 12:22:45.
