data_PCOD9161748
_publ_section_title
;
Structure prediction by ZEFSAII (Michael W. Deem and Ramdas Pophale) SiO2 
 PCOD9161748
Probable space group: P 21/M
;
_chemical_formula_sum "Si O2"
_cell_formula_units_Z 28
_cell_length_a 16.428668
_cell_length_b 7.605807
_cell_length_c 21.898177
_cell_angle_alpha 90.000000
_cell_angle_beta 151.960264
_cell_angle_gamma 90.000000
_cell_volume 1286.266315
_symmetry_space_group_name_H-M "P 21/M"
_symmetry_group_IT_number 11
_symmetry_cell_setting 'monoclinic'
loop_
_space_group_symop_operation_xyz
x,y,z
-x,1/2+y,-z
-x,-y,-z
x,1/2-y,z
loop_
_atom_site_type_symbol
_atom_site_label
_atom_site_fract_x
_atom_site_fract_y
_atom_site_fract_z
Si Si1 0.085513 0.038108 0.490862
Si Si2 0.432620 0.466229 0.655153
Si Si3 0.523572 0.448444 0.586204
Si Si4 0.434999 0.963780 0.046984
Si Si5 0.738174 0.035707 0.942555
Si Si6 0.225193 0.955254 0.791742
Si Si7 0.088189 0.040286 0.123700
O O1 0.090748 0.250000 0.491299
O O2 0.276683 0.978522 0.596914
O O3 0.951040 0.969140 0.350961
O O4 0.000000 0.000000 0.500000
O O5 0.432180 0.250000 0.654427
O O6 0.425920 0.531323 0.580514
O O7 0.616037 0.520656 0.805861
O O8 0.500000 0.500000 0.500000
O O9 0.461294 0.250000 0.545578
O O10 0.726414 0.458514 0.738952
O O11 0.441900 0.750000 0.049999
O O12 0.315242 0.028739 0.911903
O O13 0.354348 0.019578 0.056953
O O14 0.628398 0.028594 0.163244
O O15 0.740793 0.250000 0.943224
O O16 0.936459 0.979680 0.069004
O O17 0.193677 0.750000 0.783660
O O18 0.111589 0.250000 0.143944
O O19 0.000000 0.000000 0.000000
#
# Coordination Sequence:
#
# PCOD9161748 Si02
#       7
#     4   4   4   4   4   4   4
#     4  10  20  34  54  78 108 144 184 229 279 334
#     4   9  18  34  56  80 109 147 187 231 282 347
#     4  11  23  41  62  87 120 157 200 247 300 359
#     4   9  17  31  53  75 100 139 182 220 264 328
#     4   9  17  31  55  83 105 135 185 229 268 334
#     4   9  18  31  47  74 108 135 169 224 279 321
#     4  11  21  37  61  87 116 151 192 240 294 349
#
# _framework density 21.768433000000002
#
# number of rings (size 3 to 8) (size 9 to 14) (size 15 to 20)
#    0.000    2.286    1.429    1.714    0.000    2.857 
#    0.000    7.143    0.000    3.429    0.000    0.000 
#    0.000    0.000    0.000    0.000    0.000    0.000 
#
# Total GULP energy -156169.435689 kJ/mol
# GULP energy per Si atom -5577.479846 kJ/mol
# Density = 2.171889 g / cm^3
# Si number density = 21.768433 Si / 1000 Ang^3
#
#
#
# Elastic Constant Matrix: (Units=GPa)
#
#
# Indices 1 2 3 4 5 6 
#
# 1 131.6434 -8.3676 29.4392 0.0000 -4.1429 0.0000
# 2 -8.3676 43.4241 -11.8260 0.0000 -3.0604 0.0000
# 3 29.4392 -11.8260 75.5909 0.0000 7.1584 0.0000
# 4 0.0000 0.0000 0.0000 18.5228 0.0000 -1.2712
# 5 -4.1429 -3.0604 7.1584 0.0000 25.9943 0.0000
# 6 0.0000 0.0000 0.0000 -1.2712 0.0000 20.8037
#
#
#
# Elastic Compliance Matrix: (Units=1/GPa)
#
#
# Indices 1 2 3 4 5 6 
#
# 1 0.008486 0.000879 -0.003394 0.000000 0.002391 0.000000
# 2 0.000879 0.024231 0.003250 0.000000 0.002098 0.000000
# 3 -0.003394 0.003250 0.015478 0.000000 -0.004421 0.000000
# 4 0.000000 0.000000 0.000000 0.054215 0.000000 0.003313
# 5 0.002391 0.002098 -0.004421 0.000000 0.040315 0.000000
# 6 0.000000 0.000000 0.000000 0.003313 0.000000 0.048271
#
#
# Mechanical properties :
#
#
# Convention : Reuss Voigt Hill
#
# Bulk Modulus (GPa) = 20.13453 29.90552 25.02002
# Shear Modulus (GPa) = 24.26232 29.15836 26.71034
#
# Velocity S-wave (km/s) = 3.34213 3.66386 3.50669
# Velocity P-wave (km/s) = 4.91555 5.62729 5.28342
#
# Compressibility (1/GPa) = 0.04966593
#
# Stress axis : x y z
#
# Youngs Moduli (GPa) = 117.83581 41.26940 64.60829
#
# Poissons Ratio (x) = -0.03630 0.21927
# Poissons Ratio (y) = -0.10364 -0.20996
# Poissons Ratio (z) = 0.39992 -0.13411
#
# Static dielectric constant tensor:
#      x y z
#    x 1.822110 0.000000 -0.011460 
#    y 0.000000 1.833190 0.000000 
#    z -0.011460 0.000000 1.789710 
# 
# From -- ./inp_files/65474.got.cif
#   From: 2010.05.17/outbox.cif.g08.bks.cpg/sg11_33_cif.got.tgz:65474.got - 2010.06.03 12:22:45.
