data_PCOD9161128
_publ_section_title
;
Structure prediction by ZEFSAII (Michael W. Deem and Ramdas Pophale) SiO2 
 PCOD9161128
Probable space group: P 21/M
;
_chemical_formula_sum "Si O2"
_cell_formula_units_Z 32
_cell_length_a 24.055647
_cell_length_b 9.174990
_cell_length_c 14.643731
_cell_angle_alpha 90.000000
_cell_angle_beta 44.193370
_cell_angle_gamma 90.000000
_cell_volume 2252.985208
_symmetry_space_group_name_H-M "P 21/M"
_symmetry_group_IT_number 11
_symmetry_cell_setting 'monoclinic'
loop_
_space_group_symop_operation_xyz
x,y,z
-x,1/2+y,-z
-x,-y,-z
x,1/2-y,z
loop_
_atom_site_type_symbol
_atom_site_label
_atom_site_fract_x
_atom_site_fract_y
_atom_site_fract_z
Si Si1 0.735687 0.574319 0.321017
Si Si2 0.895596 0.582827 0.047088
Si Si3 0.677913 0.577364 0.691085
Si Si4 0.483953 0.424083 0.233725
Si Si5 0.552081 0.575259 0.515807
Si Si6 0.802279 0.423821 0.424956
Si Si7 0.432100 0.423783 0.018714
Si Si8 0.043774 0.082695 0.812988
O O1 0.740496 0.750000 0.332738
O O2 0.803166 0.539563 0.166225
O O3 0.645965 0.538856 0.398368
O O4 0.759244 0.491509 0.385890
O O5 0.901274 0.750000 0.008945
O O6 0.926565 0.580113 0.115976
O O7 0.955045 0.482504 0.920074
O O8 0.695214 0.750000 0.660768
O O9 0.601027 0.546634 0.716410
O O10 0.751328 0.483107 0.569807
O O11 0.648603 0.549217 0.829101
O O12 0.496630 0.250000 0.211173
O O13 0.476164 0.464584 0.348656
O O14 0.552962 0.508429 0.098015
O O15 0.500000 0.500000 0.500000
O O16 0.545317 0.750000 0.515847
O O17 0.802526 0.250000 0.420058
O O18 0.891972 0.486600 0.316523
O O19 0.444479 0.250000 0.002626
O O20 0.500000 0.500000 0.000000
O O21 0.045539 0.250000 0.780720
#
# Coordination Sequence:
#
# PCOD9161128 Si02
#       8
#     4   4   4   4   4   4   4   4
#     4   9  17  31  44  53  74 106 134 166 212 250
#     4   8  14  24  39  54  69  95 132 167 195 234
#     4   9  16  28  41  55  79 109 134 162 204 247
#     4   9  17  30  45  57  77 105 134 170 210 249
#     4  10  20  33  46  61  81 107 139 176 217 252
#     4  11  19  24  37  59  80 103 137 172 195 232
#     4   9  17  27  41  59  79 102 132 166 202 245
#     4   9  16  25  36  51  76 105 128 158 199 238
#
# _framework density 14.203377
#
# number of rings (size 3 to 8) (size 9 to 14) (size 15 to 20)
#    0.000    2.750    1.250    3.375    0.000    6.500 
#    0.000    0.000    0.000    0.000    0.000    0.000 
#    0.000    0.000    0.000    1.125    0.000   14.250 
#
# Total GULP energy -178160.545597 kJ/mol
# GULP energy per Si atom -5567.517050 kJ/mol
# Density = 1.417105 g / cm^3
# Si number density = 14.203377 Si / 1000 Ang^3
#
#
#
# Elastic Constant Matrix: (Units=GPa)
#
#
# Indices 1 2 3 4 5 6 
#
# 1 42.0231 21.7491 45.7042 0.0000 -3.8540 0.0000
# 2 21.7491 64.7904 69.0315 0.0000 -11.1788 0.0000
# 3 45.7042 69.0315 134.4375 0.0000 -16.1859 0.0000
# 4 0.0000 0.0000 0.0000 28.2896 0.0000 -1.3243
# 5 -3.8540 -11.1788 -16.1859 0.0000 13.5239 0.0000
# 6 0.0000 0.0000 0.0000 -1.3243 0.0000 15.1169
#
#
#
# Elastic Compliance Matrix: (Units=1/GPa)
#
#
# Indices 1 2 3 4 5 6 
#
# 1 0.038182 0.001748 -0.014481 0.000000 -0.005005 0.000000
# 2 0.001748 0.035004 -0.017554 0.000000 0.008423 0.000000
# 3 -0.014481 -0.017554 0.022352 0.000000 0.008115 0.000000
# 4 0.000000 0.000000 0.000000 0.035494 0.000000 0.003109
# 5 -0.005005 0.008423 0.008115 0.000000 0.089192 0.000000
# 6 0.000000 0.000000 0.000000 0.003109 0.000000 0.066423
#
#
# Mechanical properties :
#
#
# Convention : Reuss Voigt Hill
#
# Bulk Modulus (GPa) = 28.60056 57.13559 42.86808
# Shear Modulus (GPa) = 13.93237 18.37050 16.15143
#
# Velocity S-wave (km/s) = 3.13536 3.60027 3.37583
# Velocity P-wave (km/s) = 5.76953 7.58925 6.74108
#
# Compressibility (1/GPa) = 0.03496435
#
# Stress axis : x y z
#
# Youngs Moduli (GPa) = 26.19040 28.56802 44.73827
#
# Poissons Ratio (x) = -0.04994 0.64784
# Poissons Ratio (y) = -0.04578 0.78535
# Poissons Ratio (z) = 0.37926 0.50149
#
# Static dielectric constant tensor:
#      x y z
#    x 1.431800 0.000000 -0.010560 
#    y 0.000000 1.483130 0.000000 
#    z -0.010560 0.000000 1.504120 
# 
# From -- ./inp_files/52966.got.cif
#   From: 2010.05.17/outbox.cif.g08.bks.cpg/sg11_27_cif.got.tgz:52966.got - 2010.06.03 12:22:45.
