data_PCOD9161769
_publ_section_title
;
Structure prediction by ZEFSAII (Michael W. Deem and Ramdas Pophale) SiO2 
 PCOD9161769
Probable space group: P 21/M
;
_chemical_formula_sum "Si O2"
_cell_formula_units_Z 28
_cell_length_a 27.023662
_cell_length_b 9.476482
_cell_length_c 5.468735
_cell_angle_alpha 90.000000
_cell_angle_beta 71.050161
_cell_angle_gamma 90.000000
_cell_volume 1324.582518
_symmetry_space_group_name_H-M "P 21/M"
_symmetry_group_IT_number 11
_symmetry_cell_setting 'monoclinic'
loop_
_space_group_symop_operation_xyz
x,y,z
-x,1/2+y,-z
-x,-y,-z
x,1/2-y,z
loop_
_atom_site_type_symbol
_atom_site_label
_atom_site_fract_x
_atom_site_fract_y
_atom_site_fract_z
Si Si1 0.979725 0.077701 0.282726
Si Si2 0.539494 0.908365 0.774042
Si Si3 0.855574 0.080651 0.433944
Si Si4 0.194831 0.581343 0.987196
Si Si5 0.601878 0.404949 0.354144
Si Si6 0.294082 0.905130 0.522684
Si Si7 0.349908 0.404413 0.119329
O O1 0.990684 0.250000 0.265255
O O2 0.916907 0.060295 0.379251
O O3 0.000000 0.000000 0.500000
O O4 0.000000 0.000000 0.000000
O O5 0.520051 0.750000 0.766763
O O6 0.596302 0.893230 0.811972
O O7 0.555231 0.993572 0.506850
O O8 0.500000 0.000000 0.000000
O O9 0.847051 0.250000 0.435686
O O10 0.836968 0.025577 0.198776
O O11 0.823154 0.025371 0.720717
O O12 0.184698 0.750000 0.016603
O O13 0.255187 0.567222 0.809538
O O14 0.583025 0.250000 0.323264
O O15 0.645758 0.391472 0.492814
O O16 0.634980 0.474707 0.090332
O O17 0.278637 0.750000 0.441737
O O18 0.298850 0.040084 0.342387
O O19 0.341167 0.250000 0.021250
#
# Coordination Sequence:
#
# PCOD9161769 Si02
#       7
#     4   4   4   4   4   4   4
#     4  11  22  38  62  92 124 166 214 263 318 377
#     4  10  21  37  55  76 104 137 175 220 273 331
#     4   9  18  32  53  85 119 152 197 251 302 355
#     4   9  17  30  52  82 116 148 188 247 302 347
#     4  10  20  34  54  80 106 135 176 224 272 328
#     4   9  19  33  54  81 105 135 178 229 279 325
#     4  10  21  36  54  76 105 141 177 216 268 335
#
# _framework density 21.138735
#
# number of rings (size 3 to 8) (size 9 to 14) (size 15 to 20)
#    0.000    2.286    0.000    2.571    2.000    5.143 
#    0.000    0.000    0.000    5.143    0.000    0.000 
#    0.000    0.000    0.000    0.000    0.000    0.000 
#
# Total GULP energy -155968.617795 kJ/mol
# GULP energy per Si atom -5570.307778 kJ/mol
# Density = 2.109062 g / cm^3
# Si number density = 21.138735 Si / 1000 Ang^3
#
#
#
# Elastic Constant Matrix: (Units=GPa)
#
#
# Indices 1 2 3 4 5 6 
#
# 1 88.3446 19.8782 14.8309 0.0000 -3.1460 0.0000
# 2 19.8782 118.7019 42.2516 0.0000 -5.4462 0.0000
# 3 14.8309 42.2516 111.7670 0.0000 -10.4645 0.0000
# 4 0.0000 0.0000 0.0000 28.1778 0.0000 -2.6709
# 5 -3.1460 -5.4462 -10.4645 0.0000 29.6986 0.0000
# 6 0.0000 0.0000 0.0000 -2.6709 0.0000 10.9867
#
#
#
# Elastic Compliance Matrix: (Units=1/GPa)
#
#
# Indices 1 2 3 4 5 6 
#
# 1 0.011861 -0.001638 -0.000894 0.000000 0.000641 0.000000
# 2 -0.001638 0.009968 -0.003512 0.000000 0.000417 0.000000
# 3 -0.000894 -0.003512 0.010677 0.000000 0.003023 0.000000
# 4 0.000000 0.000000 0.000000 0.036326 0.000000 0.008831
# 5 0.000641 0.000417 0.003023 0.000000 0.034881 0.000000
# 6 0.000000 0.000000 0.000000 0.008831 0.000000 0.093166
#
#
# Mechanical properties :
#
#
# Convention : Reuss Voigt Hill
#
# Bulk Modulus (GPa) = 48.98129 52.52612 50.75370
# Shear Modulus (GPa) = 23.17244 29.89613 26.53429
#
# Velocity S-wave (km/s) = 3.31449 3.76477 3.54679
# Velocity P-wave (km/s) = 6.15382 6.61818 6.39022
#
# Compressibility (1/GPa) = 0.02041596
#
# Stress axis : x y z
#
# Youngs Moduli (GPa) = 84.31017 100.32116 93.66361
#
# Poissons Ratio (x) = 0.16437 0.08378
# Poissons Ratio (y) = 0.13814 0.32893
# Poissons Ratio (z) = 0.07542 0.35231
#
# Static dielectric constant tensor:
#      x y z
#    x 1.824280 0.000000 0.075680 
#    y 0.000000 1.787840 0.000000 
#    z 0.075680 0.000000 1.818500 
# 
# From -- ./inp_files/9642.got.cif
#   From: 2010.05.17/outbox.cif.g08.bks.cpg/sg11_5_cif.got.tgz:9642.got - 2010.06.03 12:22:45.
