data_PCOD9161842
_publ_section_title
;
Structure prediction by ZEFSAII (Michael W. Deem and Ramdas Pophale) SiO2 
 PCOD9161842
Probable space group: P 21/M
;
_chemical_formula_sum "Si O2"
_cell_formula_units_Z 28
_cell_length_a 20.538026
_cell_length_b 7.448245
_cell_length_c 15.505658
_cell_angle_alpha 90.000000
_cell_angle_beta 148.542116
_cell_angle_gamma 90.000000
_cell_volume 1237.845902
_symmetry_space_group_name_H-M "P 21/M"
_symmetry_group_IT_number 11
_symmetry_cell_setting 'monoclinic'
loop_
_space_group_symop_operation_xyz
x,y,z
-x,1/2+y,-z
-x,-y,-z
x,1/2-y,z
loop_
_atom_site_type_symbol
_atom_site_label
_atom_site_fract_x
_atom_site_fract_y
_atom_site_fract_z
Si Si1 0.014873 0.537739 0.618296
Si Si2 0.553460 0.467180 0.775752
Si Si3 0.142165 0.965606 0.186594
Si Si4 0.741972 0.046724 0.337775
Si Si5 0.281171 0.959199 0.504349
Si Si6 0.283701 0.530315 0.886009
Si Si7 0.360509 0.964761 0.306766
O O1 0.006897 0.750000 0.626515
O O2 0.156311 0.476513 0.791789
O O3 0.000000 0.500000 0.500000
O O4 0.892438 0.450584 0.519331
O O5 0.553156 0.250000 0.775484
O O6 0.412594 0.529932 0.604238
O O7 0.636808 0.528204 0.789392
O O8 0.604357 0.526067 0.926229
O O9 0.157116 0.750000 0.207208
O O10 0.178263 0.034581 0.322963
O O11 0.246757 0.033767 0.237007
O O12 0.000000 0.000000 0.000000
O O13 0.692200 0.250000 0.276846
O O14 0.698405 0.958823 0.377573
O O15 0.714824 0.966961 0.211984
O O16 0.251031 0.750000 0.485942
O O17 0.278915 0.750000 0.876361
O O18 0.346043 0.750000 0.288000
O O19 0.500000 0.000000 0.500000
#
# Coordination Sequence:
#
# PCOD9161842 Si02
#       7
#     4   4   4   4   4   4   4
#     4   9  16  29  50  73 101 138 178 222 268 318
#     4  10  20  34  55  80 104 138 183 225 267 326
#     4  10  22  39  58  83 114 143 181 233 284 340
#     4   9  18  33  52  72 105 148 179 216 270 323
#     4  10  21  37  54  76 108 144 180 223 279 330
#     4   8  16  31  49  74 106 137 174 219 264 312
#     4  10  20  36  59  82 107 142 182 226 277 332
#
# _framework density 22.619941000000001
#
# number of rings (size 3 to 8) (size 9 to 14) (size 15 to 20)
#    0.000    2.571    1.429    1.286    0.000    3.429 
#    0.000    5.000    0.000    0.000    0.000    0.000 
#    0.000    0.000    0.000    0.000    0.000    0.000 
#
# Total GULP energy -156096.079934 kJ/mol
# GULP energy per Si atom -5574.859998 kJ/mol
# Density = 2.256846 g / cm^3
# Si number density = 22.619941 Si / 1000 Ang^3
#
#
#
# Elastic Constant Matrix: (Units=GPa)
#
#
# Indices 1 2 3 4 5 6 
#
# 1 126.6119 4.0993 46.5373 0.0000 -16.9743 0.0000
# 2 4.0993 73.6088 -4.5131 0.0000 -8.3653 0.0000
# 3 46.5373 -4.5131 139.6694 0.0000 -14.7762 0.0000
# 4 0.0000 0.0000 0.0000 16.8101 0.0000 7.9870
# 5 -16.9743 -8.3653 -14.7762 0.0000 36.2219 0.0000
# 6 0.0000 0.0000 0.0000 7.9870 0.0000 8.4682
#
#
#
# Elastic Compliance Matrix: (Units=1/GPa)
#
#
# Indices 1 2 3 4 5 6 
#
# 1 0.009361 -0.000332 -0.002794 0.000000 0.003170 0.000000
# 2 -0.000332 0.014055 0.000932 0.000000 0.003471 0.000000
# 3 -0.002794 0.000932 0.008366 0.000000 0.002319 0.000000
# 4 0.000000 0.000000 0.000000 0.107794 0.000000 -0.101669
# 5 0.003170 0.003471 0.002319 0.000000 0.030841 0.000000
# 6 0.000000 0.000000 0.000000 -0.101669 0.000000 0.213981
#
#
# Mechanical properties :
#
#
# Convention : Reuss Voigt Hill
#
# Bulk Modulus (GPa) = 36.50536 48.01521 42.26029
# Shear Modulus (GPa) = 12.56539 31.88446 22.22492
#
# Velocity S-wave (km/s) = 2.35946 3.75850 3.13794
# Velocity P-wave (km/s) = 4.85761 6.33310 5.64378
#
# Compressibility (1/GPa) = 0.02739324
#
# Stress axis : x y z
#
# Youngs Moduli (GPa) = 106.82589 71.14704 119.52751
#
# Poissons Ratio (x) = 0.02365 0.33401
# Poissons Ratio (y) = 0.03551 -0.11141
# Poissons Ratio (z) = 0.29852 -0.06632
#
# Static dielectric constant tensor:
#      x y z
#    x 1.876930 0.000000 -0.002080 
#    y 0.000000 1.879380 0.000000 
#    z -0.002080 0.000000 1.846210 
# 
# From -- ./inp_files/54623.got.cif
#   From: 2010.05.17/outbox.cif.g08.bks.cpg/sg11_28_cif.got.tgz:54623.got - 2010.06.03 12:22:45.
