data_PCOD9161222
_publ_section_title
;
Structure prediction by ZEFSAII (Michael W. Deem and Ramdas Pophale) SiO2 
 PCOD9161222
Probable space group: P 21/M
;
_chemical_formula_sum "Si O2"
_cell_formula_units_Z 24
_cell_length_a 24.160611
_cell_length_b 8.985031
_cell_length_c 14.038038
_cell_angle_alpha 90.000000
_cell_angle_beta 150.639550
_cell_angle_gamma 90.000000
_cell_volume 1494.162386
_symmetry_space_group_name_H-M "P 21/M"
_symmetry_group_IT_number 11
_symmetry_cell_setting 'monoclinic'
loop_
_space_group_symop_operation_xyz
x,y,z
-x,1/2+y,-z
-x,-y,-z
x,1/2-y,z
loop_
_atom_site_type_symbol
_atom_site_label
_atom_site_fract_x
_atom_site_fract_y
_atom_site_fract_z
Si Si1 0.366838 0.573282 0.402581
Si Si2 0.177178 0.427060 0.241381
Si Si3 0.822824 0.072937 0.209850
Si Si4 0.633156 0.573282 0.802067
Si Si5 0.951652 0.927157 0.574024
Si Si6 0.048357 0.572844 0.219079
O O1 0.346362 0.750000 0.366939
O O2 0.288502 0.499507 0.364346
O O3 0.499997 0.549046 0.620737
O O4 0.340529 0.499992 0.260790
O O5 0.189710 0.250000 0.271200
O O6 0.138268 0.500796 0.281723
O O7 0.074268 0.454303 0.012777
O O8 0.810304 0.250000 0.202092
O O9 0.925725 0.045688 0.289957
O O10 0.861740 0.999201 0.366929
O O11 0.711490 0.000506 0.998835
O O12 0.653636 0.750000 0.827867
O O13 0.935188 0.750000 0.555157
O O14 0.946562 0.999999 0.669844
O O15 0.064825 0.750000 0.249610
#
# Coordination Sequence:
#
# PCOD9161222 Si02
#       6
#     4   4   4   4   4   4
#     4  10  20  33  50  73 101 132 165 202 244 290
#     4  10  20  33  51  74 100 131 165 202 244 290
#     4  10  20  33  51  74 100 131 165 202 244 290
#     4  10  20  33  50  73 101 132 165 202 244 290
#     4  10  20  33  50  73 101 131 164 202 244 291
#     4  10  20  33  50  73 101 131 164 202 244 291
#
# _framework density 16.062512000000002
#
# number of rings (size 3 to 8) (size 9 to 14) (size 15 to 20)
#    0.000    2.000    0.000    4.000    0.000    8.667 
#    0.000    0.000    0.000    1.000    0.000    0.000 
#    0.000    0.000    0.000    0.000    0.000    0.000 
#
# Total GULP energy -134024.932478 kJ/mol
# GULP energy per Si atom -5584.372187 kJ/mol
# Density = 1.602595 g / cm^3
# Si number density = 16.062512 Si / 1000 Ang^3
#
#
#
# Elastic Constant Matrix: (Units=GPa)
#
#
# Indices 1 2 3 4 5 6 
#
# 1 116.0225 72.8253 51.4684 0.0000 -22.5640 0.0000
# 2 72.8253 96.3290 65.7514 0.0000 -12.6053 0.0000
# 3 51.4684 65.7514 90.3676 0.0000 -23.1620 0.0000
# 4 0.0000 0.0000 0.0000 31.0058 0.0000 -3.2391
# 5 -22.5640 -12.6053 -23.1620 0.0000 24.8706 0.0000
# 6 0.0000 0.0000 0.0000 -3.2391 0.0000 32.8232
#
#
#
# Elastic Compliance Matrix: (Units=1/GPa)
#
#
# Indices 1 2 3 4 5 6 
#
# 1 0.019041 -0.015013 0.003358 0.000000 0.012793 0.000000
# 2 -0.015013 0.032874 -0.019163 0.000000 -0.014806 0.000000
# 3 0.003358 -0.019163 0.028094 0.000000 0.019498 0.000000
# 4 0.000000 0.000000 0.000000 0.032588 0.000000 0.003216
# 5 0.012793 -0.014806 0.019498 0.000000 0.062469 0.000000
# 6 0.000000 0.000000 0.000000 0.003216 0.000000 0.030784
#
#
# Mechanical properties :
#
#
# Convention : Reuss Voigt Hill
#
# Bulk Modulus (GPa) = 54.43092 75.86769 65.14930
# Shear Modulus (GPa) = 18.27422 25.25153 21.76288
#
# Velocity S-wave (km/s) = 3.37663 3.96925 3.68487
# Velocity P-wave (km/s) = 7.01161 8.26691 7.66500
#
# Compressibility (1/GPa) = 0.01837191
#
# Stress axis : x y z
#
# Youngs Moduli (GPa) = 52.51915 30.41954 35.59441
#
# Poissons Ratio (x) = 0.45668 -0.11951
# Poissons Ratio (y) = 0.78845 0.68211
# Poissons Ratio (z) = -0.17634 0.58294
#
# Static dielectric constant tensor:
#      x y z
#    x 1.511150 0.000000 0.010190 
#    y 0.000000 1.529720 0.000000 
#    z 0.010190 0.000000 1.516850 
# 
# From -- ./inp_files/43881.got.cif
#   From: 2010.05.17/outbox.cif.g08.bks.cpg/sg11_22_cif.got.tgz:43881.got - 2010.06.03 12:22:45.
