data_PCOD9161496
_publ_section_title
;
Structure prediction by ZEFSAII (Michael W. Deem and Ramdas Pophale) SiO2 
 PCOD9161496
Probable space group: P 21/M
;
_chemical_formula_sum "Si O2"
_cell_formula_units_Z 24
_cell_length_a 11.755444
_cell_length_b 17.419181
_cell_length_c 7.779790
_cell_angle_alpha 90.000000
_cell_angle_beta 37.186661
_cell_angle_gamma 90.000000
_cell_volume 962.872788
_symmetry_space_group_name_H-M "P 21/M"
_symmetry_group_IT_number 11
_symmetry_cell_setting 'monoclinic'
loop_
_space_group_symop_operation_xyz
x,y,z
-x,1/2+y,-z
-x,-y,-z
x,1/2-y,z
loop_
_atom_site_type_symbol
_atom_site_label
_atom_site_fract_x
_atom_site_fract_y
_atom_site_fract_z
Si Si1 0.478215 0.335833 0.209273
Si Si2 0.104376 0.335231 0.460022
Si Si3 0.680413 0.101943 0.646601
Si Si4 0.362596 0.162269 0.811119
Si Si5 0.238991 0.952308 0.114433
Si Si6 0.926950 0.933483 0.959673
O O1 0.493022 0.250000 0.261345
O O2 0.267785 0.351747 0.400339
O O3 0.600838 0.337438 0.881292
O O4 0.586700 0.404464 0.173877
O O5 0.027588 0.250000 0.586547
O O6 0.938075 0.395343 0.662046
O O7 0.213691 0.333082 0.147867
O O8 0.529421 0.106739 0.676714
O O9 0.703915 0.030539 0.754582
O O10 0.885103 0.111689 0.320792
O O11 0.429437 0.250000 0.705347
O O12 0.239435 0.127550 0.803199
O O13 0.167973 0.020110 0.083291
O O14 0.000000 0.000000 0.000000
#
# Coordination Sequence:
#
# PCOD9161496 Si02
#       6
#     4   4   4   4   4   4
#     4   8  16  30  55  92 119 143 189 248 298 340
#     4   9  16  29  56  91 119 145 188 250 301 339
#     4   9  20  35  63  88 110 148 200 246 291 343
#     4  10  21  39  65  91 113 150 202 251 294 350
#     4  10  20  33  58  89 117 150 192 246 298 346
#     4  12  26  41  56  85 127 166 196 234 294 357
#
# _framework density 24.925412000000001
#
# number of rings (size 3 to 8) (size 9 to 14) (size 15 to 20)
#    1.000    1.333    1.667    2.500    0.000    4.000 
#    0.000    1.667    0.000    2.000    0.000    0.000 
#    0.000    0.000    0.000    0.000    0.000    0.000 
#
# Total GULP energy -133911.056596 kJ/mol
# GULP energy per Si atom -5579.627358 kJ/mol
# Density = 2.486868 g / cm^3
# Si number density = 24.925412 Si / 1000 Ang^3
#
#
#
# Elastic Constant Matrix: (Units=GPa)
#
#
# Indices 1 2 3 4 5 6 
#
# 1 148.3277 59.0952 56.3486 0.0000 -21.5893 0.0000
# 2 59.0952 98.7245 -1.2134 0.0000 -17.5431 0.0000
# 3 56.3486 -1.2134 62.5992 0.0000 -24.1600 0.0000
# 4 0.0000 0.0000 0.0000 9.0013 0.0000 -25.2643
# 5 -21.5893 -17.5431 -24.1600 0.0000 49.4545 0.0000
# 6 0.0000 0.0000 0.0000 -25.2643 0.0000 -4.2736
#
#
#
# Elastic Compliance Matrix: (Units=1/GPa)
#
#
# Indices 1 2 3 4 5 6 
#
# 1 0.017381 -0.011558 -0.017898 0.000000 -0.005256 0.000000
# 2 -0.011558 0.018721 0.014027 0.000000 0.008448 0.000000
# 3 -0.017898 0.014027 0.038526 0.000000 0.015984 0.000000
# 4 0.000000 0.000000 0.000000 0.006315 0.000000 -0.037332
# 5 -0.005256 0.008448 0.015984 0.000000 0.028732 0.000000
# 6 0.000000 0.000000 0.000000 -0.037332 0.000000 -0.013301
#
#
# Mechanical properties :
#
#
# Convention : Reuss Voigt Hill
#
# Bulk Modulus (GPa) = 22.84603 59.79027 41.31815
# Shear Modulus (GPa) = 35.25541 23.86450 29.55995
#
# Velocity S-wave (km/s) = 3.76498 3.09760 3.44748
# Velocity P-wave (km/s) = 5.29960 6.06904 5.69733
#
# Compressibility (1/GPa) = 0.04377128
#
# Stress axis : x y z
#
# Youngs Moduli (GPa) = 57.53426 53.41513 25.95623
#
# Poissons Ratio (x) = 0.61737 0.46457
# Poissons Ratio (y) = 0.66498 -0.36410
# Poissons Ratio (z) = 1.02975 -0.74927
#
# Static dielectric constant tensor:
#      x y z
#    x 2.048130 0.000000 0.071710 
#    y 0.000000 3.341430 0.000000 
#    z 0.071710 0.000000 1.994830 
# 
# From -- ./inp_files/19074.got.cif
#   From: 2010.05.17/outbox.cif.g08.bks.cpg/sg11_10_cif.got.tgz:19074.got - 2010.06.03 12:22:45.
