data_PCOD9161785
_publ_section_title
;
Structure prediction by ZEFSAII (Michael W. Deem and Ramdas Pophale) SiO2 
 PCOD9161785
Probable space group: P 21/M
;
_chemical_formula_sum "Si O2"
_cell_formula_units_Z 32
_cell_length_a 14.289503
_cell_length_b 7.668999
_cell_length_c 21.222118
_cell_angle_alpha 90.000000
_cell_angle_beta 142.687666
_cell_angle_gamma 90.000000
_cell_volume 1409.715702
_symmetry_space_group_name_H-M "P 21/M"
_symmetry_group_IT_number 11
_symmetry_cell_setting 'monoclinic'
loop_
_space_group_symop_operation_xyz
x,y,z
-x,1/2+y,-z
-x,-y,-z
x,1/2-y,z
loop_
_atom_site_type_symbol
_atom_site_label
_atom_site_fract_x
_atom_site_fract_y
_atom_site_fract_z
Si Si1 0.329230 0.956151 0.758316
Si Si2 0.997047 0.042225 0.122670
Si Si3 0.178022 0.451722 0.337941
Si Si4 0.227276 0.539045 0.567143
Si Si5 0.969062 0.547105 0.339867
Si Si6 0.663376 0.460110 0.904768
Si Si7 0.712275 0.460694 0.790324
Si Si8 0.556660 0.954780 0.435383
O O1 0.306937 0.750000 0.745491
O O2 0.275707 0.028570 0.661324
O O3 0.212341 0.024995 0.748185
O O4 0.510237 0.992505 0.860657
O O5 0.981596 0.250000 0.124702
O O6 0.091466 0.965630 0.232340
O O7 0.111357 0.013072 0.125527
O O8 0.825087 0.974308 0.019523
O O9 0.212284 0.250000 0.341477
O O10 0.336779 0.530364 0.451551
O O11 0.052701 0.453264 0.327227
O O12 0.239152 0.750000 0.574748
O O13 0.339724 0.471880 0.572401
O O14 0.056642 0.490527 0.451105
O O15 0.004452 0.750000 0.349460
O O16 0.671059 0.250000 0.906414
O O17 0.651841 0.522175 0.825901
O O18 0.702843 0.250000 0.784640
O O19 0.606657 0.528375 0.675790
O O20 0.535957 0.750000 0.437676
#
# Coordination Sequence:
#
# PCOD9161785 Si02
#       8
#     4   4   4   4   4   4   4   4
#     4  11  21  33  53  82 111 141 177 219 267 318
#     4  10  22  38  57  78 104 143 184 224 267 314
#     4   9  19  37  56  77 108 143 182 222 262 311
#     4   9  18  31  49  78 112 142 174 212 261 318
#     4  10  20  34  54  80 110 144 178 215 263 319
#     4  10  21  38  56  78 109 142 179 222 269 316
#     4  10  20  34  55  82 109 138 176 221 271 323
#     4   9  17  31  53  79 109 143 173 213 268 317
#
# _framework density 22.699611999999998
#
# number of rings (size 3 to 8) (size 9 to 14) (size 15 to 20)
#    0.000    2.250    1.250    1.500    0.000    3.500 
#    0.000    0.625    0.000    0.000    0.000    0.000 
#    0.000    0.000    0.000    0.000    0.000    0.000 
#
# Total GULP energy -178715.917723 kJ/mol
# GULP energy per Si atom -5584.872429 kJ/mol
# Density = 2.264795 g / cm^3
# Si number density = 22.699612 Si / 1000 Ang^3
#
#
#
# Elastic Constant Matrix: (Units=GPa)
#
#
# Indices 1 2 3 4 5 6 
#
# 1 57.0338 -2.6581 34.8128 0.0000 19.3822 0.0000
# 2 -2.6581 51.5989 9.8818 0.0000 -6.6552 0.0000
# 3 34.8128 9.8818 133.4777 0.0000 17.9240 0.0000
# 4 0.0000 0.0000 0.0000 8.4598 0.0000 7.5753
# 5 19.3822 -6.6552 17.9240 0.0000 39.5666 0.0000
# 6 0.0000 0.0000 0.0000 7.5753 0.0000 19.4280
#
#
#
# Elastic Compliance Matrix: (Units=1/GPa)
#
#
# Indices 1 2 3 4 5 6 
#
# 1 0.023784 0.001005 -0.005042 0.000000 -0.009198 0.000000
# 2 0.001005 0.020387 -0.002306 0.000000 0.003982 0.000000
# 3 -0.005042 -0.002306 0.009262 0.000000 -0.002113 0.000000
# 4 0.000000 0.000000 0.000000 0.181619 0.000000 -0.070816
# 5 -0.009198 0.003982 -0.002113 0.000000 0.031406 0.000000
# 6 0.000000 0.000000 0.000000 -0.070816 0.000000 0.079085
#
#
# Mechanical properties :
#
#
# Convention : Reuss Voigt Hill
#
# Bulk Modulus (GPa) = 24.54299 36.24261 30.39280
# Shear Modulus (GPa) = 13.44767 26.82914 20.13841
#
# Velocity S-wave (km/s) = 2.43661 3.44164 2.98177
# Velocity P-wave (km/s) = 4.33031 5.63862 5.02721
#
# Compressibility (1/GPa) = 0.04074484
#
# Stress axis : x y z
#
# Youngs Moduli (GPa) = 42.04544 49.05045 107.97356
#
# Poissons Ratio (x) = -0.04928 0.54445
# Poissons Ratio (y) = -0.04224 0.24899
# Poissons Ratio (z) = 0.21201 0.11311
#
# Static dielectric constant tensor:
#      x y z
#    x 1.835640 0.000000 -0.010240 
#    y 0.000000 1.815870 0.000000 
#    z -0.010240 0.000000 1.896020 
# 
# From -- ./inp_files/51676.got.cif
#   From: 2010.05.17/outbox.cif.g08.bks.cpg/sg11_26_cif.got.tgz:51676.got - 2010.06.03 12:22:45.
