data_PCOD9161984
_publ_section_title
;
Structure prediction by ZEFSAII (Michael W. Deem and Ramdas Pophale) SiO2 
 PCOD9161984
Probable space group: P 21/M
;
_chemical_formula_sum "Si O2"
_cell_formula_units_Z 28
_cell_length_a 18.636481
_cell_length_b 12.936448
_cell_length_c 9.426321
_cell_angle_alpha 90.000000
_cell_angle_beta 35.996218
_cell_angle_gamma 90.000000
_cell_volume 1335.673805
_symmetry_space_group_name_H-M "P 21/M"
_symmetry_group_IT_number 11
_symmetry_cell_setting 'monoclinic'
loop_
_space_group_symop_operation_xyz
x,y,z
-x,1/2+y,-z
-x,-y,-z
x,1/2-y,z
loop_
_atom_site_type_symbol
_atom_site_label
_atom_site_fract_x
_atom_site_fract_y
_atom_site_fract_z
Si Si1 0.282566 0.361515 0.592701
Si Si2 0.660054 0.414080 0.854745
Si Si3 0.430650 0.363742 0.622849
Si Si4 0.891053 0.039022 0.018142
Si Si5 0.311772 0.922667 0.869735
Si Si6 0.911027 0.129824 0.288658
Si Si7 0.586562 0.639267 0.908743
O O1 0.224715 0.250000 0.719414
O O2 0.402701 0.369102 0.498379
O O3 0.200457 0.456571 0.763962
O O4 0.319341 0.362083 0.372191
O O5 0.778355 0.394172 0.568098
O O6 0.617708 0.533986 0.937378
O O7 0.686285 0.378986 0.974058
O O8 0.546103 0.366349 0.952321
O O9 0.393718 0.250000 0.728491
O O10 0.575582 0.378325 0.403945
O O11 0.349454 0.455729 0.813685
O O12 0.815803 0.088087 0.008688
O O13 0.919151 0.115759 0.103649
O O14 0.002399 0.964179 0.795183
O O15 0.940959 0.250000 0.275586
O O16 0.596524 0.750000 0.967754
#
# Coordination Sequence:
#
# PCOD9161984 Si02
#       7
#     4   4   4   4   4   4   4
#     4   9  15  31  58  84 109 149 193 230 273 334
#     4  11  22  37  58  90 125 152 191 237 292 345
#     4   9  18  32  54  84 119 154 188 226 281 344
#     4  10  22  41  60  84 112 150 200 243 286 338
#     4  10  21  35  58  87 120 153 187 239 290 340
#     4  11  24  42  62  83 111 153 198 243 290 345
#     4  10  20  34  56  85 121 159 189 227 284 347
#
# _framework density 20.963204000000001
#
# number of rings (size 3 to 8) (size 9 to 14) (size 15 to 20)
#    0.000    2.000    2.857    0.857    0.000    2.857 
#    0.000    0.000    0.000    0.000    0.000    0.000 
#    0.000    0.000    0.000    0.000    0.000    0.000 
#
# Total GULP energy -156065.834893 kJ/mol
# GULP energy per Si atom -5573.779818 kJ/mol
# Density = 2.091549 g / cm^3
# Si number density = 20.963204 Si / 1000 Ang^3
#
#
#
# Elastic Constant Matrix: (Units=GPa)
#
#
# Indices 1 2 3 4 5 6 
#
# 1 73.5180 -0.5009 10.6050 0.0000 10.6024 0.0000
# 2 -0.5009 65.7294 -16.2708 0.0000 -3.4429 0.0000
# 3 10.6050 -16.2708 40.6233 0.0000 -10.7116 0.0000
# 4 0.0000 0.0000 0.0000 -25.8969 0.0000 16.3696
# 5 10.6024 -3.4429 -10.7116 0.0000 28.3177 0.0000
# 6 0.0000 0.0000 0.0000 16.3696 0.0000 -1.1210
#
#
#
# Elastic Compliance Matrix: (Units=1/GPa)
#
#
# Indices 1 2 3 4 5 6 
#
# 1 0.015966 -0.002193 -0.007434 0.000000 -0.009056 0.000000
# 2 -0.002193 0.017886 0.009471 0.000000 0.006578 0.000000
# 3 -0.007434 0.009471 0.034866 0.000000 0.017123 0.000000
# 4 0.000000 0.000000 0.000000 0.004692 0.000000 0.068511
# 5 -0.009056 0.006578 0.017123 0.000000 0.045981 0.000000
# 6 0.000000 0.000000 0.000000 0.068511 0.000000 0.108386
#
#
# Mechanical properties :
#
#
# Convention : Reuss Voigt Hill
#
# Bulk Modulus (GPa) = 14.61883 18.61527 16.61705
# Shear Modulus (GPa) = 19.92894 12.66244 16.29569
#
# Velocity S-wave (km/s) = 3.08663 2.46037 2.79112
# Velocity P-wave (km/s) = 4.43754 4.11953 4.28148
#
# Compressibility (1/GPa) = 0.06840491
#
# Stress axis : x y z
#
# Youngs Moduli (GPa) = 62.63442 55.90892 28.68146
#
# Poissons Ratio (x) = 0.12261 0.21323
# Poissons Ratio (y) = 0.13736 -0.27164
# Poissons Ratio (z) = 0.46565 -0.52951
#
# Static dielectric constant tensor:
#      x y z
#    x 1.791010 0.000000 -0.017980 
#    y 0.000000 1.853070 0.000000 
#    z -0.017980 0.000000 1.729440 
# 
# From -- ./inp_files/24928.got.cif
#   From: 2010.05.17/outbox.cif.g08.bks.cpg/sg11_13_cif.got.tgz:24928.got - 2010.06.03 12:22:45.
