data_PCOD9161967
_publ_section_title
;
Structure prediction by ZEFSAII (Michael W. Deem and Ramdas Pophale) SiO2 
 PCOD9161967
Probable space group: P 21/M
;
_chemical_formula_sum "Si O2"
_cell_formula_units_Z 32
_cell_length_a 10.445699
_cell_length_b 13.368672
_cell_length_c 15.455096
_cell_angle_alpha 90.000000
_cell_angle_beta 39.797142
_cell_angle_gamma 90.000000
_cell_volume 1381.420473
_symmetry_space_group_name_H-M "P 21/M"
_symmetry_group_IT_number 11
_symmetry_cell_setting 'monoclinic'
loop_
_space_group_symop_operation_xyz
x,y,z
-x,1/2+y,-z
-x,-y,-z
x,1/2-y,z
loop_
_atom_site_type_symbol
_atom_site_label
_atom_site_fract_x
_atom_site_fract_y
_atom_site_fract_z
Si Si1 0.282704 0.635555 0.037195
Si Si2 0.872329 0.869782 0.590554
Si Si3 0.524949 0.012466 0.701370
Si Si4 0.204582 0.864202 0.781021
Si Si5 0.743884 0.633102 0.834156
Si Si6 0.783847 0.942147 0.006023
Si Si7 0.703903 0.463357 0.439586
Si Si8 0.011302 0.867416 0.337723
O O1 0.241009 0.750000 0.036221
O O2 0.181331 0.561223 0.022064
O O3 0.202535 0.619447 0.176782
O O4 0.520298 0.619703 0.913006
O O5 0.830425 0.750000 0.613933
O O6 0.685731 0.934694 0.655057
O O7 0.896749 0.899223 0.678696
O O8 0.032689 0.885918 0.430100
O O9 0.356150 0.942450 0.744667
O O10 0.634005 0.075558 0.569735
O O11 0.407658 0.074136 0.834724
O O12 0.265973 0.750000 0.763038
O O13 0.199541 0.889056 0.680328
O O14 0.981897 0.885147 0.930852
O O15 0.776636 0.750000 0.832563
O O16 0.744608 0.584123 0.926725
O O17 0.500000 0.500000 0.500000
O O18 0.842112 0.560359 0.385984
O O19 0.951833 0.750000 0.360920
#
# Coordination Sequence:
#
# PCOD9161967 Si02
#       8
#     4   4   4   4   4   4   4   4
#     4  10  20  34  56  84 115 150 193 240 289 336
#     4   9  17  32  56  84 112 145 191 238 282 337
#     4  10  21  36  60  84 114 146 200 239 287 332
#     4  11  23  40  60  83 117 159 193 236 290 348
#     4  10  21  37  57  84 115 154 194 233 291 353
#     4  12  22  38  59  86 122 154 191 238 289 349
#     4   9  19  36  56  83 112 148 194 238 288 342
#     4   9  17  33  56  84 115 147 191 247 288 330
#
# _framework density 23.164562
#
# number of rings (size 3 to 8) (size 9 to 14) (size 15 to 20)
#    0.000    2.000    2.500    1.500    0.000    3.500 
#    0.000    3.125    0.000    2.250    0.000    0.000 
#    0.000    0.000    0.000    0.000    0.000    0.000 
#
# Total GULP energy -178839.708660 kJ/mol
# GULP energy per Si atom -5588.740896 kJ/mol
# Density = 2.311184 g / cm^3
# Si number density = 23.164562 Si / 1000 Ang^3
#
#
#
# Elastic Constant Matrix: (Units=GPa)
#
#
# Indices 1 2 3 4 5 6 
#
# 1 36.5911 15.9928 11.2430 0.0000 17.5314 0.0000
# 2 15.9928 48.2046 23.0335 0.0000 -2.1732 0.0000
# 3 11.2430 23.0335 155.9713 0.0000 16.1305 0.0000
# 4 0.0000 0.0000 0.0000 26.7053 0.0000 0.4164
# 5 17.5314 -2.1732 16.1305 0.0000 32.6400 0.0000
# 6 0.0000 0.0000 0.0000 0.4164 0.0000 19.9877
#
#
#
# Elastic Compliance Matrix: (Units=1/GPa)
#
#
# Indices 1 2 3 4 5 6 
#
# 1 0.048123 -0.018253 0.002135 0.000000 -0.028118 0.000000
# 2 -0.018253 0.029582 -0.004501 0.000000 0.013998 0.000000
# 3 0.002135 -0.004501 0.007453 0.000000 -0.005129 0.000000
# 4 0.000000 0.000000 0.000000 0.037458 0.000000 -0.000780
# 5 -0.028118 0.013998 -0.005129 0.000000 0.049207 0.000000
# 6 0.000000 0.000000 0.000000 -0.000780 0.000000 0.050047
#
#
# Mechanical properties :
#
#
# Convention : Reuss Voigt Hill
#
# Bulk Modulus (GPa) = 22.76895 37.92285 30.34590
# Shear Modulus (GPa) = 18.00196 28.56642 23.28419
#
# Velocity S-wave (km/s) = 2.79074 3.51550 3.17387
# Velocity P-wave (km/s) = 4.49831 5.73454 5.15363
#
# Compressibility (1/GPa) = 0.04391945
#
# Stress axis : x y z
#
# Youngs Moduli (GPa) = 20.78018 33.80396 134.18032
#
# Poissons Ratio (x) = 0.61703 -0.28643
# Poissons Ratio (y) = 0.37931 0.60388
# Poissons Ratio (z) = -0.04436 0.15214
#
# Static dielectric constant tensor:
#      x y z
#    x 1.890090 0.000000 0.039740 
#    y 0.000000 1.896290 0.000000 
#    z 0.039740 0.000000 1.930290 
# 
# From -- ./inp_files/50386.got.cif
#   From: 2010.05.17/outbox.cif.g08.bks.cpg/sg11_26_cif.got.tgz:50386.got - 2010.06.03 12:22:45.
