data_PCOD9161123
_publ_section_title
;
Structure prediction by ZEFSAII (Michael W. Deem and Ramdas Pophale) SiO2 
 PCOD9161123
Probable space group: P 21/M
;
_chemical_formula_sum "Si O2"
_cell_formula_units_Z 20
_cell_length_a 8.208611
_cell_length_b 18.821602
_cell_length_c 6.904434
_cell_angle_alpha 90.000000
_cell_angle_beta 127.022951
_cell_angle_gamma 90.000000
_cell_volume 851.670908
_symmetry_space_group_name_H-M "P 21/M"
_symmetry_group_IT_number 11
_symmetry_cell_setting 'monoclinic'
loop_
_space_group_symop_operation_xyz
x,y,z
-x,1/2+y,-z
-x,-y,-z
x,1/2-y,z
loop_
_atom_site_type_symbol
_atom_site_label
_atom_site_fract_x
_atom_site_fract_y
_atom_site_fract_z
Si Si1 0.344038 0.672076 0.222199
Si Si2 0.661185 0.933558 0.485475
Si Si3 0.318321 0.028435 0.082507
Si Si4 0.478378 0.669741 0.886670
Si Si5 0.904020 0.098034 0.253823
O O1 0.308024 0.750000 0.275019
O O2 0.488267 0.620520 0.445704
O O3 0.478862 0.676358 0.121209
O O4 0.142058 0.637402 0.986251
O O5 0.746114 0.972470 0.737676
O O6 0.859438 0.899474 0.532762
O O7 0.531658 0.984071 0.251556
O O8 0.362438 0.108895 0.054318
O O9 0.171854 0.981892 0.843108
O O10 0.503250 0.750000 0.827347
O O11 0.246973 0.637125 0.701939
#
# Coordination Sequence:
#
# PCOD9161123 Si02
#       5
#     4   4   4   4   4
#     4   8  18  34  51  74 105 137 171 210 250 304
#     4  10  20  32  57  80 102 136 175 211 259 306
#     4  10  20  35  52  80 107 132 168 220 259 301
#     4   9  19  37  53  71 107 140 169 212 260 303
#     4   9  18  34  56  76 102 137 174 210 252 311
#
# _framework density 23.483250000000002
#
# number of rings (size 3 to 8) (size 9 to 14) (size 15 to 20)
#    1.200    1.600    0.000    1.200    0.000    3.200 
#    0.000    0.000    0.000    0.000    0.000    0.000 
#    0.000    0.000    0.000    0.000    0.000    0.000 
#
# Total GULP energy -111360.299609 kJ/mol
# GULP energy per Si atom -5568.014980 kJ/mol
# Density = 2.342980 g / cm^3
# Si number density = 23.483250 Si / 1000 Ang^3
#
#
#
# Elastic Constant Matrix: (Units=GPa)
#
#
# Indices 1 2 3 4 5 6 
#
# 1 32.4655 12.6846 16.1865 0.0000 18.6472 0.0000
# 2 12.6846 161.5872 21.9892 0.0000 25.0305 0.0000
# 3 16.1865 21.9892 79.6923 0.0000 22.2516 0.0000
# 4 0.0000 0.0000 0.0000 9.7012 0.0000 -1.4788
# 5 18.6472 25.0305 22.2516 0.0000 34.8807 0.0000
# 6 0.0000 0.0000 0.0000 -1.4788 0.0000 17.6611
#
#
#
# Elastic Compliance Matrix: (Units=1/GPa)
#
#
# Indices 1 2 3 4 5 6 
#
# 1 0.045030 0.000343 -0.002982 0.000000 -0.022418 0.000000
# 2 0.000343 0.006992 -0.000665 0.000000 -0.004777 0.000000
# 3 -0.002982 -0.000665 0.015524 0.000000 -0.007832 0.000000
# 4 0.000000 0.000000 0.000000 0.104413 0.000000 0.008743
# 5 -0.022418 -0.004777 -0.007832 0.000000 0.049078 0.000000
# 6 0.000000 0.000000 0.000000 0.008743 0.000000 0.057354
#
#
# Mechanical properties :
#
#
# Convention : Reuss Voigt Hill
#
# Bulk Modulus (GPa) = 16.40962 41.71840 29.06401
# Shear Modulus (GPa) = 16.37674 27.30759 21.84216
#
# Velocity S-wave (km/s) = 2.64366 3.41376 3.05309
# Velocity P-wave (km/s) = 4.03999 5.77426 4.98315
#
# Compressibility (1/GPa) = 0.06093985
#
# Stress axis : x y z
#
# Youngs Moduli (GPa) = 22.20727 143.01807 64.41513
#
# Poissons Ratio (x) = -0.04912 0.19206
# Poissons Ratio (y) = -0.00763 0.04286
# Poissons Ratio (z) = 0.06621 0.09515
#
# Static dielectric constant tensor:
#      x y z
#    x 1.970920 0.000000 -0.057890 
#    y 0.000000 2.011730 0.000000 
#    z -0.057890 0.000000 1.893460 
# 
# From -- ./inp_files/12838.got.cif
#   From: 2010.05.17/outbox.cif.g08.bks.cpg/sg11_7_cif.got.tgz:12838.got - 2010.06.03 12:22:45.
