data_PCOD9161887
_publ_section_title
;
Structure prediction by ZEFSAII (Michael W. Deem and Ramdas Pophale) SiO2 
 PCOD9161887
Probable space group: P 21/M
;
_chemical_formula_sum "Si O2"
_cell_formula_units_Z 28
_cell_length_a 17.083120
_cell_length_b 8.796693
_cell_length_c 12.761756
_cell_angle_alpha 90.000000
_cell_angle_beta 59.417198
_cell_angle_gamma 90.000000
_cell_volume 1651.000254
_symmetry_space_group_name_H-M "P 21/M"
_symmetry_group_IT_number 11
_symmetry_cell_setting 'monoclinic'
loop_
_space_group_symop_operation_xyz
x,y,z
-x,1/2+y,-z
-x,-y,-z
x,1/2-y,z
loop_
_atom_site_type_symbol
_atom_site_label
_atom_site_fract_x
_atom_site_fract_y
_atom_site_fract_z
Si Si1 0.594975 0.930880 0.893935
Si Si2 0.383823 0.068967 0.751914
Si Si3 0.592992 0.069183 0.667922
Si Si4 0.711372 0.067730 0.386384
Si Si5 0.101950 0.431405 0.811422
Si Si6 0.275360 0.568532 0.022603
Si Si7 0.906085 0.931287 0.934701
O O1 0.592207 0.750000 0.908083
O O2 0.605919 0.977862 0.765861
O O3 0.500000 0.000000 0.000000
O O4 0.674947 0.999640 0.910297
O O5 0.366335 0.250000 0.767349
O O6 0.491095 0.043008 0.694119
O O7 0.347361 0.002763 0.668078
O O8 0.331031 0.990976 0.883637
O O9 0.600319 0.250000 0.685593
O O10 0.664412 0.029601 0.528691
O O11 0.712170 0.250000 0.374912
O O12 0.812726 0.003422 0.305568
O O13 0.100191 0.250000 0.799345
O O14 0.005834 0.502986 0.844173
O O15 0.112942 0.462795 0.928768
O O16 0.277844 0.750000 0.024111
O O17 0.172982 0.509221 0.077851
O O18 0.904625 0.750000 0.921512
#
# Coordination Sequence:
#
# PCOD9161887 Si02
#       7
#     4   4   4   4   4   4   4
#     4  12  24  39  60  83 111 149 193 239 284 331
#     4  11  21  35  55  81 116 154 191 233 279 335
#     4  10  23  40  57  80 114 154 196 236 279 335
#     4  11  22  36  56  83 117 155 191 232 282 339
#     4  10  20  34  55  82 115 150 186 232 281 338
#     4  12  23  36  58  85 116 150 187 233 285 338
#     4  10  20  35  56  83 115 148 185 233 283 337
#
# _framework density 16.959417999999999
#
# number of rings (size 3 to 8) (size 9 to 14) (size 15 to 20)
#    0.000    1.143    2.857    4.714    0.000    2.857 
#    0.000    0.000    0.000    0.857    0.000    0.000 
#    0.000    0.000    0.000    0.000    0.000    0.000 
#
# Total GULP energy -156551.849968 kJ/mol
# GULP energy per Si atom -5591.137499 kJ/mol
# Density = 1.692082 g / cm^3
# Si number density = 16.959418 Si / 1000 Ang^3
#
#
#
# Elastic Constant Matrix: (Units=GPa)
#
#
# Indices 1 2 3 4 5 6 
#
# 1 151.9166 87.8615 81.6989 0.0000 -13.3602 0.0000
# 2 87.8615 118.4505 74.9891 0.0000 -6.2068 0.0000
# 3 81.6989 74.9891 112.0989 0.0000 -1.0648 0.0000
# 4 0.0000 0.0000 0.0000 26.7505 0.0000 -0.6253
# 5 -13.3602 -6.2068 -1.0648 0.0000 17.1269 0.0000
# 6 0.0000 0.0000 0.0000 -0.6253 0.0000 33.3398
#
#
#
# Elastic Compliance Matrix: (Units=1/GPa)
#
#
# Indices 1 2 3 4 5 6 
#
# 1 0.014218 -0.006235 -0.006112 0.000000 0.008452 0.000000
# 2 -0.006235 0.017766 -0.007330 0.000000 0.001119 0.000000
# 3 -0.006112 -0.007330 0.018219 0.000000 -0.006291 0.000000
# 4 0.000000 0.000000 0.000000 0.037399 0.000000 0.000701
# 5 0.008452 0.001119 -0.006291 0.000000 0.064996 0.000000
# 6 0.000000 0.000000 0.000000 0.000701 0.000000 0.030007
#
#
# Mechanical properties :
#
#
# Convention : Reuss Voigt Hill
#
# Bulk Modulus (GPa) = 92.16237 96.84053 94.50145
# Shear Modulus (GPa) = 22.16557 24.63786 23.40172
#
# Velocity S-wave (km/s) = 3.61914 3.81564 3.71868
# Velocity P-wave (km/s) = 8.48086 8.75428 8.61866
#
# Compressibility (1/GPa) = 0.01085042
#
# Stress axis : x y z
#
# Youngs Moduli (GPa) = 70.33150 56.28642 54.88832
#
# Poissons Ratio (x) = 0.35092 0.33545
# Poissons Ratio (y) = 0.43849 0.40235
# Poissons Ratio (z) = 0.42984 0.41260
#
# Static dielectric constant tensor:
#      x y z
#    x 1.557340 0.000000 -0.006760 
#    y 0.000000 1.565810 0.000000 
#    z -0.006760 0.000000 1.547420 
# 
# From -- ./inp_files/37685.got.cif
#   From: 2010.05.17/outbox.cif.g08.bks.cpg/sg11_19_cif.got.tgz:37685.got - 2010.06.03 12:22:45.
