data_PCOD9161511
_publ_section_title
;
Structure prediction by ZEFSAII (Michael W. Deem and Ramdas Pophale) SiO2 
 PCOD9161511
Probable space group: P 21/M
;
_chemical_formula_sum "Si O2"
_cell_formula_units_Z 32
_cell_length_a 15.024341
_cell_length_b 9.032950
_cell_length_c 11.790287
_cell_angle_alpha 90.000000
_cell_angle_beta 68.200803
_cell_angle_gamma 90.000000
_cell_volume 1485.686333
_symmetry_space_group_name_H-M "P 21/M"
_symmetry_group_IT_number 11
_symmetry_cell_setting 'monoclinic'
loop_
_space_group_symop_operation_xyz
x,y,z
-x,1/2+y,-z
-x,-y,-z
x,1/2-y,z
loop_
_atom_site_type_symbol
_atom_site_label
_atom_site_fract_x
_atom_site_fract_y
_atom_site_fract_z
Si Si1 0.418602 0.579911 0.387558
Si Si2 0.068811 0.930584 0.617767
Si Si3 0.026515 0.913497 0.873955
Si Si4 0.864767 0.425899 0.649204
Si Si5 0.641578 0.918665 0.370042
Si Si6 0.694434 0.424695 0.130370
Si Si7 0.495090 0.427671 0.879828
Si Si8 0.811391 0.584613 0.889223
O O1 0.385299 0.750000 0.410943
O O2 0.361406 0.478086 0.500979
O O3 0.529787 0.578451 0.379714
O O4 0.424368 0.534994 0.252922
O O5 0.052423 0.750000 0.622845
O O6 0.144523 0.958730 0.480661
O O7 0.090576 0.971882 0.738421
O O8 0.973491 0.021663 0.627521
O O9 0.062719 0.750000 0.888964
O O10 0.924076 0.900334 0.859951
O O11 0.000000 0.000000 0.000000
O O12 0.854886 0.250000 0.671434
O O13 0.799947 0.511998 0.770974
O O14 0.674413 0.750000 0.346496
O O15 0.700747 0.020866 0.256331
O O16 0.682914 0.250000 0.130969
O O17 0.601974 0.508380 0.125830
O O18 0.775519 0.480805 0.007197
O O19 0.492961 0.250000 0.888511
O O20 0.500000 0.500000 0.000000
O O21 0.768467 0.750000 0.915483
#
# Coordination Sequence:
#
# PCOD9161511 Si02
#       8
#     4   4   4   4   4   4   4   4
#     4   8  15  27  44  68  96 125 159 198 238 282
#     4   8  15  27  42  64  94 123 152 192 239 280
#     4   9  18  31  48  70  97 128 158 193 237 283
#     4   9  15  25  44  68  91 118 156 197 236 282
#     4   9  16  27  45  69  96 125 158 200 245 285
#     4  11  21  33  51  74  99 129 165 203 244 292
#     4  10  20  34  52  75 103 133 164 200 243 290
#     4  10  20  34  49  69  99 129 158 198 246 290
#
# _framework density 21.538868000000001
#
# number of rings (size 3 to 8) (size 9 to 14) (size 15 to 20)
#    0.000    2.750    0.000    4.125    0.000    6.500 
#    0.000    0.000    0.000    1.500    0.000    5.250 
#    0.000    0.000    0.000    0.000    0.000    0.000 
#
# Total GULP energy -178359.000217 kJ/mol
# GULP energy per Si atom -5573.718757 kJ/mol
# Density = 2.148984 g / cm^3
# Si number density = 21.538868 Si / 1000 Ang^3
#
#
#
# Elastic Constant Matrix: (Units=GPa)
#
#
# Indices 1 2 3 4 5 6 
#
# 1 30.5268 -1.0313 9.9256 0.0000 10.7404 0.0000
# 2 -1.0313 67.8941 75.3883 0.0000 16.5272 0.0000
# 3 9.9256 75.3883 205.7205 0.0000 25.3639 0.0000
# 4 0.0000 0.0000 0.0000 44.8279 0.0000 1.2178
# 5 10.7404 16.5272 25.3639 0.0000 18.1535 0.0000
# 6 0.0000 0.0000 0.0000 1.2178 0.0000 12.1034
#
#
#
# Elastic Compliance Matrix: (Units=1/GPa)
#
#
# Indices 1 2 3 4 5 6 
#
# 1 0.046093 0.011589 -0.002184 0.000000 -0.034770 0.000000
# 2 0.011589 0.030098 -0.008898 0.000000 -0.021826 0.000000
# 3 -0.002184 -0.008898 0.008540 0.000000 -0.002539 0.000000
# 4 0.000000 0.000000 0.000000 0.022369 0.000000 -0.002251
# 5 -0.034770 -0.021826 -0.002539 0.000000 0.099076 0.000000
# 6 0.000000 0.000000 0.000000 -0.002251 0.000000 0.082848
#
#
# Mechanical properties :
#
#
# Convention : Reuss Voigt Hill
#
# Bulk Modulus (GPa) = 11.66234 52.52295 32.09265
# Shear Modulus (GPa) = 15.79323 29.67421 22.73372
#
# Velocity S-wave (km/s) = 2.71078 3.71577 3.25233
# Velocity P-wave (km/s) = 3.90181 6.54579 5.38848
#
# Compressibility (1/GPa) = 0.08574607
#
# Stress axis : x y z
#
# Youngs Moduli (GPa) = 21.69516 33.22496 117.09455
#
# Poissons Ratio (x) = -0.38505 0.25573
# Poissons Ratio (y) = -0.25143 1.04188
# Poissons Ratio (z) = 0.04738 0.29563
#
# Static dielectric constant tensor:
#      x y z
#    x 1.714760 0.000000 -0.027910 
#    y 0.000000 1.729090 0.000000 
#    z -0.027910 0.000000 1.858350 
# 
# From -- ./inp_files/42439.got.cif
#   From: 2010.05.17/outbox.cif.g08.bks.cpg/sg11_22_cif.got.tgz:42439.got - 2010.06.03 12:22:45.
