data_PCOD9161549
_publ_section_title
;
Structure prediction by ZEFSAII (Michael W. Deem and Ramdas Pophale) SiO2 
 PCOD9161549
Probable space group: P 21/M
;
_chemical_formula_sum "Si O2"
_cell_formula_units_Z 32
_cell_length_a 14.596790
_cell_length_b 29.131452
_cell_length_c 8.440472
_cell_angle_alpha 90.000000
_cell_angle_beta 30.152658
_cell_angle_gamma 90.000000
_cell_volume 1802.827965
_symmetry_space_group_name_H-M "P 21/M"
_symmetry_group_IT_number 11
_symmetry_cell_setting 'monoclinic'
loop_
_space_group_symop_operation_xyz
x,y,z
-x,1/2+y,-z
-x,-y,-z
x,1/2-y,z
loop_
_atom_site_type_symbol
_atom_site_label
_atom_site_fract_x
_atom_site_fract_y
_atom_site_fract_z
Si Si1 0.430312 0.302393 0.619093
Si Si2 0.927894 0.448683 0.622619
Si Si3 0.305659 0.872234 0.618845
Si Si4 0.950595 0.802393 0.619092
Si Si5 0.903822 0.378654 0.381340
Si Si6 0.714839 0.878654 0.381339
Si Si7 0.449487 0.948683 0.622619
Si Si8 0.924504 0.872234 0.381154
O O1 0.478215 0.250000 0.508830
O O2 0.579921 0.327605 0.503150
O O3 0.396766 0.334707 0.516698
O O4 0.240112 0.302173 0.000001
O O5 0.897725 0.423444 0.500477
O O6 0.000000 0.500000 0.500000
O O7 0.064352 0.416092 0.519146
O O8 0.737854 0.449137 0.000000
O O9 0.254847 0.875575 0.510940
O O10 0.416502 0.916092 0.519146
O O11 0.115179 0.870956 1.000000
O O12 0.012956 0.750000 0.508828
O O13 0.916929 0.827605 0.503149
O O14 0.086537 0.834707 0.516697
O O15 0.094589 0.379636 0.000000
O O16 0.601799 0.923444 0.500477
O O17 0.765787 0.875574 0.489060
O O18 0.500000 0.000000 0.500000
#
# Coordination Sequence:
#
# PCOD9161549 Si02
#       8
#     4   4   4   4   4   4   4   4
#     4   9  18  32  50  73 100 128 159 197 241 288
#     4  10  20  34  51  73 100 129 163 202 246 293
#     4   9  19  34  52  73  97 128 165 203 241 287
#     4   9  18  32  50  73 100 128 159 197 241 288
#     4   9  18  34  53  72  97 129 164 202 243 287
#     4   9  18  34  53  72  97 129 164 202 243 287
#     4  10  20  34  51  73 100 129 163 202 246 293
#     4   9  19  34  52  73  97 128 165 203 241 287
#
# _framework density 17.749891000000002
#
# number of rings (size 3 to 8) (size 9 to 14) (size 15 to 20)
#    0.000    2.750    0.000    0.750    0.000    4.500 
#    0.000    7.500    0.000    0.000    0.000    0.000 
#    0.000    0.000    0.000    0.000    0.000    0.000 
#
# Total GULP energy -178459.143359 kJ/mol
# GULP energy per Si atom -5576.848230 kJ/mol
# Density = 1.770949 g / cm^3
# Si number density = 17.749891 Si / 1000 Ang^3
#
#
#
# Elastic Constant Matrix: (Units=GPa)
#
#
# Indices 1 2 3 4 5 6 
#
# 1 148.7762 55.3414 17.9302 0.0000 -2.9659 0.0000
# 2 55.3414 140.2183 15.7390 0.0000 -1.3169 0.0000
# 3 17.9302 15.7390 5.3370 0.0000 -1.8043 0.0000
# 4 0.0000 0.0000 0.0000 28.0518 0.0000 0.6717
# 5 -2.9659 -1.3169 -1.8043 0.0000 20.8698 0.0000
# 6 0.0000 0.0000 0.0000 0.6717 0.0000 7.8558
#
#
#
# Elastic Compliance Matrix: (Units=1/GPa)
#
#
# Indices 1 2 3 4 5 6 
#
# 1 0.011360 -0.000226 -0.038069 0.000000 -0.001691 0.000000
# 2 -0.000226 0.010756 -0.031666 0.000000 -0.002091 0.000000
# 3 -0.038069 -0.031666 0.418373 0.000000 0.028763 0.000000
# 4 0.000000 0.000000 0.000000 0.035721 0.000000 -0.003054
# 5 -0.001691 -0.002091 0.028763 0.000000 0.050031 0.000000
# 6 0.000000 0.000000 0.000000 -0.003054 0.000000 0.127556
#
#
# Mechanical properties :
#
#
# Convention : Reuss Voigt Hill
#
# Bulk Modulus (GPa) = 3.32705 52.48363 27.90534
# Shear Modulus (GPa) = 5.59342 25.04354 15.31848
#
# Velocity S-wave (km/s) = 1.77710 3.76029 2.94090
# Velocity P-wave (km/s) = 2.46764 6.96316 5.22374
#
# Compressibility (1/GPa) = 0.30056636
#
# Stress axis : x y z
#
# Youngs Moduli (GPa) = 88.02810 92.97345 2.39021
#
# Poissons Ratio (x) = 0.02104 0.09099
# Poissons Ratio (y) = 0.01992 0.07569
# Poissons Ratio (z) = 3.35116 2.94405
#
# Static dielectric constant tensor:
#      x y z
#    x 1.596010 0.000000 0.000390 
#    y 0.000000 1.584970 0.000000 
#    z 0.000390 0.000000 1.607710 
# 
# From -- ./inp_files/15079.got.cif
#   From: 2010.05.17/outbox.cif.g08.bks.cpg/sg11_8_cif.got.tgz:15079.got - 2010.06.03 12:22:45.
