data_PCOD9161371
_publ_section_title
;
Structure prediction by ZEFSAII (Michael W. Deem and Ramdas Pophale) SiO2 
 PCOD9161371
Probable space group: P 21/M
;
_chemical_formula_sum "Si O2"
_cell_formula_units_Z 28
_cell_length_a 14.061611
_cell_length_b 8.614997
_cell_length_c 20.622625
_cell_angle_alpha 90.000000
_cell_angle_beta 34.656073
_cell_angle_gamma 90.000000
_cell_volume 1420.621774
_symmetry_space_group_name_H-M "P 21/M"
_symmetry_group_IT_number 11
_symmetry_cell_setting 'monoclinic'
loop_
_space_group_symop_operation_xyz
x,y,z
-x,1/2+y,-z
-x,-y,-z
x,1/2-y,z
loop_
_atom_site_type_symbol
_atom_site_label
_atom_site_fract_x
_atom_site_fract_y
_atom_site_fract_z
Si Si1 0.015823 0.936546 0.175664
Si Si2 0.146608 0.937692 0.964337
Si Si3 0.172160 0.561564 0.369923
Si Si4 0.914608 0.431404 0.718197
Si Si5 0.326783 0.580746 0.613421
Si Si6 0.250613 0.578833 0.507564
Si Si7 0.478385 0.063583 0.284753
O O1 0.018322 0.750000 0.178014
O O2 0.083801 0.993785 0.208372
O O3 0.823556 0.986250 0.270313
O O4 0.117414 0.987433 0.055417
O O5 0.138812 0.750000 0.966931
O O6 0.333338 0.983756 0.838154
O O7 0.000000 0.000000 0.000000
O O8 0.166632 0.750000 0.372793
O O9 0.189346 0.506030 0.284877
O O10 0.333270 0.501009 0.318721
O O11 0.000000 0.500000 0.500000
O O12 0.876955 0.250000 0.745168
O O13 0.101144 0.457138 0.584710
O O14 0.500000 0.500000 0.500000
O O15 0.349904 0.750000 0.631570
O O16 0.259524 0.599880 0.578565
O O17 0.214742 0.750000 0.498682
O O18 0.421401 0.510149 0.384692
O O19 0.469644 0.250000 0.291142
#
# Coordination Sequence:
#
# PCOD9161371 Si02
#       7
#     4   4   4   4   4   4   4
#     4   9  19  39  60  80 109 148 193 241 291 345
#     4  10  24  43  63  84 112 154 202 249 296 345
#     4  11  21  34  57  90 122 155 191 237 292 351
#     4   9  18  34  58  84 114 149 184 229 288 346
#     4  10  21  34  52  81 112 144 186 237 294 352
#     4  10  20  33  52  80 113 148 187 234 284 340
#     4  11  23  38  56  83 118 156 196 239 292 351
#
# _framework density 19.709679000000001
#
# number of rings (size 3 to 8) (size 9 to 14) (size 15 to 20)
#    0.000    2.000    1.429    1.714    2.000    4.000 
#    0.000    0.714    0.000    0.000    0.000    0.000 
#    0.000    0.000    0.000    0.000    0.000    0.000 
#
# Total GULP energy -155872.347741 kJ/mol
# GULP energy per Si atom -5566.869562 kJ/mol
# Density = 1.966482 g / cm^3
# Si number density = 19.709679 Si / 1000 Ang^3
#
#
#
# Elastic Constant Matrix: (Units=GPa)
#
#
# Indices 1 2 3 4 5 6 
#
# 1 60.1448 9.5202 27.5021 0.0000 1.9695 0.0000
# 2 9.5202 27.8445 10.2721 0.0000 0.6869 0.0000
# 3 27.5021 10.2721 117.1762 0.0000 4.5986 0.0000
# 4 0.0000 0.0000 0.0000 20.1501 0.0000 -0.3223
# 5 1.9695 0.6869 4.5986 0.0000 32.0184 0.0000
# 6 0.0000 0.0000 0.0000 -0.3223 0.0000 24.3440
#
#
#
# Elastic Compliance Matrix: (Units=1/GPa)
#
#
# Indices 1 2 3 4 5 6 
#
# 1 0.019308 -0.005089 -0.004066 0.000000 -0.000494 0.000000
# 2 -0.005089 0.038459 -0.002169 0.000000 -0.000201 0.000000
# 3 -0.004066 -0.002169 0.009722 0.000000 -0.001100 0.000000
# 4 0.000000 0.000000 0.000000 0.049638 0.000000 0.000657
# 5 -0.000494 -0.000201 -0.001100 0.000000 0.031425 0.000000
# 6 0.000000 0.000000 0.000000 0.000657 0.000000 0.041087
#
#
# Mechanical properties :
#
#
# Convention : Reuss Voigt Hill
#
# Bulk Modulus (GPa) = 22.30173 33.30603 27.80388
# Shear Modulus (GPa) = 22.00385 25.82725 23.91555
#
# Velocity S-wave (km/s) = 3.34488 3.62385 3.48716
# Velocity P-wave (km/s) = 5.12419 5.86896 5.50917
#
# Compressibility (1/GPa) = 0.04483958
#
# Stress axis : x y z
#
# Youngs Moduli (GPa) = 51.79319 26.00174 102.86161
#
# Poissons Ratio (x) = 0.13233 0.41824
# Poissons Ratio (y) = 0.26358 0.22312
# Poissons Ratio (z) = 0.21060 0.05640
#
# Static dielectric constant tensor:
#      x y z
#    x 1.791040 0.000000 0.031160 
#    y 0.000000 1.768920 0.000000 
#    z 0.031160 0.000000 1.678120 
# 
# From -- ./inp_files/65371.got.cif
#   From: 2010.05.17/outbox.cif.g08.bks.cpg/sg11_33_cif.got.tgz:65371.got - 2010.06.03 12:22:45.
