data_PCOD9161256
_publ_section_title
;
Structure prediction by ZEFSAII (Michael W. Deem and Ramdas Pophale) SiO2 
 PCOD9161256
Probable space group: P 21/M
;
_chemical_formula_sum "Si O2"
_cell_formula_units_Z 32
_cell_length_a 31.720806
_cell_length_b 8.321367
_cell_length_c 15.383169
_cell_angle_alpha 90.000000
_cell_angle_beta 151.174393
_cell_angle_gamma 90.000000
_cell_volume 1957.774252
_symmetry_space_group_name_H-M "P 21/M"
_symmetry_group_IT_number 11
_symmetry_cell_setting 'monoclinic'
loop_
_space_group_symop_operation_xyz
x,y,z
-x,1/2+y,-z
-x,-y,-z
x,1/2-y,z
loop_
_atom_site_type_symbol
_atom_site_label
_atom_site_fract_x
_atom_site_fract_y
_atom_site_fract_z
Si Si1 0.702040 0.445833 0.327883
Si Si2 0.372048 0.559133 0.617880
Si Si3 0.252172 0.059720 0.245107
Si Si4 0.623979 0.440327 0.675496
Si Si5 0.084879 0.055457 0.043254
Si Si6 0.566715 0.059344 0.937898
Si Si7 0.890667 0.055941 0.716009
Si Si8 0.438390 0.440103 0.259957
O O1 0.702783 0.250000 0.327154
O O2 0.660121 0.492253 0.344772
O O3 0.802818 0.500456 0.509757
O O4 0.641415 0.499317 0.138989
O O5 0.357014 0.750000 0.581894
O O6 0.316711 0.474017 0.442702
O O7 0.474142 0.523082 0.790761
O O8 0.248611 0.250000 0.223220
O O9 0.156633 0.001397 0.103169
O O10 0.293677 0.978313 0.235740
O O11 0.615653 0.250000 0.673640
O O12 0.536358 0.494658 0.465198
O O13 0.621158 0.522932 0.764206
O O14 0.086305 0.250000 0.046834
O O15 0.112342 0.996950 0.188765
O O16 0.984585 0.001891 0.848706
O O17 0.555521 0.250000 0.930249
O O18 0.589012 0.025097 0.878034
O O19 0.890540 0.250000 0.714455
O O20 0.441959 0.250000 0.250386
#
# Coordination Sequence:
#
# PCOD9161256 Si02
#       8
#     4   4   4   4   4   4   4   4
#     4   9  19  32  48  68  93 130 170 201 234 276
#     4  11  20  32  46  66  95 131 170 200 231 274
#     4  11  20  30  46  72 101 128 157 194 239 285
#     4  10  20  33  51  71  94 124 158 193 237 288
#     4   9  18  29  46  71  96 123 158 197 241 283
#     4  11  21  33  48  68  95 129 166 201 236 277
#     4   9  16  31  49  66  93 127 161 199 237 279
#     4  10  20  34  50  70  95 123 157 196 239 283
#
# _framework density 16.345092999999999
#
# number of rings (size 3 to 8) (size 9 to 14) (size 15 to 20)
#    0.000    2.000    2.500    2.250    0.000    1.500 
#    0.000    3.125    0.000    0.000    0.000    0.875 
#    0.000    0.000    0.000    0.000    0.000    0.000 
#
# Total GULP energy -178543.302720 kJ/mol
# GULP energy per Si atom -5579.478210 kJ/mol
# Density = 1.630789 g / cm^3
# Si number density = 16.345093 Si / 1000 Ang^3
#
#
#
# Elastic Constant Matrix: (Units=GPa)
#
#
# Indices 1 2 3 4 5 6 
#
# 1 91.9250 -4.7860 43.3400 0.0000 15.4027 0.0000
# 2 -4.7860 9.0292 -5.6573 0.0000 0.0896 0.0000
# 3 43.3400 -5.6573 73.8002 0.0000 9.2127 0.0000
# 4 0.0000 0.0000 0.0000 8.7825 0.0000 -2.1721
# 5 15.4027 0.0896 9.2127 0.0000 22.9628 0.0000
# 6 0.0000 0.0000 0.0000 -2.1721 0.0000 23.7901
#
#
#
# Elastic Compliance Matrix: (Units=1/GPa)
#
#
# Indices 1 2 3 4 5 6 
#
# 1 0.016259 0.003470 -0.008337 0.000000 -0.007575 0.000000
# 2 0.003470 0.117475 0.007701 0.000000 -0.005875 0.000000
# 3 -0.008337 0.007701 0.019309 0.000000 -0.002185 0.000000
# 4 0.000000 0.000000 0.000000 0.116493 0.000000 0.010636
# 5 -0.007575 -0.005875 -0.002185 0.000000 0.049529 0.000000
# 6 0.000000 0.000000 0.000000 0.010636 0.000000 0.043005
#
#
# Mechanical properties :
#
#
# Convention : Reuss Voigt Hill
#
# Bulk Modulus (GPa) = 6.30077 26.72753 16.51415
# Shear Modulus (GPa) = 12.21583 20.56426 16.39004
#
# Velocity S-wave (km/s) = 2.73677 3.55086 3.17006
# Velocity P-wave (km/s) = 3.72153 5.76186 4.85019
#
# Compressibility (1/GPa) = 0.15871069
#
# Stress axis : x y z
#
# Youngs Moduli (GPa) = 61.50544 8.51248 51.78958
#
# Poissons Ratio (x) = -0.02954 0.43175
# Poissons Ratio (y) = -0.21342 -0.39883
# Poissons Ratio (z) = 0.51274 -0.06555
#
# Static dielectric constant tensor:
#      x y z
#    x 1.545790 0.000000 0.022750 
#    y 0.000000 1.560130 0.000000 
#    z 0.022750 0.000000 1.548180 
# 
# From -- ./inp_files/51337.got.cif
#   From: 2010.05.17/outbox.cif.g08.bks.cpg/sg11_26_cif.got.tgz:51337.got - 2010.06.03 12:22:45.
