data_PCOD9161540
_publ_section_title
;
Structure prediction by ZEFSAII (Michael W. Deem and Ramdas Pophale) SiO2 
 PCOD9161540
Probable space group: P 21/M
;
_chemical_formula_sum "Si O2"
_cell_formula_units_Z 28
_cell_length_a 18.809133
_cell_length_b 9.258033
_cell_length_c 16.610345
_cell_angle_alpha 90.000000
_cell_angle_beta 142.906522
_cell_angle_gamma 90.000000
_cell_volume 1744.487512
_symmetry_space_group_name_H-M "P 21/M"
_symmetry_group_IT_number 11
_symmetry_cell_setting 'monoclinic'
loop_
_space_group_symop_operation_xyz
x,y,z
-x,1/2+y,-z
-x,-y,-z
x,1/2-y,z
loop_
_atom_site_type_symbol
_atom_site_label
_atom_site_fract_x
_atom_site_fract_y
_atom_site_fract_z
Si Si1 0.399953 0.083829 0.803501
Si Si2 0.673132 0.416366 0.110643
Si Si3 0.835599 0.579369 0.788066
Si Si4 0.066974 0.420840 0.944741
Si Si5 0.406241 0.576940 0.473166
Si Si6 0.479476 0.578715 0.722919
Si Si7 0.256738 0.077302 0.981655
O O1 0.363425 0.250000 0.765025
O O2 0.325839 0.998919 0.803640
O O3 0.404601 0.007503 0.721319
O O4 0.536084 0.081030 0.957602
O O5 0.708018 0.250000 0.150831
O O6 0.743876 0.495708 0.103775
O O7 0.820554 0.750000 0.759089
O O8 0.720815 0.490621 0.659843
O O9 0.949952 0.515813 0.846374
O O10 0.861825 0.561303 0.907168
O O11 0.036749 0.250000 0.911579
O O12 0.150894 0.459926 0.946175
O O13 0.500000 0.500000 0.500000
O O14 0.406729 0.750000 0.461073
O O15 0.442077 0.548982 0.598117
O O16 0.465816 0.750000 0.725790
O O17 0.617678 0.544174 0.862223
O O18 0.254466 0.250000 0.965963
#
# Coordination Sequence:
#
# PCOD9161540 Si02
#       7
#     4   4   4   4   4   4   4
#     4   9  16  26  41  62  89 122 157 190 227 274
#     4   9  16  25  39  62  92 122 152 188 231 277
#     4  10  20  34  51  71  95 124 160 199 239 281
#     4   9  18  33  51  70  94 125 159 197 240 282
#     4  11  22  35  51  71  97 128 161 196 236 281
#     4   9  18  31  46  66  94 127 158 191 233 278
#     4   9  16  28  46  67  93 123 156 193 233 277
#
# _framework density 16.050559
#
# number of rings (size 3 to 8) (size 9 to 14) (size 15 to 20)
#    0.000    2.571    0.000    2.571    0.000    8.000 
#    0.000    2.857    0.000    0.000    0.000    1.000 
#    0.000    0.000    0.000    0.000    0.000    0.000 
#
# Total GULP energy -156124.185511 kJ/mol
# GULP energy per Si atom -5575.863768 kJ/mol
# Density = 1.601403 g / cm^3
# Si number density = 16.050559 Si / 1000 Ang^3
#
#
#
# Elastic Constant Matrix: (Units=GPa)
#
#
# Indices 1 2 3 4 5 6 
#
# 1 169.4224 96.7518 56.8465 0.0000 -16.8237 0.0000
# 2 96.7518 102.1419 57.9412 0.0000 -14.9741 0.0000
# 3 56.8465 57.9412 63.0106 0.0000 -6.6147 0.0000
# 4 0.0000 0.0000 0.0000 22.4766 0.0000 -3.1636
# 5 -16.8237 -14.9741 -6.6147 0.0000 17.4710 0.0000
# 6 0.0000 0.0000 0.0000 -3.1636 0.0000 32.9836
#
#
#
# Elastic Compliance Matrix: (Units=1/GPa)
#
#
# Indices 1 2 3 4 5 6 
#
# 1 0.012963 -0.011370 -0.000991 0.000000 0.002362 0.000000
# 2 -0.011370 0.032623 -0.018698 0.000000 0.009933 0.000000
# 3 -0.000991 -0.018698 0.033508 0.000000 -0.004294 0.000000
# 4 0.000000 0.000000 0.000000 0.045100 0.000000 0.004326
# 5 0.002362 0.009933 -0.004294 0.000000 0.066400 0.000000
# 6 0.000000 0.000000 0.000000 0.004326 0.000000 0.030733
#
#
# Mechanical properties :
#
#
# Convention : Reuss Voigt Hill
#
# Bulk Modulus (GPa) = 58.91150 84.18377 71.54764
# Shear Modulus (GPa) = 17.29488 22.78859 20.04173
#
# Velocity S-wave (km/s) = 3.28613 3.77211 3.53748
# Velocity P-wave (km/s) = 7.15413 8.45782 7.83315
#
# Compressibility (1/GPa) = 0.01697461
#
# Stress axis : x y z
#
# Youngs Moduli (GPa) = 77.14509 30.65310 29.84380
#
# Poissons Ratio (x) = 0.34852 0.02959
# Poissons Ratio (y) = 0.87713 0.55802
# Poissons Ratio (z) = 0.07648 0.57316
#
# Static dielectric constant tensor:
#      x y z
#    x 1.521290 0.000000 -0.005030 
#    y 0.000000 1.537160 0.000000 
#    z -0.005030 0.000000 1.514370 
# 
# From -- ./inp_files/42383.got.cif
#   From: 2010.05.17/outbox.cif.g08.bks.cpg/sg11_22_cif.got.tgz:42383.got - 2010.06.03 12:22:45.
