data_PCOD9161482
_publ_section_title
;
Structure prediction by ZEFSAII (Michael W. Deem and Ramdas Pophale) SiO2 
 PCOD9161482
Probable space group: P 21/M
;
_chemical_formula_sum "Si O2"
_cell_formula_units_Z 28
_cell_length_a 13.218503
_cell_length_b 9.754772
_cell_length_c 13.591651
_cell_angle_alpha 90.000000
_cell_angle_beta 122.119556
_cell_angle_gamma 90.000000
_cell_volume 1484.309649
_symmetry_space_group_name_H-M "P 21/M"
_symmetry_group_IT_number 11
_symmetry_cell_setting 'monoclinic'
loop_
_space_group_symop_operation_xyz
x,y,z
-x,1/2+y,-z
-x,-y,-z
x,1/2-y,z
loop_
_atom_site_type_symbol
_atom_site_label
_atom_site_fract_x
_atom_site_fract_y
_atom_site_fract_z
Si Si1 0.061086 0.587767 0.271953
Si Si2 0.657716 0.901020 0.274440
Si Si3 0.907141 0.912724 0.516892
Si Si4 0.437910 0.097055 0.205509
Si Si5 0.362433 0.030165 0.954286
Si Si6 0.858980 0.098737 0.082189
Si Si7 0.242262 0.906178 0.185400
O O1 0.047659 0.750000 0.289587
O O2 0.096649 0.492892 0.381999
O O3 0.160336 0.575443 0.238020
O O4 0.939408 0.522276 0.166435
O O5 0.606484 0.750000 0.268911
O O6 0.779187 0.918597 0.397059
O O7 0.560170 0.014426 0.251622
O O8 0.684301 0.906120 0.171186
O O9 0.939055 0.750000 0.542782
O O10 0.000000 0.000000 0.500000
O O11 0.460511 0.250000 0.252683
O O12 0.349618 0.012570 0.229748
O O13 0.373024 0.104339 0.064830
O O14 0.271010 0.908933 0.933351
O O15 0.500000 0.000000 0.000000
O O16 0.911978 0.250000 0.126968
O O17 0.837685 0.080872 0.954809
O O18 0.289012 0.750000 0.208985
#
# Coordination Sequence:
#
# PCOD9161482 Si02
#       7
#     4   4   4   4   4   4   4
#     4  11  23  39  59  83 113 150 189 232 282 334
#     4  10  21  37  56  78 110 150 188 227 276 332
#     4  11  24  41  61  84 111 148 192 236 279 328
#     4  10  20  33  56  88 116 143 180 228 280 335
#     4   9  19  33  53  82 115 148 181 221 274 334
#     4  10  20  35  57  85 115 148 187 232 281 335
#     4   9  20  38  58  82 115 151 185 226 280 338
#
# _framework density 18.863987999999999
#
# number of rings (size 3 to 8) (size 9 to 14) (size 15 to 20)
#    0.000    2.000    0.000    3.000    0.000   12.000 
#    0.000    0.714    0.000    0.000    0.000    0.000 
#    0.000    0.000    0.000    0.000    0.000    0.000 
#
# Total GULP energy -156099.993705 kJ/mol
# GULP energy per Si atom -5574.999775 kJ/mol
# Density = 1.882105 g / cm^3
# Si number density = 18.863988 Si / 1000 Ang^3
#
#
#
# Elastic Constant Matrix: (Units=GPa)
#
#
# Indices 1 2 3 4 5 6 
#
# 1 93.3510 70.4689 42.1375 0.0000 -9.4774 0.0000
# 2 70.4689 178.1550 64.4274 0.0000 1.7675 0.0000
# 3 42.1375 64.4274 79.7086 0.0000 -12.8453 0.0000
# 4 0.0000 0.0000 0.0000 17.0946 0.0000 8.5893
# 5 -9.4774 1.7675 -12.8453 0.0000 19.0123 0.0000
# 6 0.0000 0.0000 0.0000 8.5893 0.0000 24.9049
#
#
#
# Elastic Compliance Matrix: (Units=1/GPa)
#
#
# Indices 1 2 3 4 5 6 
#
# 1 0.017204 -0.005619 -0.003463 0.000000 0.006758 0.000000
# 2 -0.005619 0.010356 -0.006740 0.000000 -0.008318 0.000000
# 3 -0.003463 -0.006740 0.022048 0.000000 0.013797 0.000000
# 4 0.000000 0.000000 0.000000 0.070760 0.000000 -0.024404
# 5 0.006758 -0.008318 0.013797 0.000000 0.066061 0.000000
# 6 0.000000 0.000000 0.000000 -0.024404 0.000000 0.048569
#
#
# Mechanical properties :
#
#
# Convention : Reuss Voigt Hill
#
# Bulk Modulus (GPa) = 55.67501 78.36467 67.01984
# Shear Modulus (GPa) = 18.33974 23.81441 21.07707
#
# Velocity S-wave (km/s) = 3.12141 3.55692 3.34626
# Velocity P-wave (km/s) = 6.52449 7.64860 7.10880
#
# Compressibility (1/GPa) = 0.01796138
#
# Stress axis : x y z
#
# Youngs Moduli (GPa) = 58.12678 96.56285 45.35540
#
# Poissons Ratio (x) = 0.54263 0.15708
# Poissons Ratio (y) = 0.32664 0.30571
# Poissons Ratio (z) = 0.20132 0.65087
#
# Static dielectric constant tensor:
#      x y z
#    x 1.640200 0.000000 -0.002950 
#    y 0.000000 1.760730 0.000000 
#    z -0.002950 0.000000 1.651690 
# 
# From -- ./inp_files/49479.got.cif
#   From: 2010.05.17/outbox.cif.g08.bks.cpg/sg11_25_cif.got.tgz:49479.got - 2010.06.03 12:22:45.
