data_PCOD9161099
_publ_section_title
;
Structure prediction by ZEFSAII (Michael W. Deem and Ramdas Pophale) SiO2 
 PCOD9161099
Probable space group: P 21/M
;
_chemical_formula_sum "Si O2"
_cell_formula_units_Z 28
_cell_length_a 16.037587
_cell_length_b 19.837399
_cell_length_c 11.239265
_cell_angle_alpha 90.000000
_cell_angle_beta 156.950811
_cell_angle_gamma 90.000000
_cell_volume 1399.964427
_symmetry_space_group_name_H-M "P 21/M"
_symmetry_group_IT_number 11
_symmetry_cell_setting 'monoclinic'
loop_
_space_group_symop_operation_xyz
x,y,z
-x,1/2+y,-z
-x,-y,-z
x,1/2-y,z
loop_
_atom_site_type_symbol
_atom_site_label
_atom_site_fract_x
_atom_site_fract_y
_atom_site_fract_z
Si Si1 0.427085 0.826006 0.446439
Si Si2 0.840312 0.064644 0.215784
Si Si3 0.755996 0.497465 0.349980
Si Si4 0.031245 0.328998 0.109933
Si Si5 0.038183 0.554541 0.154816
Si Si6 0.624448 0.541618 0.765152
Si Si7 0.511984 0.672587 0.289643
O O1 0.453296 0.750000 0.530080
O O2 0.500761 0.888534 0.623486
O O3 0.546901 0.830237 0.478208
O O4 0.178104 0.833978 0.084103
O O5 0.847022 0.052210 0.366134
O O6 0.696826 0.130505 0.011649
O O7 0.072831 0.058566 0.456224
O O8 0.690967 0.005925 0.961020
O O9 0.784374 0.472232 0.522444
O O10 0.500000 0.500000 0.000000
O O11 0.059628 0.250000 0.118531
O O12 0.259374 0.353422 0.458431
O O13 0.955080 0.373531 0.899212
O O14 0.000000 0.500000 0.000000
O O15 0.841393 0.558851 0.984913
O O16 0.500000 0.500000 0.500000
O O17 0.482211 0.750000 0.214682
#
# Coordination Sequence:
#
# PCOD9161099 Si02
#       7
#     4   4   4   4   4   4   4
#     4  10  20  32  51  86 124 153 191 246 303 353
#     4  10  22  41  57  84 123 156 205 244 298 362
#     4  10  25  40  59  87 121 159 191 255 307 353
#     4  10  21  35  55  88 124 152 192 251 301 352
#     4  11  23  36  61  92 115 154 203 244 301 360
#     4  11  19  33  58  88 116 154 195 251 293 352
#     4  10  20  36  60  88 120 158 197 246 299 354
#
# _framework density 20.000506999999999
#
# number of rings (size 3 to 8) (size 9 to 14) (size 15 to 20)
#    0.000    1.714    2.857    0.857    8.000    0.000 
#    0.000    0.714    0.000    6.000    0.000    0.000 
#    0.000    0.000    0.000    0.000    0.000    0.000 
#
# Total GULP energy -155891.455648 kJ/mol
# GULP energy per Si atom -5567.551987 kJ/mol
# Density = 1.995498 g / cm^3
# Si number density = 20.000507 Si / 1000 Ang^3
#
#
#
# Elastic Constant Matrix: (Units=GPa)
#
#
# Indices 1 2 3 4 5 6 
#
# 1 61.4865 16.7302 26.7267 0.0000 2.2775 0.0000
# 2 16.7302 83.7220 47.2703 0.0000 5.1252 0.0000
# 3 26.7267 47.2703 134.2546 0.0000 14.1958 0.0000
# 4 0.0000 0.0000 0.0000 32.0525 0.0000 5.6903
# 5 2.2775 5.1252 14.1958 0.0000 48.2423 0.0000
# 6 0.0000 0.0000 0.0000 5.6903 0.0000 16.9792
#
#
#
# Elastic Compliance Matrix: (Units=1/GPa)
#
#
# Indices 1 2 3 4 5 6 
#
# 1 0.018063 -0.001972 -0.002925 0.000000 0.000217 0.000000
# 2 -0.001972 0.015123 -0.004926 0.000000 -0.000064 0.000000
# 3 -0.002925 -0.004926 0.010006 0.000000 -0.002283 0.000000
# 4 0.000000 0.000000 0.000000 0.033172 0.000000 -0.011117
# 5 0.000217 -0.000064 -0.002283 0.000000 0.021397 0.000000
# 6 0.000000 0.000000 0.000000 -0.011117 0.000000 0.062621
#
#
# Mechanical properties :
#
#
# Convention : Reuss Voigt Hill
#
# Bulk Modulus (GPa) = 42.46396 51.21305 46.83850
# Shear Modulus (GPa) = 26.61309 32.03718 29.32513
#
# Velocity S-wave (km/s) = 3.65172 4.00661 3.83328
# Velocity P-wave (km/s) = 6.24961 6.86042 6.56213
#
# Compressibility (1/GPa) = 0.02354938
#
# Stress axis : x y z
#
# Youngs Moduli (GPa) = 55.36031 66.12350 99.93550
#
# Poissons Ratio (x) = 0.13037 0.29229
# Poissons Ratio (y) = 0.10915 0.49224
# Poissons Ratio (z) = 0.16192 0.32569
#
# Static dielectric constant tensor:
#      x y z
#    x 1.720430 0.000000 0.018610 
#    y 0.000000 1.750430 0.000000 
#    z 0.018610 0.000000 1.765930 
# 
# From -- ./inp_files/41995.got.cif
#   From: 2010.05.17/outbox.cif.g08.bks.cpg/sg11_21_cif.got.tgz:41995.got - 2010.06.03 12:22:45.
