data_PCOD9161490
_publ_section_title
;
Structure prediction by ZEFSAII (Michael W. Deem and Ramdas Pophale) SiO2 
 PCOD9161490
Probable space group: P 21/M
;
_chemical_formula_sum "Si O2"
_cell_formula_units_Z 28
_cell_length_a 31.475462
_cell_length_b 8.851504
_cell_length_c 10.410240
_cell_angle_alpha 90.000000
_cell_angle_beta 147.528562
_cell_angle_gamma 90.000000
_cell_volume 1557.135591
_symmetry_space_group_name_H-M "P 21/M"
_symmetry_group_IT_number 11
_symmetry_cell_setting 'monoclinic'
loop_
_space_group_symop_operation_xyz
x,y,z
-x,1/2+y,-z
-x,-y,-z
x,1/2-y,z
loop_
_atom_site_type_symbol
_atom_site_label
_atom_site_fract_x
_atom_site_fract_y
_atom_site_fract_z
Si Si1 0.417411 0.070505 0.437980
Si Si2 0.006444 0.069021 0.658761
Si Si3 0.598998 0.429734 0.884851
Si Si4 0.273485 0.569246 0.200709
Si Si5 0.166560 0.930488 0.678725
Si Si6 0.243119 0.070508 0.621584
Si Si7 0.167215 0.568559 0.174590
O O1 0.409434 0.250000 0.397519
O O2 0.509458 0.038765 0.702292
O O3 0.397286 0.986541 0.253052
O O4 0.356074 0.013651 0.387362
O O5 0.013676 0.250000 0.667283
O O6 0.924953 0.035695 0.525645
O O7 0.000000 0.000000 0.500000
O O8 0.082325 0.000362 0.922505
O O9 0.612437 0.250000 0.921792
O O10 0.666836 0.512179 0.137239
O O11 0.286211 0.750000 0.233191
O O12 0.227861 0.528250 0.214256
O O13 0.216839 0.533628 0.934926
O O14 0.174474 0.750000 0.676128
O O15 0.200530 0.018188 0.644052
O O16 0.241111 0.250000 0.604997
O O17 0.199855 0.994609 0.390994
O O18 0.161208 0.750000 0.163448
#
# Coordination Sequence:
#
# PCOD9161490 Si02
#       7
#     4   4   4   4   4   4   4
#     4  10  20  33  57  91 119 150 197 247 291 340
#     4  11  22  39  63  91 121 154 199 247 294 348
#     4  10  20  36  57  84 121 159 193 239 296 349
#     4  10  20  37  61  88 118 156 198 238 292 354
#     4  10  21  39  62  88 119 157 196 240 293 352
#     4  12  25  40  60  90 120 156 201 244 295 352
#     4  11  24  43  63  86 120 161 197 241 302 356
#
# _framework density 17.981733999999999
#
# number of rings (size 3 to 8) (size 9 to 14) (size 15 to 20)
#    0.000    1.429    2.857    3.000    0.000    4.571 
#    0.000    0.714    0.000    0.000    0.000    0.000 
#    0.000    0.000    0.000    0.000    0.000    0.000 
#
# Total GULP energy -156492.342994 kJ/mol
# GULP energy per Si atom -5589.012250 kJ/mol
# Density = 1.794081 g / cm^3
# Si number density = 17.981734 Si / 1000 Ang^3
#
#
#
# Elastic Constant Matrix: (Units=GPa)
#
#
# Indices 1 2 3 4 5 6 
#
# 1 86.4889 49.1563 43.1064 0.0000 9.2590 0.0000
# 2 49.1563 68.6944 47.0022 0.0000 7.7517 0.0000
# 3 43.1064 47.0022 110.4195 0.0000 4.2093 0.0000
# 4 0.0000 0.0000 0.0000 31.8145 0.0000 5.2461
# 5 9.2590 7.7517 4.2093 0.0000 32.4771 0.0000
# 6 0.0000 0.0000 0.0000 5.2461 0.0000 29.5945
#
#
#
# Elastic Compliance Matrix: (Units=1/GPa)
#
#
# Indices 1 2 3 4 5 6 
#
# 1 0.020121 -0.012432 -0.002470 0.000000 -0.002449 0.000000
# 2 -0.012432 0.028695 -0.007271 0.000000 -0.002362 0.000000
# 3 -0.002470 -0.007271 0.013087 0.000000 0.000743 0.000000
# 4 0.000000 0.000000 0.000000 0.032379 0.000000 -0.005740
# 5 -0.002449 -0.002362 0.000743 0.000000 0.031957 0.000000
# 6 0.000000 0.000000 0.000000 -0.005740 0.000000 0.034807
#
#
# Mechanical properties :
#
#
# Convention : Reuss Voigt Hill
#
# Bulk Modulus (GPa) = 56.95588 60.45916 58.70752
# Shear Modulus (GPa) = 23.66926 27.19976 25.43451
#
# Velocity S-wave (km/s) = 3.63201 3.89348 3.76502
# Velocity P-wave (km/s) = 7.02366 7.34219 7.18469
#
# Compressibility (1/GPa) = 0.01755745
#
# Stress axis : x y z
#
# Youngs Moduli (GPa) = 49.69918 34.84931 76.40989
#
# Poissons Ratio (x) = 0.43325 0.18871
# Poissons Ratio (y) = 0.61786 0.55559
# Poissons Ratio (z) = 0.12274 0.25340
#
# Static dielectric constant tensor:
#      x y z
#    x 1.600660 0.000000 0.019210 
#    y 0.000000 1.605180 0.000000 
#    z 0.019210 0.000000 1.593810 
# 
# From -- ./inp_files/28298.got.cif
#   From: 2010.05.17/outbox.cif.g08.bks.cpg/sg11_15_cif.got.tgz:28298.got - 2010.06.03 12:22:45.
