data_PCOD9161250
_publ_section_title
;
Structure prediction by ZEFSAII (Michael W. Deem and Ramdas Pophale) SiO2 
 PCOD9161250
Probable space group: P 21/M
;
_chemical_formula_sum "Si O2"
_cell_formula_units_Z 32
_cell_length_a 23.393284
_cell_length_b 8.731208
_cell_length_c 28.832186
_cell_angle_alpha 90.000000
_cell_angle_beta 17.928753
_cell_angle_gamma 90.000000
_cell_volume 1812.841591
_symmetry_space_group_name_H-M "P 21/M"
_symmetry_group_IT_number 11
_symmetry_cell_setting 'monoclinic'
loop_
_space_group_symop_operation_xyz
x,y,z
-x,1/2+y,-z
-x,-y,-z
x,1/2-y,z
loop_
_atom_site_type_symbol
_atom_site_label
_atom_site_fract_x
_atom_site_fract_y
_atom_site_fract_z
Si Si1 0.345957 0.065900 0.653422
Si Si2 0.926240 0.566051 0.710721
Si Si3 0.073775 0.935991 0.040871
Si Si4 0.671190 0.933837 0.582076
Si Si5 0.594203 0.566837 0.036545
Si Si6 0.380666 0.935502 0.729122
Si Si7 0.638989 0.065021 0.103806
Si Si8 0.652547 0.566224 0.846547
O O1 0.350643 0.250000 0.648122
O O2 0.138110 0.013497 0.799532
O O3 0.500000 0.000000 0.500000
O O4 0.379999 0.009632 0.679421
O O5 0.935938 0.750000 0.704500
O O6 0.846828 0.522685 0.721044
O O7 0.125282 0.499935 0.569142
O O8 0.770506 0.518673 0.868650
O O9 0.074861 0.750000 0.039981
O O10 0.200808 0.981411 0.898764
O O11 0.181405 0.982896 0.004548
O O12 0.682005 0.750000 0.573075
O O13 0.560445 0.979374 0.620998
O O14 0.538269 0.976345 0.727684
O O15 0.583374 0.750000 0.043506
O O16 0.624519 0.508630 0.064864
O O17 0.409377 0.499377 0.155016
O O18 0.378614 0.750000 0.726524
O O19 0.643318 0.250000 0.096054
O O20 0.640501 0.750000 0.855005
O O21 0.500000 0.500000 0.000000
#
# Coordination Sequence:
#
# PCOD9161250 Si02
#       8
#     4   4   4   4   4   4   4   4
#     4  11  22  35  52  78 107 135 166 206 253 299
#     4   9  19  33  50  74 104 132 166 210 253 297
#     4   8  17  35  57  75  97 132 173 209 248 299
#     4   9  19  34  54  77 101 131 169 207 251 303
#     4  10  20  33  50  76 104 133 169 210 252 299
#     4   9  18  36  57  76  99 131 170 211 249 297
#     4   9  18  35  55  75  99 131 170 212 251 296
#     4   9  17  31  50  73 100 133 170 209 250 298
#
# _framework density 17.651847
#
# number of rings (size 3 to 8) (size 9 to 14) (size 15 to 20)
#    0.000    2.750    0.000    3.750    0.000    5.000 
#    0.000    8.125    0.000    0.000    0.000    0.000 
#    0.000    0.000    0.000    0.000    0.000    0.000 
#
# Total GULP energy -178382.347319 kJ/mol
# GULP energy per Si atom -5574.448354 kJ/mol
# Density = 1.761167 g / cm^3
# Si number density = 17.651847 Si / 1000 Ang^3
#
#
#
# Elastic Constant Matrix: (Units=GPa)
#
#
# Indices 1 2 3 4 5 6 
#
# 1 202.1261 50.6565 121.1905 0.0000 -16.7145 0.0000
# 2 50.6565 33.6287 43.2106 0.0000 -6.4658 0.0000
# 3 121.1905 43.2106 165.1011 0.0000 -38.5258 0.0000
# 4 0.0000 0.0000 0.0000 25.4371 0.0000 -0.2076
# 5 -16.7145 -6.4658 -38.5258 0.0000 24.8266 0.0000
# 6 0.0000 0.0000 0.0000 -0.2076 0.0000 34.3653
#
#
#
# Elastic Compliance Matrix: (Units=1/GPa)
#
#
# Indices 1 2 3 4 5 6 
#
# 1 0.010827 -0.008209 -0.007206 0.000000 -0.006031 0.000000
# 2 -0.008209 0.052750 -0.009193 0.000000 -0.006054 0.000000
# 3 -0.007206 -0.009193 0.018908 0.000000 0.022096 0.000000
# 4 0.000000 0.000000 0.000000 0.039315 0.000000 0.000237
# 5 -0.006031 -0.006054 0.022096 0.000000 0.068931 0.000000
# 6 0.000000 0.000000 0.000000 0.000237 0.000000 0.029101
#
#
# Mechanical properties :
#
#
# Convention : Reuss Voigt Hill
#
# Bulk Modulus (GPa) = 30.05740 92.33015 61.19378
# Shear Modulus (GPa) = 17.84838 29.31235 23.58036
#
# Velocity S-wave (km/s) = 3.18328 4.07945 3.65890
# Velocity P-wave (km/s) = 5.52955 8.63765 7.25206
#
# Compressibility (1/GPa) = 0.03326967
#
# Stress axis : x y z
#
# Youngs Moduli (GPa) = 92.36567 18.95723 52.88632
#
# Poissons Ratio (x) = 0.15562 0.38110
# Poissons Ratio (y) = 0.75822 0.48618
# Poissons Ratio (z) = 0.66559 0.17427
#
# Static dielectric constant tensor:
#      x y z
#    x 1.605990 0.000000 -0.012460 
#    y 0.000000 1.569500 0.000000 
#    z -0.012460 0.000000 1.598620 
# 
# From -- ./inp_files/71966.got.cif
#   From: 2010.05.17/outbox.cif.g08.bks.cpg/sg11_36_cif.got.tgz:71966.got - 2010.06.03 12:22:45.
