data_PCOD9161275
_publ_section_title
;
Structure prediction by ZEFSAII (Michael W. Deem and Ramdas Pophale) SiO2 
 PCOD9161275
Probable space group: P 21/M
;
_chemical_formula_sum "Si O2"
_cell_formula_units_Z 32
_cell_length_a 16.719926
_cell_length_b 9.335214
_cell_length_c 22.810227
_cell_angle_alpha 90.000000
_cell_angle_beta 152.126950
_cell_angle_gamma 90.000000
_cell_volume 1664.496633
_symmetry_space_group_name_H-M "P 21/M"
_symmetry_group_IT_number 11
_symmetry_cell_setting 'monoclinic'
loop_
_space_group_symop_operation_xyz
x,y,z
-x,1/2+y,-z
-x,-y,-z
x,1/2-y,z
loop_
_atom_site_type_symbol
_atom_site_label
_atom_site_fract_x
_atom_site_fract_y
_atom_site_fract_z
Si Si1 0.080157 0.578664 0.172076
Si Si2 0.557796 0.417395 0.643660
Si Si3 0.288260 0.416360 0.805580
Si Si4 0.770537 0.421175 0.604164
Si Si5 0.624373 0.584845 0.000077
Si Si6 0.749697 0.078847 0.975458
Si Si7 0.577231 0.917336 0.311414
Si Si8 0.901485 0.077852 0.560419
O O1 0.051059 0.750000 0.148439
O O2 0.247822 0.539686 0.243306
O O3 0.130287 0.545025 0.272049
O O4 0.910106 0.492106 0.046892
O O5 0.543510 0.250000 0.617595
O O6 0.415299 0.506538 0.516944
O O7 0.508407 0.430689 0.679771
O O8 0.315515 0.250000 0.804636
O O9 0.433902 0.519075 0.875039
O O10 0.093955 0.460791 0.666844
O O11 0.312724 0.419183 0.891981
O O12 0.750218 0.250000 0.589185
O O13 0.866444 0.463944 0.605977
O O14 0.629576 0.750000 0.984073
O O15 0.740612 0.487421 0.034286
O O16 0.764156 0.250000 0.985105
O O17 0.569226 0.038826 0.828744
O O18 0.617684 0.750000 0.328006
O O19 0.751124 0.007015 0.425407
O O20 0.889586 0.250000 0.549909
#
# Coordination Sequence:
#
# PCOD9161275 Si02
#       8
#     4   4   4   4   4   4   4   4
#     4  10  20  33  51  75 103 134 169 212 260 310
#     4   9  18  33  52  74 101 134 171 212 258 304
#     4   9  18  34  56  83 112 135 160 200 250 303
#     4   9  17  30  49  76 108 135 162 203 254 304
#     4  10  20  35  56  81 109 137 165 202 249 302
#     4  11  23  37  52  71 100 137 175 215 257 299
#     4   9  20  37  52  70 100 135 173 218 258 294
#     4   9  17  31  53  77 101 133 169 204 247 301
#
# _framework density 19.225031000000001
#
# number of rings (size 3 to 8) (size 9 to 14) (size 15 to 20)
#    0.000    2.500    0.000    1.875    0.000    5.500 
#    0.000    3.125    0.000    0.000    0.000    0.000 
#    0.000    0.000    0.000    0.000    0.000    0.000 
#
# Total GULP energy -178597.787283 kJ/mol
# GULP energy per Si atom -5581.180853 kJ/mol
# Density = 1.918127 g / cm^3
# Si number density = 19.225031 Si / 1000 Ang^3
#
#
#
# Elastic Constant Matrix: (Units=GPa)
#
#
# Indices 1 2 3 4 5 6 
#
# 1 17.4790 10.7296 19.0473 0.0000 19.1982 0.0000
# 2 10.7296 31.2278 38.1561 0.0000 11.4577 0.0000
# 3 19.0473 38.1561 92.2991 0.0000 29.1190 0.0000
# 4 0.0000 0.0000 0.0000 30.9697 0.0000 6.3938
# 5 19.1982 11.4577 29.1190 0.0000 30.7027 0.0000
# 6 0.0000 0.0000 0.0000 6.3938 0.0000 20.3997
#
#
#
# Elastic Compliance Matrix: (Units=1/GPa)
#
#
# Indices 1 2 3 4 5 6 
#
# 1 0.208515 -0.043368 0.015591 0.000000 -0.128986 0.000000
# 2 -0.043368 0.073793 -0.030570 0.000000 0.028573 0.000000
# 3 0.015591 -0.030570 0.028156 0.000000 -0.025044 0.000000
# 4 0.000000 0.000000 0.000000 0.034524 0.000000 -0.010821
# 5 -0.128986 0.028573 -0.025044 0.000000 0.126313 0.000000
# 6 0.000000 0.000000 0.000000 -0.010821 0.000000 0.052412
#
#
# Mechanical properties :
#
#
# Convention : Reuss Voigt Hill
#
# Bulk Modulus (GPa) = 5.16079 30.76354 17.96216
# Shear Modulus (GPa) = 7.09223 21.28596 14.18910
#
# Velocity S-wave (km/s) = 1.92278 3.33107 2.71966
# Velocity P-wave (km/s) = 2.76037 5.55259 4.38469
#
# Compressibility (1/GPa) = 0.19376874
#
# Stress axis : x y z
#
# Youngs Moduli (GPa) = 4.79582 13.55146 35.51695
#
# Poissons Ratio (x) = 0.58770 -0.55375
# Poissons Ratio (y) = 0.20799 1.08577
# Poissons Ratio (z) = -0.07477 0.41427
#
# Static dielectric constant tensor:
#      x y z
#    x 1.692950 0.000000 -0.004690 
#    y 0.000000 1.629570 0.000000 
#    z -0.004690 0.000000 1.662970 
# 
# From -- ./inp_files/72205.got.cif
#   From: 2010.05.17/outbox.cif.g08.bks.cpg/sg11_37_cif.got.tgz:72205.got - 2010.06.03 12:22:45.
