data_PCOD9161802
_publ_section_title
;
Structure prediction by ZEFSAII (Michael W. Deem and Ramdas Pophale) SiO2 
 PCOD9161802
Probable space group: P 21/M
;
_chemical_formula_sum "Si O2"
_cell_formula_units_Z 32
_cell_length_a 26.185224
_cell_length_b 8.397622
_cell_length_c 19.609369
_cell_angle_alpha 90.000000
_cell_angle_beta 17.559033
_cell_angle_gamma 90.000000
_cell_volume 1300.872294
_symmetry_space_group_name_H-M "P 21/M"
_symmetry_group_IT_number 11
_symmetry_cell_setting 'monoclinic'
loop_
_space_group_symop_operation_xyz
x,y,z
-x,1/2+y,-z
-x,-y,-z
x,1/2-y,z
loop_
_atom_site_type_symbol
_atom_site_label
_atom_site_fract_x
_atom_site_fract_y
_atom_site_fract_z
Si Si1 0.739714 0.059775 0.126881
Si Si2 0.975122 0.937694 0.608992
Si Si3 0.249001 0.930448 0.737556
Si Si4 0.671273 0.940075 0.817023
Si Si5 0.359516 0.560597 0.889723
Si Si6 0.110478 0.930936 0.643164
Si Si7 0.154595 0.424651 0.724480
Si Si8 0.536873 0.059388 0.792558
O O1 0.719911 0.250000 0.157282
O O2 0.638041 0.996714 0.191125
O O3 0.936697 0.025243 0.858257
O O4 0.699501 0.998242 0.254280
O O5 0.055442 0.250000 0.354940
O O6 0.151330 0.975591 0.423447
O O7 0.820463 0.015495 0.846787
O O8 0.000000 0.000000 0.500000
O O9 0.315058 0.750000 0.644237
O O10 0.263591 0.038993 0.652569
O O11 0.044426 0.913761 0.003724
O O12 0.689142 0.750000 0.786262
O O13 0.624761 0.977397 0.955367
O O14 0.500000 0.000000 0.000000
O O15 0.370159 0.750000 0.872215
O O16 0.498077 0.500216 0.766594
O O17 0.084385 0.750000 0.652980
O O18 0.290808 0.002317 0.390620
O O19 0.151998 0.937607 0.671587
O O20 0.199842 0.250000 0.637995
O O21 0.554284 0.250000 0.770226
#
# Coordination Sequence:
#
# PCOD9161802 Si02
#       8
#     4   4   4   4   4   4   4   4
#     4   9  20  36  54  83 114 142 183 230 276 328
#     4  12  24  41  63  87 114 148 191 235 280 335
#     4   8  14  27  47  72 107 142 175 222 273 324
#     4  11  24  42  62  88 118 149 187 234 285 337
#     4  11  23  39  61  86 112 149 189 229 282 337
#     4  10  20  34  54  81 111 147 187 227 278 331
#     4   9  16  27  46  75 108 142 180 225 274 326
#     4  10  23  41  58  80 113 150 189 230 276 336
#
# _framework density 24.598879
#
# number of rings (size 3 to 8) (size 9 to 14) (size 15 to 20)
#    0.000    2.000    1.250    3.375    1.750    5.500 
#    0.000    0.000    0.000    0.750    0.000    0.000 
#    0.000    0.000    0.000    0.000    0.000    0.000 
#
# Total GULP energy -178828.511377 kJ/mol
# GULP energy per Si atom -5588.390981 kJ/mol
# Density = 2.454289 g / cm^3
# Si number density = 24.598879 Si / 1000 Ang^3
#
#
#
# Elastic Constant Matrix: (Units=GPa)
#
#
# Indices 1 2 3 4 5 6 
#
# 1 135.0880 2.4981 1.1086 0.0000 -20.7971 0.0000
# 2 2.4981 32.3863 -5.0551 0.0000 1.9713 0.0000
# 3 1.1086 -5.0551 68.0545 0.0000 -24.0866 0.0000
# 4 0.0000 0.0000 0.0000 27.4871 0.0000 -2.0890
# 5 -20.7971 1.9713 -24.0866 0.0000 36.7382 0.0000
# 6 0.0000 0.0000 0.0000 -2.0890 0.0000 26.9432
#
#
#
# Elastic Compliance Matrix: (Units=1/GPa)
#
#
# Indices 1 2 3 4 5 6 
#
# 1 0.008328 -0.000706 0.001945 0.000000 0.006027 0.000000
# 2 -0.000706 0.031300 0.002084 0.000000 -0.000712 0.000000
# 3 0.001945 0.002084 0.019750 0.000000 0.013938 0.000000
# 4 0.000000 0.000000 0.000000 0.036596 0.000000 0.002837
# 5 0.006027 -0.000712 0.013938 0.000000 0.039808 0.000000
# 6 0.000000 0.000000 0.000000 0.002837 0.000000 0.037335
#
#
# Mechanical properties :
#
#
# Convention : Reuss Voigt Hill
#
# Bulk Modulus (GPa) = 15.14549 25.84801 20.49675
# Shear Modulus (GPa) = 26.52815 34.03215 30.28015
#
# Velocity S-wave (km/s) = 3.28751 3.72356 3.51231
# Velocity P-wave (km/s) = 4.53659 5.38675 4.97985
#
# Compressibility (1/GPa) = 0.06602624
#
# Stress axis : x y z
#
# Youngs Moduli (GPa) = 120.08278 31.94846 50.63183
#
# Poissons Ratio (x) = 0.02254 -0.09849
# Poissons Ratio (y) = 0.08473 -0.10553
# Poissons Ratio (z) = -0.23358 -0.06659
#
# Static dielectric constant tensor:
#      x y z
#    x 2.033860 0.000000 0.039400 
#    y 0.000000 1.853300 0.000000 
#    z 0.039400 0.000000 2.026600 
# 
# From -- ./inp_files/67039.got.cif
#   From: 2010.05.17/outbox.cif.g08.bks.cpg/sg11_34_cif.got.tgz:67039.got - 2010.06.03 12:22:45.
