data_PCOD9161568
_publ_section_title
;
Structure prediction by ZEFSAII (Michael W. Deem and Ramdas Pophale) SiO2 
 PCOD9161568
Probable space group: P 21/M
;
_chemical_formula_sum "Si O2"
_cell_formula_units_Z 28
_cell_length_a 10.134543
_cell_length_b 9.001704
_cell_length_c 15.271470
_cell_angle_alpha 90.000000
_cell_angle_beta 65.651228
_cell_angle_gamma 90.000000
_cell_volume 1269.267669
_symmetry_space_group_name_H-M "P 21/M"
_symmetry_group_IT_number 11
_symmetry_cell_setting 'monoclinic'
loop_
_space_group_symop_operation_xyz
x,y,z
-x,1/2+y,-z
-x,-y,-z
x,1/2-y,z
loop_
_atom_site_type_symbol
_atom_site_label
_atom_site_fract_x
_atom_site_fract_y
_atom_site_fract_z
Si Si1 0.793758 0.916934 0.178761
Si Si2 0.961097 0.929997 0.417705
Si Si3 0.925328 0.079575 0.789444
Si Si4 0.506647 0.916586 0.906655
Si Si5 0.370048 0.072042 0.479439
Si Si6 0.538400 0.072048 0.721847
Si Si7 0.164815 0.582246 0.000447
O O1 0.769561 0.750000 0.152251
O O2 0.632593 0.966618 0.247341
O O3 0.905689 0.915306 0.227431
O O4 0.875857 0.000345 0.077973
O O5 0.974562 0.750000 0.417949
O O6 0.792311 0.963427 0.443801
O O7 0.065953 0.984582 0.310257
O O8 0.000000 0.000000 0.500000
O O9 0.870346 0.250000 0.797796
O O10 0.850301 0.014268 0.897360
O O11 0.567880 0.750000 0.895512
O O12 0.574126 0.010962 0.808933
O O13 0.335820 0.904047 0.934731
O O14 0.500000 0.000000 0.000000
O O15 0.387574 0.250000 0.475725
O O16 0.500000 0.000000 0.500000
O O17 0.378735 0.008950 0.378506
O O18 0.557654 0.250000 0.712223
O O19 0.103417 0.750000 0.021629
#
# Coordination Sequence:
#
# PCOD9161568 Si02
#       7
#     4   4   4   4   4   4   4
#     4   9  17  31  53  80 110 141 174 217 274 336
#     4  10  23  42  61  84 117 155 198 246 297 354
#     4   9  17  33  55  76 104 143 179 217 271 337
#     4  10  20  34  51  76 109 144 184 230 280 342
#     4  11  23  40  63  91 120 154 200 253 304 359
#     4  10  20  35  56  82 111 147 189 237 294 350
#     4   9  18  31  50  77 106 136 173 216 268 332
#
# _framework density 22.059964999999998
#
# number of rings (size 3 to 8) (size 9 to 14) (size 15 to 20)
#    0.000    2.286    0.000    2.571    0.000    5.714 
#    0.000    2.857    0.000    0.000    0.000    0.000 
#    0.000    0.000    0.000    0.000    0.000    0.000 
#
# Total GULP energy -156141.132248 kJ/mol
# GULP energy per Si atom -5576.469009 kJ/mol
# Density = 2.200976 g / cm^3
# Si number density = 22.059965 Si / 1000 Ang^3
#
#
#
# Elastic Constant Matrix: (Units=GPa)
#
#
# Indices 1 2 3 4 5 6 
#
# 1 36.3467 13.7629 16.4385 0.0000 2.1468 0.0000
# 2 13.7629 45.3668 34.6497 0.0000 5.8062 0.0000
# 3 16.4385 34.6497 172.2249 0.0000 8.9239 0.0000
# 4 0.0000 0.0000 0.0000 33.3026 0.0000 5.7182
# 5 2.1468 5.8062 8.9239 0.0000 40.2074 0.0000
# 6 0.0000 0.0000 0.0000 5.7182 0.0000 21.8174
#
#
#
# Elastic Compliance Matrix: (Units=1/GPa)
#
#
# Indices 1 2 3 4 5 6 
#
# 1 0.031319 -0.008512 -0.001269 0.000000 -0.000162 0.000000
# 2 -0.008512 0.028635 -0.004813 0.000000 -0.002612 0.000000
# 3 -0.001269 -0.004813 0.006936 0.000000 -0.000777 0.000000
# 4 0.000000 0.000000 0.000000 0.031443 0.000000 -0.008241
# 5 -0.000162 -0.002612 -0.000777 0.000000 0.025429 0.000000
# 6 0.000000 0.000000 0.000000 -0.008241 0.000000 0.047995
#
#
# Mechanical properties :
#
#
# Convention : Reuss Voigt Hill
#
# Bulk Modulus (GPa) = 26.52283 42.62675 34.57479
# Shear Modulus (GPa) = 23.41786 31.67130 27.54458
#
# Velocity S-wave (km/s) = 3.26169 3.79316 3.53742
# Velocity P-wave (km/s) = 5.12191 6.20880 5.69136
#
# Compressibility (1/GPa) = 0.03770337
#
# Stress axis : x y z
#
# Youngs Moduli (GPa) = 31.92943 34.92192 144.17400
#
# Poissons Ratio (x) = 0.29725 0.18289
# Poissons Ratio (y) = 0.27177 0.69396
# Poissons Ratio (z) = 0.04050 0.16809
#
# Static dielectric constant tensor:
#      x y z
#    x 1.930370 0.000000 -0.010430 
#    y 0.000000 1.765120 0.000000 
#    z -0.010430 0.000000 1.812440 
# 
# From -- ./inp_files/49135.got.cif
#   From: 2010.05.17/outbox.cif.g08.bks.cpg/sg11_25_cif.got.tgz:49135.got - 2010.06.03 12:22:45.
