data_PCOD9161516
_publ_section_title
;
Structure prediction by ZEFSAII (Michael W. Deem and Ramdas Pophale) SiO2 
 PCOD9161516
Probable space group: P 21/M
;
_chemical_formula_sum "Si O2"
_cell_formula_units_Z 32
_cell_length_a 22.276294
_cell_length_b 14.151580
_cell_length_c 16.541219
_cell_angle_alpha 90.000000
_cell_angle_beta 18.855786
_cell_angle_gamma 90.000000
_cell_volume 1685.270421
_symmetry_space_group_name_H-M "P 21/M"
_symmetry_group_IT_number 11
_symmetry_cell_setting 'monoclinic'
loop_
_space_group_symop_operation_xyz
x,y,z
-x,1/2+y,-z
-x,-y,-z
x,1/2-y,z
loop_
_atom_site_type_symbol
_atom_site_label
_atom_site_fract_x
_atom_site_fract_y
_atom_site_fract_z
Si Si1 0.958109 0.976888 0.460911
Si Si2 0.178734 0.642071 0.472968
Si Si3 0.562710 0.642391 0.196801
Si Si4 0.750463 0.042607 0.029904
Si Si5 0.455019 0.860472 0.572296
Si Si6 0.815264 0.513600 0.113594
Si Si7 0.124376 0.855025 0.735099
Si Si8 0.393316 0.140040 0.051325
O O1 0.766364 0.920191 0.703997
O O2 0.934478 0.072453 0.439485
O O3 0.000000 0.000000 0.500000
O O4 0.127776 0.923484 0.200347
O O5 0.159906 0.750000 0.468326
O O6 0.123651 0.642821 0.637721
O O7 0.396440 0.614203 0.192978
O O8 0.614750 0.750000 0.156939
O O9 0.649921 0.554534 0.132494
O O10 0.339419 0.635368 0.483949
O O11 0.618213 0.632441 0.031630
O O12 0.607768 0.114321 0.255298
O O13 0.880677 0.019230 0.941023
O O14 0.447974 0.750000 0.564921
O O15 0.657960 0.905462 0.303445
O O16 0.308212 0.921733 0.705354
O O17 0.986985 0.562314 0.938649
O O18 0.060630 0.750000 0.841825
O O19 0.368460 0.250000 0.102995
#
# Coordination Sequence:
#
# PCOD9161516 Si02
#       8
#     4   4   4   4   4   4   4   4
#     4  12  21  31  49  76 107 138 174 211 252 305
#     4   9  18  33  50  71  99 132 175 219 257 297
#     4   9  18  32  50  75 108 135 168 214 261 300
#     4  10  20  34  49  79 104 137 169 209 260 306
#     4   9  19  35  55  78 104 133 167 212 264 309
#     4   9  18  34  56  79  96 130 175 215 251 310
#     4   9  16  30  54  79 101 131 168 216 261 298
#     4   9  19  34  50  69  98 139 179 215 253 299
#
# _framework density 18.988050000000001
#
# number of rings (size 3 to 8) (size 9 to 14) (size 15 to 20)
#    0.750    1.750    2.500    2.250    0.000    2.500 
#    0.000    0.625    0.000    0.750    0.000    0.000 
#    0.000    0.000    0.000    0.000    0.000    0.000 
#
# Total GULP energy -178177.009997 kJ/mol
# GULP energy per Si atom -5568.031562 kJ/mol
# Density = 1.894483 g / cm^3
# Si number density = 18.988050 Si / 1000 Ang^3
#
#
#
# Elastic Constant Matrix: (Units=GPa)
#
#
# Indices 1 2 3 4 5 6 
#
# 1 38.7698 8.9609 2.8635 0.0000 15.9676 0.0000
# 2 8.9609 87.3151 18.4121 0.0000 -4.2553 0.0000
# 3 2.8635 18.4121 74.9109 0.0000 14.7398 0.0000
# 4 0.0000 0.0000 0.0000 18.0569 0.0000 -0.2544
# 5 15.9676 -4.2553 14.7398 0.0000 23.1330 0.0000
# 6 0.0000 0.0000 0.0000 -0.2544 0.0000 23.6224
#
#
#
# Elastic Compliance Matrix: (Units=1/GPa)
#
#
# Indices 1 2 3 4 5 6 
#
# 1 0.041011 -0.007333 0.006940 0.000000 -0.034079 0.000000
# 2 -0.007333 0.013855 -0.005285 0.000000 0.010978 0.000000
# 3 0.006940 -0.005285 0.017741 0.000000 -0.017067 0.000000
# 4 0.000000 0.000000 0.000000 0.055389 0.000000 0.000597
# 5 -0.034079 0.010978 -0.017067 0.000000 0.079645 0.000000
# 6 0.000000 0.000000 0.000000 0.000597 0.000000 0.042339
#
#
# Mechanical properties :
#
#
# Convention : Reuss Voigt Hill
#
# Bulk Modulus (GPa) = 16.32619 29.05209 22.68914
# Shear Modulus (GPa) = 17.74599 24.34642 21.04621
#
# Velocity S-wave (km/s) = 3.06042 3.58466 3.33286
# Velocity P-wave (km/s) = 4.59402 5.69794 5.17550
#
# Compressibility (1/GPa) = 0.06125126
#
# Stress axis : x y z
#
# Youngs Moduli (GPa) = 24.38351 72.17700 56.36638
#
# Poissons Ratio (x) = 0.52929 -0.39120
# Poissons Ratio (y) = 0.17881 0.29790
# Poissons Ratio (z) = -0.16923 0.38146
#
# Static dielectric constant tensor:
#      x y z
#    x 1.672520 0.000000 0.002510 
#    y 0.000000 1.662800 0.000000 
#    z 0.002510 0.000000 1.694930 
# 
# From -- ./inp_files/55002.got.cif
#   From: 2010.05.17/outbox.cif.g08.bks.cpg/sg11_28_cif.got.tgz:55002.got - 2010.06.03 12:22:45.
