data_PCOD9161592
_publ_section_title
;
Structure prediction by ZEFSAII (Michael W. Deem and Ramdas Pophale) SiO2 
 PCOD9161592
Probable space group: P 21/M
;
_chemical_formula_sum "Si O2"
_cell_formula_units_Z 32
_cell_length_a 17.223283
_cell_length_b 8.915367
_cell_length_c 26.401668
_cell_angle_alpha 90.000000
_cell_angle_beta 153.713225
_cell_angle_gamma 90.000000
_cell_volume 1795.383189
_symmetry_space_group_name_H-M "P 21/M"
_symmetry_group_IT_number 11
_symmetry_cell_setting 'monoclinic'
loop_
_space_group_symop_operation_xyz
x,y,z
-x,1/2+y,-z
-x,-y,-z
x,1/2-y,z
loop_
_atom_site_type_symbol
_atom_site_label
_atom_site_fract_x
_atom_site_fract_y
_atom_site_fract_z
Si Si1 0.428582 0.569787 0.534588
Si Si2 0.044360 0.071752 0.471204
Si Si3 0.570382 0.569964 0.834506
Si Si4 0.416410 0.920552 0.999166
Si Si5 0.397463 0.569293 0.633319
Si Si6 0.707787 0.920278 0.256007
Si Si7 0.851840 0.929805 0.082635
Si Si8 0.222240 0.429178 0.324578
O O1 0.404853 0.750000 0.518196
O O2 0.428107 0.524182 0.593141
O O3 0.280024 0.493299 0.413117
O O4 0.615238 0.534506 0.617717
O O5 0.053803 0.250000 0.479982
O O6 0.220642 0.005008 0.550893
O O7 0.000000 0.000000 0.500000
O O8 0.875798 0.018509 0.340802
O O9 0.553691 0.750000 0.830177
O O10 0.552076 0.533656 0.764249
O O11 0.403484 0.493586 0.763714
O O12 0.742183 0.525969 0.967540
O O13 0.359751 0.750000 0.954767
O O14 0.261703 0.011195 0.936187
O O15 0.572371 0.914639 0.131091
O O16 0.500000 0.000000 0.000000
O O17 0.376145 0.750000 0.621671
O O18 0.760986 0.750000 0.299964
O O19 0.862146 0.750000 0.089843
O O20 0.043696 0.999782 0.199489
O O21 0.204527 0.250000 0.317029
#
# Coordination Sequence:
#
# PCOD9161592 Si02
#       8
#     4   4   4   4   4   4   4   4
#     4   9  20  38  60  84 111 144 180 228 284 336
#     4  12  23  34  51  77 108 144 183 222 266 319
#     4   9  18  33  54  78 106 142 180 220 267 324
#     4  10  21  36  54  78 109 144 183 228 275 323
#     4  10  20  36  57  81 110 143 183 229 279 330
#     4  10  20  34  52  74 103 141 182 223 268 318
#     4  10  20  35  57  82 108 144 186 226 273 329
#     4  10  20  37  60  84 111 144 185 229 280 335
#
# _framework density 17.823492999999999
#
# number of rings (size 3 to 8) (size 9 to 14) (size 15 to 20)
#    0.000    2.000    1.250    2.625    0.000    4.000 
#    0.000    1.875    0.000    0.000    0.000    0.000 
#    0.000    0.000    0.000    0.000    0.000    0.000 
#
# Total GULP energy -178497.929945 kJ/mol
# GULP energy per Si atom -5578.060311 kJ/mol
# Density = 1.778293 g / cm^3
# Si number density = 17.823493 Si / 1000 Ang^3
#
#
#
# Elastic Constant Matrix: (Units=GPa)
#
#
# Indices 1 2 3 4 5 6 
#
# 1 111.0758 40.2505 61.6956 0.0000 -18.9158 0.0000
# 2 40.2505 56.0871 48.4299 0.0000 -3.7434 0.0000
# 3 61.6956 48.4299 128.4018 0.0000 0.8148 0.0000
# 4 0.0000 0.0000 0.0000 29.1756 0.0000 4.6634
# 5 -18.9158 -3.7434 0.8148 0.0000 21.1007 0.0000
# 6 0.0000 0.0000 0.0000 4.6634 0.0000 23.1302
#
#
#
# Elastic Compliance Matrix: (Units=1/GPa)
#
#
# Indices 1 2 3 4 5 6 
#
# 1 0.016948 -0.006073 -0.005944 0.000000 0.014345 0.000000
# 2 -0.006073 0.029172 -0.008085 0.000000 0.000044 0.000000
# 3 -0.005944 -0.008085 0.013740 0.000000 -0.007293 0.000000
# 4 0.000000 0.000000 0.000000 0.035417 0.000000 -0.007141
# 5 0.014345 0.000044 -0.007293 0.000000 0.060541 0.000000
# 6 0.000000 0.000000 0.000000 -0.007141 0.000000 0.044673
#
#
# Mechanical properties :
#
#
# Convention : Reuss Voigt Hill
#
# Bulk Modulus (GPa) = 50.87538 66.25740 58.56639
# Shear Modulus (GPa) = 20.22284 24.36055 22.29170
#
# Velocity S-wave (km/s) = 3.37206 3.70099 3.54035
# Velocity P-wave (km/s) = 6.61567 7.45104 7.04575
#
# Compressibility (1/GPa) = 0.01965587
#
# Stress axis : x y z
#
# Youngs Moduli (GPa) = 59.00509 34.27971 72.78133
#
# Poissons Ratio (x) = 0.20817 0.43259
# Poissons Ratio (y) = 0.35832 0.58846
# Poissons Ratio (z) = 0.35071 0.27716
#
# Static dielectric constant tensor:
#      x y z
#    x 1.594630 0.000000 -0.038780 
#    y 0.000000 1.610960 0.000000 
#    z -0.038780 0.000000 1.639660 
# 
# From -- ./inp_files/69112.got.cif
#   From: 2010.05.17/outbox.cif.g08.bks.cpg/sg11_35_cif.got.tgz:69112.got - 2010.06.03 12:22:45.
