data_PCOD9161210
_publ_section_title
;
Structure prediction by ZEFSAII (Michael W. Deem and Ramdas Pophale) SiO2 
 PCOD9161210
Probable space group: P 21/M
;
_chemical_formula_sum "Si O2"
_cell_formula_units_Z 28
_cell_length_a 15.698800
_cell_length_b 7.358556
_cell_length_c 10.885714
_cell_angle_alpha 90.000000
_cell_angle_beta 75.278924
_cell_angle_gamma 90.000000
_cell_volume 1216.244091
_symmetry_space_group_name_H-M "P 21/M"
_symmetry_group_IT_number 11
_symmetry_cell_setting 'monoclinic'
loop_
_space_group_symop_operation_xyz
x,y,z
-x,1/2+y,-z
-x,-y,-z
x,1/2-y,z
loop_
_atom_site_type_symbol
_atom_site_label
_atom_site_fract_x
_atom_site_fract_y
_atom_site_fract_z
Si Si1 0.881642 0.970639 0.138817
Si Si2 0.421170 0.028690 0.876128
Si Si3 0.076594 0.460243 0.146354
Si Si4 0.307154 0.471389 0.688316
Si Si5 0.095617 0.033030 0.409448
Si Si6 0.625078 0.541177 0.845651
Si Si7 0.279380 0.472205 0.431306
O O1 0.884784 0.750000 0.137101
O O2 0.791177 0.025493 0.235084
O O3 0.970532 0.031760 0.173572
O O4 0.887335 0.035891 0.995311
O O5 0.422823 0.250000 0.878810
O O6 0.375301 0.969673 0.767554
O O7 0.521441 0.965064 0.851357
O O8 0.369495 0.966356 0.017961
O O9 0.104674 0.250000 0.136865
O O10 0.102936 0.540092 0.267749
O O11 0.308744 0.250000 0.688934
O O12 0.322893 0.531238 0.542957
O O13 0.103963 0.250000 0.397510
O O14 0.177031 0.972928 0.462861
O O15 0.000000 0.000000 0.500000
O O16 0.655152 0.750000 0.843952
O O17 0.675966 0.462295 0.710751
O O18 0.284149 0.250000 0.429926
#
# Coordination Sequence:
#
# PCOD9161210 Si02
#       7
#     4   4   4   4   4   4   4
#     4   9  17  30  49  70  96 126 162 201 242 288
#     4   9  18  32  52  74  97 124 157 200 244 286
#     4   9  18  30  46  70  96 126 162 203 244 286
#     4   9  17  29  48  73  96 124 161 199 235 282
#     4  10  20  33  50  71  99 132 167 204 244 287
#     4   9  18  33  52  73  97 125 159 197 241 291
#     4   9  18  31  49  73  99 128 164 201 236 284
#
# _framework density 23.021695000000001
#
# number of rings (size 3 to 8) (size 9 to 14) (size 15 to 20)
#    0.000    2.857    0.000    0.857    2.000    2.286 
#    0.000    1.429    0.000    1.714    0.000    0.000 
#    0.000    0.000    0.000    0.000    0.000    0.000 
#
# Total GULP energy -156364.394914 kJ/mol
# GULP energy per Si atom -5584.442676 kJ/mol
# Density = 2.296930 g / cm^3
# Si number density = 23.021695 Si / 1000 Ang^3
#
#
#
# Elastic Constant Matrix: (Units=GPa)
#
#
# Indices 1 2 3 4 5 6 
#
# 1 58.8561 -7.6280 55.4886 0.0000 21.5911 0.0000
# 2 -7.6280 86.9571 1.5461 0.0000 3.4767 0.0000
# 3 55.4886 1.5461 130.8931 0.0000 27.0734 0.0000
# 4 0.0000 0.0000 0.0000 -2.7836 0.0000 -3.4796
# 5 21.5911 3.4767 27.0734 0.0000 44.3939 0.0000
# 6 0.0000 0.0000 0.0000 -3.4796 0.0000 14.3813
#
#
#
# Elastic Compliance Matrix: (Units=1/GPa)
#
#
# Indices 1 2 3 4 5 6 
#
# 1 0.031506 0.003310 -0.011641 0.000000 -0.008483 0.000000
# 2 0.003310 0.011884 -0.001165 0.000000 -0.001830 0.000000
# 3 -0.011641 -0.001165 0.013044 0.000000 -0.002202 0.000000
# 4 0.000000 0.000000 0.000000 -0.275821 0.000000 -0.066736
# 5 -0.008483 -0.001830 -0.002202 0.000000 0.028138 0.000000
# 6 0.000000 0.000000 0.000000 -0.066736 0.000000 0.053388
#
#
# Mechanical properties :
#
#
# Convention : Reuss Voigt Hill
#
# Bulk Modulus (GPa) = 26.70745 41.72440 34.21593
# Shear Modulus (GPa) = -46.99727 26.35163 -10.32282
#
# Velocity S-wave (km/s) = -4.52312 3.38693 -2.11983
# Velocity P-wave (km/s) = 3.95626 5.78432 2.98382
#
# Compressibility (1/GPa) = 0.03744273
#
# Stress axis : x y z
#
# Youngs Moduli (GPa) = 31.73968 84.14567 76.66490
#
# Poissons Ratio (x) = -0.27852 0.89243
# Poissons Ratio (y) = -0.10506 0.08932
# Poissons Ratio (z) = 0.36947 0.09803
#
# Static dielectric constant tensor:
#      x y z
#    x 1.805030 0.000000 0.013880 
#    y 0.000000 1.888770 0.000000 
#    z 0.013880 0.000000 1.865780 
# 
# From -- ./inp_files/21155.got.cif
#   From: 2010.05.17/outbox.cif.g08.bks.cpg/sg11_11_cif.got.tgz:21155.got - 2010.06.03 12:22:45.
