data_PCOD9161577
_publ_section_title
;
Structure prediction by ZEFSAII (Michael W. Deem and Ramdas Pophale) SiO2 
 PCOD9161577
Probable space group: P 21/M
;
_chemical_formula_sum "Si O2"
_cell_formula_units_Z 28
_cell_length_a 26.900818
_cell_length_b 7.565116
_cell_length_c 24.658594
_cell_angle_alpha 90.000000
_cell_angle_beta 163.784710
_cell_angle_gamma 90.000000
_cell_volume 1401.323694
_symmetry_space_group_name_H-M "P 21/M"
_symmetry_group_IT_number 11
_symmetry_cell_setting 'monoclinic'
loop_
_space_group_symop_operation_xyz
x,y,z
-x,1/2+y,-z
-x,-y,-z
x,1/2-y,z
loop_
_atom_site_type_symbol
_atom_site_label
_atom_site_fract_x
_atom_site_fract_y
_atom_site_fract_z
Si Si1 0.024309 0.037551 0.461940
Si Si2 0.467959 0.461044 0.403875
Si Si3 0.384457 0.039351 0.153370
Si Si4 0.129289 0.466134 0.981559
Si Si5 0.722984 0.466134 0.575255
Si Si6 0.586680 0.537551 0.149050
Si Si7 0.679645 0.462680 0.038938
O O1 0.026602 0.250000 0.459219
O O2 0.214196 0.966992 0.642590
O O3 0.864639 0.970232 0.257619
O O4 0.000000 0.000000 0.500000
O O5 0.500000 0.500000 0.500000
O O6 0.464696 0.250000 0.394087
O O7 0.628628 0.522661 0.532873
O O8 0.275621 0.522660 0.179865
O O9 0.388152 0.250000 0.164455
O O10 0.576895 0.976879 0.377167
O O11 0.223377 0.976879 0.023648
O O12 0.352348 0.002974 0.057042
O O13 0.122504 0.250000 0.974773
O O14 0.926150 0.526376 0.778448
O O15 0.729767 0.250000 0.582037
O O16 0.593988 0.750000 0.161371
O O17 0.500000 0.500000 0.000000
O O18 0.471660 0.470233 0.078680
O O19 0.681960 0.250000 0.045880
#
# Coordination Sequence:
#
# PCOD9161577 Si02
#       7
#     4   4   4   4   4   4   4
#     4  10  20  34  52  72  95 125 159 193 235 290
#     4   9  17  29  47  72 100 130 162 196 238 284
#     4   9  18  32  51  73  91 118 166 208 234 278
#     4   8  15  30  50  69  94 128 163 201 241 278
#     4   8  15  30  50  69  94 128 163 201 241 278
#     4  10  20  34  52  72  95 125 159 193 235 290
#     4  10  21  35  49  71 103 130 151 192 254 300
#
# _framework density 19.981107999999999
#
# number of rings (size 3 to 8) (size 9 to 14) (size 15 to 20)
#    0.000    2.857    1.429    1.714    0.000    2.857 
#    0.000    2.857    0.000    1.714    0.000    0.000 
#    0.000    0.000    0.000    0.000    0.000    0.000 
#
# Total GULP energy -156134.117567 kJ/mol
# GULP energy per Si atom -5576.218485 kJ/mol
# Density = 1.993563 g / cm^3
# Si number density = 19.981108 Si / 1000 Ang^3
#
#
#
# Elastic Constant Matrix: (Units=GPa)
#
#
# Indices 1 2 3 4 5 6 
#
# 1 195.8605 0.6261 161.1172 0.0000 -0.3573 0.0000
# 2 0.6261 43.3967 7.1749 0.0000 7.2398 0.0000
# 3 161.1172 7.1749 216.3878 0.0000 23.0609 0.0000
# 4 0.0000 0.0000 0.0000 10.7449 0.0000 -11.3710
# 5 -0.3573 7.2398 23.0609 0.0000 43.1012 0.0000
# 6 0.0000 0.0000 0.0000 -11.3710 0.0000 21.0300
#
#
#
# Elastic Compliance Matrix: (Units=1/GPa)
#
#
# Indices 1 2 3 4 5 6 
#
# 1 0.014652 0.000669 -0.011594 0.000000 0.006212 0.000000
# 2 0.000669 0.023768 -0.000913 0.000000 -0.003498 0.000000
# 3 -0.011594 -0.000913 0.014081 0.000000 -0.007477 0.000000
# 4 0.000000 0.000000 0.000000 0.217553 0.000000 0.117632
# 5 0.006212 -0.003498 -0.007477 0.000000 0.027841 0.000000
# 6 0.000000 0.000000 0.000000 0.117632 0.000000 0.111155
#
#
# Mechanical properties :
#
#
# Convention : Reuss Voigt Hill
#
# Bulk Modulus (GPa) = 34.69249 88.16459 61.42854
# Shear Modulus (GPa) = 11.30367 34.09034 22.69700
#
# Velocity S-wave (km/s) = 2.38106 4.13501 3.37400
# Velocity P-wave (km/s) = 4.99596 8.18642 6.78149
#
# Compressibility (1/GPa) = 0.02882469
#
# Stress axis : x y z
#
# Youngs Moduli (GPa) = 68.24964 42.07310 71.01822
#
# Poissons Ratio (x) = -0.02815 0.82337
# Poissons Ratio (y) = -0.04566 0.06487
# Poissons Ratio (z) = 0.79127 0.03843
#
# Static dielectric constant tensor:
#      x y z
#    x 1.686580 0.000000 0.017910 
#    y 0.000000 1.754940 0.000000 
#    z 0.017910 0.000000 1.702780 
# 
# From -- ./inp_files/61534.got.cif
#   From: 2010.05.17/outbox.cif.g08.bks.cpg/sg11_31_cif.got.tgz:61534.got - 2010.06.03 12:22:45.
