data_PCOD9161470
_publ_section_title
;
Structure prediction by ZEFSAII (Michael W. Deem and Ramdas Pophale) SiO2 
 PCOD9161470
Probable space group: P 21/M
;
_chemical_formula_sum "Si O2"
_cell_formula_units_Z 32
_cell_length_a 12.478368
_cell_length_b 8.889135
_cell_length_c 20.455524
_cell_angle_alpha 90.000000
_cell_angle_beta 126.140321
_cell_angle_gamma 90.000000
_cell_volume 1832.359952
_symmetry_space_group_name_H-M "P 21/M"
_symmetry_group_IT_number 11
_symmetry_cell_setting 'monoclinic'
loop_
_space_group_symop_operation_xyz
x,y,z
-x,1/2+y,-z
-x,-y,-z
x,1/2-y,z
loop_
_atom_site_type_symbol
_atom_site_label
_atom_site_fract_x
_atom_site_fract_y
_atom_site_fract_z
Si Si1 0.398851 0.571667 0.129311
Si Si2 0.361054 0.070556 0.472942
Si Si3 0.616389 0.070589 0.382161
Si Si4 0.357566 0.570422 0.966285
Si Si5 0.315804 0.569910 0.738980
Si Si6 0.851253 0.570581 0.208961
Si Si7 0.862929 0.568623 0.713314
Si Si8 0.683301 0.569877 0.770127
O O1 0.422499 0.750000 0.144123
O O2 0.336162 0.544038 0.035822
O O3 0.540598 0.487871 0.184782
O O4 0.313335 0.512914 0.159420
O O5 0.373912 0.250000 0.475721
O O6 0.244185 0.028247 0.380944
O O7 0.500000 0.000000 0.500000
O O8 0.333737 0.015067 0.536431
O O9 0.625350 0.250000 0.396355
O O10 0.688803 0.034548 0.339967
O O11 0.460470 0.035266 0.313827
O O12 0.360597 0.750000 0.955917
O O13 0.500000 0.500000 0.000000
O O14 0.246428 0.495750 0.881459
O O15 0.310332 0.750000 0.744455
O O16 0.204410 0.492461 0.742464
O O17 0.844901 0.750000 0.206340
O O18 0.998846 0.512277 0.248945
O O19 0.881372 0.750000 0.718092
O O20 0.796922 0.530639 0.759418
O O21 0.685035 0.750000 0.781555
#
# Coordination Sequence:
#
# PCOD9161470 Si02
#       8
#     4   4   4   4   4   4   4   4
#     4  10  20  33  55  88 117 142 187 240 281 332
#     4  11  21  35  58  86 116 150 191 238 284 337
#     4   9  18  34  56  86 115 144 188 236 284 336
#     4  11  22  37  59  86 117 152 190 237 285 337
#     4  10  20  36  58  81 114 155 188 229 287 344
#     4  12  25  39  58  86 116 149 194 241 288 344
#     4  10  22  41  59  80 115 157 195 230 285 350
#     4   9  18  35  57  81 114 153 189 229 284 343
#
# _framework density 17.463816999999999
#
# number of rings (size 3 to 8) (size 9 to 14) (size 15 to 20)
#    0.000    1.750    2.500    3.375    0.000    5.500 
#    0.000    1.250    0.000    0.000    0.000    0.000 
#    0.000    0.000    0.000    0.000    0.000    0.000 
#
# Total GULP energy -178709.498071 kJ/mol
# GULP energy per Si atom -5584.671815 kJ/mol
# Density = 1.742407 g / cm^3
# Si number density = 17.463817 Si / 1000 Ang^3
#
#
#
# Elastic Constant Matrix: (Units=GPa)
#
#
# Indices 1 2 3 4 5 6 
#
# 1 158.5377 74.7043 83.3061 0.0000 -10.4161 0.0000
# 2 74.7043 80.8831 63.7092 0.0000 -7.2016 0.0000
# 3 83.3061 63.7092 110.4995 0.0000 -8.1327 0.0000
# 4 0.0000 0.0000 0.0000 30.8125 0.0000 -3.7813
# 5 -10.4161 -7.2016 -8.1327 0.0000 27.1825 0.0000
# 6 0.0000 0.0000 0.0000 -3.7813 0.0000 31.0616
#
#
#
# Elastic Compliance Matrix: (Units=1/GPa)
#
#
# Indices 1 2 3 4 5 6 
#
# 1 0.012606 -0.007541 -0.005059 0.000000 0.001319 0.000000
# 2 -0.007541 0.027283 -0.009945 0.000000 0.001363 0.000000
# 3 -0.005059 -0.009945 0.018672 0.000000 0.001013 0.000000
# 4 0.000000 0.000000 0.000000 0.032947 0.000000 0.004011
# 5 0.001319 0.001363 0.001013 0.000000 0.037958 0.000000
# 6 0.000000 0.000000 0.000000 0.004011 0.000000 0.032682
#
#
# Mechanical properties :
#
#
# Convention : Reuss Voigt Hill
#
# Bulk Modulus (GPa) = 74.22828 88.15107 81.18967
# Shear Modulus (GPa) = 23.61534 26.35803 24.98669
#
# Velocity S-wave (km/s) = 3.68128 3.88918 3.78665
# Velocity P-wave (km/s) = 7.78880 8.41152 8.10614
#
# Compressibility (1/GPa) = 0.01347195
#
# Stress axis : x y z
#
# Youngs Moduli (GPa) = 79.32862 36.65324 53.55617
#
# Poissons Ratio (x) = 0.27639 0.27093
# Poissons Ratio (y) = 0.59819 0.53260
# Poissons Ratio (z) = 0.40131 0.36451
#
# Static dielectric constant tensor:
#      x y z
#    x 1.588770 0.000000 -0.025270 
#    y 0.000000 1.581540 0.000000 
#    z -0.025270 0.000000 1.576840 
# 
# From -- ./inp_files/64424.got.cif
#   From: 2010.05.17/outbox.cif.g08.bks.cpg/sg11_33_cif.got.tgz:64424.got - 2010.06.03 12:22:45.
