data_PCOD9161427
_publ_section_title
;
Structure prediction by ZEFSAII (Michael W. Deem and Ramdas Pophale) SiO2 
 PCOD9161427
Probable space group: P 21/M
;
_chemical_formula_sum "Si O2"
_cell_formula_units_Z 32
_cell_length_a 12.633331
_cell_length_b 8.298633
_cell_length_c 15.607907
_cell_angle_alpha 90.000000
_cell_angle_beta 91.772394
_cell_angle_gamma 90.000000
_cell_volume 1635.540402
_symmetry_space_group_name_H-M "P 21/M"
_symmetry_group_IT_number 11
_symmetry_cell_setting 'monoclinic'
loop_
_space_group_symop_operation_xyz
x,y,z
-x,1/2+y,-z
-x,-y,-z
x,1/2-y,z
loop_
_atom_site_type_symbol
_atom_site_label
_atom_site_fract_x
_atom_site_fract_y
_atom_site_fract_z
Si Si1 0.962706 0.555536 0.869989
Si Si2 0.831496 0.944968 0.031936
Si Si3 0.545285 0.443685 0.592713
Si Si4 0.401585 0.942260 0.745349
Si Si5 0.592998 0.558640 0.064586
Si Si6 0.775325 0.443850 0.552267
Si Si7 0.196776 0.553137 0.641852
Si Si8 0.040314 0.055487 0.321054
O O1 0.962609 0.750000 0.870871
O O2 0.882273 0.500797 0.942378
O O3 0.931456 0.501062 0.774329
O O4 0.081680 0.501124 0.896584
O O5 0.830168 0.750000 0.032486
O O6 0.711809 0.003880 0.044613
O O7 0.500000 0.500000 0.500000
O O8 0.539648 0.250000 0.596006
O O9 0.480842 0.513940 0.670549
O O10 0.667884 0.496068 0.596258
O O11 0.398378 0.750000 0.754141
O O12 0.285825 0.000550 0.710902
O O13 0.430274 0.014153 0.837700
O O14 0.597665 0.750000 0.056641
O O15 0.500000 0.500000 0.000000
O O16 0.774490 0.250000 0.549253
O O17 0.775432 0.500367 0.453763
O O18 0.877852 0.497930 0.606112
O O19 0.198355 0.750000 0.642418
O O20 0.078842 0.500805 0.661764
O O21 0.040267 0.250000 0.321929
#
# Coordination Sequence:
#
# PCOD9161427 Si02
#       8
#     4   4   4   4   4   4   4   4
#     4   9  18  34  56  83 112 146 187 234 287 345
#     4   9  19  36  58  82 112 146 188 238 287 342
#     4  11  22  39  61  86 117 154 198 247 293 348
#     4  11  22  40  65  89 115 153 196 247 304 356
#     4  11  24  41  59  86 121 158 199 246 296 353
#     4  10  21  37  54  77 114 153 189 236 289 339
#     4   9  18  35  56  80 113 150 189 236 291 345
#     4  10  20  33  53  82 114 148 191 233 281 347
#
# _framework density 19.565397999999998
#
# number of rings (size 3 to 8) (size 9 to 14) (size 15 to 20)
#    0.000    2.000    1.250    2.250    0.000    4.500 
#    0.000    2.500    0.000    0.000    0.000    0.000 
#    0.000    0.000    0.000    0.000    0.000    0.000 
#
# Total GULP energy -178701.641097 kJ/mol
# GULP energy per Si atom -5584.426284 kJ/mol
# Density = 1.952087 g / cm^3
# Si number density = 19.565398 Si / 1000 Ang^3
#
#
#
# Elastic Constant Matrix: (Units=GPa)
#
#
# Indices 1 2 3 4 5 6 
#
# 1 94.6126 11.2852 65.8214 0.0000 1.3242 0.0000
# 2 11.2852 14.3932 8.8874 0.0000 2.4594 0.0000
# 3 65.8214 8.8874 124.4220 0.0000 20.4381 0.0000
# 4 0.0000 0.0000 0.0000 25.2486 0.0000 7.4370
# 5 1.3242 2.4594 20.4381 0.0000 28.5887 0.0000
# 6 0.0000 0.0000 0.0000 7.4370 0.0000 27.0305
#
#
#
# Elastic Compliance Matrix: (Units=1/GPa)
#
#
# Indices 1 2 3 4 5 6 
#
# 1 0.018978 -0.009627 -0.010587 0.000000 0.007518 0.000000
# 2 -0.009627 0.077776 0.000638 0.000000 -0.006701 0.000000
# 3 -0.010587 0.000638 0.015320 0.000000 -0.010517 0.000000
# 4 0.000000 0.000000 0.000000 0.043099 0.000000 -0.011858
# 5 0.007518 -0.006701 -0.010517 0.000000 0.042726 0.000000
# 6 0.000000 0.000000 0.000000 -0.011858 0.000000 0.040258
#
#
# Mechanical properties :
#
#
# Convention : Reuss Voigt Hill
#
# Bulk Modulus (GPa) = 13.71325 45.04620 29.37973
# Shear Modulus (GPa) = 16.57746 26.00248 21.28997
#
# Velocity S-wave (km/s) = 2.91397 3.64951 3.30228
# Velocity P-wave (km/s) = 4.28320 6.38998 5.43956
#
# Compressibility (1/GPa) = 0.07292216
#
# Stress axis : x y z
#
# Youngs Moduli (GPa) = 52.69367 12.85739 65.27574
#
# Poissons Ratio (x) = 0.12378 0.69105
# Poissons Ratio (y) = 0.50729 -0.04166
# Poissons Ratio (z) = 0.55785 -0.00821
#
# Static dielectric constant tensor:
#      x y z
#    x 1.684040 0.000000 -0.018200 
#    y 0.000000 1.743360 0.000000 
#    z -0.018200 0.000000 1.676260 
# 
# From -- ./inp_files/38143.got.cif
#   From: 2010.05.17/outbox.cif.g08.bks.cpg/sg11_20_cif.got.tgz:38143.got - 2010.06.03 12:22:45.
