data_PCOD9161875
_publ_section_title
;
Structure prediction by ZEFSAII (Michael W. Deem and Ramdas Pophale) SiO2 
 PCOD9161875
Probable space group: P 21/M
;
_chemical_formula_sum "Si O2"
_cell_formula_units_Z 20
_cell_length_a 8.395265
_cell_length_b 9.325147
_cell_length_c 12.065565
_cell_angle_alpha 90.000000
_cell_angle_beta 97.216727
_cell_angle_gamma 90.000000
_cell_volume 937.094975
_symmetry_space_group_name_H-M "P 21/M"
_symmetry_group_IT_number 11
_symmetry_cell_setting 'monoclinic'
loop_
_space_group_symop_operation_xyz
x,y,z
-x,1/2+y,-z
-x,-y,-z
x,1/2-y,z
loop_
_atom_site_type_symbol
_atom_site_label
_atom_site_fract_x
_atom_site_fract_y
_atom_site_fract_z
Si Si1 0.232005 0.081999 0.939214
Si Si2 0.384787 0.580448 0.765417
Si Si3 0.163886 0.580116 0.544396
Si Si4 0.915533 0.584603 0.846219
Si Si5 0.674385 0.581592 0.630662
O O1 0.247337 0.250000 0.919520
O O2 0.363185 0.999000 0.879144
O O3 0.219379 0.060617 0.070391
O O4 0.060201 0.022591 0.881403
O O5 0.402635 0.750000 0.786991
O O6 0.227200 0.557563 0.674723
O O7 0.531488 0.535773 0.699648
O O8 0.145623 0.750000 0.526437
O O9 0.297563 0.516403 0.472905
O O10 0.000000 0.500000 0.500000
O O11 0.972722 0.750000 0.865627
O O12 0.834117 0.572781 0.720183
O O13 0.649984 0.750000 0.598798
#
# Coordination Sequence:
#
# PCOD9161875 Si02
#       5
#     4   4   4   4   4
#     4  10  20  34  55  82 109 140 180 221 260 311
#     4  10  22  38  55  78 110 144 175 216 270 319
#     4  11  23  38  57  81 108 139 178 221 265 315
#     4   9  19  36  56  79 108 141 178 221 266 311
#     4  10  21  38  58  79 107 142 178 218 267 318
#
# _framework density 21.342555000000001
#
# number of rings (size 3 to 8) (size 9 to 14) (size 15 to 20)
#    0.000    2.000    0.000    3.000    0.000    9.600 
#    0.000    0.000    0.000    0.000    0.000    0.000 
#    0.000    0.000    0.000    0.000    0.000    0.000 
#
# Total GULP energy -111812.830495 kJ/mol
# GULP energy per Si atom -5590.641525 kJ/mol
# Density = 2.129398 g / cm^3
# Si number density = 21.342555 Si / 1000 Ang^3
#
#
#
# Elastic Constant Matrix: (Units=GPa)
#
#
# Indices 1 2 3 4 5 6 
#
# 1 57.4287 8.9869 1.8176 0.0000 -16.7583 0.0000
# 2 8.9869 51.0133 44.6501 0.0000 -12.8393 0.0000
# 3 1.8176 44.6501 88.4698 0.0000 -23.8117 0.0000
# 4 0.0000 0.0000 0.0000 27.3414 0.0000 -14.5586
# 5 -16.7583 -12.8393 -23.8117 0.0000 36.1237 0.0000
# 6 0.0000 0.0000 0.0000 -14.5586 0.0000 31.6704
#
#
#
# Elastic Compliance Matrix: (Units=1/GPa)
#
#
# Indices 1 2 3 4 5 6 
#
# 1 0.021531 -0.005765 0.005597 0.000000 0.011629 0.000000
# 2 -0.005765 0.036686 -0.018973 0.000000 -0.002142 0.000000
# 3 0.005597 -0.018973 0.023885 0.000000 0.011598 0.000000
# 4 0.000000 0.000000 0.000000 0.048429 0.000000 0.022262
# 5 0.011629 -0.002142 0.011598 0.000000 0.039961 0.000000
# 6 0.000000 0.000000 0.000000 0.022262 0.000000 0.041809
#
#
# Mechanical properties :
#
#
# Convention : Reuss Voigt Hill
#
# Bulk Modulus (GPa) = 22.82047 34.20233 28.51140
# Shear Modulus (GPa) = 18.85435 28.45758 23.65597
#
# Velocity S-wave (km/s) = 2.97546 3.65550 3.33287
# Velocity P-wave (km/s) = 4.74554 5.82040 5.31024
#
# Compressibility (1/GPa) = 0.04382031
#
# Stress axis : x y z
#
# Youngs Moduli (GPa) = 46.44362 27.25845 41.86645
#
# Poissons Ratio (x) = 0.15716 -0.23434
# Poissons Ratio (y) = 0.26777 0.79434
# Poissons Ratio (z) = -0.25996 0.51718
#
# Static dielectric constant tensor:
#      x y z
#    x 1.830530 0.000000 -0.018710 
#    y 0.000000 1.737380 0.000000 
#    z -0.018710 0.000000 1.765390 
# 
# From -- ./inp_files/15888.got.cif
#   From: 2010.05.17/outbox.cif.g08.bks.cpg/sg11_8_cif.got.tgz:15888.got - 2010.06.03 12:22:45.
