data_PCOD9161499
_publ_section_title
;
Structure prediction by ZEFSAII (Michael W. Deem and Ramdas Pophale) SiO2 
 PCOD9161499
Probable space group: P 21/M
;
_chemical_formula_sum "Si O2"
_cell_formula_units_Z 24
_cell_length_a 15.581024
_cell_length_b 14.195982
_cell_length_c 5.520289
_cell_angle_alpha 90.000000
_cell_angle_beta 106.388210
_cell_angle_gamma 90.000000
_cell_volume 1171.413741
_symmetry_space_group_name_H-M "P 21/M"
_symmetry_group_IT_number 11
_symmetry_cell_setting 'monoclinic'
loop_
_space_group_symop_operation_xyz
x,y,z
-x,1/2+y,-z
-x,-y,-z
x,1/2-y,z
loop_
_atom_site_type_symbol
_atom_site_label
_atom_site_fract_x
_atom_site_fract_y
_atom_site_fract_z
Si Si1 0.508350 0.646182 0.577657
Si Si2 0.598602 0.991717 0.327713
Si Si3 0.688816 0.641811 0.013883
Si Si4 0.960094 0.043535 0.719819
Si Si5 0.777988 0.553181 0.687138
Si Si6 0.154077 0.250000 0.418989
Si Si7 0.038436 0.250000 0.819401
O O1 0.475945 0.750000 0.492088
O O2 0.446776 0.593172 0.723960
O O3 0.519278 0.576398 0.360512
O O4 0.610031 0.653656 0.751616
O O5 0.644156 0.934493 0.150743
O O6 0.683665 0.998674 0.574541
O O7 0.704141 0.750000 0.106680
O O8 0.774799 0.592654 0.959883
O O9 0.980875 0.154346 0.751739
O O10 0.856729 0.013464 0.661640
O O11 0.000000 0.000000 0.500000
O O12 0.000000 0.000000 0.000000
O O13 0.789929 0.652851 0.555875
O O14 0.099608 0.250000 0.625510
O O15 0.090767 0.250000 0.122865
#
# Coordination Sequence:
#
# PCOD9161499 Si02
#       7
#     4   4   4   4   4   2   2
#     4   9  19  38  56  83 118 156 201 241 307 377
#     4  10  21  35  59  86 117 155 196 256 310 366
#     4  10  20  33  59  89 117 151 201 255 308 366
#     4  12  25  44  68  96 130 172 216 262 325 389
#     4  11  24  37  59  95 121 155 207 267 315 374
#     4  12  24  40  70  98 125 164 218 269 330 372
#     4  12  24  46  68  94 127 174 216 265 324 390
#
# _framework density 20.488063
#
# number of rings (size 3 to 8) (size 9 to 14) (size 15 to 20)
#    0.000    1.333    4.167    1.000    7.000    0.000 
#    1.500    0.000    1.833    0.000    0.000    0.000 
#    0.000    0.000    0.000    0.000    0.000    0.000 
#
# Total GULP energy -133726.132075 kJ/mol
# GULP energy per Si atom -5571.922170 kJ/mol
# Density = 2.044143 g / cm^3
# Si number density = 20.488063 Si / 1000 Ang^3
#
#
#
# Elastic Constant Matrix: (Units=GPa)
#
#
# Indices 1 2 3 4 5 6 
#
# 1 111.5788 64.9620 25.6081 0.0000 -21.3786 0.0000
# 2 64.9620 142.4433 13.7547 0.0000 -10.2056 0.0000
# 3 25.6081 13.7547 62.9172 0.0000 -15.8995 0.0000
# 4 0.0000 0.0000 0.0000 22.8316 0.0000 -4.5068
# 5 -21.3786 -10.2056 -15.8995 0.0000 41.5938 0.0000
# 6 0.0000 0.0000 0.0000 -4.5068 0.0000 28.2816
#
#
#
# Elastic Compliance Matrix: (Units=1/GPa)
#
#
# Indices 1 2 3 4 5 6 
#
# 1 0.013891 -0.005697 -0.003274 0.000000 0.004491 0.000000
# 2 -0.005697 0.009571 0.000088 0.000000 -0.000546 0.000000
# 3 -0.003274 0.000088 0.018582 0.000000 0.005442 0.000000
# 4 0.000000 0.000000 0.000000 0.045221 0.000000 0.007206
# 5 0.004491 -0.000546 0.005442 0.000000 0.028296 0.000000
# 6 0.000000 0.000000 0.000000 0.007206 0.000000 0.036507
#
#
# Mechanical properties :
#
#
# Convention : Reuss Voigt Hill
#
# Bulk Modulus (GPa) = 41.18685 58.39876 49.79281
# Shear Modulus (GPa) = 28.10148 32.71570 30.40859
#
# Velocity S-wave (km/s) = 3.70753 4.00036 3.85672
# Velocity P-wave (km/s) = 6.20276 7.06419 6.64744
#
# Compressibility (1/GPa) = 0.02427959
#
# Stress axis : x y z
#
# Youngs Moduli (GPa) = 71.98954 104.48337 53.81489
#
# Poissons Ratio (x) = 0.59526 0.17616
# Poissons Ratio (y) = 0.41014 -0.00476
# Poissons Ratio (z) = 0.23566 -0.00924
#
# Static dielectric constant tensor:
#      x y z
#    x 1.755200 0.000000 -0.001160 
#    y 0.000000 1.770450 0.000000 
#    z -0.001160 0.000000 1.919400 
# 
# From -- ./inp_files/6417.got.cif
#   From: 2010.05.17/outbox.cif.g08.bks.cpg/sg11_4_cif.got.tgz:6417.got - 2010.06.03 12:22:45.
