data_PCOD9161739
_publ_section_title
;
Structure prediction by ZEFSAII (Michael W. Deem and Ramdas Pophale) SiO2 
 PCOD9161739
Probable space group: P 21/M
;
_chemical_formula_sum "Si O2"
_cell_formula_units_Z 20
_cell_length_a 7.004263
_cell_length_b 17.908553
_cell_length_c 8.572813
_cell_angle_alpha 90.000000
_cell_angle_beta 61.412243
_cell_angle_gamma 90.000000
_cell_volume 944.241253
_symmetry_space_group_name_H-M "P 21/M"
_symmetry_group_IT_number 11
_symmetry_cell_setting 'monoclinic'
loop_
_space_group_symop_operation_xyz
x,y,z
-x,1/2+y,-z
-x,-y,-z
x,1/2-y,z
loop_
_atom_site_type_symbol
_atom_site_label
_atom_site_fract_x
_atom_site_fract_y
_atom_site_fract_z
Si Si1 0.369395 0.160962 0.915290
Si Si2 0.822346 0.837698 0.328180
Si Si3 0.187903 0.582103 0.382711
Si Si4 0.594640 0.420048 0.403429
Si Si5 0.594368 0.555100 0.833457
O O1 0.387431 0.250000 0.914798
O O2 0.194252 0.141652 0.848828
O O3 0.596442 0.125678 0.765396
O O4 0.323741 0.125779 0.101781
O O5 0.868547 0.750000 0.322690
O O6 0.585083 0.857518 0.488179
O O7 0.991745 0.884233 0.362450
O O8 0.200548 0.593225 0.564680
O O9 0.227385 0.494975 0.325641
O O10 0.500000 0.500000 0.500000
O O11 0.594245 0.425471 0.217420
O O12 0.500000 0.500000 0.000000
#
# Coordination Sequence:
#
# PCOD9161739 Si02
#       5
#     4   4   4   4   4
#     4   9  18  33  51  73 104 137 170 212 260 308
#     4  10  20  34  54  78 102 134 174 213 256 306
#     4   9  18  34  55  75 101 136 175 214 255 304
#     4   9  19  35  54  76 101 132 172 213 254 302
#     4   9  18  33  53  76 102 135 170 207 255 307
#
# _framework density 21.181027
#
# number of rings (size 3 to 8) (size 9 to 14) (size 15 to 20)
#    0.000    2.800    0.000    1.800    0.000    5.600 
#    0.000    4.000    0.000    0.000    0.000    0.000 
#    0.000    0.000    0.000    0.000    0.000    0.000 
#
# Total GULP energy -111533.089027 kJ/mol
# GULP energy per Si atom -5576.654451 kJ/mol
# Density = 2.113282 g / cm^3
# Si number density = 21.181027 Si / 1000 Ang^3
#
#
#
# Elastic Constant Matrix: (Units=GPa)
#
#
# Indices 1 2 3 4 5 6 
#
# 1 143.6763 49.7336 54.8998 0.0000 50.7808 0.0000
# 2 49.7336 84.9471 32.7154 0.0000 32.5863 0.0000
# 3 54.8998 32.7154 103.3694 0.0000 56.6826 0.0000
# 4 0.0000 0.0000 0.0000 30.1482 0.0000 4.5381
# 5 50.7808 32.5863 56.6826 0.0000 47.7227 0.0000
# 6 0.0000 0.0000 0.0000 4.5381 0.0000 33.3993
#
#
#
# Elastic Compliance Matrix: (Units=1/GPa)
#
#
# Indices 1 2 3 4 5 6 
#
# 1 0.011685 -0.002682 0.001310 0.000000 -0.012159 0.000000
# 2 -0.002682 0.016823 0.002392 0.000000 -0.011475 0.000000
# 3 0.001310 0.002392 0.028338 0.000000 -0.036685 0.000000
# 4 0.000000 0.000000 0.000000 0.033862 0.000000 -0.004601
# 5 -0.012159 -0.011475 -0.036685 0.000000 0.085301 0.000000
# 6 0.000000 0.000000 0.000000 -0.004601 0.000000 0.030566
#
#
# Mechanical properties :
#
#
# Convention : Reuss Voigt Hill
#
# Bulk Modulus (GPa) = 16.98178 67.41004 42.19591
# Shear Modulus (GPa) = 22.30534 35.23030 28.76782
#
# Velocity S-wave (km/s) = 3.24864 4.08278 3.68936
# Velocity P-wave (km/s) = 4.70175 7.35664 6.17360
#
# Compressibility (1/GPa) = 0.05888665
#
# Stress axis : x y z
#
# Youngs Moduli (GPa) = 85.57866 59.44412 35.28873
#
# Poissons Ratio (x) = 0.15940 -0.04623
# Poissons Ratio (y) = 0.22948 -0.08442
# Poissons Ratio (z) = -0.11210 -0.14221
#
# Static dielectric constant tensor:
#      x y z
#    x 1.789530 0.000000 0.000980 
#    y 0.000000 1.769940 0.000000 
#    z 0.000980 0.000000 1.834950 
# 
# From -- ./inp_files/1877.got.cif
#   From: 2010.05.17/outbox.cif.g08.bks.cpg/sg11_1_cif.got.tgz:1877.got - 2010.06.03 12:22:45.
