data_PCOD9161818
_publ_section_title
;
Structure prediction by ZEFSAII (Michael W. Deem and Ramdas Pophale) SiO2 
 PCOD9161818
Probable space group: P 21/M
;
_chemical_formula_sum "Si O2"
_cell_formula_units_Z 28
_cell_length_a 11.969439
_cell_length_b 9.472636
_cell_length_c 12.959145
_cell_angle_alpha 90.000000
_cell_angle_beta 110.725394
_cell_angle_gamma 90.000000
_cell_volume 1374.250869
_symmetry_space_group_name_H-M "P 21/M"
_symmetry_group_IT_number 11
_symmetry_cell_setting 'monoclinic'
loop_
_space_group_symop_operation_xyz
x,y,z
-x,1/2+y,-z
-x,-y,-z
x,1/2-y,z
loop_
_atom_site_type_symbol
_atom_site_label
_atom_site_fract_x
_atom_site_fract_y
_atom_site_fract_z
Si Si1 0.381036 0.410506 0.466931
Si Si2 0.319728 0.090368 0.690519
Si Si3 0.169547 0.907588 0.352517
Si Si4 0.972733 0.582837 0.833162
Si Si5 0.111931 0.593887 0.568956
Si Si6 0.539662 0.080546 0.910035
Si Si7 0.813063 0.418316 0.948591
O O1 0.500000 0.500000 0.500000
O O2 0.396556 0.250000 0.436288
O O3 0.345183 0.404644 0.576141
O O4 0.281661 0.491893 0.367955
O O5 0.285946 0.250000 0.711184
O O6 0.440251 0.050311 0.790010
O O7 0.209275 0.984996 0.670336
O O8 0.176325 0.750000 0.309782
O O9 0.171313 0.889951 0.475610
O O10 0.053506 0.992689 0.277475
O O11 0.950954 0.750000 0.813231
O O12 0.879699 0.512270 0.884247
O O13 0.104786 0.563306 0.922716
O O14 0.079073 0.750000 0.597185
O O15 0.000000 0.500000 0.500000
O O16 0.539222 0.250000 0.927139
O O17 0.674965 0.043170 0.920864
O O18 0.500000 0.000000 0.000000
O O19 0.819336 0.250000 0.926057
#
# Coordination Sequence:
#
# PCOD9161818 Si02
#       7
#     4   4   4   4   4   4   4
#     4  10  20  34  54  83 114 147 184 226 279 340
#     4   9  20  38  57  80 114 151 189 233 284 337
#     4  10  21  36  54  79 111 147 185 228 281 341
#     4  10  20  35  57  87 115 146 191 241 292 348
#     4  10  21  37  58  83 112 149 190 233 284 339
#     4  10  22  40  60  84 114 155 199 243 293 347
#     4   9  20  38  58  80 114 153 190 237 297 352
#
# _framework density 20.374738000000001
#
# number of rings (size 3 to 8) (size 9 to 14) (size 15 to 20)
#    0.000    2.286    0.000    1.714    2.000    5.143 
#    0.000    2.857    0.000    0.000    0.000    0.000 
#    0.000    0.000    0.000    0.000    0.000    0.000 
#
# Total GULP energy -156175.621217 kJ/mol
# GULP energy per Si atom -5577.700758 kJ/mol
# Density = 2.032836 g / cm^3
# Si number density = 20.374738 Si / 1000 Ang^3
#
#
#
# Elastic Constant Matrix: (Units=GPa)
#
#
# Indices 1 2 3 4 5 6 
#
# 1 77.6602 49.5003 27.8256 0.0000 38.6656 0.0000
# 2 49.5003 144.3622 46.0566 0.0000 36.9719 0.0000
# 3 27.8256 46.0566 103.6089 0.0000 33.1385 0.0000
# 4 0.0000 0.0000 0.0000 30.7371 0.0000 3.3538
# 5 38.6656 36.9719 33.1385 0.0000 37.8660 0.0000
# 6 0.0000 0.0000 0.0000 3.3538 0.0000 29.8127
#
#
#
# Elastic Compliance Matrix: (Units=1/GPa)
#
#
# Indices 1 2 3 4 5 6 
#
# 1 0.027677 -0.003364 0.002848 0.000000 -0.027469 0.000000
# 2 -0.003364 0.009865 -0.002083 0.000000 -0.004375 0.000000
# 3 0.002848 -0.002083 0.014015 0.000000 -0.013140 0.000000
# 4 0.000000 0.000000 0.000000 0.032938 0.000000 -0.003705
# 5 -0.027469 -0.004375 -0.013140 0.000000 0.070230 0.000000
# 6 0.000000 0.000000 0.000000 -0.003705 0.000000 0.033960
#
#
# Mechanical properties :
#
#
# Convention : Reuss Voigt Hill
#
# Bulk Modulus (GPa) = 21.56989 63.59959 42.58474
# Shear Modulus (GPa) = 23.88517 33.16642 28.52580
#
# Velocity S-wave (km/s) = 3.42759 4.03900 3.74579
# Velocity P-wave (km/s) = 5.12582 7.28245 6.29715
#
# Compressibility (1/GPa) = 0.04636092
#
# Stress axis : x y z
#
# Youngs Moduli (GPa) = 36.13170 101.36550 71.34997
#
# Poissons Ratio (x) = 0.34095 -0.20321
# Poissons Ratio (y) = 0.12153 0.14860
# Poissons Ratio (z) = -0.10291 0.21111
#
# Static dielectric constant tensor:
#      x y z
#    x 1.742830 0.000000 -0.029930 
#    y 0.000000 1.752010 0.000000 
#    z -0.029930 0.000000 1.756910 
# 
# From -- ./inp_files/49450.got.cif
#   From: 2010.05.17/outbox.cif.g08.bks.cpg/sg11_25_cif.got.tgz:49450.got - 2010.06.03 12:22:45.
