data_PCOD9161167
_publ_section_title
;
Structure prediction by ZEFSAII (Michael W. Deem and Ramdas Pophale) SiO2 
 PCOD9161167
Probable space group: P 21/M
;
_chemical_formula_sum "Si O2"
_cell_formula_units_Z 30
_cell_length_a 20.642704
_cell_length_b 16.066429
_cell_length_c 20.390375
_cell_angle_alpha 90.000000
_cell_angle_beta 14.042089
_cell_angle_gamma 90.000000
_cell_volume 1640.831148
_symmetry_space_group_name_H-M "P 21/M"
_symmetry_group_IT_number 11
_symmetry_cell_setting 'monoclinic'
loop_
_space_group_symop_operation_xyz
x,y,z
-x,1/2+y,-z
-x,-y,-z
x,1/2-y,z
loop_
_atom_site_type_symbol
_atom_site_label
_atom_site_fract_x
_atom_site_fract_y
_atom_site_fract_z
Si Si1 0.914424 0.433422 0.528663
Si Si2 0.961134 0.250000 0.111556
Si Si3 0.458301 0.376978 0.598598
Si Si4 0.235603 0.654098 0.062370
Si Si5 0.405553 0.347426 0.089352
Si Si6 0.973896 0.847981 0.176082
Si Si7 0.536262 0.432792 0.372362
Si Si8 0.743265 0.918605 0.621661
O O1 0.825574 0.485961 0.553127
O O2 0.000000 0.500000 0.500000
O O3 0.167483 0.374329 0.274771
O O4 0.672369 0.383818 0.797282
O O5 0.724109 0.322752 0.349864
O O6 0.196566 0.322870 0.871994
O O7 0.459322 0.400890 0.520377
O O8 0.461184 0.467109 0.631639
O O9 0.318896 0.750000 0.990839
O O10 0.103957 0.647104 0.120307
O O11 0.005198 0.629460 0.340042
O O12 0.495216 0.597472 0.817594
O O13 0.420703 0.250000 0.081222
O O14 0.352849 0.384646 0.213259
O O15 0.947462 0.750000 0.184392
O O16 0.688183 0.892263 0.453897
O O17 0.177708 0.894262 0.927413
#
# Coordination Sequence:
#
# PCOD9161167 Si02
#       8
#     4   2   4   4   4   4   4   4
#     4  10  20  33  48  75 107 135 175 220 259 324
#     4  10  20  34  54  82 112 136 180 218 266 316
#     4  10  22  35  56  83 114 144 181 222 262 346
#     4  11  22  36  51  78 107 140 190 221 243 306
#     4  11  20  32  51  78 108 141 172 212 270 323
#     4  11  24  36  55  79 114 152 185 224 263 313
#     4  11  22  37  54  80 114 149 182 219 273 317
#     4  11  20  34  54  71 107 146 177 213 265 303
#
# _framework density 18.283417
#
# number of rings (size 3 to 8) (size 9 to 14) (size 15 to 20)
#    0.000    1.333    0.000    8.400    5.600    4.267 
#    0.000    0.000    0.000    0.000    0.000    0.000 
#  140.000    0.000    0.000    0.000    0.000    0.000 
#
# Total GULP energy -167037.186562 kJ/mol
# GULP energy per Si atom -5567.906219 kJ/mol
# Density = 1.824180 g / cm^3
# Si number density = 18.283417 Si / 1000 Ang^3
#
#
#
# Elastic Constant Matrix: (Units=GPa)
#
#
# Indices 1 2 3 4 5 6 
#
# 1 29.2625 18.7475 4.3134 0.0000 -1.6827 0.0000
# 2 18.7475 119.0527 40.1636 0.0000 -4.5653 0.0000
# 3 4.3134 40.1636 127.4310 0.0000 -10.8766 0.0000
# 4 0.0000 0.0000 0.0000 28.0001 0.0000 1.6030
# 5 -1.6827 -4.5653 -10.8766 0.0000 20.0861 0.0000
# 6 0.0000 0.0000 0.0000 1.6030 0.0000 16.8735
#
#
#
# Elastic Compliance Matrix: (Units=1/GPa)
#
#
# Indices 1 2 3 4 5 6 
#
# 1 0.038156 -0.006212 0.000858 0.000000 0.002249 0.000000
# 2 -0.006212 0.010416 -0.003056 0.000000 0.000192 0.000000
# 3 0.000858 -0.003056 0.009151 0.000000 0.004333 0.000000
# 4 0.000000 0.000000 0.000000 0.035909 0.000000 -0.003411
# 5 0.002249 0.000192 0.004333 0.000000 0.052364 0.000000
# 6 0.000000 0.000000 0.000000 -0.003411 0.000000 0.059589
#
#
# Mechanical properties :
#
#
# Convention : Reuss Voigt Hill
#
# Bulk Modulus (GPa) = 24.44752 44.68836 34.56794
# Shear Modulus (GPa) = 21.18285 27.16005 24.17145
#
# Velocity S-wave (km/s) = 3.40749 3.85840 3.63993
# Velocity P-wave (km/s) = 5.37417 6.65919 6.05089
#
# Compressibility (1/GPa) = 0.04090394
#
# Stress axis : x y z
#
# Youngs Moduli (GPa) = 26.20827 96.00365 109.27240
#
# Poissons Ratio (x) = 0.59635 -0.09379
# Poissons Ratio (y) = 0.16280 0.33397
# Poissons Ratio (z) = -0.02249 0.29342
#
# Static dielectric constant tensor:
#      x y z
#    x 1.649590 0.000000 -0.018530 
#    y 0.000000 1.630140 0.000000 
#    z -0.018530 0.000000 1.626990 
# 
# From -- ./inp_files/70224.got.cif
#   From: 2010.05.17/outbox.cif.g08.bks.cpg/sg11_36_cif.got.tgz:70224.got - 2010.06.03 12:22:45.
