data_PCOD9161464
_publ_section_title
;
Structure prediction by ZEFSAII (Michael W. Deem and Ramdas Pophale) SiO2 
 PCOD9161464
Probable space group: P 21/M
;
_chemical_formula_sum "Si O2"
_cell_formula_units_Z 24
_cell_length_a 9.461756
_cell_length_b 19.460881
_cell_length_c 8.333711
_cell_angle_alpha 90.000000
_cell_angle_beta 45.585186
_cell_angle_gamma 90.000000
_cell_volume 1096.095298
_symmetry_space_group_name_H-M "P 21/M"
_symmetry_group_IT_number 11
_symmetry_cell_setting 'monoclinic'
loop_
_space_group_symop_operation_xyz
x,y,z
-x,1/2+y,-z
-x,-y,-z
x,1/2-y,z
loop_
_atom_site_type_symbol
_atom_site_label
_atom_site_fract_x
_atom_site_fract_y
_atom_site_fract_z
Si Si1 0.240245 0.540482 0.636661
Si Si2 0.638371 0.670139 0.669796
Si Si3 0.206278 0.172573 0.816983
Si Si4 0.760821 0.538033 0.039994
Si Si5 0.738523 0.171301 0.203412
Si Si6 0.227602 0.473738 0.318447
O O1 0.298964 0.618804 0.622580
O O2 0.310739 0.509944 0.412482
O O3 0.000971 0.533922 0.833054
O O4 0.301886 0.501384 0.749713
O O5 0.673968 0.750000 0.691838
O O6 0.705793 0.663889 0.430150
O O7 0.402367 0.657665 0.837398
O O8 0.745233 0.608615 0.678403
O O9 0.242245 0.250000 0.843351
O O10 0.278935 0.117349 0.887197
O O11 0.969719 0.163305 0.980807
O O12 0.690968 0.511096 0.923840
O O13 0.701390 0.250000 0.279994
O O14 0.000000 0.500000 0.500000
#
# Coordination Sequence:
#
# PCOD9161464 Si02
#       6
#     4   4   4   4   4   4
#     4   9  17  33  55  77 113 146 179 233 278 322
#     4  10  20  36  58  83 111 147 188 231 280 330
#     4   9  17  33  58  81 107 148 187 229 282 328
#     4   9  17  31  54  81 110 144 184 226 274 334
#     4   9  19  34  58  83 106 147 193 229 279 338
#     4  10  20  33  55  85 115 147 186 230 276 338
#
# _framework density 21.895906
#
# number of rings (size 3 to 8) (size 9 to 14) (size 15 to 20)
#    0.000    2.667    1.667    0.000    2.333    1.333 
#    0.000    3.333    0.000    1.000    0.000    0.000 
#    0.000    0.000    0.000    0.000    0.000    0.000 
#
# Total GULP energy -133924.948201 kJ/mol
# GULP energy per Si atom -5580.206175 kJ/mol
# Density = 2.184607 g / cm^3
# Si number density = 21.895906 Si / 1000 Ang^3
#
#
#
# Elastic Constant Matrix: (Units=GPa)
#
#
# Indices 1 2 3 4 5 6 
#
# 1 98.6032 38.8468 27.7908 0.0000 7.3517 0.0000
# 2 38.8468 97.8610 13.7278 0.0000 16.3351 0.0000
# 3 27.7908 13.7278 91.5084 0.0000 17.7514 0.0000
# 4 0.0000 0.0000 0.0000 8.6586 0.0000 8.8002
# 5 7.3517 16.3351 17.7514 0.0000 41.8731 0.0000
# 6 0.0000 0.0000 0.0000 8.8002 0.0000 35.9603
#
#
#
# Elastic Compliance Matrix: (Units=1/GPa)
#
#
# Indices 1 2 3 4 5 6 
#
# 1 0.012926 -0.004830 -0.003406 0.000000 0.001059 0.000000
# 2 -0.004830 0.012801 0.000382 0.000000 -0.004308 0.000000
# 3 -0.003406 0.000382 0.012877 0.000000 -0.005010 0.000000
# 4 0.000000 0.000000 0.000000 0.153727 0.000000 -0.037620
# 5 0.001059 -0.004308 -0.005010 0.000000 0.027500 0.000000
# 6 0.000000 0.000000 0.000000 -0.037620 0.000000 0.037015
#
#
# Mechanical properties :
#
#
# Convention : Reuss Voigt Hill
#
# Bulk Modulus (GPa) = 43.67623 49.85592 46.76608
# Shear Modulus (GPa) = 17.84532 31.13889 24.49210
#
# Velocity S-wave (km/s) = 2.85793 3.77521 3.34813
# Velocity P-wave (km/s) = 5.55706 6.46698 6.02921
#
# Compressibility (1/GPa) = 0.02289575
#
# Stress axis : x y z
#
# Youngs Moduli (GPa) = 77.36603 78.11706 77.65789
#
# Poissons Ratio (x) = 0.37729 0.26453
# Poissons Ratio (y) = 0.37367 -0.02967
# Poissons Ratio (z) = 0.26353 -0.02985
#
# Static dielectric constant tensor:
#      x y z
#    x 1.847360 0.000000 -0.067200 
#    y 0.000000 1.834640 0.000000 
#    z -0.067200 0.000000 1.831630 
# 
# From -- ./inp_files/14209.got.cif
#   From: 2010.05.17/outbox.cif.g08.bks.cpg/sg11_8_cif.got.tgz:14209.got - 2010.06.03 12:22:45.
