data_PCOD9161247
_publ_section_title
;
Structure prediction by ZEFSAII (Michael W. Deem and Ramdas Pophale) SiO2 
 PCOD9161247
Probable space group: P 21/M
;
_chemical_formula_sum "Si O2"
_cell_formula_units_Z 28
_cell_length_a 8.101808
_cell_length_b 7.529663
_cell_length_c 17.015898
_cell_angle_alpha 90.000000
_cell_angle_beta 85.439548
_cell_angle_gamma 90.000000
_cell_volume 1034.749443
_symmetry_space_group_name_H-M "P 21/M"
_symmetry_group_IT_number 11
_symmetry_cell_setting 'monoclinic'
loop_
_space_group_symop_operation_xyz
x,y,z
-x,1/2+y,-z
-x,-y,-z
x,1/2-y,z
loop_
_atom_site_type_symbol
_atom_site_label
_atom_site_fract_x
_atom_site_fract_y
_atom_site_fract_z
Si Si1 0.277671 0.953004 0.484135
Si Si2 0.469004 0.968259 0.336827
Si Si3 0.977088 0.461055 0.384533
Si Si4 0.806098 0.961743 0.240816
Si Si5 0.383046 0.543793 0.900145
Si Si6 0.161882 0.963712 0.044213
Si Si7 0.282632 0.547832 0.196910
O O1 0.316086 0.750000 0.500725
O O2 0.426745 0.029780 0.426167
O O3 0.186939 0.034036 0.563211
O O4 0.130546 0.954352 0.423817
O O5 0.466471 0.750000 0.336632
O O6 0.644549 0.024846 0.295924
O O7 0.333178 0.033403 0.278401
O O8 0.986193 0.250000 0.398064
O O9 0.957005 0.491192 0.292501
O O10 0.803396 0.750000 0.233837
O O11 0.770751 0.032686 0.155492
O O12 0.427757 0.750000 0.905796
O O13 0.315256 0.472069 0.985088
O O14 0.537894 0.447139 0.854748
O O15 0.176951 0.750000 0.049720
O O16 0.168158 0.032915 0.133148
O O17 0.000000 0.000000 0.000000
O O18 0.228041 0.750000 0.214044
#
# Coordination Sequence:
#
# PCOD9161247 Si02
#       7
#     4   4   4   4   4   4   4
#     4   9  18  34  53  73 102 140 175 209 256 310
#     4   8  16  32  54  77  99 128 172 215 249 300
#     4  10  20  33  50  75 106 137 172 214 257 306
#     4  10  20  35  55  77 101 133 173 214 259 312
#     4  10  20  35  54  78 106 135 171 215 259 304
#     4  10  22  36  52  78 110 140 174 214 253 300
#     4   9  18  35  56  77 102 135 173 210 253 309
#
# _framework density 27.059688999999999
#
# number of rings (size 3 to 8) (size 9 to 14) (size 15 to 20)
#    0.000    2.571    0.000    2.571    0.000    4.000 
#    0.000    5.000    0.000    0.000    0.000    0.000 
#    0.000    0.000    0.000    0.000    0.000    0.000 
#
# Total GULP energy -156668.711476 kJ/mol
# GULP energy per Si atom -5595.311124 kJ/mol
# Density = 2.699810 g / cm^3
# Si number density = 27.059689 Si / 1000 Ang^3
#
#
#
# Elastic Constant Matrix: (Units=GPa)
#
#
# Indices 1 2 3 4 5 6 
#
# 1 79.0748 6.1407 13.4343 0.0000 15.0253 0.0000
# 2 6.1407 111.3800 4.1994 0.0000 3.6015 0.0000
# 3 13.4343 4.1994 177.2668 0.0000 19.7581 0.0000
# 4 0.0000 0.0000 0.0000 19.1459 0.0000 9.8550
# 5 15.0253 3.6015 19.7581 0.0000 62.9935 0.0000
# 6 0.0000 0.0000 0.0000 9.8550 0.0000 22.9442
#
#
#
# Elastic Compliance Matrix: (Units=1/GPa)
#
#
# Indices 1 2 3 4 5 6 
#
# 1 0.013367 -0.000617 -0.000670 0.000000 -0.002943 0.000000
# 2 -0.000617 0.009028 -0.000131 0.000000 -0.000328 0.000000
# 3 -0.000670 -0.000131 0.005882 0.000000 -0.001678 0.000000
# 4 0.000000 0.000000 0.000000 0.067056 0.000000 -0.028802
# 5 -0.002943 -0.000328 -0.001678 0.000000 0.017122 0.000000
# 6 0.000000 0.000000 0.000000 -0.028802 0.000000 0.055955
#
#
# Mechanical properties :
#
#
# Convention : Reuss Voigt Hill
#
# Bulk Modulus (GPa) = 39.30501 46.14114 42.72307
# Shear Modulus (GPa) = 27.82026 43.94654 35.88340
#
# Velocity S-wave (km/s) = 3.20989 4.03433 3.64549
# Velocity P-wave (km/s) = 5.31928 6.22814 5.79157
#
# Compressibility (1/GPa) = 0.02544205
#
# Stress axis : x y z
#
# Youngs Moduli (GPa) = 74.80992 110.76894 170.00736
#
# Poissons Ratio (x) = 0.06829 0.11398
# Poissons Ratio (y) = 0.04612 0.02220
# Poissons Ratio (z) = 0.05015 0.01446
#
# Static dielectric constant tensor:
#      x y z
#    x 2.233630 0.000000 -0.002890 
#    y 0.000000 1.903500 0.000000 
#    z -0.002890 0.000000 2.108730 
# 
# From -- ./inp_files/57525.got.cif
#   From: 2010.05.17/outbox.cif.g08.bks.cpg/sg11_29_cif.got.tgz:57525.got - 2010.06.03 12:22:45.
