data_PCOD9161313
_publ_section_title
;
Structure prediction by ZEFSAII (Michael W. Deem and Ramdas Pophale) SiO2 
 PCOD9161313
Probable space group: P 21/M
;
_chemical_formula_sum "Si O2"
_cell_formula_units_Z 28
_cell_length_a 28.156510
_cell_length_b 9.832458
_cell_length_c 5.520661
_cell_angle_alpha 90.000000
_cell_angle_beta 125.155834
_cell_angle_gamma 90.000000
_cell_volume 1249.588556
_symmetry_space_group_name_H-M "P 21/M"
_symmetry_group_IT_number 11
_symmetry_cell_setting 'monoclinic'
loop_
_space_group_symop_operation_xyz
x,y,z
-x,1/2+y,-z
-x,-y,-z
x,1/2-y,z
loop_
_atom_site_type_symbol
_atom_site_label
_atom_site_fract_x
_atom_site_fract_y
_atom_site_fract_z
Si Si1 0.587555 0.595371 0.724442
Si Si2 0.851542 0.099908 0.495126
Si Si3 0.913202 0.903298 0.372888
Si Si4 0.037899 0.605416 0.867094
Si Si5 0.321725 0.584773 0.239973
Si Si6 0.256862 0.587581 0.539925
Si Si7 0.468993 0.595980 0.102129
O O1 0.610042 0.750000 0.834368
O O2 0.621850 0.510863 0.620425
O O3 0.520696 0.613707 0.449081
O O4 0.583548 0.489787 0.936509
O O5 0.831076 0.250000 0.348795
O O6 0.809841 0.053839 0.590893
O O7 0.859144 0.988285 0.313043
O O8 0.916518 0.115477 0.784514
O O9 0.896692 0.750000 0.270456
O O10 0.969503 0.899249 0.719603
O O11 0.941227 0.979926 0.229420
O O12 0.045305 0.750000 0.746626
O O13 0.332828 0.750000 0.279808
O O14 0.285200 0.541439 0.370760
O O15 0.289183 0.555245 0.888649
O O16 0.258778 0.750000 0.521985
O O17 0.452696 0.750000 0.974809
O O18 0.500000 0.500000 0.000000
#
# Coordination Sequence:
#
# PCOD9161313 Si02
#       7
#     4   4   4   4   4   4   4
#     4  10  22  39  59  88 123 162 202 247 299 360
#     4  10  20  35  58  81 106 146 191 243 293 350
#     4  10  20  33  51  80 114 145 180 231 294 360
#     4   9  19  34  54  79 108 145 187 231 288 356
#     4  10  21  40  62  90 119 157 205 255 305 353
#     4   9  21  38  62  89 116 151 205 260 302 353
#     4  10  21  37  60  91 126 161 200 247 299 356
#
# _framework density 22.407374999999998
#
# number of rings (size 3 to 8) (size 9 to 14) (size 15 to 20)
#    0.000    2.286    0.000    1.714    4.000    2.857 
#    0.000    1.429    0.000    0.000    0.000    0.000 
#    0.000    0.000    0.000    0.000    0.000    0.000 
#
# Total GULP energy -155995.273481 kJ/mol
# GULP energy per Si atom -5571.259767 kJ/mol
# Density = 2.235638 g / cm^3
# Si number density = 22.407375 Si / 1000 Ang^3
#
#
#
# Elastic Constant Matrix: (Units=GPa)
#
#
# Indices 1 2 3 4 5 6 
#
# 1 136.8398 82.6019 12.4659 0.0000 -37.7038 0.0000
# 2 82.6019 182.2723 15.9075 0.0000 -25.5214 0.0000
# 3 12.4659 15.9075 36.6777 0.0000 -5.3674 0.0000
# 4 0.0000 0.0000 0.0000 14.9651 0.0000 -4.5498
# 5 -37.7038 -25.5214 -5.3674 0.0000 31.3994 0.0000
# 6 0.0000 0.0000 0.0000 -4.5498 0.0000 28.4293
#
#
#
# Elastic Compliance Matrix: (Units=1/GPa)
#
#
# Indices 1 2 3 4 5 6 
#
# 1 0.013387 -0.004243 -0.000884 0.000000 0.012475 0.000000
# 2 -0.004243 0.007682 -0.001766 0.000000 0.000847 0.000000
# 3 -0.000884 -0.001766 0.028683 0.000000 0.002406 0.000000
# 4 0.000000 0.000000 0.000000 0.070240 0.000000 0.011241
# 5 0.012475 0.000847 0.002406 0.000000 0.047927 0.000000
# 6 0.000000 0.000000 0.000000 0.011241 0.000000 0.036974
#
#
# Mechanical properties :
#
#
# Convention : Reuss Voigt Hill
#
# Bulk Modulus (GPa) = 27.80376 64.19339 45.99857
# Shear Modulus (GPa) = 21.67636 31.27972 26.47804
#
# Velocity S-wave (km/s) = 3.11364 3.74030 3.44127
# Velocity P-wave (km/s) = 5.03603 6.88213 6.03014
#
# Compressibility (1/GPa) = 0.03596636
#
# Stress axis : x y z
#
# Youngs Moduli (GPa) = 74.70140 130.17916 34.86388
#
# Poissons Ratio (x) = 0.55231 0.03083
# Poissons Ratio (y) = 0.31693 0.06156
# Poissons Ratio (z) = 0.06605 0.22985
#
# Static dielectric constant tensor:
#      x y z
#    x 1.853900 0.000000 0.033940 
#    y 0.000000 1.881740 0.000000 
#    z 0.033940 0.000000 1.962400 
# 
# From -- ./inp_files/9705.got.cif
#   From: 2010.05.17/outbox.cif.g08.bks.cpg/sg11_5_cif.got.tgz:9705.got - 2010.06.03 12:22:45.
