data_PCOD9161211
_publ_section_title
;
Structure prediction by ZEFSAII (Michael W. Deem and Ramdas Pophale) SiO2 
 PCOD9161211
Probable space group: P 21/M
;
_chemical_formula_sum "Si O2"
_cell_formula_units_Z 32
_cell_length_a 17.588300
_cell_length_b 18.431676
_cell_length_c 18.083664
_cell_angle_alpha 90.000000
_cell_angle_beta 16.002313
_cell_angle_gamma 90.000000
_cell_volume 1616.122713
_symmetry_space_group_name_H-M "P 21/M"
_symmetry_group_IT_number 11
_symmetry_cell_setting 'monoclinic'
loop_
_space_group_symop_operation_xyz
x,y,z
-x,1/2+y,-z
-x,-y,-z
x,1/2-y,z
loop_
_atom_site_type_symbol
_atom_site_label
_atom_site_fract_x
_atom_site_fract_y
_atom_site_fract_z
Si Si1 0.210910 0.417625 0.225646
Si Si2 0.253527 0.393317 0.013447
Si Si3 0.195285 0.666432 0.049225
Si Si4 0.228505 0.525755 0.935450
Si Si5 0.771442 0.666903 0.572300
Si Si6 0.678136 0.165718 0.499220
Si Si7 0.655896 0.027772 0.426410
Si Si8 0.220143 0.587835 0.252369
O O1 0.238964 0.504770 0.207298
O O2 0.914539 0.404509 0.539853
O O3 0.245319 0.392537 0.109456
O O4 0.466190 0.384777 0.034477
O O5 0.228816 0.476939 0.009370
O O6 0.511329 0.360796 0.727808
O O7 0.994629 0.349351 0.223515
O O8 0.249682 0.750000 0.976869
O O9 0.179352 0.609113 0.998970
O O10 0.455964 0.642670 0.857000
O O11 0.914518 0.664630 0.358012
O O12 0.516946 0.514786 0.624829
O O13 0.978496 0.491683 0.121886
O O14 0.765114 0.750000 0.604216
O O15 0.988586 0.624463 0.418856
O O16 0.625176 0.250000 0.533572
O O17 0.613769 0.111553 0.490727
O O18 0.500000 0.000000 0.500000
#
# Coordination Sequence:
#
# PCOD9161211 Si02
#       8
#     4   4   4   4   4   4   4   4
#     4  10  20  33  50  74 101 133 179 231 277 319
#     4  10  20  35  57  80 105 141 186 229 273 321
#     4  10  20  34  54  80 108 139 179 224 269 318
#     4  10  20  35  58  83 109 141 176 218 261 313
#     4  10  20  34  51  71 101 141 179 217 269 330
#     4  10  21  38  58  82 111 143 182 224 270 326
#     4  10  21  38  60  85 113 144 177 213 259 321
#     4  10  20  33  50  72 102 137 178 229 278 327
#
# _framework density 19.800476
#
# number of rings (size 3 to 8) (size 9 to 14) (size 15 to 20)
#    0.000    2.000    0.000    3.750    0.000    4.000 
#    0.000    5.000    0.000    0.000    0.000    0.000 
#    0.000    0.000    0.000    0.000    0.000    0.000 
#
# Total GULP energy -178470.749772 kJ/mol
# GULP energy per Si atom -5577.210930 kJ/mol
# Density = 1.975541 g / cm^3
# Si number density = 19.800476 Si / 1000 Ang^3
#
#
#
# Elastic Constant Matrix: (Units=GPa)
#
#
# Indices 1 2 3 4 5 6 
#
# 1 43.0757 30.1978 1.6779 0.0000 6.0088 0.0000
# 2 30.1978 80.2448 0.5000 0.0000 7.7031 0.0000
# 3 1.6779 0.5000 53.2803 0.0000 -5.5939 0.0000
# 4 0.0000 0.0000 0.0000 18.4663 0.0000 -4.5652
# 5 6.0088 7.7031 -5.5939 0.0000 20.8404 0.0000
# 6 0.0000 0.0000 0.0000 -4.5652 0.0000 16.4943
#
#
#
# Elastic Compliance Matrix: (Units=1/GPa)
#
#
# Indices 1 2 3 4 5 6 
#
# 1 0.032131 -0.011566 -0.001469 0.000000 -0.005383 0.000000
# 2 -0.011566 0.017105 -0.000113 0.000000 -0.003018 0.000000
# 3 -0.001469 -0.000113 0.019412 0.000000 0.005676 0.000000
# 4 0.000000 0.000000 0.000000 0.058130 0.000000 0.016089
# 5 -0.005383 -0.003018 0.005676 0.000000 0.052175 0.000000
# 6 0.000000 0.000000 0.000000 0.016089 0.000000 0.065080
#
#
# Mechanical properties :
#
#
# Convention : Reuss Voigt Hill
#
# Bulk Modulus (GPa) = 23.61110 26.81691 25.21401
# Shear Modulus (GPa) = 17.57808 20.77521 19.17665
#
# Velocity S-wave (km/s) = 2.98276 3.24269 3.11544
# Velocity P-wave (km/s) = 4.87985 5.25291 5.06981
#
# Compressibility (1/GPa) = 0.04235296
#
# Stress axis : x y z
#
# Youngs Moduli (GPa) = 31.12243 58.46348 51.51488
#
# Poissons Ratio (x) = 0.67617 0.07565
# Poissons Ratio (y) = 0.35995 0.00583
# Poissons Ratio (z) = 0.04570 0.00662
#
# Static dielectric constant tensor:
#      x y z
#    x 1.707430 0.000000 0.003420 
#    y 0.000000 1.699700 0.000000 
#    z 0.003420 0.000000 1.694840 
# 
# From -- ./inp_files/52702.got.cif
#   From: 2010.05.17/outbox.cif.g08.bks.cpg/sg11_27_cif.got.tgz:52702.got - 2010.06.03 12:22:45.
