data_PCOD9161717
_publ_section_title
;
Structure prediction by ZEFSAII (Michael W. Deem and Ramdas Pophale) SiO2 
 PCOD9161717
Probable space group: P 21/M
;
_chemical_formula_sum "Si O2"
_cell_formula_units_Z 32
_cell_length_a 25.651581
_cell_length_b 8.702766
_cell_length_c 20.655400
_cell_angle_alpha 90.000000
_cell_angle_beta 156.657014
_cell_angle_gamma 90.000000
_cell_volume 1827.078843
_symmetry_space_group_name_H-M "P 21/M"
_symmetry_group_IT_number 11
_symmetry_cell_setting 'monoclinic'
loop_
_space_group_symop_operation_xyz
x,y,z
-x,1/2+y,-z
-x,-y,-z
x,1/2-y,z
loop_
_atom_site_type_symbol
_atom_site_label
_atom_site_fract_x
_atom_site_fract_y
_atom_site_fract_z
Si Si1 0.356883 0.433751 0.062202
Si Si2 0.860805 0.564409 0.079397
Si Si3 0.853422 0.565820 0.565480
Si Si4 0.393730 0.435344 0.466422
Si Si5 0.678740 0.564493 0.756334
Si Si6 0.676690 0.066119 0.255997
Si Si7 0.607605 0.433625 0.033089
Si Si8 0.361337 0.064447 0.573393
O O1 0.366253 0.250000 0.072697
O O2 0.497289 0.501257 0.243911
O O3 0.244343 0.478541 0.984897
O O4 0.329677 0.493347 0.958985
O O5 0.873052 0.750000 0.093731
O O6 0.001292 0.491539 0.253097
O O7 0.796865 0.516591 0.937855
O O8 0.850879 0.750000 0.559301
O O9 0.797047 0.497924 0.434480
O O10 0.751958 0.515057 0.506276
O O11 0.401288 0.250000 0.474638
O O12 0.541090 0.500104 0.626560
O O13 0.315097 0.482498 0.312039
O O14 0.337340 0.483127 0.471565
O O15 0.671661 0.750000 0.750911
O O16 0.669536 0.250000 0.253907
O O17 0.678347 0.027472 0.181550
O O18 0.541786 0.994674 0.130237
O O19 0.603525 0.250000 0.021721
O O20 0.367314 0.250000 0.582426
#
# Coordination Sequence:
#
# PCOD9161717 Si02
#       8
#     4   4   4   4   4   4   4   4
#     4  11  21  34  56  83 109 142 183 228 272 320
#     4  10  22  38  54  77 111 147 185 226 272 329
#     4  11  23  37  55  79 110 147 185 226 273 327
#     4   9  17  30  53  80 107 139 175 224 277 320
#     4   9  17  32  52  77 108 141 179 221 270 325
#     4  10  20  35  56  81 111 145 179 220 270 321
#     4  10  20  34  55  84 113 140 177 224 270 320
#     4  10  20  34  53  81 111 139 179 229 274 322
#
# _framework density 17.514296999999999
#
# number of rings (size 3 to 8) (size 9 to 14) (size 15 to 20)
#    0.000    2.000    2.500    1.500    0.000    3.500 
#    0.000    1.250    0.000    0.000    0.000    0.000 
#    0.000    0.000    0.000    0.000    0.000    0.000 
#
# Total GULP energy -178575.694041 kJ/mol
# GULP energy per Si atom -5580.490439 kJ/mol
# Density = 1.747443 g / cm^3
# Si number density = 17.514297 Si / 1000 Ang^3
#
#
#
# Elastic Constant Matrix: (Units=GPa)
#
#
# Indices 1 2 3 4 5 6 
#
# 1 117.7702 29.1331 74.0548 0.0000 -15.6388 0.0000
# 2 29.1331 16.5789 27.4141 0.0000 -2.8531 0.0000
# 3 74.0548 27.4141 143.2659 0.0000 -15.3751 0.0000
# 4 0.0000 0.0000 0.0000 28.3315 0.0000 0.8389
# 5 -15.6388 -2.8531 -15.3751 0.0000 29.4290 0.0000
# 6 0.0000 0.0000 0.0000 0.8389 0.0000 21.1874
#
#
#
# Elastic Compliance Matrix: (Units=1/GPa)
#
#
# Indices 1 2 3 4 5 6 
#
# 1 0.017379 -0.022983 -0.004061 0.000000 0.004885 0.000000
# 2 -0.022983 0.118633 -0.011544 0.000000 -0.006743 0.000000
# 3 -0.004061 -0.011544 0.011586 0.000000 0.002776 0.000000
# 4 0.000000 0.000000 0.000000 0.035338 0.000000 -0.001399
# 5 0.004885 -0.006743 0.002776 0.000000 0.037373 0.000000
# 6 0.000000 0.000000 0.000000 -0.001399 0.000000 0.047253
#
#
# Mechanical properties :
#
#
# Convention : Reuss Voigt Hill
#
# Bulk Modulus (GPa) = 14.20021 59.86879 37.03450
# Shear Modulus (GPa) = 13.57911 25.59043 19.58477
#
# Velocity S-wave (km/s) = 2.78747 3.82660 3.34760
# Velocity P-wave (km/s) = 4.29946 7.33354 6.01108
#
# Compressibility (1/GPa) = 0.07042147
#
# Stress axis : x y z
#
# Youngs Moduli (GPa) = 57.54123 8.42934 86.30992
#
# Poissons Ratio (x) = 0.19373 0.35051
# Poissons Ratio (y) = 1.32247 0.99639
# Poissons Ratio (z) = 0.23368 0.09731
#
# Static dielectric constant tensor:
#      x y z
#    x 1.611810 0.000000 -0.036800 
#    y 0.000000 1.586820 0.000000 
#    z -0.036800 0.000000 1.569660 
# 
# From -- ./inp_files/67234.got.cif
#   From: 2010.05.17/outbox.cif.g08.bks.cpg/sg11_34_cif.got.tgz:67234.got - 2010.06.03 12:22:45.
