data_PCOD9161183
_publ_section_title
;
Structure prediction by ZEFSAII (Michael W. Deem and Ramdas Pophale) SiO2 
 PCOD9161183
Probable space group: P 21/M
;
_chemical_formula_sum "Si O2"
_cell_formula_units_Z 32
_cell_length_a 20.823881
_cell_length_b 8.122971
_cell_length_c 26.095134
_cell_angle_alpha 90.000000
_cell_angle_beta 158.483518
_cell_angle_gamma 90.000000
_cell_volume 1618.931835
_symmetry_space_group_name_H-M "P 21/M"
_symmetry_group_IT_number 11
_symmetry_cell_setting 'monoclinic'
loop_
_space_group_symop_operation_xyz
x,y,z
-x,1/2+y,-z
-x,-y,-z
x,1/2-y,z
loop_
_atom_site_type_symbol
_atom_site_label
_atom_site_fract_x
_atom_site_fract_y
_atom_site_fract_z
Si Si1 0.727393 0.948971 0.985826
Si Si2 0.754855 0.563268 0.222100
Si Si3 0.635140 0.449162 0.645238
Si Si4 0.377566 0.550915 0.247523
Si Si5 0.919364 0.566593 0.492693
Si Si6 0.416506 0.443315 0.015713
Si Si7 0.036477 0.448214 0.930419
Si Si8 0.602896 0.557088 0.321851
O O1 0.707663 0.750000 0.966415
O O2 0.713465 0.990930 0.035169
O O3 0.562979 0.037208 0.838065
O O4 0.892173 0.994083 0.073164
O O5 0.820873 0.750000 0.275032
O O6 0.600552 0.536817 0.148875
O O7 0.911772 0.439197 0.345977
O O8 0.673275 0.537806 0.105762
O O9 0.500000 0.500000 0.500000
O O10 0.637116 0.250000 0.646344
O O11 0.590059 0.502977 0.670033
O O12 0.837097 0.507011 0.788087
O O13 0.382199 0.750000 0.250049
O O14 0.528022 0.488362 0.320033
O O15 0.185578 0.504654 0.081854
O O16 0.857674 0.750000 0.435199
O O17 0.764329 0.481564 0.409837
O O18 0.000000 0.500000 0.500000
O O19 0.459610 0.250000 0.054069
O O20 0.032777 0.250000 0.931668
O O21 0.644293 0.750000 0.361809
#
# Coordination Sequence:
#
# PCOD9161183 Si02
#       8
#     4   4   4   4   4   4   4   4
#     4   9  17  31  52  75 100 128 162 207 253 298
#     4  10  20  33  49  71  98 129 169 211 253 304
#     4  10  21  36  54  79 111 143 174 213 260 311
#     4   9  18  35  57  78 104 139 177 219 261 308
#     4  11  22  35  51  72 100 133 169 212 258 304
#     4   9  18  33  51  70  96 132 168 206 253 302
#     4   9  18  33  54  81 107 133 173 218 260 307
#     4   9  19  34  51  73 101 132 168 209 254 301
#
# _framework density 19.766119
#
# number of rings (size 3 to 8) (size 9 to 14) (size 15 to 20)
#    0.000    2.500    0.000    1.875    0.000    5.000 
#    2.250    0.000    0.000    0.000    0.000    0.000 
#    0.000    0.000    0.000    0.000    0.000    0.000 
#
# Total GULP energy -178229.034437 kJ/mol
# GULP energy per Si atom -5569.657326 kJ/mol
# Density = 1.972113 g / cm^3
# Si number density = 19.766119 Si / 1000 Ang^3
#
#
#
# Elastic Constant Matrix: (Units=GPa)
#
#
# Indices 1 2 3 4 5 6 
#
# 1 184.7315 25.0116 69.0404 0.0000 11.9557 0.0000
# 2 25.0116 2.9137 21.8969 0.0000 1.9719 0.0000
# 3 69.0404 21.8969 68.5284 0.0000 17.4912 0.0000
# 4 0.0000 0.0000 0.0000 24.2790 0.0000 -4.5724
# 5 11.9557 1.9719 17.4912 0.0000 27.2049 0.0000
# 6 0.0000 0.0000 0.0000 -4.5724 0.0000 17.8845
#
#
#
# Elastic Compliance Matrix: (Units=1/GPa)
#
#
# Indices 1 2 3 4 5 6 
#
# 1 0.008721 0.003838 -0.010723 0.000000 0.002783 0.000000
# 2 0.003838 -0.212981 0.072590 0.000000 -0.032920 0.000000
# 3 -0.010723 0.072590 0.002801 0.000000 -0.002350 0.000000
# 4 0.000000 0.000000 0.000000 0.043271 0.000000 0.011063
# 5 0.002783 -0.032920 -0.002350 0.000000 0.039432 0.000000
# 6 0.000000 0.000000 0.000000 0.011063 0.000000 0.058743
#
#
# Mechanical properties :
#
#
# Convention : Reuss Voigt Hill
#
# Bulk Modulus (GPa) = -14.27558 54.23015 19.97729
# Shear Modulus (GPa) = -23.28042 23.22199 -0.02921
#
# Velocity S-wave (km/s) = -3.43562 3.43131 -0.12171
# Velocity P-wave (km/s) = 4.79332 6.57221 3.17947
#
# Compressibility (1/GPa) = -0.07004969
#
# Stress axis : x y z
#
# Youngs Moduli (GPa) = 114.66541 -4.69526 357.07759
#
# Poissons Ratio (x) = 0.01802 3.82888
# Poissons Ratio (y) = -0.44004 -25.92028
# Poissons Ratio (z) = 1.22954 0.34083
#
# Static dielectric constant tensor:
#      x y z
#    x 1.763790 0.000000 0.021510 
#    y 0.000000 1.722910 0.000000 
#    z 0.021510 0.000000 1.681690 
# 
# From -- ./inp_files/72185.got.cif
#   From: 2010.05.17/outbox.cif.g08.bks.cpg/sg11_37_cif.got.tgz:72185.got - 2010.06.03 12:22:45.
