data_PCOD9161854
_publ_section_title
;
Structure prediction by ZEFSAII (Michael W. Deem and Ramdas Pophale) SiO2 
 PCOD9161854
Probable space group: P 21/M
;
_chemical_formula_sum "Si O2"
_cell_formula_units_Z 32
_cell_length_a 19.523709
_cell_length_b 8.998785
_cell_length_c 27.582450
_cell_angle_alpha 90.000000
_cell_angle_beta 157.735603
_cell_angle_gamma 90.000000
_cell_volume 1836.039684
_symmetry_space_group_name_H-M "P 21/M"
_symmetry_group_IT_number 11
_symmetry_cell_setting 'monoclinic'
loop_
_space_group_symop_operation_xyz
x,y,z
-x,1/2+y,-z
-x,-y,-z
x,1/2-y,z
loop_
_atom_site_type_symbol
_atom_site_label
_atom_site_fract_x
_atom_site_fract_y
_atom_site_fract_z
Si Si1 0.193502 0.077668 0.869851
Si Si2 0.283616 0.928229 0.569065
Si Si3 0.961987 0.921801 0.121485
Si Si4 0.410218 0.430804 0.157297
Si Si5 0.308509 0.423953 0.382710
Si Si6 0.842888 0.924300 0.607792
Si Si7 0.559922 0.430428 0.150483
Si Si8 0.031550 0.570416 0.573633
O O1 0.190704 0.250000 0.851908
O O2 0.121565 0.076265 0.878583
O O3 0.399659 0.020691 0.009392
O O4 0.049318 0.983024 0.745573
O O5 0.266806 0.750000 0.560938
O O6 0.468004 0.972644 0.717380
O O7 0.268070 0.983838 0.504243
O O8 0.119500 0.004734 0.490255
O O9 0.998695 0.750000 0.133520
O O10 0.797745 0.981188 0.980973
O O11 0.147930 0.009742 0.244792
O O12 0.403690 0.250000 0.151332
O O13 0.508671 0.478195 0.171803
O O14 0.500000 0.500000 0.500000
O O15 0.325363 0.250000 0.384704
O O16 0.243047 0.445160 0.395346
O O17 0.841426 0.750000 0.594946
O O18 0.550058 0.250000 0.143802
O O19 0.766430 0.471187 0.276130
O O20 0.021166 0.750000 0.564010
O O21 0.000000 0.500000 0.500000
#
# Coordination Sequence:
#
# PCOD9161854 Si02
#       8
#     4   4   4   4   4   4   4   4
#     4   8  14  28  51  72  91 126 169 207 250 302
#     4  11  21  34  52  73 101 138 178 212 250 306
#     4   8  14  27  50  76 101 127 161 203 248 294
#     4   8  14  27  48  73  98 129 168 209 250 294
#     4  10  20  34  55  81 108 132 160 201 247 297
#     4  10  21  36  51  74 106 133 162 206 255 301
#     4   8  14  27  48  71  96 125 166 217 259 296
#     4  11  20  32  49  72 103 136 173 219 264 304
#
# _framework density 17.428818
#
# number of rings (size 3 to 8) (size 9 to 14) (size 15 to 20)
#    0.000    2.750    1.250    3.000    0.000    1.500 
#    0.000    3.125    0.000    0.750    0.000    0.000 
#    0.000    0.000    0.000    0.000    0.000    0.000 
#
# Total GULP energy -178317.375754 kJ/mol
# GULP energy per Si atom -5572.417992 kJ/mol
# Density = 1.738915 g / cm^3
# Si number density = 17.428818 Si / 1000 Ang^3
#
#
#
# Elastic Constant Matrix: (Units=GPa)
#
#
# Indices 1 2 3 4 5 6 
#
# 1 9.2574 29.2787 34.5609 0.0000 -1.4612 0.0000
# 2 29.2787 61.6266 62.4503 0.0000 3.7261 0.0000
# 3 34.5609 62.4503 188.4103 0.0000 5.3057 0.0000
# 4 0.0000 0.0000 0.0000 23.8373 0.0000 0.2384
# 5 -1.4612 3.7261 5.3057 0.0000 23.0971 0.0000
# 6 0.0000 0.0000 0.0000 0.2384 0.0000 21.7290
#
#
#
# Elastic Compliance Matrix: (Units=1/GPa)
#
#
# Indices 1 2 3 4 5 6 
#
# 1 -0.188042 0.083192 0.007681 0.000000 -0.027081 0.000000
# 2 0.083192 -0.012270 -0.011471 0.000000 0.009877 0.000000
# 3 0.007681 -0.011471 0.007685 0.000000 0.000571 0.000000
# 4 0.000000 0.000000 0.000000 0.041956 0.000000 -0.000460
# 5 -0.027081 0.009877 0.000571 0.000000 0.039857 0.000000
# 6 0.000000 0.000000 0.000000 -0.000460 0.000000 0.046027
#
#
# Mechanical properties :
#
#
# Convention : Reuss Voigt Hill
#
# Bulk Modulus (GPa) = -29.56474 56.87491 13.65508
# Shear Modulus (GPa) = -21.28872 22.59964 0.65546
#
# Velocity S-wave (km/s) = -3.49874 3.60485 0.61392
# Velocity P-wave (km/s) = 5.77248 7.07320 2.89038
#
# Compressibility (1/GPa) = -0.03382407
#
# Stress axis : x y z
#
# Youngs Moduli (GPa) = -5.31795 -81.49984 130.12770
#
# Poissons Ratio (x) = 6.78012 -0.99955
# Poissons Ratio (y) = 0.44241 1.49275
# Poissons Ratio (z) = 0.04085 -0.93492
#
# Static dielectric constant tensor:
#      x y z
#    x 1.583800 0.000000 -0.013180 
#    y 0.000000 1.583190 0.000000 
#    z -0.013180 0.000000 1.623510 
# 
# From -- ./inp_files/73647.got.cif
#   From: 2010.05.17/outbox.cif.g08.bks.cpg/sg11_37_cif.got.tgz:73647.got - 2010.06.03 12:22:45.
