data_PCOD9161666
_publ_section_title
;
Structure prediction by ZEFSAII (Michael W. Deem and Ramdas Pophale) SiO2 
 PCOD9161666
Probable space group: P 21/M
;
_chemical_formula_sum "Si O2"
_cell_formula_units_Z 16
_cell_length_a 12.426000
_cell_length_b 7.690934
_cell_length_c 8.110887
_cell_angle_alpha 90.000000
_cell_angle_beta 128.909216
_cell_angle_gamma 90.000000
_cell_volume 603.167197
_symmetry_space_group_name_H-M "P 21/M"
_symmetry_group_IT_number 11
_symmetry_cell_setting 'monoclinic'
loop_
_space_group_symop_operation_xyz
x,y,z
-x,1/2+y,-z
-x,-y,-z
x,1/2-y,z
loop_
_atom_site_type_symbol
_atom_site_label
_atom_site_fract_x
_atom_site_fract_y
_atom_site_fract_z
Si Si1 0.715382 0.043788 0.770916
Si Si2 0.031229 0.549465 0.805226
Si Si3 0.800641 0.543116 0.352973
Si Si4 0.545656 0.041885 0.292739
O O1 0.731219 0.250000 0.762615
O O2 0.633857 0.971066 0.535361
O O3 0.609293 0.018080 0.820680
O O4 0.866984 0.970205 0.958959
O O5 0.006316 0.750000 0.822028
O O6 0.130058 0.543292 0.738022
O O7 0.888461 0.473970 0.596660
O O8 0.824343 0.750000 0.360836
O O9 0.639137 0.514351 0.229430
O O10 0.543184 0.250000 0.293223
#
# Coordination Sequence:
#
# PCOD9161666 Si02
#       4
#     4   4   4   4
#     4   9  19  36  55  75 101 133 170 211 252 296
#     4   9  19  36  55  75 101 133 170 211 252 296
#     4  10  20  34  53  77 104 134 168 207 252 301
#     4  10  20  34  53  77 104 134 168 207 252 301
#
# _framework density 26.526641999999999
#
# number of rings (size 3 to 8) (size 9 to 14) (size 15 to 20)
#    0.000    2.500    0.000    1.500    0.000    5.000 
#    0.000    0.000    0.000    0.000    0.000    0.000 
#    0.000    0.000    0.000    0.000    0.000    0.000 
#
# Total GULP energy -89496.839353 kJ/mol
# GULP energy per Si atom -5593.552460 kJ/mol
# Density = 2.646627 g / cm^3
# Si number density = 26.526642 Si / 1000 Ang^3
#
#
#
# Elastic Constant Matrix: (Units=GPa)
#
#
# Indices 1 2 3 4 5 6 
#
# 1 137.9694 6.6031 11.4028 0.0000 30.2796 0.0000
# 2 6.6031 93.0323 11.6094 0.0000 0.0896 0.0000
# 3 11.4028 11.6094 102.6852 0.0000 23.6294 0.0000
# 4 0.0000 0.0000 0.0000 7.7277 0.0000 0.3326
# 5 30.2796 0.0896 23.6294 0.0000 52.0161 0.0000
# 6 0.0000 0.0000 0.0000 0.3326 0.0000 36.5103
#
#
#
# Elastic Compliance Matrix: (Units=1/GPa)
#
#
# Indices 1 2 3 4 5 6 
#
# 1 0.008349 -0.000624 0.000292 0.000000 -0.004992 0.000000
# 2 -0.000624 0.010966 -0.001396 0.000000 0.000979 0.000000
# 3 0.000292 -0.001396 0.011058 0.000000 -0.005191 0.000000
# 4 0.000000 0.000000 0.000000 0.129456 0.000000 -0.001179
# 5 -0.004992 0.000979 -0.005191 0.000000 0.024487 0.000000
# 6 0.000000 0.000000 0.000000 -0.001179 0.000000 0.027400
#
#
# Mechanical properties :
#
#
# Convention : Reuss Voigt Hill
#
# Bulk Modulus (GPa) = 37.14908 43.65749 40.40329
# Shear Modulus (GPa) = 22.30689 39.52226 30.91457
#
# Velocity S-wave (km/s) = 2.90301 3.86412 3.41752
# Velocity P-wave (km/s) = 5.02708 6.03343 5.55310
#
# Compressibility (1/GPa) = 0.02691857
#
# Stress axis : x y z
#
# Youngs Moduli (GPa) = 119.77094 91.18692 90.42882
#
# Poissons Ratio (x) = 0.05692 -0.02642
# Poissons Ratio (y) = 0.07477 0.12621
# Poissons Ratio (z) = -0.03499 0.12727
#
# Static dielectric constant tensor:
#      x y z
#    x 2.085570 0.000000 -0.078400 
#    y 0.000000 1.559290 0.000000 
#    z -0.078400 0.000000 2.206410 
# 
# From -- ./inp_files/11144.got.cif
#   From: 2010.05.17/outbox.cif.g08.bks.cpg/sg11_6_cif.got.tgz:11144.got - 2010.06.03 12:22:45.
