data_PCOD9161289
_publ_section_title
;
Structure prediction by ZEFSAII (Michael W. Deem and Ramdas Pophale) SiO2 
 PCOD9161289
Probable space group: P 21/M
;
_chemical_formula_sum "Si O2"
_cell_formula_units_Z 32
_cell_length_a 27.594665
_cell_length_b 8.770744
_cell_length_c 22.230244
_cell_angle_alpha 90.000000
_cell_angle_beta 20.400139
_cell_angle_gamma 90.000000
_cell_volume 1875.431391
_symmetry_space_group_name_H-M "P 21/M"
_symmetry_group_IT_number 11
_symmetry_cell_setting 'monoclinic'
loop_
_space_group_symop_operation_xyz
x,y,z
-x,1/2+y,-z
-x,-y,-z
x,1/2-y,z
loop_
_atom_site_type_symbol
_atom_site_label
_atom_site_fract_x
_atom_site_fract_y
_atom_site_fract_z
Si Si1 0.152024 0.566584 0.814340
Si Si2 0.652354 0.933948 0.310314
Si Si3 0.233641 0.074425 0.080351
Si Si4 0.647517 0.064205 0.524112
Si Si5 0.861147 0.431504 0.689792
Si Si6 0.558706 0.068045 0.993238
Si Si7 0.655417 0.564533 0.170695
Si Si8 0.449586 0.925588 0.238087
O O1 0.149436 0.750000 0.818714
O O2 0.246391 0.504020 0.758362
O O3 0.225047 0.519276 0.666446
O O4 0.000000 0.500000 0.000000
O O5 0.650421 0.750000 0.316482
O O6 0.692793 0.977540 0.194911
O O7 0.500000 0.000000 0.500000
O O8 0.184562 0.250000 0.137818
O O9 0.152581 0.980379 0.224587
O O10 0.243057 0.014007 0.001225
O O11 0.394907 0.076103 0.914355
O O12 0.644092 0.250000 0.530078
O O13 0.502689 0.015568 0.660879
O O14 0.644567 0.014433 0.597267
O O15 0.865973 0.250000 0.679691
O O16 0.000000 0.500000 0.500000
O O17 0.717353 0.483677 0.824329
O O18 0.560362 0.250000 0.987276
O O19 0.463625 0.017751 0.160367
O O20 0.500000 0.000000 0.000000
O O21 0.654701 0.750000 0.168388
O O22 0.412062 0.750000 0.268116
#
# Coordination Sequence:
#
# PCOD9161289 Si02
#       8
#     4   4   4   4   4   4   4   4
#     4  11  22  37  54  75 106 141 179 219 262 316
#     4  11  20  33  54  81 108 137 175 217 263 310
#     4   8  14  27  49  74  99 130 168 207 249 298
#     4   8  14  28  51  75  99 131 169 209 251 304
#     4  10  20  33  51  76 105 135 169 206 248 300
#     4  10  20  33  51  77 106 133 165 207 254 299
#     4   8  14  27  50  77 102 129 166 210 253 304
#     4   8  14  27  50  75  97 127 169 209 250 299
#
# _framework density 17.062740000000002
#
# number of rings (size 3 to 8) (size 9 to 14) (size 15 to 20)
#    0.000    2.750    1.250    3.000    0.000    1.500 
#    0.000    2.500    2.750    0.000    0.000    0.000 
#    0.000    0.000    0.000    0.000    0.000    0.000 
#
# Total GULP energy -178252.303022 kJ/mol
# GULP energy per Si atom -5570.384469 kJ/mol
# Density = 1.702390 g / cm^3
# Si number density = 17.062740 Si / 1000 Ang^3
#
#
#
# Elastic Constant Matrix: (Units=GPa)
#
#
# Indices 1 2 3 4 5 6 
#
# 1 124.0737 36.1220 77.4143 0.0000 30.7200 0.0000
# 2 36.1220 41.3781 36.7183 0.0000 8.7719 0.0000
# 3 77.4143 36.7183 134.7260 0.0000 28.0670 0.0000
# 4 0.0000 0.0000 0.0000 25.9247 0.0000 3.0496
# 5 30.7200 8.7719 28.0670 0.0000 32.3200 0.0000
# 6 0.0000 0.0000 0.0000 3.0496 0.0000 25.7239
#
#
#
# Elastic Compliance Matrix: (Units=1/GPa)
#
#
# Indices 1 2 3 4 5 6 
#
# 1 0.015403 -0.007083 -0.005214 0.000000 -0.008190 0.000000
# 2 -0.007083 0.035183 -0.006021 0.000000 0.002413 0.000000
# 3 -0.005214 -0.006021 0.013047 0.000000 -0.004740 0.000000
# 4 0.000000 0.000000 0.000000 0.039119 0.000000 -0.004638
# 5 -0.008190 0.002413 -0.004740 0.000000 0.042187 0.000000
# 6 0.000000 0.000000 0.000000 -0.004638 0.000000 0.039424
#
#
# Mechanical properties :
#
#
# Convention : Reuss Voigt Hill
#
# Bulk Modulus (GPa) = 37.04319 66.74302 51.89310
# Shear Modulus (GPa) = 21.73937 26.78859 24.26398
#
# Velocity S-wave (km/s) = 3.57330 3.96663 3.77509
# Velocity P-wave (km/s) = 6.22750 7.75758 7.03427
#
# Compressibility (1/GPa) = 0.02699552
#
# Stress axis : x y z
#
# Youngs Moduli (GPa) = 64.92285 28.42317 76.64657
#
# Poissons Ratio (x) = 0.20133 0.39962
# Poissons Ratio (y) = 0.45987 0.46150
# Poissons Ratio (z) = 0.33850 0.17114
#
# Static dielectric constant tensor:
#      x y z
#    x 1.580060 0.000000 0.030140 
#    y 0.000000 1.580860 0.000000 
#    z 0.030140 0.000000 1.576330 
# 
# From -- ./inp_files/67079.got.cif
#   From: 2010.05.17/outbox.cif.g08.bks.cpg/sg11_34_cif.got.tgz:67079.got - 2010.06.03 12:22:45.
