data_PCOD9161648
_publ_section_title
;
Structure prediction by ZEFSAII (Michael W. Deem and Ramdas Pophale) SiO2 
 PCOD9161648
Probable space group: P 21/M
;
_chemical_formula_sum "Si O2"
_cell_formula_units_Z 28
_cell_length_a 18.278183
_cell_length_b 7.517278
_cell_length_c 17.776290
_cell_angle_alpha 90.000000
_cell_angle_beta 34.488963
_cell_angle_gamma 90.000000
_cell_volume 1383.060049
_symmetry_space_group_name_H-M "P 21/M"
_symmetry_group_IT_number 11
_symmetry_cell_setting 'monoclinic'
loop_
_space_group_symop_operation_xyz
x,y,z
-x,1/2+y,-z
-x,-y,-z
x,1/2-y,z
loop_
_atom_site_type_symbol
_atom_site_label
_atom_site_fract_x
_atom_site_fract_y
_atom_site_fract_z
Si Si1 0.811332 0.036521 0.113361
Si Si2 0.183998 0.532739 0.161018
Si Si3 0.349288 0.457687 0.332277
Si Si4 0.367461 0.532115 0.866813
Si Si5 0.105359 0.468167 0.631888
Si Si6 0.643386 0.461501 0.847719
Si Si7 0.913147 0.538222 0.182807
O O1 0.814060 0.250000 0.105373
O O2 0.694618 0.975205 0.159654
O O3 0.813426 0.994058 0.199757
O O4 0.947226 0.968011 0.963445
O O5 0.184681 0.750000 0.160696
O O6 0.253203 0.472271 0.178788
O O7 0.036305 0.475815 0.276243
O O8 0.271467 0.478719 0.015689
O O9 0.353490 0.250000 0.349666
O O10 0.487887 0.532726 0.240110
O O11 0.223126 0.531628 0.480482
O O12 0.339729 0.467895 0.250468
O O13 0.369609 0.750000 0.866411
O O14 0.104255 0.250000 0.631150
O O15 0.121550 0.526067 0.704854
O O16 0.657298 0.250000 0.831279
O O17 0.500000 0.500000 0.000000
O O18 0.928046 0.750000 0.177009
#
# Coordination Sequence:
#
# PCOD9161648 Si02
#       7
#     4   4   4   4   4   4   4
#     4   9  16  27  48  72  94 125 166 203 242 291
#     4   9  16  29  51  74  97 129 167 203 240 292
#     4  10  20  34  53  76 101 130 168 208 246 293
#     4   9  15  28  49  72  96 128 168 201 236 293
#     4   9  17  31  51  74 100 134 169 201 242 299
#     4  11  21  34  54  77 102 131 167 208 251 293
#     4   9  16  28  47  71  97 124 160 206 248 285
#
# _framework density 20.244964
#
# number of rings (size 3 to 8) (size 9 to 14) (size 15 to 20)
#    0.000    2.571    2.857    0.429    0.000    0.571 
#    0.000    2.143    0.000    2.571    0.000    0.000 
#    0.000    0.000    0.000    0.000    0.000    0.000 
#
# Total GULP energy -156253.138751 kJ/mol
# GULP energy per Si atom -5580.469241 kJ/mol
# Density = 2.019889 g / cm^3
# Si number density = 20.244964 Si / 1000 Ang^3
#
#
#
# Elastic Constant Matrix: (Units=GPa)
#
#
# Indices 1 2 3 4 5 6 
#
# 1 215.7893 -7.5763 114.2462 0.0000 -8.4256 0.0000
# 2 -7.5763 48.6709 0.9725 0.0000 -5.2445 0.0000
# 3 114.2462 0.9725 171.4297 0.0000 -7.6915 0.0000
# 4 0.0000 0.0000 0.0000 0.4502 0.0000 6.5384
# 5 -8.4256 -5.2445 -7.6915 0.0000 27.0334 0.0000
# 6 0.0000 0.0000 0.0000 6.5384 0.0000 20.7019
#
#
#
# Elastic Compliance Matrix: (Units=1/GPa)
#
#
# Indices 1 2 3 4 5 6 
#
# 1 0.007268 0.001352 -0.004799 0.000000 0.001162 0.000000
# 2 0.001352 0.021237 -0.000829 0.000000 0.004306 0.000000
# 3 -0.004799 -0.000829 0.009078 0.000000 0.000926 0.000000
# 4 0.000000 0.000000 0.000000 -0.619269 0.000000 0.195586
# 5 0.001162 0.004306 0.000926 0.000000 0.038452 0.000000
# 6 0.000000 0.000000 0.000000 0.195586 0.000000 -0.013468
#
#
# Mechanical properties :
#
#
# Convention : Reuss Voigt Hill
#
# Bulk Modulus (GPa) = 34.44428 72.35277 53.39852
# Shear Modulus (GPa) = -9.28549 31.52028 11.11739
#
# Velocity S-wave (km/s) = -2.14395 3.95009 2.34592
# Velocity P-wave (km/s) = 3.30484 7.52466 5.81131
#
# Compressibility (1/GPa) = 0.02903239
#
# Stress axis : x y z
#
# Youngs Moduli (GPa) = 137.59383 47.08721 110.15928
#
# Poissons Ratio (x) = -0.06368 0.52865
# Poissons Ratio (y) = -0.18609 0.09128
# Poissons Ratio (z) = 0.66031 0.03902
#
# Static dielectric constant tensor:
#      x y z
#    x 1.710750 0.000000 -0.012870 
#    y 0.000000 1.772230 0.000000 
#    z -0.012870 0.000000 1.675830 
# 
# From -- ./inp_files/52146.got.cif
#   From: 2010.05.17/outbox.cif.g08.bks.cpg/sg11_27_cif.got.tgz:52146.got - 2010.06.03 12:22:45.
