data_PCOD9161199
_publ_section_title
;
Structure prediction by ZEFSAII (Michael W. Deem and Ramdas Pophale) SiO2 
 PCOD9161199
Probable space group: P 21/M
;
_chemical_formula_sum "Si O2"
_cell_formula_units_Z 28
_cell_length_a 12.443241
_cell_length_b 7.583972
_cell_length_c 13.174253
_cell_angle_alpha 90.000000
_cell_angle_beta 67.979780
_cell_angle_gamma 90.000000
_cell_volume 1152.550966
_symmetry_space_group_name_H-M "P 21/M"
_symmetry_group_IT_number 11
_symmetry_cell_setting 'monoclinic'
loop_
_space_group_symop_operation_xyz
x,y,z
-x,1/2+y,-z
-x,-y,-z
x,1/2-y,z
loop_
_atom_site_type_symbol
_atom_site_label
_atom_site_fract_x
_atom_site_fract_y
_atom_site_fract_z
Si Si1 0.358734 0.454768 0.961067
Si Si2 0.866048 0.460073 0.072405
Si Si3 0.288499 0.532834 0.680892
Si Si4 0.683925 0.963150 0.805876
Si Si5 0.921566 0.457423 0.651078
Si Si6 0.165822 0.549191 0.532470
Si Si7 0.505456 0.551647 0.720028
O O1 0.393110 0.250000 0.942615
O O2 0.223151 0.465203 0.979091
O O3 0.427341 0.557423 0.850164
O O4 0.374272 0.523428 0.069333
O O5 0.854353 0.250000 0.074918
O O6 0.809207 0.519211 0.200949
O O7 0.000000 0.500000 0.000000
O O8 0.290308 0.750000 0.679546
O O9 0.255741 0.470826 0.579916
O O10 0.415615 0.471096 0.672143
O O11 0.677214 0.750000 0.806137
O O12 0.622026 0.031067 0.725002
O O13 0.816979 0.016621 0.763887
O O14 0.945471 0.250000 0.630742
O O15 0.869941 0.531613 0.562744
O O16 0.041746 0.548302 0.634016
O O17 0.201102 0.750000 0.499579
O O18 0.532994 0.750000 0.675939
#
# Coordination Sequence:
#
# PCOD9161199 Si02
#       7
#     4   4   4   4   4   4   4
#     4  10  20  33  50  74 104 141 175 208 257 307
#     4  10  20  33  49  74 106 137 172 213 252 304
#     4   8  16  32  55  74  95 133 170 204 256 311
#     4  10  21  35  53  75 105 141 175 211 257 313
#     4  10  21  34  52  79 104 130 170 218 261 305
#     4   9  18  36  57  75 101 134 168 210 264 320
#     4   9  18  35  55  77 102 135 177 215 254 306
#
# _framework density 24.293934
#
# number of rings (size 3 to 8) (size 9 to 14) (size 15 to 20)
#    0.000    2.571    0.000    2.571    2.000    2.286 
#    0.000    3.571    0.000    0.000    0.000    0.000 
#    0.000    0.000    0.000    0.000    0.000    0.000 
#
# Total GULP energy -156305.055413 kJ/mol
# GULP energy per Si atom -5582.323408 kJ/mol
# Density = 2.423864 g / cm^3
# Si number density = 24.293934 Si / 1000 Ang^3
#
#
#
# Elastic Constant Matrix: (Units=GPa)
#
#
# Indices 1 2 3 4 5 6 
#
# 1 78.9221 0.5549 -2.4793 0.0000 12.7327 0.0000
# 2 0.5549 82.7220 4.7835 0.0000 4.0522 0.0000
# 3 -2.4793 4.7835 19.2964 0.0000 9.2926 0.0000
# 4 0.0000 0.0000 0.0000 10.6947 0.0000 -3.0416
# 5 12.7327 4.0522 9.2926 0.0000 50.9414 0.0000
# 6 0.0000 0.0000 0.0000 -3.0416 0.0000 13.7965
#
#
#
# Elastic Compliance Matrix: (Units=1/GPa)
#
#
# Indices 1 2 3 4 5 6 
#
# 1 0.013436 -0.000106 0.003690 0.000000 -0.004023 0.000000
# 2 -0.000106 0.012275 -0.002850 0.000000 -0.000430 0.000000
# 3 0.003690 -0.002850 0.058476 0.000000 -0.011363 0.000000
# 4 0.000000 0.000000 0.000000 0.099759 0.000000 0.021993
# 5 -0.004023 -0.000430 -0.011363 0.000000 0.022743 0.000000
# 6 0.000000 0.000000 0.000000 0.021993 0.000000 0.077331
#
#
# Mechanical properties :
#
#
# Convention : Reuss Voigt Hill
#
# Bulk Modulus (GPa) = 11.67466 20.73986 16.20726
# Shear Modulus (GPa) = 16.07182 26.95862 21.51522
#
# Velocity S-wave (km/s) = 2.57487 3.33481 2.97917
# Velocity P-wave (km/s) = 3.69539 4.83565 4.30345
#
# Compressibility (1/GPa) = 0.08565563
#
# Stress axis : x y z
#
# Youngs Moduli (GPa) = 74.42441 81.46480 17.10116
#
# Poissons Ratio (x) = 0.00867 -0.06311
# Poissons Ratio (y) = 0.00792 0.04873
# Poissons Ratio (z) = -0.27464 0.23214
#
# Static dielectric constant tensor:
#      x y z
#    x 1.986610 0.000000 -0.007200 
#    y 0.000000 1.932030 0.000000 
#    z -0.007200 0.000000 1.963640 
# 
# From -- ./inp_files/38486.got.cif
#   From: 2010.05.17/outbox.cif.g08.bks.cpg/sg11_20_cif.got.tgz:38486.got - 2010.06.03 12:22:45.
