data_PCOD9161868
_publ_section_title
;
Structure prediction by ZEFSAII (Michael W. Deem and Ramdas Pophale) SiO2 
 PCOD9161868
Probable space group: P 21/M
;
_chemical_formula_sum "Si O2"
_cell_formula_units_Z 32
_cell_length_a 14.413128
_cell_length_b 8.238300
_cell_length_c 23.540300
_cell_angle_alpha 90.000000
_cell_angle_beta 32.150662
_cell_angle_gamma 90.000000
_cell_volume 1487.441159
_symmetry_space_group_name_H-M "P 21/M"
_symmetry_group_IT_number 11
_symmetry_cell_setting 'monoclinic'
loop_
_space_group_symop_operation_xyz
x,y,z
-x,1/2+y,-z
-x,-y,-z
x,1/2-y,z
loop_
_atom_site_type_symbol
_atom_site_label
_atom_site_fract_x
_atom_site_fract_y
_atom_site_fract_z
Si Si1 0.671481 0.446509 0.444273
Si Si2 0.802491 0.943190 0.612014
Si Si3 0.052588 0.448371 0.233917
Si Si4 0.731224 0.944323 0.774552
Si Si5 0.835598 0.945388 0.020690
Si Si6 0.641280 0.554945 0.007914
Si Si7 0.774334 0.438789 0.178199
Si Si8 0.599003 0.061272 0.607397
O O1 0.500000 0.500000 0.500000
O O2 0.670465 0.250000 0.445759
O O3 0.665383 0.505328 0.512796
O O4 0.856122 0.500141 0.322133
O O5 0.803112 0.750000 0.615517
O O6 0.738200 0.009632 0.706622
O O7 0.681632 0.987974 0.621395
O O8 0.000000 0.000000 0.500000
O O9 0.053287 0.250000 0.231114
O O10 0.109440 0.497440 0.268062
O O11 0.205943 0.504487 0.112724
O O12 0.740693 0.750000 0.766456
O O13 0.551306 0.986756 0.899165
O O14 0.832354 0.750000 0.033039
O O15 0.033645 0.985130 0.899346
O O16 0.703092 0.984573 0.039628
O O17 0.790687 0.036058 0.101865
O O18 0.632803 0.750000 0.007048
O O19 0.743634 0.250000 0.207491
O O20 0.609325 0.538591 0.284286
O O21 0.645000 0.250000 0.585347
#
# Coordination Sequence:
#
# PCOD9161868 Si02
#       8
#     4   4   4   4   4   4   4   4
#     4  10  23  42  64  87 116 155 199 249 303 360
#     4  11  23  39  62  90 120 158 200 245 301 358
#     4   9  19  38  61  82 113 155 194 237 295 357
#     4  10  21  38  59  86 120 156 194 238 291 350
#     4   9  19  34  52  79 113 150 193 241 294 353
#     4  10  20  34  57  85 112 151 197 238 291 350
#     4  10  20  34  55  81 111 151 195 242 294 351
#     4  11  23  39  59  86 119 154 194 241 297 359
#
# _framework density 21.513455
#
# number of rings (size 3 to 8) (size 9 to 14) (size 15 to 20)
#    0.000    2.000    0.000    3.000    1.750    7.000 
#    0.000    1.250    0.000    0.000    0.000    0.000 
#    0.000    0.000    0.000    0.000    0.000    0.000 
#
# Total GULP energy -178769.867729 kJ/mol
# GULP energy per Si atom -5586.558367 kJ/mol
# Density = 2.146449 g / cm^3
# Si number density = 21.513455 Si / 1000 Ang^3
#
#
#
# Elastic Constant Matrix: (Units=GPa)
#
#
# Indices 1 2 3 4 5 6 
#
# 1 69.4531 5.9908 30.3282 0.0000 -19.9690 0.0000
# 2 5.9908 7.8887 -1.9115 0.0000 -0.3068 0.0000
# 3 30.3282 -1.9115 117.3677 0.0000 -12.8925 0.0000
# 4 0.0000 0.0000 0.0000 27.4854 0.0000 -7.0586
# 5 -19.9690 -0.3068 -12.8925 0.0000 31.8630 0.0000
# 6 0.0000 0.0000 0.0000 -7.0586 0.0000 21.9915
#
#
#
# Elastic Compliance Matrix: (Units=1/GPa)
#
#
# Indices 1 2 3 4 5 6 
#
# 1 0.020998 -0.016593 -0.004467 0.000000 0.011193 0.000000
# 2 -0.016593 0.140520 0.005842 0.000000 -0.006682 0.000000
# 3 -0.004467 0.005842 0.009909 0.000000 0.001266 0.000000
# 4 0.000000 0.000000 0.000000 0.039651 0.000000 0.012727
# 5 0.011193 -0.006682 0.001266 0.000000 0.038847 0.000000
# 6 0.000000 0.000000 0.000000 0.012727 0.000000 0.049557
#
#
# Mechanical properties :
#
#
# Convention : Reuss Voigt Hill
#
# Bulk Modulus (GPa) = 7.09263 29.28051 18.18657
# Shear Modulus (GPa) = 13.26561 26.95480 20.11020
#
# Velocity S-wave (km/s) = 2.48588 3.54351 3.06072
# Velocity P-wave (km/s) = 3.39756 5.51197 4.57850
#
# Compressibility (1/GPa) = 0.14099137
#
# Stress axis : x y z
#
# Youngs Moduli (GPa) = 47.62338 7.11642 100.92149
#
# Poissons Ratio (x) = 0.11808 0.45079
# Poissons Ratio (y) = 0.79023 -0.58961
# Poissons Ratio (z) = 0.21272 -0.04158
#
# Static dielectric constant tensor:
#      x y z
#    x 1.784630 0.000000 0.018600 
#    y 0.000000 1.760730 0.000000 
#    z 0.018600 0.000000 1.787660 
# 
# From -- ./inp_files/55632.got.cif
#   From: 2010.05.17/outbox.cif.g08.bks.cpg/sg11_28_cif.got.tgz:55632.got - 2010.06.03 12:22:45.
