data_PCOD9161615
_publ_section_title
;
Structure prediction by ZEFSAII (Michael W. Deem and Ramdas Pophale) SiO2 
 PCOD9161615
Probable space group: P 21/M
;
_chemical_formula_sum "Si O2"
_cell_formula_units_Z 32
_cell_length_a 26.605609
_cell_length_b 8.598853
_cell_length_c 16.474299
_cell_angle_alpha 90.000000
_cell_angle_beta 151.175142
_cell_angle_gamma 90.000000
_cell_volume 1817.139495
_symmetry_space_group_name_H-M "P 21/M"
_symmetry_group_IT_number 11
_symmetry_cell_setting 'monoclinic'
loop_
_space_group_symop_operation_xyz
x,y,z
-x,1/2+y,-z
-x,-y,-z
x,1/2-y,z
loop_
_atom_site_type_symbol
_atom_site_label
_atom_site_fract_x
_atom_site_fract_y
_atom_site_fract_z
Si Si1 0.957220 0.563547 0.855102
Si Si2 0.449354 0.064547 0.346533
Si Si3 0.702098 0.061201 0.098721
Si Si4 0.796588 0.437807 0.402102
Si Si5 0.026317 0.063499 0.783888
Si Si6 0.771958 0.063131 0.021344
Si Si7 0.523787 0.561568 0.282960
Si Si8 0.727537 0.562516 0.472691
O O1 0.962476 0.750000 0.862081
O O2 0.836438 0.516689 0.669441
O O3 0.020388 0.498254 0.867486
O O4 0.000000 0.500000 0.000000
O O5 0.447229 0.250000 0.345490
O O6 0.500000 0.000000 0.500000
O O7 0.332179 0.000553 0.168817
O O8 0.512936 0.006980 0.357513
O O9 0.704460 0.250000 0.104311
O O10 0.751339 0.005392 0.252417
O O11 0.763465 0.014066 0.104024
O O12 0.581614 0.016432 0.914314
O O13 0.793639 0.250000 0.398351
O O14 0.732060 0.497655 0.388010
O O15 0.916864 0.484823 0.587087
O O16 0.030686 0.250000 0.791136
O O17 0.124830 0.998048 0.875509
O O18 0.769399 0.250000 0.014840
O O19 0.524301 0.750000 0.290291
O O20 0.627109 0.511765 0.381591
O O21 0.725520 0.750000 0.465570
#
# Coordination Sequence:
#
# PCOD9161615 Si02
#       8
#     4   4   4   4   4   4   4   4
#     4  10  20  35  53  74 102 135 174 217 263 313
#     4  11  22  37  56  79 107 137 173 214 258 309
#     4   8  16  32  53  75 102 137 173 212 260 310
#     4   9  18  33  52  75 105 139 174 213 257 308
#     4  10  20  34  52  76 106 138 174 215 260 311
#     4  10  20  36  56  77 104 138 175 215 262 310
#     4   9  18  35  55  75 104 139 174 214 262 309
#     4   9  19  34  52  75 103 135 170 212 259 308
#
# _framework density 17.610095999999999
#
# number of rings (size 3 to 8) (size 9 to 14) (size 15 to 20)
#    0.000    2.500    0.000    3.000    0.000    3.500 
#    0.000    6.875    0.000    0.000    0.000    0.000 
#    0.000    0.000    0.000    0.000    0.000    0.000 
#
# Total GULP energy -178539.429076 kJ/mol
# GULP energy per Si atom -5579.357159 kJ/mol
# Density = 1.757001 g / cm^3
# Si number density = 17.610096 Si / 1000 Ang^3
#
#
#
# Elastic Constant Matrix: (Units=GPa)
#
#
# Indices 1 2 3 4 5 6 
#
# 1 193.4550 45.5583 128.0281 0.0000 4.7195 0.0000
# 2 45.5583 46.3499 35.6665 0.0000 -1.0490 0.0000
# 3 128.0281 35.6665 119.5546 0.0000 -20.3979 0.0000
# 4 0.0000 0.0000 0.0000 20.3953 0.0000 -0.5087
# 5 4.7195 -1.0490 -20.3979 0.0000 40.2665 0.0000
# 6 0.0000 0.0000 0.0000 -0.5087 0.0000 30.4679
#
#
#
# Elastic Compliance Matrix: (Units=1/GPa)
#
#
# Indices 1 2 3 4 5 6 
#
# 1 0.027192 -0.002894 -0.031539 0.000000 -0.019239 0.000000
# 2 -0.002894 0.028863 -0.005829 0.000000 -0.001862 0.000000
# 3 -0.031539 -0.005829 0.048691 0.000000 0.028210 0.000000
# 4 0.000000 0.000000 0.000000 0.049051 0.000000 0.000819
# 5 -0.019239 -0.001862 0.028210 0.000000 0.041332 0.000000
# 6 0.000000 0.000000 0.000000 0.000819 0.000000 0.032835
#
#
# Mechanical properties :
#
#
# Convention : Reuss Voigt Hill
#
# Bulk Modulus (GPa) = 41.28467 86.42947 63.85707
# Shear Modulus (GPa) = 15.79470 28.23303 22.01387
#
# Velocity S-wave (km/s) = 2.99810 4.00838 3.53947
# Velocity P-wave (km/s) = 5.95646 8.40291 7.28314
#
# Compressibility (1/GPa) = 0.02422206
#
# Stress axis : x y z
#
# Youngs Moduli (GPa) = 36.77503 34.64634 20.53787
#
# Poissons Ratio (x) = 0.10027 0.64774
# Poissons Ratio (y) = 0.10643 0.11972
# Poissons Ratio (z) = 1.15984 0.20196
#
# Static dielectric constant tensor:
#      x y z
#    x 1.572960 0.000000 0.001700 
#    y 0.000000 1.593680 0.000000 
#    z 0.001700 0.000000 1.589730 
# 
# From -- ./inp_files/51758.got.cif
#   From: 2010.05.17/outbox.cif.g08.bks.cpg/sg11_26_cif.got.tgz:51758.got - 2010.06.03 12:22:45.
