data_PCOD9161212
_publ_section_title
;
Structure prediction by ZEFSAII (Michael W. Deem and Ramdas Pophale) SiO2 
 PCOD9161212
Probable space group: P 21/M
;
_chemical_formula_sum "Si O2"
_cell_formula_units_Z 32
_cell_length_a 23.759624
_cell_length_b 8.835084
_cell_length_c 14.643615
_cell_angle_alpha 90.000000
_cell_angle_beta 36.310886
_cell_angle_gamma 90.000000
_cell_volume 1820.296906
_symmetry_space_group_name_H-M "P 21/M"
_symmetry_group_IT_number 11
_symmetry_cell_setting 'monoclinic'
loop_
_space_group_symop_operation_xyz
x,y,z
-x,1/2+y,-z
-x,-y,-z
x,1/2-y,z
loop_
_atom_site_type_symbol
_atom_site_label
_atom_site_fract_x
_atom_site_fract_y
_atom_site_fract_z
Si Si1 0.295580 0.068621 0.412727
Si Si2 0.543934 0.927184 0.657433
Si Si3 0.649011 0.929733 0.043681
Si Si4 0.763902 0.430655 0.047987
Si Si5 0.397391 0.428360 0.615899
Si Si6 0.921157 0.067224 0.982316
Si Si7 0.601278 0.933305 0.899931
Si Si8 0.126257 0.931043 0.752302
O O1 0.282686 0.250000 0.434367
O O2 0.393616 0.032385 0.337107
O O3 0.317220 0.025401 0.280107
O O4 0.209622 0.993512 0.579437
O O5 0.515744 0.750000 0.698348
O O6 0.611402 0.944452 0.481644
O O7 0.448738 0.024228 0.777638
O O8 0.659785 0.750000 0.029867
O O9 0.735559 0.001292 0.987162
O O10 0.632037 0.981404 0.961481
O O11 0.763016 0.250000 0.042586
O O12 0.681734 0.484712 0.224563
O O13 0.860867 0.478127 0.972138
O O14 0.500000 0.500000 0.500000
O O15 0.395758 0.250000 0.640905
O O16 0.930269 0.250000 0.970028
O O17 0.868191 0.025470 0.147039
O O18 0.024826 0.994166 0.851367
O O19 0.592175 0.750000 0.911393
O O20 0.500000 0.000000 0.000000
O O21 0.126628 0.750000 0.747797
#
# Coordination Sequence:
#
# PCOD9161212 Si02
#       8
#     4   4   4   4   4   4   4   4
#     4  10  20  35  55  78 108 143 178 220 273 329
#     4  10  20  33  50  72 103 143 181 216 262 320
#     4  11  22  34  51  76 106 141 182 227 270 313
#     4  11  22  36  54  75 105 147 186 220 267 326
#     4  11  21  31  46  72 105 141 179 218 260 312
#     4   9  20  38  58  81 111 145 178 217 268 327
#     4  10  21  36  55  79 107 144 185 228 276 323
#     4  10  20  35  58  87 112 137 175 224 272 322
#
# _framework density 17.579549
#
# number of rings (size 3 to 8) (size 9 to 14) (size 15 to 20)
#    0.000    1.750    2.500    2.250    0.000    3.500 
#    0.000    0.000    0.000    0.750    0.000    0.000 
#    0.000    0.000    0.000    0.000    0.000    0.000 
#
# Total GULP energy -178561.063592 kJ/mol
# GULP energy per Si atom -5580.033237 kJ/mol
# Density = 1.753954 g / cm^3
# Si number density = 17.579549 Si / 1000 Ang^3
#
#
#
# Elastic Constant Matrix: (Units=GPa)
#
#
# Indices 1 2 3 4 5 6 
#
# 1 141.2825 41.2965 40.1398 0.0000 6.2353 0.0000
# 2 41.2965 28.8846 21.4741 0.0000 -1.5558 0.0000
# 3 40.1398 21.4741 71.6487 0.0000 3.6622 0.0000
# 4 0.0000 0.0000 0.0000 25.3075 0.0000 -2.0352
# 5 6.2353 -1.5558 3.6622 0.0000 21.4977 0.0000
# 6 0.0000 0.0000 0.0000 -2.0352 0.0000 25.6843
#
#
#
# Elastic Compliance Matrix: (Units=1/GPa)
#
#
# Indices 1 2 3 4 5 6 
#
# 1 0.012844 -0.017297 -0.001772 0.000000 -0.004675 0.000000
# 2 -0.017297 0.068506 -0.011451 0.000000 0.011926 0.000000
# 3 -0.001772 -0.011451 0.018560 0.000000 -0.003476 0.000000
# 4 0.000000 0.000000 0.000000 0.039767 0.000000 0.003151
# 5 -0.004675 0.011926 -0.003476 0.000000 0.049328 0.000000
# 6 0.000000 0.000000 0.000000 0.003151 0.000000 0.039184
#
#
# Mechanical properties :
#
#
# Convention : Reuss Voigt Hill
#
# Bulk Modulus (GPa) = 25.72809 49.73737 37.73273
# Shear Modulus (GPa) = 16.54606 23.75824 20.15215
#
# Velocity S-wave (km/s) = 3.07124 3.68022 3.38944
# Velocity P-wave (km/s) = 5.21955 6.81270 6.06863
#
# Compressibility (1/GPa) = 0.03886803
#
# Stress axis : x y z
#
# Youngs Moduli (GPa) = 77.85880 14.59724 53.88002
#
# Poissons Ratio (x) = 0.25249 0.09549
# Poissons Ratio (y) = 1.34672 0.61700
# Poissons Ratio (z) = 0.13799 0.16716
#
# Static dielectric constant tensor:
#      x y z
#    x 1.542790 0.000000 -0.072480 
#    y 0.000000 1.591480 0.000000 
#    z -0.072480 0.000000 1.476940 
# 
# From -- ./inp_files/55614.got.cif
#   From: 2010.05.17/outbox.cif.g08.bks.cpg/sg11_28_cif.got.tgz:55614.got - 2010.06.03 12:22:45.
