data_PCOD9161139
_publ_section_title
;
Structure prediction by ZEFSAII (Michael W. Deem and Ramdas Pophale) SiO2 
 PCOD9161139
Probable space group: P 21/M
;
_chemical_formula_sum "Si O2"
_cell_formula_units_Z 32
_cell_length_a 34.510663
_cell_length_b 8.936073
_cell_length_c 12.174927
_cell_angle_alpha 90.000000
_cell_angle_beta 153.862291
_cell_angle_gamma 90.000000
_cell_volume 1654.024630
_symmetry_space_group_name_H-M "P 21/M"
_symmetry_group_IT_number 11
_symmetry_cell_setting 'monoclinic'
loop_
_space_group_symop_operation_xyz
x,y,z
-x,1/2+y,-z
-x,-y,-z
x,1/2-y,z
loop_
_atom_site_type_symbol
_atom_site_label
_atom_site_fract_x
_atom_site_fract_y
_atom_site_fract_z
Si Si1 0.245033 0.923905 0.262606
Si Si2 0.228112 0.571955 0.755288
Si Si3 0.756770 0.918932 0.974489
Si Si4 0.314199 0.075854 0.775578
Si Si5 0.136538 0.424682 0.177306
Si Si6 0.966419 0.585497 0.517803
Si Si7 0.419111 0.924151 0.855814
Si Si8 0.036762 0.431598 0.244157
O O1 0.221853 0.750000 0.187139
O O2 0.334260 0.931090 0.560314
O O3 0.170183 0.001853 0.147949
O O4 0.262839 0.001024 0.190707
O O5 0.216613 0.750000 0.730154
O O6 0.258188 0.509816 0.950936
O O7 0.298150 0.521402 0.842742
O O8 0.134802 0.496504 0.480349
O O9 0.719614 0.750000 0.885066
O O10 0.862169 0.904542 0.241835
O O11 0.328608 0.250000 0.838935
O O12 0.223499 0.066492 0.474636
O O13 0.390663 0.011196 0.893145
O O14 0.114978 0.250000 0.105655
O O15 0.054911 0.502323 0.035201
O O16 0.006082 0.750000 0.618437
O O17 0.982204 0.520469 0.677268
O O18 0.000000 0.500000 0.500000
O O19 0.437320 0.750000 0.925573
O O20 0.500000 0.000000 0.000000
O O21 0.039791 0.250000 0.240950
#
# Coordination Sequence:
#
# PCOD9161139 Si02
#       8
#     4   4   4   4   4   4   4   4
#     4  10  20  34  54  82 113 143 177 220 269 320
#     4  11  22  36  54  76 105 144 189 230 270 318
#     4  10  20  34  51  73 104 142 182 222 266 318
#     4  10  21  38  58  80 109 143 180 222 269 323
#     4  10  20  33  51  76 105 141 184 230 279 324
#     4   9  18  28  40  61  90 128 173 220 266 309
#     4  10  21  38  62  91 118 142 172 212 262 320
#     4  10  20  33  47  67 100 141 185 231 275 318
#
# _framework density 19.34675
#
# number of rings (size 3 to 8) (size 9 to 14) (size 15 to 20)
#    0.000    2.000    0.000    4.875    0.000    8.500 
#    0.000    0.000    0.000    0.750    0.000    0.000 
#    0.000    0.000    0.000    0.000    0.000    0.000 
#
# Total GULP energy -178496.938884 kJ/mol
# GULP energy per Si atom -5578.029340 kJ/mol
# Density = 1.930272 g / cm^3
# Si number density = 19.346750 Si / 1000 Ang^3
#
#
#
# Elastic Constant Matrix: (Units=GPa)
#
#
# Indices 1 2 3 4 5 6 
#
# 1 125.5546 59.2292 14.8334 0.0000 15.1835 0.0000
# 2 59.2292 130.4099 16.2144 0.0000 8.0729 0.0000
# 3 14.8334 16.2144 16.2609 0.0000 14.4624 0.0000
# 4 0.0000 0.0000 0.0000 24.2806 0.0000 2.1990
# 5 15.1835 8.0729 14.4624 0.0000 33.2015 0.0000
# 6 0.0000 0.0000 0.0000 2.1990 0.0000 32.9807
#
#
#
# Elastic Compliance Matrix: (Units=1/GPa)
#
#
# Indices 1 2 3 4 5 6 
#
# 1 0.010668 -0.004282 -0.003344 0.000000 -0.002381 0.000000
# 2 -0.004282 0.010627 -0.010013 0.000000 0.003736 0.000000
# 3 -0.003344 -0.010013 0.115914 0.000000 -0.046527 0.000000
# 4 0.000000 0.000000 0.000000 0.041435 0.000000 -0.002763
# 5 -0.002381 0.003736 -0.046527 0.000000 0.050567 0.000000
# 6 0.000000 0.000000 0.000000 -0.002763 0.000000 0.030505
#
#
# Mechanical properties :
#
#
# Convention : Reuss Voigt Hill
#
# Bulk Modulus (GPa) = 9.81068 50.30882 30.05975
# Shear Modulus (GPa) = 15.19900 30.22246 22.71073
#
# Velocity S-wave (km/s) = 2.80591 3.95669 3.42991
# Velocity P-wave (km/s) = 3.94709 6.85084 5.59078
#
# Compressibility (1/GPa) = 0.10192974
#
# Stress axis : x y z
#
# Youngs Moduli (GPa) = 93.74238 94.10428 8.62711
#
# Poissons Ratio (x) = 0.40293 0.02885
# Poissons Ratio (y) = 0.40138 0.08638
# Poissons Ratio (z) = 0.31349 0.94226
#
# Static dielectric constant tensor:
#      x y z
#    x 1.641480 0.000000 -0.017190 
#    y 0.000000 1.550790 0.000000 
#    z -0.017190 0.000000 1.725040 
# 
# From -- ./inp_files/45345.got.cif
#   From: 2010.05.17/outbox.cif.g08.bks.cpg/sg11_23_cif.got.tgz:45345.got - 2010.06.03 12:22:45.
