data_PCOD9161170
_publ_section_title
;
Structure prediction by ZEFSAII (Michael W. Deem and Ramdas Pophale) SiO2 
 PCOD9161170
Probable space group: P 21/M
;
_chemical_formula_sum "Si O2"
_cell_formula_units_Z 32
_cell_length_a 16.175716
_cell_length_b 8.644764
_cell_length_c 14.600886
_cell_angle_alpha 90.000000
_cell_angle_beta 89.732018
_cell_angle_gamma 90.000000
_cell_volume 2041.696173
_symmetry_space_group_name_H-M "P 21/M"
_symmetry_group_IT_number 11
_symmetry_cell_setting 'monoclinic'
loop_
_space_group_symop_operation_xyz
x,y,z
-x,1/2+y,-z
-x,-y,-z
x,1/2-y,z
loop_
_atom_site_type_symbol
_atom_site_label
_atom_site_fract_x
_atom_site_fract_y
_atom_site_fract_z
Si Si1 0.663430 0.436863 0.281703
Si Si2 0.342785 0.564478 0.288871
Si Si3 0.998837 0.935516 0.396460
Si Si4 0.589999 0.934927 0.102803
Si Si5 0.819862 0.437976 0.603570
Si Si6 0.173779 0.563304 0.609474
Si Si7 0.405466 0.065419 0.105697
Si Si8 0.499609 0.935692 0.602688
O O1 0.663177 0.250000 0.275370
O O2 0.650126 0.506791 0.181623
O O3 0.748149 0.485092 0.330414
O O4 0.584449 0.482070 0.344175
O O5 0.346165 0.750000 0.294257
O O6 0.258223 0.509437 0.337314
O O7 0.350768 0.512431 0.183943
O O8 0.421357 0.497380 0.342685
O O9 0.994687 0.750000 0.398278
O O10 0.089423 0.981946 0.358867
O O11 0.914375 0.000878 0.355399
O O12 0.000000 0.000000 0.500000
O O13 0.580554 0.750000 0.107672
O O14 0.500191 0.011129 0.119023
O O15 0.616645 0.975296 0.999021
O O16 0.817653 0.250000 0.602715
O O17 0.813716 0.486753 0.496847
O O18 0.170338 0.750000 0.608912
O O19 0.402114 0.250000 0.116091
O O20 0.502077 0.750000 0.600172
O O21 0.500000 0.000000 0.500000
#
# Coordination Sequence:
#
# PCOD9161170 Si02
#       8
#     4   4   4   4   4   4   4   4
#     4  10  20  33  49  68  97 129 158 195 242 282
#     4  11  20  32  50  71  93 125 163 197 234 285
#     4   9  16  29  47  67  92 123 156 197 237 276
#     4  10  20  33  51  70  91 122 161 200 238 284
#     4   8  16  30  47  67  95 126 157 190 234 281
#     4   9  17  31  48  68  95 128 158 192 234 281
#     4  10  20  34  49  69  95 122 155 200 247 283
#     4  11  22  34  46  64  94 132 164 195 229 274
#
# _framework density 15.673242999999999
#
# number of rings (size 3 to 8) (size 9 to 14) (size 15 to 20)
#    0.000    2.250    1.250    3.375    0.000    4.500 
#    0.000    8.750    0.000    0.000    0.000    0.875 
#    0.000    0.000    0.000    0.000    0.000    0.000 
#
# Total GULP energy -178426.462577 kJ/mol
# GULP energy per Si atom -5575.826956 kJ/mol
# Density = 1.563757 g / cm^3
# Si number density = 15.673243 Si / 1000 Ang^3
#
#
#
# Elastic Constant Matrix: (Units=GPa)
#
#
# Indices 1 2 3 4 5 6 
#
# 1 151.1480 31.9373 68.5990 0.0000 7.9435 0.0000
# 2 31.9373 29.0254 25.3510 0.0000 1.3869 0.0000
# 3 68.5990 25.3510 99.3133 0.0000 5.8368 0.0000
# 4 0.0000 0.0000 0.0000 25.6960 0.0000 1.7960
# 5 7.9435 1.3869 5.8368 0.0000 9.7908 0.0000
# 6 0.0000 0.0000 0.0000 1.7960 0.0000 23.6694
#
#
#
# Elastic Compliance Matrix: (Units=1/GPa)
#
#
# Indices 1 2 3 4 5 6 
#
# 1 0.010769 -0.006909 -0.005408 0.000000 -0.004534 0.000000
# 2 -0.006909 0.048772 -0.007877 0.000000 0.003392 0.000000
# 3 -0.005408 -0.007877 0.016055 0.000000 -0.004067 0.000000
# 4 0.000000 0.000000 0.000000 0.039124 0.000000 -0.002969
# 5 -0.004534 0.003392 -0.004067 0.000000 0.107759 0.000000
# 6 0.000000 0.000000 0.000000 -0.002969 0.000000 0.042474
#
#
# Mechanical properties :
#
#
# Convention : Reuss Voigt Hill
#
# Bulk Modulus (GPa) = 28.40316 59.02905 43.71611
# Shear Modulus (GPa) = 15.76907 22.07121 18.92014
#
# Velocity S-wave (km/s) = 3.17537 3.75668 3.47819
# Velocity P-wave (km/s) = 5.62187 7.52070 6.63952
#
# Compressibility (1/GPa) = 0.03520735
#
# Stress axis : x y z
#
# Youngs Moduli (GPa) = 92.86184 20.50351 62.28761
#
# Poissons Ratio (x) = 0.14165 0.33687
# Poissons Ratio (y) = 0.64156 0.49064
# Poissons Ratio (z) = 0.50222 0.16151
#
# Static dielectric constant tensor:
#      x y z
#    x 1.532060 0.000000 -0.001010 
#    y 0.000000 1.532160 0.000000 
#    z -0.001010 0.000000 1.516500 
# 
# From -- ./inp_files/51344.got.cif
#   From: 2010.05.17/outbox.cif.g08.bks.cpg/sg11_26_cif.got.tgz:51344.got - 2010.06.03 12:22:45.
