data_PCOD9161232
_publ_section_title
;
Structure prediction by ZEFSAII (Michael W. Deem and Ramdas Pophale) SiO2 
 PCOD9161232
Probable space group: P 21/M
;
_chemical_formula_sum "Si O2"
_cell_formula_units_Z 32
_cell_length_a 8.085524
_cell_length_b 7.521393
_cell_length_c 19.426491
_cell_angle_alpha 90.000000
_cell_angle_beta 94.857163
_cell_angle_gamma 90.000000
_cell_volume 1177.167877
_symmetry_space_group_name_H-M "P 21/M"
_symmetry_group_IT_number 11
_symmetry_cell_setting 'monoclinic'
loop_
_space_group_symop_operation_xyz
x,y,z
-x,1/2+y,-z
-x,-y,-z
x,1/2-y,z
loop_
_atom_site_type_symbol
_atom_site_label
_atom_site_fract_x
_atom_site_fract_y
_atom_site_fract_z
Si Si1 0.470089 0.535536 0.601337
Si Si2 0.485824 0.044360 0.141044
Si Si3 0.781492 0.043526 0.512744
Si Si4 0.738905 0.965946 0.980846
Si Si5 0.687009 0.040606 0.733407
Si Si6 0.975956 0.461731 0.643129
Si Si7 0.198525 0.535338 0.768497
Si Si8 0.032064 0.958163 0.893197
O O1 0.466194 0.750000 0.597051
O O2 0.301531 0.464875 0.559169
O O3 0.624123 0.467627 0.560192
O O4 0.522959 0.488391 0.680359
O O5 0.524826 0.250000 0.129037
O O6 0.422044 0.967827 0.066499
O O7 0.635510 0.962941 0.189949
O O8 0.337794 0.041105 0.192440
O O9 0.814347 0.250000 0.500884
O O10 0.931440 0.968224 0.565207
O O11 0.737013 0.750000 0.980993
O O12 0.890114 0.033321 0.937116
O O13 0.794884 0.023425 0.058373
O O14 0.710425 0.250000 0.743176
O O15 0.835667 0.966791 0.691263
O O16 0.953217 0.250000 0.637620
O O17 0.145563 0.493377 0.689497
O O18 0.208107 0.750000 0.770870
O O19 0.058359 0.470367 0.817760
O O20 0.997768 0.750000 0.885534
#
# Coordination Sequence:
#
# PCOD9161232 Si02
#       8
#     4   4   4   4   4   4   4   4
#     4   9  15  25  45  71  99 130 162 202 252 299
#     4  10  21  36  52  72 100 133 169 207 247 293
#     4   8  15  27  43  69 102 130 161 204 251 297
#     4   9  18  33  53  75  99 128 162 200 242 291
#     4  10  20  33  50  74 102 131 167 209 251 298
#     4   9  18  32  50  73 101 131 164 204 248 295
#     4  10  21  35  51  73 101 133 169 207 245 291
#     4   9  18  33  52  74 100 128 160 200 244 290
#
# _framework density 27.183886999999999
#
# number of rings (size 3 to 8) (size 9 to 14) (size 15 to 20)
#    0.000    2.750    0.000    2.250    0.000    6.000 
#    0.000    2.500    0.000    0.750    0.000    0.000 
#    0.000    0.000    0.000    0.000    0.000    0.000 
#
# Total GULP energy -178931.720183 kJ/mol
# GULP energy per Si atom -5591.616256 kJ/mol
# Density = 2.712202 g / cm^3
# Si number density = 27.183887 Si / 1000 Ang^3
#
#
#
# Elastic Constant Matrix: (Units=GPa)
#
#
# Indices 1 2 3 4 5 6 
#
# 1 88.0451 4.1219 45.5589 0.0000 29.3972 0.0000
# 2 4.1219 102.7550 -0.5451 0.0000 -0.7713 0.0000
# 3 45.5589 -0.5451 222.5852 0.0000 29.0482 0.0000
# 4 0.0000 0.0000 0.0000 21.5330 0.0000 8.7153
# 5 29.3972 -0.7713 29.0482 0.0000 57.3267 0.0000
# 6 0.0000 0.0000 0.0000 8.7153 0.0000 13.4274
#
#
#
# Elastic Compliance Matrix: (Units=1/GPa)
#
#
# Indices 1 2 3 4 5 6 
#
# 1 0.014653 -0.000647 -0.002162 0.000000 -0.006427 0.000000
# 2 -0.000647 0.009761 0.000103 0.000000 0.000411 0.000000
# 3 -0.002162 0.000103 0.005130 0.000000 -0.001489 0.000000
# 4 0.000000 0.000000 0.000000 0.062987 0.000000 -0.040883
# 5 -0.006427 0.000411 -0.001489 0.000000 0.021500 0.000000
# 6 0.000000 0.000000 0.000000 -0.040883 0.000000 0.101010
#
#
# Mechanical properties :
#
#
# Convention : Reuss Voigt Hill
#
# Bulk Modulus (GPa) = 41.44103 56.85073 49.14588
# Shear Modulus (GPa) = 21.88204 42.74074 32.31139
#
# Velocity S-wave (km/s) = 2.84027 3.96950 3.45138
# Velocity P-wave (km/s) = 5.10235 6.47828 5.83104
#
# Compressibility (1/GPa) = 0.02413067
#
# Stress axis : x y z
#
# Youngs Moduli (GPa) = 68.24645 102.44332 194.94000
#
# Poissons Ratio (x) = 0.06633 0.42145
# Poissons Ratio (y) = 0.04419 -0.02003
# Poissons Ratio (z) = 0.14755 -0.01053
#
# Static dielectric constant tensor:
#      x y z
#    x 2.272080 0.000000 0.024800 
#    y 0.000000 1.961070 0.000000 
#    z 0.024800 0.000000 2.099370 
# 
# From -- ./inp_files/63275.got.cif
#   From: 2010.05.17/outbox.cif.g08.bks.cpg/sg11_32_cif.got.tgz:63275.got - 2010.06.03 12:22:45.
