data_PCOD9161938
_publ_section_title
;
Structure prediction by ZEFSAII (Michael W. Deem and Ramdas Pophale) SiO2 
 PCOD9161938
Probable space group: P 21/M
;
_chemical_formula_sum "Si O2"
_cell_formula_units_Z 32
_cell_length_a 16.941173
_cell_length_b 14.080455
_cell_length_c 12.363846
_cell_angle_alpha 90.000000
_cell_angle_beta 27.438537
_cell_angle_gamma 90.000000
_cell_volume 1359.011806
_symmetry_space_group_name_H-M "P 21/M"
_symmetry_group_IT_number 11
_symmetry_cell_setting 'monoclinic'
loop_
_space_group_symop_operation_xyz
x,y,z
-x,1/2+y,-z
-x,-y,-z
x,1/2-y,z
loop_
_atom_site_type_symbol
_atom_site_label
_atom_site_fract_x
_atom_site_fract_y
_atom_site_fract_z
Si Si1 0.281348 0.634017 0.639077
Si Si2 0.865784 0.136508 0.950679
Si Si3 0.355338 0.365415 0.715376
Si Si4 0.978841 0.139866 0.222276
Si Si5 0.148559 0.882620 0.381739
Si Si6 0.512217 0.636255 0.681059
Si Si7 0.474208 0.403255 0.098283
Si Si8 0.882334 0.600181 0.533756
O O1 0.293498 0.750000 0.619402
O O2 0.477790 0.601285 0.419900
O O3 0.172533 0.599691 0.668950
O O4 0.172737 0.610937 0.878772
O O5 0.899602 0.250000 0.907409
O O6 0.021267 0.089174 0.698044
O O7 0.687395 0.120343 0.104572
O O8 0.358287 0.250000 0.719965
O O9 0.384558 0.387719 0.553436
O O10 0.170393 0.401406 0.978154
O O11 0.996964 0.250000 0.164050
O O12 0.921381 0.141048 0.415582
O O13 0.017662 0.851277 0.448546
O O14 0.151975 0.997052 0.373935
O O15 0.343738 0.851504 0.130333
O O16 0.535600 0.750000 0.671294
O O17 0.558526 0.582823 0.734331
O O18 0.303892 0.356082 0.257395
O O19 0.500000 0.500000 0.000000
#
# Coordination Sequence:
#
# PCOD9161938 Si02
#       8
#     4   4   4   4   4   4   4   4
#     4   8  16  31  51  78 108 137 168 215 275 322
#     4   9  17  32  58  85 107 132 174 230 278 319
#     4   8  16  31  52  81 110 139 173 217 277 326
#     4  10  20  34  56  79 109 146 178 216 265 330
#     4  10  22  39  52  76 110 149 185 217 274 322
#     4   9  17  32  57  85 112 136 175 235 276 314
#     4  10  21  36  55  78 107 149 186 220 272 328
#     4  10  21  37  57  75 105 149 182 226 268 320
#
# _framework density 23.546520999999998
#
# number of rings (size 3 to 8) (size 9 to 14) (size 15 to 20)
#    0.000    2.750    1.250    1.500    1.750    2.500 
#    0.000    0.625    0.000    1.500    0.000    0.000 
#    0.000    0.000    0.000    0.000    0.000    0.000 
#
# Total GULP energy -178783.185469 kJ/mol
# GULP energy per Si atom -5586.974546 kJ/mol
# Density = 2.349293 g / cm^3
# Si number density = 23.546521 Si / 1000 Ang^3
#
#
#
# Elastic Constant Matrix: (Units=GPa)
#
#
# Indices 1 2 3 4 5 6 
#
# 1 160.9116 6.9056 107.5943 0.0000 -16.9846 0.0000
# 2 6.9056 68.2234 5.5014 0.0000 -12.5609 0.0000
# 3 107.5943 5.5014 203.7875 0.0000 -29.6145 0.0000
# 4 0.0000 0.0000 0.0000 10.2596 0.0000 17.4083
# 5 -16.9846 -12.5609 -29.6145 0.0000 25.4972 0.0000
# 6 0.0000 0.0000 0.0000 17.4083 0.0000 12.2640
#
#
#
# Elastic Compliance Matrix: (Units=1/GPa)
#
#
# Indices 1 2 3 4 5 6 
#
# 1 0.009630 -0.000509 -0.005022 0.000000 0.000331 0.000000
# 2 -0.000509 0.016274 0.001137 0.000000 0.008999 0.000000
# 3 -0.005022 0.001137 0.008570 0.000000 0.007168 0.000000
# 4 0.000000 0.000000 0.000000 -0.069200 0.000000 0.098227
# 5 0.000331 0.008999 0.007168 0.000000 0.052199 0.000000
# 6 0.000000 0.000000 0.000000 0.098227 0.000000 -0.057890
#
#
# Mechanical properties :
#
#
# Convention : Reuss Voigt Hill
#
# Bulk Modulus (GPa) = 38.93266 74.76947 56.85107
# Shear Modulus (GPa) = -216.76055 30.46557 -93.14749
#
# Velocity S-wave (km/s) = -9.60501 3.60091 -6.29641
# Velocity P-wave (km/s) = 10.31688 7.00797 5.35380
#
# Compressibility (1/GPa) = 0.02568537
#
# Stress axis : x y z
#
# Youngs Moduli (GPa) = 103.84695 61.44615 116.68966
#
# Poissons Ratio (x) = 0.03127 0.58606
# Poissons Ratio (y) = 0.05284 -0.13269
# Poissons Ratio (z) = 0.52156 -0.06987
#
# Static dielectric constant tensor:
#      x y z
#    x 1.862560 0.000000 -0.041560 
#    y 0.000000 1.931210 0.000000 
#    z -0.041560 0.000000 1.862540 
# 
# From -- ./inp_files/39991.got.cif
#   From: 2010.05.17/outbox.cif.g08.bks.cpg/sg11_20_cif.got.tgz:39991.got - 2010.06.03 12:22:45.
