data_PCOD9161982
_publ_section_title
;
Structure prediction by ZEFSAII (Michael W. Deem and Ramdas Pophale) SiO2 
 PCOD9161982
Probable space group: P 21/M
;
_chemical_formula_sum "Si O2"
_cell_formula_units_Z 32
_cell_length_a 10.766292
_cell_length_b 8.479421
_cell_length_c 30.667961
_cell_angle_alpha 90.000000
_cell_angle_beta 146.754094
_cell_angle_gamma 90.000000
_cell_volume 1534.909602
_symmetry_space_group_name_H-M "P 21/M"
_symmetry_group_IT_number 11
_symmetry_cell_setting 'monoclinic'
loop_
_space_group_symop_operation_xyz
x,y,z
-x,1/2+y,-z
-x,-y,-z
x,1/2-y,z
loop_
_atom_site_type_symbol
_atom_site_label
_atom_site_fract_x
_atom_site_fract_y
_atom_site_fract_z
Si Si1 0.763069 0.936670 0.975786
Si Si2 0.707209 0.942099 0.125218
Si Si3 0.933510 0.571179 0.277694
Si Si4 0.420573 0.572873 0.162913
Si Si5 0.961194 0.441769 0.439486
Si Si6 0.009942 0.062024 0.871736
Si Si7 0.460684 0.068196 0.266004
Si Si8 0.257841 0.064733 0.444400
O O1 0.787075 0.750000 0.974818
O O2 0.520636 0.970888 0.927650
O O3 0.745686 0.027944 0.925150
O O4 0.942003 0.992333 0.064729
O O5 0.671484 0.750000 0.115999
O O6 0.902618 0.977042 0.218421
O O7 0.798324 0.994705 0.105209
O O8 0.024334 0.750000 0.306280
O O9 0.673974 0.575214 0.217840
O O10 0.081217 0.468036 0.353459
O O11 0.368309 0.750000 0.163902
O O12 0.435051 0.452558 0.206625
O O13 0.964301 0.250000 0.439826
O O14 0.142498 0.496989 0.455791
O O15 0.000000 0.500000 0.500000
O O16 0.707845 0.494651 0.351288
O O17 0.030284 0.250000 0.878475
O O18 0.762124 0.017733 0.782012
O O19 0.450331 0.250000 0.275654
O O20 0.285026 0.250000 0.458600
O O21 0.500000 0.000000 0.500000
#
# Coordination Sequence:
#
# PCOD9161982 Si02
#       8
#     4   4   4   4   4   4   4   4
#     4  10  20  34  56  85 117 154 199 249 300 349
#     4   9  19  36  57  82 116 155 200 245 292 355
#     4   9  18  34  58  86 112 146 191 237 289 347
#     4  10  20  36  60  85 112 151 197 240 293 353
#     4  10  24  44  66  93 125 160 200 249 305 367
#     4  10  22  38  55  82 120 161 201 244 296 355
#     4  11  23  40  61  86 116 151 197 247 295 353
#     4  11  23  40  62  91 125 156 196 250 302 361
#
# _framework density 20.848134000000002
#
# number of rings (size 3 to 8) (size 9 to 14) (size 15 to 20)
#    0.000    2.000    1.250    2.625    0.000    7.000 
#    0.000    3.750    0.000    0.000    0.000    0.000 
#    0.000    0.000    0.000    0.000    0.000    0.000 
#
# Total GULP energy -178637.179447 kJ/mol
# GULP energy per Si atom -5582.411858 kJ/mol
# Density = 2.080068 g / cm^3
# Si number density = 20.848134 Si / 1000 Ang^3
#
#
#
# Elastic Constant Matrix: (Units=GPa)
#
#
# Indices 1 2 3 4 5 6 
#
# 1 71.2282 -1.4762 45.6715 0.0000 -0.9511 0.0000
# 2 -1.4762 14.1395 12.1739 0.0000 2.0453 0.0000
# 3 45.6715 12.1739 119.8009 0.0000 6.3420 0.0000
# 4 0.0000 0.0000 0.0000 28.6868 0.0000 2.1107
# 5 -0.9511 2.0453 6.3420 0.0000 29.5978 0.0000
# 6 0.0000 0.0000 0.0000 2.1107 0.0000 28.4329
#
#
#
# Elastic Compliance Matrix: (Units=1/GPa)
#
#
# Indices 1 2 3 4 5 6 
#
# 1 0.019737 0.009159 -0.008552 0.000000 0.001834 0.000000
# 2 0.009159 0.082160 -0.011688 0.000000 -0.002879 0.000000
# 3 -0.008552 -0.011688 0.012913 0.000000 -0.002234 0.000000
# 4 0.000000 0.000000 0.000000 0.035051 0.000000 -0.002602
# 5 0.001834 -0.002879 -0.002234 0.000000 0.034523 0.000000
# 6 0.000000 0.000000 0.000000 -0.002602 0.000000 0.035364
#
#
# Mechanical properties :
#
#
# Convention : Reuss Voigt Hill
#
# Bulk Modulus (GPa) = 10.79363 35.32300 23.05831
# Shear Modulus (GPa) = 18.32890 27.26346 22.79618
#
# Velocity S-wave (km/s) = 2.96828 3.62016 3.31031
# Velocity P-wave (km/s) = 4.11535 5.86974 5.06902
#
# Compressibility (1/GPa) = 0.09264725
#
# Stress axis : x y z
#
# Youngs Moduli (GPa) = 50.66546 12.17143 77.43838
#
# Poissons Ratio (x) = -0.11147 0.66227
# Poissons Ratio (y) = -0.46402 0.90510
# Poissons Ratio (z) = 0.43330 0.14226
#
# Static dielectric constant tensor:
#      x y z
#    x 1.785970 0.000000 0.007820 
#    y 0.000000 1.701460 0.000000 
#    z 0.007820 0.000000 1.737740 
# 
# From -- ./inp_files/73202.got.cif
#   From: 2010.05.17/outbox.cif.g08.bks.cpg/sg11_37_cif.got.tgz:73202.got - 2010.06.03 12:22:45.
