data_PCOD9161205
_publ_section_title
;
Structure prediction by ZEFSAII (Michael W. Deem and Ramdas Pophale) SiO2 
 PCOD9161205
Probable space group: P 21/M
;
_chemical_formula_sum "Si O2"
_cell_formula_units_Z 32
_cell_length_a 27.547855
_cell_length_b 7.840888
_cell_length_c 22.126583
_cell_angle_alpha 90.000000
_cell_angle_beta 160.165203
_cell_angle_gamma 90.000000
_cell_volume 1621.672387
_symmetry_space_group_name_H-M "P 21/M"
_symmetry_group_IT_number 11
_symmetry_cell_setting 'monoclinic'
loop_
_space_group_symop_operation_xyz
x,y,z
-x,1/2+y,-z
-x,-y,-z
x,1/2-y,z
loop_
_atom_site_type_symbol
_atom_site_label
_atom_site_fract_x
_atom_site_fract_y
_atom_site_fract_z
Si Si1 0.052714 0.954372 0.994583
Si Si2 0.277743 0.452942 0.000377
Si Si3 0.367336 0.954958 0.386355
Si Si4 0.042446 0.449682 0.344977
Si Si5 0.882512 0.542208 0.439367
Si Si6 0.436800 0.959642 0.602982
Si Si7 0.171428 0.948714 0.369542
Si Si8 0.790434 0.951164 0.208332
O O1 0.048229 0.750000 0.982193
O O2 0.216562 0.015984 0.182913
O O3 0.000000 0.000000 0.000000
O O4 0.950100 0.030940 0.823834
O O5 0.298853 0.250000 0.020163
O O6 0.284380 0.524345 0.939326
O O7 0.118220 0.476490 0.839678
O O8 0.405684 0.517005 0.192316
O O9 0.356503 0.750000 0.377087
O O10 0.393297 0.017596 0.485031
O O11 0.500000 0.000000 0.500000
O O12 0.020896 0.250000 0.329009
O O13 0.135667 0.510404 0.512107
O O14 0.117927 0.475722 0.369688
O O15 0.883933 0.750000 0.437486
O O16 0.779117 0.481630 0.263880
O O17 0.041373 0.474851 0.610023
O O18 0.434028 0.750000 0.598461
O O19 0.317572 0.017449 0.511382
O O20 0.194459 0.750000 0.408213
O O21 0.756452 0.750000 0.170547
#
# Coordination Sequence:
#
# PCOD9161205 Si02
#       8
#     4   4   4   4   4   4   4   4
#     4  11  22  39  60  82 106 134 172 213 252 302
#     4   9  17  31  53  78 103 133 172 214 257 307
#     4  10  22  39  56  79 107 134 168 209 255 301
#     4  10  20  33  49  76 108 136 170 213 259 307
#     4   8  14  25  42  66 101 134 161 204 255 298
#     4   9  19  37  55  74 102 135 170 212 256 301
#     4  11  22  38  57  75 101 139 177 215 256 300
#     4   8  13  23  43  71  97 128 168 205 248 302
#
# _framework density 19.732714999999999
#
# number of rings (size 3 to 8) (size 9 to 14) (size 15 to 20)
#    0.000    2.500    1.250    1.125    1.750    1.500 
#    0.000    1.250    0.000    0.750    0.000    0.000 
#    0.000    0.000    0.000    0.000    0.000    1.000 
#
# Total GULP energy -178313.702980 kJ/mol
# GULP energy per Si atom -5572.303218 kJ/mol
# Density = 1.968780 g / cm^3
# Si number density = 19.732715 Si / 1000 Ang^3
#
#
#
# Elastic Constant Matrix: (Units=GPa)
#
#
# Indices 1 2 3 4 5 6 
#
# 1 106.5977 -12.1206 21.9342 0.0000 -6.4495 0.0000
# 2 -12.1206 18.3293 -0.0922 0.0000 -1.0745 0.0000
# 3 21.9342 -0.0922 29.5431 0.0000 6.8774 0.0000
# 4 0.0000 0.0000 0.0000 13.3770 0.0000 1.7484
# 5 -6.4495 -1.0745 6.8774 0.0000 27.3703 0.0000
# 6 0.0000 0.0000 0.0000 1.7484 0.0000 6.3693
#
#
#
# Elastic Compliance Matrix: (Units=1/GPa)
#
#
# Indices 1 2 3 4 5 6 
#
# 1 0.013063 0.008947 -0.011119 0.000000 0.006223 0.000000
# 2 0.008947 0.060814 -0.007965 0.000000 0.006497 0.000000
# 3 -0.011119 -0.007965 0.045419 0.000000 -0.014345 0.000000
# 4 0.000000 0.000000 0.000000 0.077537 0.000000 -0.021284
# 5 0.006223 0.006497 -0.014345 0.000000 0.041862 0.000000
# 6 0.000000 0.000000 0.000000 -0.021284 0.000000 0.162844
#
#
# Mechanical properties :
#
#
# Convention : Reuss Voigt Hill
#
# Bulk Modulus (GPa) = 10.09889 19.32367 14.71128
# Shear Modulus (GPa) = 10.99330 19.07324 15.03327
#
# Velocity S-wave (km/s) = 2.36288 3.11236 2.76315
# Velocity P-wave (km/s) = 3.54587 4.76756 4.20136
#
# Compressibility (1/GPa) = 0.09902081
#
# Stress axis : x y z
#
# Youngs Moduli (GPa) = 76.55273 16.44346 22.01718
#
# Poissons Ratio (x) = -0.14712 0.24482
# Poissons Ratio (y) = -0.68491 0.17538
# Poissons Ratio (z) = 0.85122 0.13098
#
# Static dielectric constant tensor:
#      x y z
#    x 1.708460 0.000000 -0.037560 
#    y 0.000000 1.759300 0.000000 
#    z -0.037560 0.000000 1.704020 
# 
# From -- ./inp_files/67236.got.cif
#   From: 2010.05.17/outbox.cif.g08.bks.cpg/sg11_34_cif.got.tgz:67236.got - 2010.06.03 12:22:45.
