data_PCOD9161927
_publ_section_title
;
Structure prediction by ZEFSAII (Michael W. Deem and Ramdas Pophale) SiO2 
 PCOD9161927
Probable space group: P 21/M
;
_chemical_formula_sum "Si O2"
_cell_formula_units_Z 32
_cell_length_a 9.483243
_cell_length_b 14.773742
_cell_length_c 25.178531
_cell_angle_alpha 90.000000
_cell_angle_beta 152.969687
_cell_angle_gamma 90.000000
_cell_volume 1603.153820
_symmetry_space_group_name_H-M "P 21/M"
_symmetry_group_IT_number 11
_symmetry_cell_setting 'monoclinic'
loop_
_space_group_symop_operation_xyz
x,y,z
-x,1/2+y,-z
-x,-y,-z
x,1/2-y,z
loop_
_atom_site_type_symbol
_atom_site_label
_atom_site_fract_x
_atom_site_fract_y
_atom_site_fract_z
Si Si1 0.347023 0.147865 0.216507
Si Si2 0.855210 0.093659 0.472544
Si Si3 0.518178 0.350349 0.727514
Si Si4 0.719138 0.984736 0.523499
Si Si5 0.706431 0.142085 0.674509
Si Si6 0.730840 0.141829 0.080437
Si Si7 0.451309 0.498790 0.792170
Si Si8 0.702179 0.529819 0.143236
O O1 0.353042 0.250000 0.199448
O O2 0.634371 0.131333 0.353144
O O3 0.043033 0.134545 0.150412
O O4 0.371342 0.082035 0.174751
O O5 0.154647 0.151069 0.589099
O O6 0.673758 0.064844 0.464961
O O7 0.000000 0.000000 0.500000
O O8 0.625961 0.250000 0.776330
O O9 0.692122 0.381950 0.732420
O O10 0.544709 0.415168 0.786211
O O11 0.610907 0.892332 0.458627
O O12 0.500000 0.000000 0.500000
O O13 0.081432 0.984329 0.659561
O O14 0.746970 0.250000 0.683016
O O15 0.976026 0.082567 0.738714
O O16 0.679152 0.250000 0.074441
O O17 0.754365 0.071144 0.137317
O O18 0.465724 0.095824 0.955213
O O19 0.490589 0.479709 0.867247
#
# Coordination Sequence:
#
# PCOD9161927 Si02
#       8
#     4   4   4   4   4   4   4   4
#     4  11  22  39  62  87 119 160 204 246 295 351
#     4  11  18  34  57  80 116 162 198 239 283 359
#     4  10  20  34  55  86 118 155 198 240 290 357
#     4  11  20  34  52  84 124 159 191 239 299 360
#     4  11  21  36  60  87 123 167 204 240 291 356
#     4  10  24  44  65  88 115 157 208 250 301 364
#     4  11  22  37  61  88 122 153 192 248 304 359
#     4  11  23  41  66  88 121 157 198 257 304 355
#
# _framework density 19.960654000000002
#
# number of rings (size 3 to 8) (size 9 to 14) (size 15 to 20)
#    0.000    1.250    5.000    2.250    0.000    3.500 
#    0.000    0.625    0.000    3.000    0.000    0.000 
#    0.000    0.000    0.000    0.000    0.000    0.000 
#
# Total GULP energy -178668.211210 kJ/mol
# GULP energy per Si atom -5583.381600 kJ/mol
# Density = 1.991522 g / cm^3
# Si number density = 19.960654 Si / 1000 Ang^3
#
#
#
# Elastic Constant Matrix: (Units=GPa)
#
#
# Indices 1 2 3 4 5 6 
#
# 1 119.0309 50.2016 -16.9100 0.0000 -9.3687 0.0000
# 2 50.2016 115.0598 3.2869 0.0000 -4.9646 0.0000
# 3 -16.9100 3.2869 17.4316 0.0000 1.3645 0.0000
# 4 0.0000 0.0000 0.0000 14.9586 0.0000 8.7588
# 5 -9.3687 -4.9646 1.3645 0.0000 18.2950 0.0000
# 6 0.0000 0.0000 0.0000 8.7588 0.0000 18.4926
#
#
#
# Elastic Compliance Matrix: (Units=1/GPa)
#
#
# Indices 1 2 3 4 5 6 
#
# 1 0.013164 -0.005954 0.013571 0.000000 0.004113 0.000000
# 2 -0.005954 0.011547 -0.008006 0.000000 0.000682 0.000000
# 3 0.013571 -0.008006 0.072088 0.000000 -0.000600 0.000000
# 4 0.000000 0.000000 0.000000 0.092506 0.000000 -0.043815
# 5 0.004113 0.000682 -0.000600 0.000000 0.056996 0.000000
# 6 0.000000 0.000000 0.000000 -0.043815 0.000000 0.074828
#
#
# Mechanical properties :
#
#
# Convention : Reuss Voigt Hill
#
# Bulk Modulus (GPa) = 10.41446 36.07548 23.24497
# Shear Modulus (GPa) = 14.12770 24.67882 19.40326
#
# Velocity S-wave (km/s) = 2.66329 3.52002 3.12119
# Velocity P-wave (km/s) = 3.83228 5.88501 4.96587
#
# Compressibility (1/GPa) = 0.09602033
#
# Stress axis : x y z
#
# Youngs Moduli (GPa) = 75.96594 86.60336 13.87189
#
# Poissons Ratio (x) = 0.51561 -0.18825
# Poissons Ratio (y) = 0.45228 0.11106
# Poissons Ratio (z) = -1.03090 0.69336
#
# Static dielectric constant tensor:
#      x y z
#    x 1.707230 0.000000 -0.008360 
#    y 0.000000 1.722350 0.000000 
#    z -0.008360 0.000000 1.750230 
# 
# From -- ./inp_files/68151.got.cif
#   From: 2010.05.17/outbox.cif.g08.bks.cpg/sg11_35_cif.got.tgz:68151.got - 2010.06.03 12:22:45.
