data_PCOD9161668
_publ_section_title
;
Structure prediction by ZEFSAII (Michael W. Deem and Ramdas Pophale) SiO2 
 PCOD9161668
Probable space group: P 21/M
;
_chemical_formula_sum "Si O2"
_cell_formula_units_Z 32
_cell_length_a 21.944661
_cell_length_b 7.464498
_cell_length_c 14.770763
_cell_angle_alpha 90.000000
_cell_angle_beta 34.218592
_cell_angle_gamma 90.000000
_cell_volume 1360.631267
_symmetry_space_group_name_H-M "P 21/M"
_symmetry_group_IT_number 11
_symmetry_cell_setting 'monoclinic'
loop_
_space_group_symop_operation_xyz
x,y,z
-x,1/2+y,-z
-x,-y,-z
x,1/2-y,z
loop_
_atom_site_type_symbol
_atom_site_label
_atom_site_fract_x
_atom_site_fract_y
_atom_site_fract_z
Si Si1 0.722033 0.547060 0.909178
Si Si2 0.597137 0.031473 0.590927
Si Si3 0.958596 0.536531 0.286492
Si Si4 0.368268 0.469453 0.794718
Si Si5 0.156882 0.041489 0.750366
Si Si6 0.100557 0.035291 0.442062
Si Si7 0.827243 0.965440 0.074461
Si Si8 0.518896 0.054129 0.874015
O O1 0.764082 0.750000 0.873691
O O2 0.797402 0.463515 0.740177
O O3 0.701731 0.466772 0.032418
O O4 0.601880 0.561398 0.017306
O O5 0.594619 0.250000 0.595812
O O6 0.492576 0.974760 0.659342
O O7 0.582685 0.963051 0.712833
O O8 0.713041 0.970794 0.414503
O O9 0.939623 0.750000 0.312610
O O10 0.894593 0.462443 0.277577
O O11 0.921176 0.465136 0.430148
O O12 0.085131 0.507694 0.110173
O O13 0.370180 0.250000 0.794119
O O14 0.294731 0.526120 0.800493
O O15 0.125001 0.250000 0.790634
O O16 0.129357 0.963394 0.882733
O O17 0.115502 0.250000 0.433394
O O18 0.000000 0.000000 0.500000
O O19 0.822101 0.750000 0.087580
O O20 0.569658 0.250000 0.818425
O O21 0.500000 0.000000 0.000000
#
# Coordination Sequence:
#
# PCOD9161668 Si02
#       8
#     4   4   4   4   4   4   4   4
#     4   8  15  29  49  71  97 134 171 199 246 311
#     4   9  19  35  53  78 109 141 180 221 265 318
#     4  10  22  37  53  78 112 144 177 222 275 326
#     4   8  15  31  54  78 105 136 176 223 263 311
#     4  10  22  37  54  80 111 142 180 224 270 323
#     4  10  20  34  53  77 104 138 177 215 259 313
#     4  10  20  36  59  81 102 138 187 229 268 320
#     4   9  18  31  50  74 100 134 173 208 247 306
#
# _framework density 23.518497
#
# number of rings (size 3 to 8) (size 9 to 14) (size 15 to 20)
#    0.000    2.750    0.000    2.625    1.750    3.500 
#    0.000    1.250    0.000    1.500    0.000    0.000 
#    0.000    0.000    0.000    0.000    0.000    0.000 
#
# Total GULP energy -178435.379124 kJ/mol
# GULP energy per Si atom -5576.105598 kJ/mol
# Density = 2.346497 g / cm^3
# Si number density = 23.518497 Si / 1000 Ang^3
#
#
#
# Elastic Constant Matrix: (Units=GPa)
#
#
# Indices 1 2 3 4 5 6 
#
# 1 111.6279 -0.5768 -1.0837 0.0000 4.3865 0.0000
# 2 -0.5768 70.4719 -13.1877 0.0000 3.2054 0.0000
# 3 -1.0837 -13.1877 73.2373 0.0000 -6.5597 0.0000
# 4 0.0000 0.0000 0.0000 14.3465 0.0000 -7.7488
# 5 4.3865 3.2054 -6.5597 0.0000 22.0353 0.0000
# 6 0.0000 0.0000 0.0000 -7.7488 0.0000 6.7969
#
#
#
# Elastic Compliance Matrix: (Units=1/GPa)
#
#
# Indices 1 2 3 4 5 6 
#
# 1 0.009031 0.000157 -0.000001 0.000000 -0.001821 0.000000
# 2 0.000157 0.014729 0.002527 0.000000 -0.001421 0.000000
# 3 -0.000001 0.002527 0.014462 0.000000 0.003938 0.000000
# 4 0.000000 0.000000 0.000000 0.181402 0.000000 0.206806
# 5 -0.001821 -0.001421 0.003938 0.000000 0.047123 0.000000
# 6 0.000000 0.000000 0.000000 0.206806 0.000000 0.382892
#
#
# Mechanical properties :
#
#
# Convention : Reuss Voigt Hill
#
# Bulk Modulus (GPa) = 22.94291 25.07119 24.00705
# Shear Modulus (GPa) = 7.58952 26.64810 17.11881
#
# Velocity S-wave (km/s) = 1.79835 3.36976 2.70087
# Velocity P-wave (km/s) = 3.75347 5.08171 4.46723
#
# Compressibility (1/GPa) = 0.04358645
#
# Stress axis : x y z
#
# Youngs Moduli (GPa) = 110.73363 67.89365 69.14676
#
# Poissons Ratio (x) = -0.01063 0.00009
# Poissons Ratio (y) = -0.01733 -0.17475
# Poissons Ratio (z) = 0.00014 -0.17158
#
# Static dielectric constant tensor:
#      x y z
#    x 1.915190 0.000000 0.050860 
#    y 0.000000 1.882380 0.000000 
#    z 0.050860 0.000000 1.932160 
# 
# From -- ./inp_files/54297.got.cif
#   From: 2010.05.17/outbox.cif.g08.bks.cpg/sg11_28_cif.got.tgz:54297.got - 2010.06.03 12:22:45.
