data_PCOD9161780
_publ_section_title
;
Structure prediction by ZEFSAII (Michael W. Deem and Ramdas Pophale) SiO2 
 PCOD9161780
Probable space group: P 21/M
;
_chemical_formula_sum "Si O2"
_cell_formula_units_Z 32
_cell_length_a 16.356856
_cell_length_b 8.817391
_cell_length_c 26.416667
_cell_angle_alpha 90.000000
_cell_angle_beta 28.780866
_cell_angle_gamma 90.000000
_cell_volume 1834.336755
_symmetry_space_group_name_H-M "P 21/M"
_symmetry_group_IT_number 11
_symmetry_cell_setting 'monoclinic'
loop_
_space_group_symop_operation_xyz
x,y,z
-x,1/2+y,-z
-x,-y,-z
x,1/2-y,z
loop_
_atom_site_type_symbol
_atom_site_label
_atom_site_fract_x
_atom_site_fract_y
_atom_site_fract_z
Si Si1 0.665414 0.568947 0.844381
Si Si2 0.277395 0.932136 0.079292
Si Si3 0.469472 0.432369 0.678076
Si Si4 0.768055 0.568859 0.582963
Si Si5 0.159850 0.568904 0.348897
Si Si6 0.898029 0.431261 0.102196
Si Si7 0.595462 0.568626 0.400651
Si Si8 0.023384 0.066973 0.833673
O O1 0.681363 0.750000 0.831966
O O2 0.741639 0.511387 0.856150
O O3 0.754348 0.492154 0.748399
O O4 0.464551 0.530331 0.956361
O O5 0.271276 0.750000 0.090083
O O6 0.130881 0.973873 0.119355
O O7 0.457384 0.250000 0.687551
O O8 0.626647 0.491987 0.625008
O O9 0.293574 0.503996 0.793010
O O10 0.482740 0.475306 0.611425
O O11 0.746147 0.750000 0.594641
O O12 0.760859 0.507524 0.644205
O O13 0.958252 0.533747 0.459849
O O14 0.178709 0.750000 0.342159
O O15 0.895321 0.250000 0.101204
O O16 0.982024 0.487022 0.109129
O O17 0.000000 0.500000 0.000000
O O18 0.500000 0.500000 0.500000
O O19 0.586544 0.750000 0.409123
O O20 0.794718 0.526985 0.289746
O O21 0.021819 0.250000 0.842221
#
# Coordination Sequence:
#
# PCOD9161780 Si02
#       8
#     4   4   4   4   4   4   4   4
#     4  10  20  34  54  80 109 140 179 226 270 318
#     4   9  19  36  56  77 105 141 179 222 271 321
#     4  10  21  38  57  80 110 143 179 222 271 320
#     4  10  21  37  57  81 107 140 182 225 270 319
#     4  10  21  37  56  78 109 146 181 221 269 323
#     4  11  22  37  57  81 110 143 180 223 270 323
#     4   9  19  34  53  76 104 137 173 216 264 317
#     4   9  19  37  56  76 105 141 181 224 271 322
#
# _framework density 17.444998999999999
#
# number of rings (size 3 to 8) (size 9 to 14) (size 15 to 20)
#    0.000    2.250    0.000    3.375    0.000    7.000 
#    0.000    7.500    0.000    0.000    0.000    0.000 
#    0.000    0.000    0.000    0.000    0.000    0.000 
#
# Total GULP energy -178644.438479 kJ/mol
# GULP energy per Si atom -5582.638702 kJ/mol
# Density = 1.740529 g / cm^3
# Si number density = 17.444999 Si / 1000 Ang^3
#
#
#
# Elastic Constant Matrix: (Units=GPa)
#
#
# Indices 1 2 3 4 5 6 
#
# 1 175.5286 71.3135 105.7370 0.0000 -5.1309 0.0000
# 2 71.3135 69.4971 59.6302 0.0000 5.6050 0.0000
# 3 105.7370 59.6302 122.4199 0.0000 29.5188 0.0000
# 4 0.0000 0.0000 0.0000 32.3644 0.0000 4.8859
# 5 -5.1309 5.6050 29.5188 0.0000 30.7475 0.0000
# 6 0.0000 0.0000 0.0000 4.8859 0.0000 35.2803
#
#
#
# Elastic Compliance Matrix: (Units=1/GPa)
#
#
# Indices 1 2 3 4 5 6 
#
# 1 0.023479 -0.005327 -0.024546 0.000000 0.028454 0.000000
# 2 -0.005327 0.028094 -0.009934 0.000000 0.003527 0.000000
# 3 -0.024546 -0.009934 0.045230 0.000000 -0.045708 0.000000
# 4 0.000000 0.000000 0.000000 0.031558 0.000000 -0.004370
# 5 0.028454 0.003527 -0.045708 0.000000 0.080510 0.000000
# 6 0.000000 0.000000 0.000000 -0.004370 0.000000 0.028950
#
#
# Mechanical properties :
#
#
# Convention : Reuss Voigt Hill
#
# Bulk Modulus (GPa) = 58.17545 93.42300 75.79923
# Shear Modulus (GPa) = 15.47193 28.39610 21.93402
#
# Velocity S-wave (km/s) = 2.98131 4.03892 3.54972
# Velocity P-wave (km/s) = 6.72839 8.68445 7.76823
#
# Compressibility (1/GPa) = 0.01718938
#
# Stress axis : x y z
#
# Youngs Moduli (GPa) = 42.59045 35.59425 22.10908
#
# Poissons Ratio (x) = 0.18960 0.54270
# Poissons Ratio (y) = 0.22686 0.21964
# Poissons Ratio (z) = 1.04544 0.35361
#
# Static dielectric constant tensor:
#      x y z
#    x 1.568070 0.000000 -0.009330 
#    y 0.000000 1.580150 0.000000 
#    z -0.009330 0.000000 1.571800 
# 
# From -- ./inp_files/69011.got.cif
#   From: 2010.05.17/outbox.cif.g08.bks.cpg/sg11_35_cif.got.tgz:69011.got - 2010.06.03 12:22:45.
