data_PCOD9161416
_publ_section_title
;
Structure prediction by ZEFSAII (Michael W. Deem and Ramdas Pophale) SiO2 
 PCOD9161416
Probable space group: P 21/M
;
_chemical_formula_sum "Si O2"
_cell_formula_units_Z 24
_cell_length_a 11.947312
_cell_length_b 9.134947
_cell_length_c 24.314146
_cell_angle_alpha 90.000000
_cell_angle_beta 28.282578
_cell_angle_gamma 90.000000
_cell_volume 1257.329389
_symmetry_space_group_name_H-M "P 21/M"
_symmetry_group_IT_number 11
_symmetry_cell_setting 'monoclinic'
loop_
_space_group_symop_operation_xyz
x,y,z
-x,1/2+y,-z
-x,-y,-z
x,1/2-y,z
loop_
_atom_site_type_symbol
_atom_site_label
_atom_site_fract_x
_atom_site_fract_y
_atom_site_fract_z
Si Si1 0.820838 0.918000 0.007289
Si Si2 0.522184 0.925560 0.764264
Si Si3 0.910168 0.574846 0.683837
Si Si4 0.322827 0.573450 0.738483
Si Si5 0.542951 0.424914 0.540063
Si Si6 0.587377 0.081934 0.908183
O O1 0.848429 0.750000 0.014501
O O2 0.067744 0.965321 0.874211
O O3 0.627370 0.919949 0.042443
O O4 0.707119 0.013217 0.104762
O O5 0.511733 0.750000 0.770432
O O6 0.751788 0.972545 0.699868
O O7 0.508519 0.967821 0.706313
O O8 0.880889 0.750000 0.702527
O O9 0.801815 0.497823 0.784410
O O10 0.186251 0.544034 0.559341
O O11 0.327990 0.750000 0.728001
O O12 0.376622 0.492745 0.658752
O O13 0.500000 0.500000 0.500000
O O14 0.512573 0.250000 0.549032
O O15 0.647636 0.250000 0.894498
O O16 0.500000 0.000000 0.000000
#
# Coordination Sequence:
#
# PCOD9161416 Si02
#       6
#     4   4   4   4   4   4
#     4   9  19  34  53  82 118 149 179 226 280 328
#     4   9  18  35  60  87 114 146 184 227 278 336
#     4   9  20  39  58  79 111 146 184 235 284 327
#     4  10  21  37  58  85 117 151 185 225 279 336
#     4  11  25  42  59  80 110 149 193 238 283 334
#     4  10  20  33  53  81 111 147 189 230 278 330
#
# _framework density 19.088076999999998
#
# number of rings (size 3 to 8) (size 9 to 14) (size 15 to 20)
#    0.000    2.333    0.000    1.500    2.333    4.000 
#    0.000    0.000    0.000    0.000    0.000    0.000 
#    0.000    0.000    0.000    0.000    0.000    0.000 
#
# Total GULP energy -133967.691483 kJ/mol
# GULP energy per Si atom -5581.987145 kJ/mol
# Density = 1.904463 g / cm^3
# Si number density = 19.088077 Si / 1000 Ang^3
#
#
#
# Elastic Constant Matrix: (Units=GPa)
#
#
# Indices 1 2 3 4 5 6 
#
# 1 77.4778 33.5042 44.9314 0.0000 21.0135 0.0000
# 2 33.5042 27.4500 25.6501 0.0000 3.4548 0.0000
# 3 44.9314 25.6501 68.4604 0.0000 2.2812 0.0000
# 4 0.0000 0.0000 0.0000 33.1077 0.0000 3.1991
# 5 21.0135 3.4548 2.2812 0.0000 31.7822 0.0000
# 6 0.0000 0.0000 0.0000 3.1991 0.0000 22.6803
#
#
#
# Elastic Compliance Matrix: (Units=1/GPa)
#
#
# Indices 1 2 3 4 5 6 
#
# 1 0.043304 -0.037022 -0.013763 0.000000 -0.023619 0.000000
# 2 -0.037022 0.088384 -0.009335 0.000000 0.015540 0.000000
# 3 -0.013763 -0.009335 0.026864 0.000000 0.008186 0.000000
# 4 0.000000 0.000000 0.000000 0.030622 0.000000 -0.004319
# 5 -0.023619 0.015540 0.008186 0.000000 0.044804 0.000000
# 6 0.000000 0.000000 0.000000 -0.004319 0.000000 0.044700
#
#
# Mechanical properties :
#
#
# Convention : Reuss Voigt Hill
#
# Bulk Modulus (GPa) = 26.10057 42.39550 34.24803
# Shear Modulus (GPa) = 12.14510 22.13420 17.13965
#
# Velocity S-wave (km/s) = 2.52517 3.40896 2.99979
# Velocity P-wave (km/s) = 4.71226 6.14437 5.47534
#
# Compressibility (1/GPa) = 0.03831334
#
# Stress axis : x y z
#
# Youngs Moduli (GPa) = 23.09255 11.31426 37.22396
#
# Poissons Ratio (x) = 0.41887 0.51231
# Poissons Ratio (y) = 0.85493 0.34748
# Poissons Ratio (z) = 0.31782 0.10562
#
# Static dielectric constant tensor:
#      x y z
#    x 1.685790 0.000000 -0.034940 
#    y 0.000000 1.649650 0.000000 
#    z -0.034940 0.000000 1.632420 
# 
# From -- ./inp_files/43894.got.cif
#   From: 2010.05.17/outbox.cif.g08.bks.cpg/sg11_22_cif.got.tgz:43894.got - 2010.06.03 12:22:45.
