data_PCOD9161732
_publ_section_title
;
Structure prediction by ZEFSAII (Michael W. Deem and Ramdas Pophale) SiO2 
 PCOD9161732
Probable space group: P 21/M
;
_chemical_formula_sum "Si O2"
_cell_formula_units_Z 32
_cell_length_a 7.670018
_cell_length_b 11.578951
_cell_length_c 28.569389
_cell_angle_alpha 90.000000
_cell_angle_beta 39.908100
_cell_angle_gamma 90.000000
_cell_volume 1627.805573
_symmetry_space_group_name_H-M "P 21/M"
_symmetry_group_IT_number 11
_symmetry_cell_setting 'monoclinic'
loop_
_space_group_symop_operation_xyz
x,y,z
-x,1/2+y,-z
-x,-y,-z
x,1/2-y,z
loop_
_atom_site_type_symbol
_atom_site_label
_atom_site_fract_x
_atom_site_fract_y
_atom_site_fract_z
Si Si1 0.863433 0.118703 0.391829
Si Si2 0.425213 0.380193 0.234670
Si Si3 0.647232 0.877965 0.568496
Si Si4 0.018702 0.619275 0.411143
Si Si5 0.557615 0.991824 0.300329
Si Si6 0.148506 0.043593 0.897856
Si Si7 0.072210 0.883462 0.156269
Si Si8 0.309482 0.118411 0.965216
O O1 0.898176 0.250000 0.406084
O O2 0.570108 0.116723 0.428822
O O3 0.099248 0.111328 0.303785
O O4 0.901729 0.000942 0.413535
O O5 0.502757 0.250000 0.206438
O O6 0.512194 0.411177 0.269960
O O7 0.584173 0.469789 0.170031
O O8 0.637785 0.750000 0.591505
O O9 0.934246 0.889713 0.483138
O O10 0.543486 0.962930 0.629259
O O11 0.927816 0.750000 0.414960
O O12 0.339239 0.608893 0.334480
O O13 0.864773 0.950422 0.232605
O O14 0.219759 0.115606 0.929308
O O15 0.052594 0.106476 0.870327
O O16 0.903668 0.958682 0.962823
O O17 0.080900 0.750000 0.168717
O O18 0.382004 0.926840 0.093546
O O19 0.304565 0.250000 0.983598
#
# Coordination Sequence:
#
# PCOD9161732 Si02
#       8
#     4   4   4   4   4   4   4   4
#     4   9  19  35  55  80 109 144 183 230 282 341
#     4   9  18  33  54  77 104 139 178 219 271 326
#     4  10  20  34  55  80 109 141 183 235 284 333
#     4  10  20  36  55  79 109 146 187 233 283 341
#     4  10  20  34  54  76 109 142 184 224 278 333
#     4  10  20  35  58  80 108 144 180 223 276 324
#     4  10  21  37  55  78 112 147 182 226 273 332
#     4  10  21  36  56  82 110 141 182 224 273 332
#
# _framework density 19.658366999999998
#
# number of rings (size 3 to 8) (size 9 to 14) (size 15 to 20)
#    0.000    2.250    0.000    2.625    1.750    0.500 
#    0.000    3.125    0.000    4.500    0.000    0.000 
#    0.000    0.000    0.000    0.000    0.000    0.000 
#
# Total GULP energy -178250.688270 kJ/mol
# GULP energy per Si atom -5570.334008 kJ/mol
# Density = 1.961362 g / cm^3
# Si number density = 19.658367 Si / 1000 Ang^3
#
#
#
# Elastic Constant Matrix: (Units=GPa)
#
#
# Indices 1 2 3 4 5 6 
#
# 1 20.1821 6.8102 2.9800 0.0000 -4.5417 0.0000
# 2 6.8102 92.5310 20.2224 0.0000 4.7725 0.0000
# 3 2.9800 20.2224 86.4448 0.0000 -10.0875 0.0000
# 4 0.0000 0.0000 0.0000 -2.4505 0.0000 -5.9621
# 5 -4.5417 4.7725 -10.0875 0.0000 28.2020 0.0000
# 6 0.0000 0.0000 0.0000 -5.9621 0.0000 13.1461
#
#
#
# Elastic Compliance Matrix: (Units=1/GPa)
#
#
# Indices 1 2 3 4 5 6 
#
# 1 0.053130 -0.004465 0.000313 0.000000 0.009423 0.000000
# 2 -0.004465 0.012014 -0.003107 0.000000 -0.003864 0.000000
# 3 0.000313 -0.003107 0.012889 0.000000 0.005187 0.000000
# 4 0.000000 0.000000 0.000000 -0.194006 0.000000 -0.087987
# 5 0.009423 -0.003864 0.005187 0.000000 0.039485 0.000000
# 6 0.000000 0.000000 0.000000 -0.087987 0.000000 0.036164
#
#
# Mechanical properties :
#
#
# Convention : Reuss Voigt Hill
#
# Bulk Modulus (GPa) = 15.74447 28.79813 22.27130
# Shear Modulus (GPa) = -1079.12741 19.05588 -530.03577
#
# Velocity S-wave (km/s) = -23.45490 3.11682 -16.43803
# Velocity P-wave (km/s) = 26.93480 5.25679 18.67953
#
# Compressibility (1/GPa) = 0.06351438
#
# Stress axis : x y z
#
# Youngs Moduli (GPa) = 18.82177 83.23487 77.58260
#
# Poissons Ratio (x) = 0.37162 -0.02425
# Poissons Ratio (y) = 0.08403 0.24109
# Poissons Ratio (z) = -0.00588 0.25865
#
# Static dielectric constant tensor:
#      x y z
#    x 1.708040 0.000000 -0.019890 
#    y 0.000000 1.711720 0.000000 
#    z -0.019890 0.000000 1.674780 
# 
# From -- ./inp_files/72837.got.cif
#   From: 2010.05.17/outbox.cif.g08.bks.cpg/sg11_37_cif.got.tgz:72837.got - 2010.06.03 12:22:45.
