data_PCOD9161434
_publ_section_title
;
Structure prediction by ZEFSAII (Michael W. Deem and Ramdas Pophale) SiO2 
 PCOD9161434
Probable space group: P 21/M
;
_chemical_formula_sum "Si O2"
_cell_formula_units_Z 28
_cell_length_a 19.539601
_cell_length_b 8.939220
_cell_length_c 21.031692
_cell_angle_alpha 90.000000
_cell_angle_beta 28.938658
_cell_angle_gamma 90.000000
_cell_volume 1777.546133
_symmetry_space_group_name_H-M "P 21/M"
_symmetry_group_IT_number 11
_symmetry_cell_setting 'monoclinic'
loop_
_space_group_symop_operation_xyz
x,y,z
-x,1/2+y,-z
-x,-y,-z
x,1/2-y,z
loop_
_atom_site_type_symbol
_atom_site_label
_atom_site_fract_x
_atom_site_fract_y
_atom_site_fract_z
Si Si1 0.824693 0.426932 0.578250
Si Si2 0.379485 0.572164 0.784830
Si Si3 0.121852 0.573100 0.314094
Si Si4 0.435348 0.076406 0.613844
Si Si5 0.142181 0.423541 0.907066
Si Si6 0.523601 0.570373 0.801932
Si Si7 0.605471 0.570319 0.966638
O O1 0.820430 0.250000 0.567692
O O2 0.833922 0.442981 0.647562
O O3 0.683213 0.508684 0.670701
O O4 0.966307 0.501893 0.435428
O O5 0.372504 0.750000 0.783270
O O6 0.469963 0.503821 0.652690
O O7 0.223623 0.503259 0.899235
O O8 0.445026 0.536602 0.799592
O O9 0.120140 0.750000 0.300872
O O10 0.238319 0.487731 0.177932
O O11 0.474861 0.250000 0.584534
O O12 0.263811 0.066866 0.753794
O O13 0.500000 0.000000 0.500000
O O14 0.118522 0.250000 0.940798
O O15 0.000000 0.500000 0.000000
O O16 0.524551 0.750000 0.810612
O O17 0.444878 0.491003 0.924448
O O18 0.597565 0.750000 0.970793
O O19 0.500000 0.500000 0.000000
#
# Coordination Sequence:
#
# PCOD9161434 Si02
#       7
#     4   4   4   4   4   4   4
#     4  10  20  33  54  78 103 138 174 219 271 321
#     4   9  19  34  54  79 110 143 178 218 265 318
#     4  10  20  35  53  76 104 134 174 224 271 321
#     4   9  18  31  53  81 107 137 171 212 255 305
#     4   9  18  31  53  81 108 140 175 214 256 309
#     4  11  22  36  56  79 107 144 181 223 273 324
#     4  12  23  35  54  79 107 140 182 230 273 321
#
# _framework density 15.752052000000001
#
# number of rings (size 3 to 8) (size 9 to 14) (size 15 to 20)
#    0.857    1.143    1.429    3.429    0.000    3.429 
#    0.000    0.000    3.143    0.000    0.000    0.000 
#    0.000    0.000    0.000    0.000    0.000    0.000 
#
# Total GULP energy -155995.875892 kJ/mol
# GULP energy per Si atom -5571.281282 kJ/mol
# Density = 1.571620 g / cm^3
# Si number density = 15.752052 Si / 1000 Ang^3
#
#
#
# Elastic Constant Matrix: (Units=GPa)
#
#
# Indices 1 2 3 4 5 6 
#
# 1 116.0214 86.6973 71.2104 0.0000 -2.0972 0.0000
# 2 86.6973 143.1395 77.1548 0.0000 -2.4973 0.0000
# 3 71.2104 77.1548 115.4844 0.0000 -6.4407 0.0000
# 4 0.0000 0.0000 0.0000 33.0865 0.0000 -0.8957
# 5 -2.0972 -2.4973 -6.4407 0.0000 25.2734 0.0000
# 6 0.0000 0.0000 0.0000 -0.8957 0.0000 25.3344
#
#
#
# Elastic Compliance Matrix: (Units=1/GPa)
#
#
# Indices 1 2 3 4 5 6 
#
# 1 0.018066 -0.007701 -0.006040 0.000000 -0.000801 0.000000
# 2 -0.007701 0.014216 -0.004774 0.000000 -0.000451 0.000000
# 3 -0.006040 -0.004774 0.015743 0.000000 0.003039 0.000000
# 4 0.000000 0.000000 0.000000 0.030253 0.000000 0.001070
# 5 -0.000801 -0.000451 0.003039 0.000000 0.040231 0.000000
# 6 0.000000 0.000000 0.000000 0.001070 0.000000 0.039510
#
#
# Mechanical properties :
#
#
# Convention : Reuss Voigt Hill
#
# Bulk Modulus (GPa) = 90.95080 93.86337 92.40708
# Shear Modulus (GPa) = 25.16195 26.04439 25.60317
#
# Velocity S-wave (km/s) = 4.00105 4.07061 4.03598
# Velocity P-wave (km/s) = 8.89994 9.04492 8.97272
#
# Compressibility (1/GPa) = 0.01099495
#
# Stress axis : x y z
#
# Youngs Moduli (GPa) = 55.35246 70.34323 63.52157
#
# Poissons Ratio (x) = 0.54169 0.38366
# Poissons Ratio (y) = 0.42625 0.30328
# Poissons Ratio (z) = 0.33432 0.33584
#
# Static dielectric constant tensor:
#      x y z
#    x 1.500270 0.000000 -0.002510 
#    y 0.000000 1.525870 0.000000 
#    z -0.002510 0.000000 1.515750 
# 
# From -- ./inp_files/65984.got.cif
#   From: 2010.05.17/outbox.cif.g08.bks.cpg/sg11_33_cif.got.tgz:65984.got - 2010.06.03 12:22:45.
