data_PCOD9161564
_publ_section_title
;
Structure prediction by ZEFSAII (Michael W. Deem and Ramdas Pophale) SiO2 
 PCOD9161564
Probable space group: P 21/M
;
_chemical_formula_sum "Si O2"
_cell_formula_units_Z 24
_cell_length_a 24.358390
_cell_length_b 11.076052
_cell_length_c 23.162598
_cell_angle_alpha 90.000000
_cell_angle_beta 12.555180
_cell_angle_gamma 90.000000
_cell_volume 1358.438355
_symmetry_space_group_name_H-M "P 21/M"
_symmetry_group_IT_number 11
_symmetry_cell_setting 'monoclinic'
loop_
_space_group_symop_operation_xyz
x,y,z
-x,1/2+y,-z
-x,-y,-z
x,1/2-y,z
loop_
_atom_site_type_symbol
_atom_site_label
_atom_site_fract_x
_atom_site_fract_y
_atom_site_fract_z
Si Si1 0.272185 0.617158 0.183447
Si Si2 0.855277 0.393177 0.434166
Si Si3 0.978203 0.613372 0.065384
Si Si4 0.391944 0.102691 0.824154
Si Si5 0.438892 0.612222 0.683327
Si Si6 0.210729 0.521597 0.367813
O O1 0.284096 0.750000 0.147696
O O2 0.237005 0.617895 0.288994
O O3 0.034358 0.552089 0.399756
O O4 0.531536 0.552095 0.902578
O O5 0.852708 0.250000 0.441890
O O6 0.621912 0.423822 0.631951
O O7 0.822518 0.440219 0.532435
O O8 0.124213 0.423828 0.129650
O O9 0.991650 0.750000 0.025041
O O10 0.708696 0.605409 0.374190
O O11 0.000000 0.500000 0.000000
O O12 0.208414 0.605411 0.874472
O O13 0.399197 0.250000 0.802389
O O14 0.417923 0.004808 0.746228
O O15 0.425585 0.750000 0.723251
#
# Coordination Sequence:
#
# PCOD9161564 Si02
#       6
#     4   4   4   4   4   4
#     4  10  20  34  51  75 103 132 169 210 262 327
#     4  10  20  36  55  77 103 132 177 226 265 309
#     4  10  21  36  57  84 113 145 180 219 261 311
#     4  10  21  36  57  81 105 139 184 228 263 308
#     4  10  21  38  56  79 114 148 178 216 267 319
#     4  10  20  34  54  74 100 136 168 211 269 320
#
# _framework density 17.667345000000001
#
# number of rings (size 3 to 8) (size 9 to 14) (size 15 to 20)
#    0.000    2.000    0.000    3.500    0.000    1.333 
#    0.000   10.000    0.000    0.000    0.000    0.000 
#    0.000    0.000    0.000    0.000    0.000    0.000 
#
# Total GULP energy -133695.274071 kJ/mol
# GULP energy per Si atom -5570.636420 kJ/mol
# Density = 1.762713 g / cm^3
# Si number density = 17.667345 Si / 1000 Ang^3
#
#
#
# Elastic Constant Matrix: (Units=GPa)
#
#
# Indices 1 2 3 4 5 6 
#
# 1 97.5956 72.6185 56.8594 0.0000 0.5326 0.0000
# 2 72.6185 79.6439 64.4793 0.0000 1.5908 0.0000
# 3 56.8594 64.4793 168.8465 0.0000 -14.4772 0.0000
# 4 0.0000 0.0000 0.0000 10.3579 0.0000 -6.5846
# 5 0.5326 1.5908 -14.4772 0.0000 21.9501 0.0000
# 6 0.0000 0.0000 0.0000 -6.5846 0.0000 -23.2435
#
#
#
# Elastic Compliance Matrix: (Units=1/GPa)
#
#
# Indices 1 2 3 4 5 6 
#
# 1 0.031969 -0.029824 0.000787 0.000000 0.001905 0.000000
# 2 -0.029824 0.046844 -0.008559 0.000000 -0.008316 0.000000
# 3 0.000787 -0.008559 0.009516 0.000000 0.006877 0.000000
# 4 0.000000 0.000000 0.000000 0.081811 0.000000 -0.023176
# 5 0.001905 -0.008316 0.006877 0.000000 0.050650 0.000000
# 6 0.000000 0.000000 0.000000 -0.023176 0.000000 -0.036457
#
#
# Mechanical properties :
#
#
# Convention : Reuss Voigt Hill
#
# Bulk Modulus (GPa) = 76.11950 81.55560 78.83755
# Shear Modulus (GPa) = 18.94638 11.95483 15.45060
#
# Velocity S-wave (km/s) = 3.27830 2.60410 2.96045
# Velocity P-wave (km/s) = 7.58341 7.43665 7.51039
#
# Compressibility (1/GPa) = 0.01313724
#
# Stress axis : x y z
#
# Youngs Moduli (GPa) = 31.28059 21.34739 105.09074
#
# Poissons Ratio (x) = 0.63666 -0.08270
# Poissons Ratio (y) = 0.93291 0.89944
# Poissons Ratio (z) = -0.02462 0.18271
#
# Static dielectric constant tensor:
#      x y z
#    x 1.596550 0.000000 -0.000240 
#    y 0.000000 1.666910 0.000000 
#    z -0.000240 0.000000 1.597770 
# 
# From -- ./inp_files/8578.got.cif
#   From: 2010.05.17/outbox.cif.g08.bks.cpg/sg11_5_cif.got.tgz:8578.got - 2010.06.03 12:22:45.
