data_PCOD9161110
_publ_section_title
;
Structure prediction by ZEFSAII (Michael W. Deem and Ramdas Pophale) SiO2 
 PCOD9161110
Probable space group: P 21/M
;
_chemical_formula_sum "Si O2"
_cell_formula_units_Z 32
_cell_length_a 15.665016
_cell_length_b 8.605835
_cell_length_c 23.596703
_cell_angle_alpha 90.000000
_cell_angle_beta 149.665603
_cell_angle_gamma 90.000000
_cell_volume 1606.593493
_symmetry_space_group_name_H-M "P 21/M"
_symmetry_group_IT_number 11
_symmetry_cell_setting 'monoclinic'
loop_
_space_group_symop_operation_xyz
x,y,z
-x,1/2+y,-z
-x,-y,-z
x,1/2-y,z
loop_
_atom_site_type_symbol
_atom_site_label
_atom_site_fract_x
_atom_site_fract_y
_atom_site_fract_z
Si Si1 0.710728 0.563027 0.568478
Si Si2 0.663377 0.938121 0.666417
Si Si3 0.039075 0.063848 0.084715
Si Si4 0.579208 0.936421 0.286228
Si Si5 0.829164 0.936758 0.520673
Si Si6 0.490817 0.063201 0.931396
Si Si7 0.286173 0.065523 0.042553
Si Si8 0.173512 0.065485 0.675405
O O1 0.712793 0.750000 0.569608
O O2 0.523150 0.508262 0.443868
O O3 0.746637 0.514930 0.653499
O O4 0.831331 0.508115 0.586929
O O5 0.650293 0.750000 0.660224
O O6 0.781476 0.988252 0.785991
O O7 0.039992 0.250000 0.082633
O O8 0.000000 0.000000 0.000000
O O9 0.891689 0.009641 0.042775
O O10 0.546374 0.750000 0.267632
O O11 0.657138 0.988232 0.390535
O O12 0.731082 0.966197 0.328689
O O13 0.416287 0.020306 0.167749
O O14 0.824178 0.750000 0.516919
O O15 0.995097 0.987078 0.582637
O O16 0.502350 0.250000 0.937522
O O17 0.309467 0.017928 0.800888
O O18 0.631324 0.998825 0.968213
O O19 0.500000 0.000000 0.000000
O O20 0.270762 0.250000 0.030254
O O21 0.148947 0.250000 0.664803
#
# Coordination Sequence:
#
# PCOD9161110 Si02
#       8
#     4   4   4   4   4   4   4   4
#     4   9  19  36  57  83 111 145 184 229 286 346
#     4   9  20  39  59  80 111 145 184 233 290 350
#     4  11  24  41  61  87 119 156 200 252 305 358
#     4   9  19  36  54  77 114 153 187 231 284 337
#     4  10  20  32  53  83 110 143 188 231 281 342
#     4  10  21  39  61  86 117 155 196 242 293 347
#     4  11  23  39  59  87 117 154 199 240 296 360
#     4   9  19  34  51  76 112 148 184 228 279 332
#
# _framework density 19.917919999999999
#
# number of rings (size 3 to 8) (size 9 to 14) (size 15 to 20)
#    0.000    2.250    0.000    3.000    1.750    5.500 
#    0.000    1.250    0.000    0.000    0.000    0.000 
#    0.000    0.000    0.000    0.000    0.000    0.000 
#
# Total GULP energy -178614.051636 kJ/mol
# GULP energy per Si atom -5581.689114 kJ/mol
# Density = 1.987259 g / cm^3
# Si number density = 19.917920 Si / 1000 Ang^3
#
#
#
# Elastic Constant Matrix: (Units=GPa)
#
#
# Indices 1 2 3 4 5 6 
#
# 1 26.1470 7.5453 17.8671 0.0000 -20.0813 0.0000
# 2 7.5453 25.4925 9.4178 0.0000 -8.2900 0.0000
# 3 17.8671 9.4178 65.2477 0.0000 -17.2497 0.0000
# 4 0.0000 0.0000 0.0000 28.5859 0.0000 1.5500
# 5 -20.0813 -8.2900 -17.2497 0.0000 32.2757 0.0000
# 6 0.0000 0.0000 0.0000 1.5500 0.0000 26.8985
#
#
#
# Elastic Compliance Matrix: (Units=1/GPa)
#
#
# Indices 1 2 3 4 5 6 
#
# 1 0.079300 -0.006063 -0.009558 0.000000 0.042673 0.000000
# 2 -0.006063 0.044095 -0.003153 0.000000 0.005868 0.000000
# 3 -0.009558 -0.003153 0.019346 0.000000 0.003582 0.000000
# 4 0.000000 0.000000 0.000000 0.035092 0.000000 -0.002022
# 5 0.042673 0.005868 0.003582 0.000000 0.060955 0.000000
# 6 0.000000 0.000000 0.000000 -0.002022 0.000000 0.037293
#
#
# Mechanical properties :
#
#
# Convention : Reuss Voigt Hill
#
# Bulk Modulus (GPa) = 9.50640 20.72750 15.11695
# Shear Modulus (GPa) = 14.33920 23.02247 18.68083
#
# Velocity S-wave (km/s) = 2.68603 3.40349 3.06582
# Velocity P-wave (km/s) = 3.79511 5.08666 4.48759
#
# Compressibility (1/GPa) = 0.10519232
#
# Stress axis : x y z
#
# Youngs Moduli (GPa) = 12.61032 22.67829 51.69064
#
# Poissons Ratio (x) = 0.13750 0.49408
# Poissons Ratio (y) = 0.07646 0.16298
# Poissons Ratio (z) = 0.12053 0.07150
#
# Static dielectric constant tensor:
#      x y z
#    x 1.725100 0.000000 -0.022780 
#    y 0.000000 1.670970 0.000000 
#    z -0.022780 0.000000 1.705410 
# 
# From -- ./inp_files/69142.got.cif
#   From: 2010.05.17/outbox.cif.g08.bks.cpg/sg11_35_cif.got.tgz:69142.got - 2010.06.03 12:22:45.
