data_PCOD9161688
_publ_section_title
;
Structure prediction by ZEFSAII (Michael W. Deem and Ramdas Pophale) SiO2 
 PCOD9161688
Probable space group: P 21/M
;
_chemical_formula_sum "Si O2"
_cell_formula_units_Z 24
_cell_length_a 18.478999
_cell_length_b 8.943671
_cell_length_c 25.145307
_cell_angle_alpha 90.000000
_cell_angle_beta 19.569384
_cell_angle_gamma 90.000000
_cell_volume 1391.966429
_symmetry_space_group_name_H-M "P 21/M"
_symmetry_group_IT_number 11
_symmetry_cell_setting 'monoclinic'
loop_
_space_group_symop_operation_xyz
x,y,z
-x,1/2+y,-z
-x,-y,-z
x,1/2-y,z
loop_
_atom_site_type_symbol
_atom_site_label
_atom_site_fract_x
_atom_site_fract_y
_atom_site_fract_z
Si Si1 0.383255 0.428187 0.382169
Si Si2 0.979322 0.420551 0.430142
Si Si3 0.671581 0.078478 0.748239
Si Si4 0.557595 0.428076 0.543881
Si Si5 0.688196 0.930454 0.081098
Si Si6 0.156074 0.071930 0.746193
O O1 0.402033 0.250000 0.368947
O O2 0.147550 0.477819 0.523884
O O3 0.424483 0.495293 0.411562
O O4 0.554840 0.499595 0.222270
O O5 0.989330 0.250000 0.404362
O O6 0.829265 0.422365 0.587221
O O7 0.210971 0.480180 0.288801
O O8 0.656390 0.250000 0.776976
O O9 0.442973 0.029070 0.882132
O O10 0.593103 0.250000 0.523421
O O11 0.729411 0.500423 0.384514
O O12 0.323162 0.451956 0.679153
O O13 0.684197 0.750000 0.088053
O O14 0.928258 0.993650 0.913883
O O15 0.129486 0.250000 0.757614
#
# Coordination Sequence:
#
# PCOD9161688 Si02
#       6
#     4   4   4   4   4   4
#     4  11  21  33  52  78 107 137 173 217 259 302
#     4   9  16  27  45  70 101 135 169 207 253 303
#     4   8  15  27  44  69 100 134 170 206 247 298
#     4  10  21  38  57  76 102 136 173 212 256 310
#     4  10  20  34  53  78 108 139 172 213 259 304
#     4  10  21  37  57  79 102 133 173 213 256 309
#
# _framework density 17.241796000000001
#
# number of rings (size 3 to 8) (size 9 to 14) (size 15 to 20)
#    0.000    2.333    0.000    4.500    0.000    7.333 
#    0.000    0.000    0.000    1.000    0.000    0.000 
#    0.000    0.000    0.000    0.000    0.000    0.000 
#
# Total GULP energy -133864.840388 kJ/mol
# GULP energy per Si atom -5577.701683 kJ/mol
# Density = 1.720255 g / cm^3
# Si number density = 17.241796 Si / 1000 Ang^3
#
#
#
# Elastic Constant Matrix: (Units=GPa)
#
#
# Indices 1 2 3 4 5 6 
#
# 1 108.8510 83.5001 94.1962 0.0000 -27.4542 0.0000
# 2 83.5001 127.8604 61.2712 0.0000 -16.8334 0.0000
# 3 94.1962 61.2712 46.2930 0.0000 -2.6068 0.0000
# 4 0.0000 0.0000 0.0000 22.7144 0.0000 -0.1093
# 5 -27.4542 -16.8334 -2.6068 0.0000 4.0485 0.0000
# 6 0.0000 0.0000 0.0000 -0.1093 0.0000 29.2913
#
#
#
# Elastic Compliance Matrix: (Units=1/GPa)
#
#
# Indices 1 2 3 4 5 6 
#
# 1 -0.000062 -0.008426 0.009631 0.000000 -0.029253 0.000000
# 2 -0.008426 0.015001 -0.002506 0.000000 0.003620 0.000000
# 3 0.009631 -0.002506 0.008729 0.000000 0.060512 0.000000
# 4 0.000000 0.000000 0.000000 0.044026 0.000000 0.000164
# 5 -0.029253 0.003620 0.060512 0.000000 0.102646 0.000000
# 6 0.000000 0.000000 0.000000 0.000164 0.000000 0.034140
#
#
# Mechanical properties :
#
#
# Convention : Reuss Voigt Hill
#
# Bulk Modulus (GPa) = 47.46946 84.54881 66.00914
# Shear Modulus (GPa) = 23.35323 14.14664 18.74993
#
# Velocity S-wave (km/s) = 3.68428 2.86752 3.30126
# Velocity P-wave (km/s) = 6.75944 7.75288 7.27314
#
# Compressibility (1/GPa) = 0.02106617
#
# Stress axis : x y z
#
# Youngs Moduli (GPa) = -16166.08876 66.66232 114.56653
#
# Poissons Ratio (x) = 0.56170 -1.10338
# Poissons Ratio (y) = -136.21566 0.28706
# Poissons Ratio (z) = 155.69355 0.16703
#
# Static dielectric constant tensor:
#      x y z
#    x 1.577920 0.000000 -0.021240 
#    y 0.000000 1.576060 0.000000 
#    z -0.021240 0.000000 1.567550 
# 
# From -- ./inp_files/46570.got.cif
#   From: 2010.05.17/outbox.cif.g08.bks.cpg/sg11_24_cif.got.tgz:46570.got - 2010.06.03 12:22:45.
