data_PCOD9161458
_publ_section_title
;
Structure prediction by ZEFSAII (Michael W. Deem and Ramdas Pophale) SiO2 
 PCOD9161458
Probable space group: P 21/M
;
_chemical_formula_sum "Si O2"
_cell_formula_units_Z 32
_cell_length_a 17.792628
_cell_length_b 12.225457
_cell_length_c 21.693946
_cell_angle_alpha 90.000000
_cell_angle_beta 161.938626
_cell_angle_gamma 90.000000
_cell_volume 1463.036888
_symmetry_space_group_name_H-M "P 21/M"
_symmetry_group_IT_number 11
_symmetry_cell_setting 'monoclinic'
loop_
_space_group_symop_operation_xyz
x,y,z
-x,1/2+y,-z
-x,-y,-z
x,1/2-y,z
loop_
_atom_site_type_symbol
_atom_site_label
_atom_site_fract_x
_atom_site_fract_y
_atom_site_fract_z
Si Si1 0.212316 0.595977 0.225402
Si Si2 0.589232 0.370348 0.748197
Si Si3 0.954648 0.872383 0.729758
Si Si4 0.647153 0.377036 0.172658
Si Si5 0.860163 0.520868 0.229503
Si Si6 0.262076 0.129767 0.306564
Si Si7 0.276688 0.875674 0.633421
Si Si8 0.311227 0.374728 0.134010
O O1 0.243378 0.638886 0.181456
O O2 0.458321 0.625604 0.453723
O O3 0.220421 0.464859 0.226182
O O4 0.975884 0.628725 0.078623
O O5 0.619750 0.250000 0.806131
O O6 0.311596 0.369586 0.508548
O O7 0.627348 0.497253 0.799223
O O8 0.059950 0.750000 0.806039
O O9 0.902087 0.893714 0.760903
O O10 0.100331 0.961377 0.804949
O O11 0.706723 0.250000 0.217118
O O12 0.766563 0.435104 0.207600
O O13 0.735875 0.423979 0.307742
O O14 0.357355 0.392998 0.944463
O O15 0.108952 0.567846 0.451444
O O16 0.209910 0.250000 0.243199
O O17 0.194555 0.750000 0.572987
O O18 0.554762 0.874162 0.827329
O O19 0.393061 0.250000 0.223390
#
# Coordination Sequence:
#
# PCOD9161458 Si02
#       8
#     4   4   4   4   4   4   4   4
#     4  10  20  33  55  79 112 157 201 250 311 367
#     4  10  20  37  57  80 114 154 202 254 308 360
#     4   9  18  34  57  82 113 156 199 250 309 361
#     4  10  23  39  61  93 122 158 199 251 315 369
#     4  11  20  38  67  87 119 159 206 248 302 384
#     4   9  19  35  53  78 114 155 201 257 310 361
#     4  10  22  40  59  87 129 162 199 255 308 369
#     4  11  22  36  56  84 119 160 205 252 309 371
#
# _framework density 21.872313999999999
#
# number of rings (size 3 to 8) (size 9 to 14) (size 15 to 20)
#    0.000    2.000    1.250    3.375    1.750    1.000 
#    0.000    0.000    0.000    3.000    0.000    0.000 
#    0.000    0.000    0.000    0.000    0.000    0.000 
#
# Total GULP energy -178261.202395 kJ/mol
# GULP energy per Si atom -5570.662575 kJ/mol
# Density = 2.182253 g / cm^3
# Si number density = 21.872314 Si / 1000 Ang^3
#
#
#
# Elastic Constant Matrix: (Units=GPa)
#
#
# Indices 1 2 3 4 5 6 
#
# 1 46.6067 36.0540 2.0052 0.0000 13.6779 0.0000
# 2 36.0540 160.4686 4.1753 0.0000 -5.8658 0.0000
# 3 2.0052 4.1753 45.2234 0.0000 12.0670 0.0000
# 4 0.0000 0.0000 0.0000 -46.7070 0.0000 46.9471
# 5 13.6779 -5.8658 12.0670 0.0000 29.1382 0.0000
# 6 0.0000 0.0000 0.0000 46.9471 0.0000 -41.1100
#
#
#
# Elastic Compliance Matrix: (Units=1/GPa)
#
#
# Indices 1 2 3 4 5 6 
#
# 1 0.033293 -0.008293 0.004390 0.000000 -0.019115 0.000000
# 2 -0.008293 0.008387 -0.002131 0.000000 0.006464 0.000000
# 3 0.004390 -0.002131 0.025609 0.000000 -0.013095 0.000000
# 4 0.000000 0.000000 0.000000 0.144802 0.000000 0.165362
# 5 -0.019115 0.006464 -0.013095 0.000000 0.050017 0.000000
# 6 0.000000 0.000000 0.000000 0.165362 0.000000 0.164517
#
#
# Mechanical properties :
#
#
# Convention : Reuss Voigt Hill
#
# Bulk Modulus (GPa) = 18.10964 37.41865 27.76414
# Shear Modulus (GPa) = 10.93856 2.26853 6.60354
#
# Velocity S-wave (km/s) = 2.23874 1.01952 1.73945
# Velocity P-wave (km/s) = 3.87044 4.30474 4.09335
#
# Compressibility (1/GPa) = 0.05521920
#
# Stress axis : x y z
#
# Youngs Moduli (GPa) = 30.03677 119.23533 39.04918
#
# Poissons Ratio (x) = 0.98883 -0.17143
# Poissons Ratio (y) = 0.24910 0.08323
# Poissons Ratio (z) = -0.13186 0.25413
#
# Static dielectric constant tensor:
#      x y z
#    x 1.772730 0.000000 -0.022930 
#    y 0.000000 1.855700 0.000000 
#    z -0.022930 0.000000 1.825560 
# 
# From -- ./inp_files/69648.got.cif
#   From: 2010.05.17/outbox.cif.g08.bks.cpg/sg11_35_cif.got.tgz:69648.got - 2010.06.03 12:22:45.
