data_PCOD9161168
_publ_section_title
;
Structure prediction by ZEFSAII (Michael W. Deem and Ramdas Pophale) SiO2 
 PCOD9161168
Probable space group: P 21/M
;
_chemical_formula_sum "Si O2"
_cell_formula_units_Z 28
_cell_length_a 12.414723
_cell_length_b 8.949711
_cell_length_c 16.928835
_cell_angle_alpha 90.000000
_cell_angle_beta 123.313414
_cell_angle_gamma 90.000000
_cell_volume 1571.855082
_symmetry_space_group_name_H-M "P 21/M"
_symmetry_group_IT_number 11
_symmetry_cell_setting 'monoclinic'
loop_
_space_group_symop_operation_xyz
x,y,z
-x,1/2+y,-z
-x,-y,-z
x,1/2-y,z
loop_
_atom_site_type_symbol
_atom_site_label
_atom_site_fract_x
_atom_site_fract_y
_atom_site_fract_z
Si Si1 0.034191 0.070379 0.259561
Si Si2 0.746825 0.070914 0.188379
Si Si3 0.489838 0.071693 0.620697
Si Si4 0.706211 0.428446 0.579156
Si Si5 0.330704 0.423946 0.001769
Si Si6 0.032238 0.424603 0.930134
Si Si7 0.468242 0.930658 0.782598
O O1 0.041063 0.250000 0.262003
O O2 0.895782 0.023347 0.240738
O O3 0.154767 0.001448 0.353555
O O4 0.033450 0.008874 0.169702
O O5 0.745158 0.250000 0.183901
O O6 0.670758 0.027389 0.236669
O O7 0.671136 0.011465 0.081155
O O8 0.473266 0.250000 0.615689
O O9 0.618286 0.039148 0.621150
O O10 0.372376 0.996672 0.525673
O O11 0.496306 0.006385 0.710842
O O12 0.716370 0.250000 0.575031
O O13 0.359227 0.250000 0.996692
O O14 0.185601 0.434073 0.976934
O O15 0.428532 0.475081 0.108712
O O16 0.995321 0.250000 0.915048
O O17 0.000000 0.500000 0.000000
O O18 0.474417 0.750000 0.776221
#
# Coordination Sequence:
#
# PCOD9161168 Si02
#       7
#     4   4   4   4   4   4   4
#     4  10  20  35  56  79 106 144 181 220 269 321
#     4   9  19  35  54  79 110 145 183 221 265 316
#     4  10  22  38  57  84 109 136 176 222 271 325
#     4  10  21  39  60  82 108 139 175 221 274 326
#     4   9  19  33  51  76 107 145 184 221 267 315
#     4  10  20  33  48  75 110 144 183 225 267 318
#     4  10  20  35  55  80 111 144 180 224 270 316
#
# _framework density 17.813345999999999
#
# number of rings (size 3 to 8) (size 9 to 14) (size 15 to 20)
#    0.000    2.286    0.000    2.143    2.000    4.000 
#    0.000    0.714    0.000    0.000    0.000    0.000 
#    0.000    0.000    0.000    0.000    0.000    0.000 
#
# Total GULP energy -156290.922343 kJ/mol
# GULP energy per Si atom -5581.818655 kJ/mol
# Density = 1.777280 g / cm^3
# Si number density = 17.813346 Si / 1000 Ang^3
#
#
#
# Elastic Constant Matrix: (Units=GPa)
#
#
# Indices 1 2 3 4 5 6 
#
# 1 49.4068 30.0810 49.4495 0.0000 3.7226 0.0000
# 2 30.0810 44.5602 30.9611 0.0000 4.5058 0.0000
# 3 49.4495 30.9611 88.8957 0.0000 12.9471 0.0000
# 4 0.0000 0.0000 0.0000 37.2178 0.0000 -0.6136
# 5 3.7226 4.5058 12.9471 0.0000 30.0328 0.0000
# 6 0.0000 0.0000 0.0000 -0.6136 0.0000 20.4075
#
#
#
# Elastic Compliance Matrix: (Units=1/GPa)
#
#
# Indices 1 2 3 4 5 6 
#
# 1 0.060332 -0.022967 -0.026647 0.000000 0.007455 0.000000
# 2 -0.022967 0.038349 -0.000168 0.000000 -0.002834 0.000000
# 3 -0.026647 -0.000168 0.027364 0.000000 -0.008468 0.000000
# 4 0.000000 0.000000 0.000000 0.026882 0.000000 0.000808
# 5 0.007455 -0.002834 -0.008468 0.000000 0.036449 0.000000
# 6 0.000000 0.000000 0.000000 0.000808 0.000000 0.049026
#
#
# Mechanical properties :
#
#
# Convention : Reuss Voigt Hill
#
# Bulk Modulus (GPa) = 37.76340 44.87177 41.31758
# Shear Modulus (GPa) = 14.41788 22.35638 18.38713
#
# Velocity S-wave (km/s) = 2.84806 3.54649 3.21629
# Velocity P-wave (km/s) = 5.66222 6.48188 6.08587
#
# Compressibility (1/GPa) = 0.02648067
#
# Stress axis : x y z
#
# Youngs Moduli (GPa) = 16.57506 26.07646 36.54449
#
# Poissons Ratio (x) = 0.59889 0.97381
# Poissons Ratio (y) = 0.38067 0.00614
# Poissons Ratio (z) = 0.44168 0.00438
#
# Static dielectric constant tensor:
#      x y z
#    x 1.621310 0.000000 0.014960 
#    y 0.000000 1.597280 0.000000 
#    z 0.014960 0.000000 1.570680 
# 
# From -- ./inp_files/37919.got.cif
#   From: 2010.05.17/outbox.cif.g08.bks.cpg/sg11_19_cif.got.tgz:37919.got - 2010.06.03 12:22:45.
