data_PCOD9161500
_publ_section_title
;
Structure prediction by ZEFSAII (Michael W. Deem and Ramdas Pophale) SiO2 
 PCOD9161500
Probable space group: P 21/M
;
_chemical_formula_sum "Si O2"
_cell_formula_units_Z 32
_cell_length_a 14.503103
_cell_length_b 18.642289
_cell_length_c 13.001911
_cell_angle_alpha 90.000000
_cell_angle_beta 29.061454
_cell_angle_gamma 90.000000
_cell_volume 1707.567473
_symmetry_space_group_name_H-M "P 21/M"
_symmetry_group_IT_number 11
_symmetry_cell_setting 'monoclinic'
loop_
_space_group_symop_operation_xyz
x,y,z
-x,1/2+y,-z
-x,-y,-z
x,1/2-y,z
loop_
_atom_site_type_symbol
_atom_site_label
_atom_site_fract_x
_atom_site_fract_y
_atom_site_fract_z
Si Si1 0.076208 0.418993 0.449715
Si Si2 0.792839 0.527759 0.475754
Si Si3 0.508600 0.063183 0.406838
Si Si4 0.947265 0.452525 0.951401
Si Si5 0.352225 0.166646 0.046314
Si Si6 0.926605 0.664814 0.864155
Si Si7 0.768768 0.121184 0.595700
Si Si8 0.794091 0.835657 0.219240
O O1 0.120369 0.415718 0.527703
O O2 0.268480 0.390716 0.208350
O O3 0.000000 0.500000 0.500000
O O4 0.913163 0.372895 0.551241
O O5 0.622536 0.547700 0.564807
O O6 0.725729 0.461750 0.611465
O O7 0.969199 0.507236 0.229557
O O8 0.413988 0.132344 0.553668
O O9 0.500000 0.000000 0.500000
O O10 0.727239 0.065856 0.162857
O O11 0.064612 0.378247 0.843203
O O12 0.000000 0.500000 0.000000
O O13 0.304795 0.250000 0.118945
O O14 0.244136 0.147091 0.046440
O O15 0.575098 0.160307 0.810088
O O16 0.932405 0.750000 0.868874
O O17 0.119490 0.645640 0.615960
O O18 0.870224 0.640105 0.032764
O O19 0.798117 0.750000 0.224638
#
# Coordination Sequence:
#
# PCOD9161500 Si02
#       8
#     4   4   4   4   4   4   4   4
#     4   9  21  40  57  83 114 150 194 243 286 342
#     4  10  22  36  58  86 112 151 198 250 290 345
#     4  11  23  37  60  88 118 157 202 246 295 351
#     4  11  21  38  59  84 118 155 202 242 298 348
#     4  10  21  36  57  87 121 153 191 241 296 359
#     4   9  19  33  52  82 118 153 185 231 296 359
#     4  10  20  33  60  84 117 150 191 237 298 356
#     4  10  22  38  58  86 122 157 200 251 299 357
#
# _framework density 18.740107999999999
#
# number of rings (size 3 to 8) (size 9 to 14) (size 15 to 20)
#    0.000    2.000    2.500    1.125    1.750    6.000 
#    0.000    5.000    0.000    3.000    0.000    0.000 
#    0.000    0.000    0.000    0.000    0.000    0.000 
#
# Total GULP energy -178192.020589 kJ/mol
# GULP energy per Si atom -5568.500643 kJ/mol
# Density = 1.869746 g / cm^3
# Si number density = 18.740108 Si / 1000 Ang^3
#
#
#
# Elastic Constant Matrix: (Units=GPa)
#
#
# Indices 1 2 3 4 5 6 
#
# 1 91.3510 23.8662 51.9936 0.0000 3.3394 0.0000
# 2 23.8662 53.0067 22.2460 0.0000 2.9031 0.0000
# 3 51.9936 22.2460 107.4857 0.0000 -24.1738 0.0000
# 4 0.0000 0.0000 0.0000 35.5888 0.0000 0.4108
# 5 3.3394 2.9031 -24.1738 0.0000 34.4892 0.0000
# 6 0.0000 0.0000 0.0000 0.4108 0.0000 18.7419
#
#
#
# Elastic Compliance Matrix: (Units=1/GPa)
#
#
# Indices 1 2 3 4 5 6 
#
# 1 0.017648 -0.003439 -0.009668 0.000000 -0.008196 0.000000
# 2 -0.003439 0.022292 -0.003914 0.000000 -0.004287 0.000000
# 3 -0.009668 -0.003914 0.017896 0.000000 0.013809 0.000000
# 4 0.000000 0.000000 0.000000 0.028106 0.000000 -0.000616
# 5 -0.008196 -0.004287 0.013809 0.000000 0.039828 0.000000
# 6 0.000000 0.000000 0.000000 -0.000616 0.000000 0.053370
#
#
# Mechanical properties :
#
#
# Convention : Reuss Voigt Hill
#
# Bulk Modulus (GPa) = 42.03030 49.78389 45.90710
# Shear Modulus (GPa) = 22.61299 28.01317 25.31308
#
# Velocity S-wave (km/s) = 3.47747 3.87049 3.67923
# Velocity P-wave (km/s) = 6.21293 6.82623 6.52678
#
# Compressibility (1/GPa) = 0.02379236
#
# Stress axis : x y z
#
# Youngs Moduli (GPa) = 56.66484 44.86015 55.87873
#
# Poissons Ratio (x) = 0.15430 0.54023
# Poissons Ratio (y) = 0.19490 0.21870
# Poissons Ratio (z) = 0.54783 0.17558
#
# Static dielectric constant tensor:
#      x y z
#    x 1.675250 0.000000 0.023830 
#    y 0.000000 1.694070 0.000000 
#    z 0.023830 0.000000 1.682840 
# 
# From -- ./inp_files/39952.got.cif
#   From: 2010.05.17/outbox.cif.g08.bks.cpg/sg11_20_cif.got.tgz:39952.got - 2010.06.03 12:22:45.
