data_PCOD9161909
_publ_section_title
;
Structure prediction by ZEFSAII (Michael W. Deem and Ramdas Pophale) SiO2 
 PCOD9161909
Probable space group: P 21/M
;
_chemical_formula_sum "Si O2"
_cell_formula_units_Z 24
_cell_length_a 8.602705
_cell_length_b 17.770515
_cell_length_c 8.870667
_cell_angle_alpha 90.000000
_cell_angle_beta 94.391578
_cell_angle_gamma 90.000000
_cell_volume 1352.117286
_symmetry_space_group_name_H-M "P 21/M"
_symmetry_group_IT_number 11
_symmetry_cell_setting 'monoclinic'
loop_
_space_group_symop_operation_xyz
x,y,z
-x,1/2+y,-z
-x,-y,-z
x,1/2-y,z
loop_
_atom_site_type_symbol
_atom_site_label
_atom_site_fract_x
_atom_site_fract_y
_atom_site_fract_z
Si Si1 0.116729 0.516150 0.752360
Si Si2 0.506987 0.335695 0.184428
Si Si3 0.148640 0.836912 0.936374
Si Si4 0.817678 0.422719 0.754534
Si Si5 0.335761 0.037302 0.032275
Si Si6 0.377243 0.935731 0.537791
O O1 0.071901 0.597116 0.826772
O O2 0.234383 0.530088 0.624283
O O3 0.972307 0.463044 0.703419
O O4 0.785078 0.526195 0.110593
O O5 0.468083 0.250000 0.207908
O O6 0.669665 0.339970 0.102943
O O7 0.374293 0.378630 0.082633
O O8 0.538545 0.378652 0.342647
O O9 0.096381 0.750000 0.912346
O O10 0.142426 0.863183 0.110417
O O11 0.728293 0.489776 0.833602
O O12 0.703161 0.397108 0.613032
O O13 0.500000 0.000000 0.000000
O O14 0.500000 0.000000 0.500000
#
# Coordination Sequence:
#
# PCOD9161909 Si02
#       6
#     4   4   4   4   4   4
#     4  10  21  34  54  84 110 139 185 222 270 324
#     4  10  20  34  55  84 108 137 183 235 275 309
#     4   9  18  33  54  79 107 141 181 223 269 318
#     4  11  20  33  55  83 108 140 182 220 266 326
#     4  11  16  34  56  79 105 138 183 224 258 316
#     4  11  20  35  58  78 107 145 184 223 263 326
#
# _framework density 17.749939999999999
#
# number of rings (size 3 to 8) (size 9 to 14) (size 15 to 20)
#    0.000    1.667    6.667    2.500    0.000    0.667 
#    0.000    3.333    0.000    1.000    0.000    0.000 
#    0.000    0.000    0.000    0.000    0.000    0.000 
#
# Total GULP energy -133822.245698 kJ/mol
# GULP energy per Si atom -5575.926904 kJ/mol
# Density = 1.770954 g / cm^3
# Si number density = 17.749940 Si / 1000 Ang^3
#
#
#
# Elastic Constant Matrix: (Units=GPa)
#
#
# Indices 1 2 3 4 5 6 
#
# 1 36.9833 23.6752 9.5712 0.0000 0.5184 0.0000
# 2 23.6752 106.3232 20.5818 0.0000 0.8747 0.0000
# 3 9.5712 20.5818 75.7571 0.0000 -1.3372 0.0000
# 4 0.0000 0.0000 0.0000 17.4616 0.0000 0.0477
# 5 0.5184 0.8747 -1.3372 0.0000 27.5552 0.0000
# 6 0.0000 0.0000 0.0000 0.0477 0.0000 20.3897
#
#
#
# Elastic Compliance Matrix: (Units=1/GPa)
#
#
# Indices 1 2 3 4 5 6 
#
# 1 0.031890 -0.006666 -0.002227 0.000000 -0.000496 0.000000
# 2 -0.006666 0.011326 -0.002241 0.000000 -0.000343 0.000000
# 3 -0.002227 -0.002241 0.014104 0.000000 0.000797 0.000000
# 4 0.000000 0.000000 0.000000 0.057269 0.000000 -0.000134
# 5 -0.000496 -0.000343 0.000797 0.000000 0.036350 0.000000
# 6 0.000000 0.000000 0.000000 -0.000134 0.000000 0.049045
#
#
# Mechanical properties :
#
#
# Convention : Reuss Voigt Hill
#
# Bulk Modulus (GPa) = 28.52815 36.30221 32.41518
# Shear Modulus (GPa) = 21.37348 24.09701 22.73524
#
# Velocity S-wave (km/s) = 3.47384 3.68854 3.58280
# Velocity P-wave (km/s) = 5.67426 6.21585 5.95122
#
# Compressibility (1/GPa) = 0.03505309
#
# Stress axis : x y z
#
# Youngs Moduli (GPa) = 31.35813 88.29085 70.90025
#
# Poissons Ratio (x) = 0.58853 0.15788
# Poissons Ratio (y) = 0.20903 0.15889
# Poissons Ratio (z) = 0.06983 0.19786
#
# Static dielectric constant tensor:
#      x y z
#    x 1.623670 0.000000 0.003710 
#    y 0.000000 1.604440 0.000000 
#    z 0.003710 0.000000 1.629540 
# 
# From -- ./inp_files/13827.got.cif
#   From: 2010.05.17/outbox.cif.g08.bks.cpg/sg11_7_cif.got.tgz:13827.got - 2010.06.03 12:22:45.
