data_PCOD9161283
_publ_section_title
;
Structure prediction by ZEFSAII (Michael W. Deem and Ramdas Pophale) SiO2 
 PCOD9161283
Probable space group: P 21/M
;
_chemical_formula_sum "Si O2"
_cell_formula_units_Z 28
_cell_length_a 9.213515
_cell_length_b 8.721902
_cell_length_c 29.670587
_cell_angle_alpha 90.000000
_cell_angle_beta 139.882352
_cell_angle_gamma 90.000000
_cell_volume 1536.351988
_symmetry_space_group_name_H-M "P 21/M"
_symmetry_group_IT_number 11
_symmetry_cell_setting 'monoclinic'
loop_
_space_group_symop_operation_xyz
x,y,z
-x,1/2+y,-z
-x,-y,-z
x,1/2-y,z
loop_
_atom_site_type_symbol
_atom_site_label
_atom_site_fract_x
_atom_site_fract_y
_atom_site_fract_z
Si Si1 0.847757 0.935085 0.504690
Si Si2 0.795090 0.928811 0.350434
Si Si3 0.089514 0.563909 0.203427
Si Si4 0.750419 0.565952 0.935034
Si Si5 0.452608 0.929719 0.354973
Si Si6 0.413729 0.433237 0.203675
Si Si7 0.426897 0.434264 0.934521
O O1 0.853629 0.750000 0.504932
O O2 0.594964 0.989354 0.431479
O O3 0.000000 0.000000 0.500000
O O4 0.971515 0.994379 0.578740
O O5 0.830177 0.750000 0.349868
O O6 0.624352 0.940322 0.353002
O O7 0.657069 0.006094 0.277402
O O8 0.103809 0.750000 0.206282
O O9 0.219989 0.507037 0.279507
O O10 0.228859 0.502828 0.193807
O O11 0.829919 0.520117 0.137955
O O12 0.757599 0.750000 0.939978
O O13 0.650905 0.524239 0.862441
O O14 0.592931 0.498324 0.936265
O O15 0.000000 0.500000 0.000000
O O16 0.414440 0.750000 0.355117
O O17 0.409891 0.250000 0.207039
O O18 0.437792 0.250000 0.938311
O O19 0.500000 0.500000 0.000000
#
# Coordination Sequence:
#
# PCOD9161283 Si02
#       7
#     4   4   4   4   4   4   4
#     4   9  14  21  36  60  92 129 167 208 254 304
#     4   9  16  26  41  63  95 133 168 207 254 305
#     4   9  18  33  52  75 103 136 172 211 256 309
#     4  11  24  40  58  80 107 137 173 216 262 314
#     4   7  12  23  39  61  91 126 163 202 247 296
#     4  10  20  33  51  76 103 134 172 215 260 307
#     4  11  23  38  58  81 107 139 174 213 259 311
#
# _framework density 18.224990999999999
#
# number of rings (size 3 to 8) (size 9 to 14) (size 15 to 20)
#    0.000    2.571    0.000    4.714    0.000    5.714 
#    0.000    0.714    0.000    0.000    0.000    1.000 
#    0.000    0.000    0.000    0.000    0.000    0.000 
#
# Total GULP energy -156024.463443 kJ/mol
# GULP energy per Si atom -5572.302266 kJ/mol
# Density = 1.818351 g / cm^3
# Si number density = 18.224991 Si / 1000 Ang^3
#
#
#
# Elastic Constant Matrix: (Units=GPa)
#
#
# Indices 1 2 3 4 5 6 
#
# 1 66.7145 22.8572 77.1729 0.0000 6.0819 0.0000
# 2 22.8572 43.7386 59.2456 0.0000 1.7662 0.0000
# 3 77.1729 59.2456 238.8107 0.0000 14.0266 0.0000
# 4 0.0000 0.0000 0.0000 31.7327 0.0000 -0.2291
# 5 6.0819 1.7662 14.0266 0.0000 18.0331 0.0000
# 6 0.0000 0.0000 0.0000 -0.2291 0.0000 19.3929
#
#
#
# Elastic Compliance Matrix: (Units=1/GPa)
#
#
# Indices 1 2 3 4 5 6 
#
# 1 0.024320 -0.003257 -0.006904 0.000000 -0.002514 0.000000
# 2 -0.003257 0.035074 -0.007871 0.000000 0.003786 0.000000
# 3 -0.006904 -0.007871 0.008581 0.000000 -0.003575 0.000000
# 4 0.000000 0.000000 0.000000 0.031516 0.000000 0.000372
# 5 -0.002514 0.003786 -0.003575 0.000000 0.058712 0.000000
# 6 0.000000 0.000000 0.000000 0.000372 0.000000 0.051570
#
#
# Mechanical properties :
#
#
# Convention : Reuss Voigt Hill
#
# Bulk Modulus (GPa) = 31.33608 74.20169 52.76889
# Shear Modulus (GPa) = 19.49524 26.49761 22.99643
#
# Velocity S-wave (km/s) = 3.27417 3.81716 3.55605
# Velocity P-wave (km/s) = 5.61471 7.76082 6.77330
#
# Compressibility (1/GPa) = 0.03191209
#
# Stress axis : x y z
#
# Youngs Moduli (GPa) = 41.11857 28.51095 116.53510
#
# Poissons Ratio (x) = 0.09285 0.80450
# Poissons Ratio (y) = 0.13391 0.91729
# Poissons Ratio (z) = 0.28386 0.22442
#
# Static dielectric constant tensor:
#      x y z
#    x 1.595950 0.000000 0.005530 
#    y 0.000000 1.613240 0.000000 
#    z 0.005530 0.000000 1.685650 
# 
# From -- ./inp_files/29073.got.cif
#   From: 2010.05.17/outbox.cif.g08.bks.cpg/sg11_15_cif.got.tgz:29073.got - 2010.06.03 12:22:45.
