data_PCOD9161757
_publ_section_title
;
Structure prediction by ZEFSAII (Michael W. Deem and Ramdas Pophale) SiO2 
 PCOD9161757
Probable space group: P 21/M
;
_chemical_formula_sum "Si O2"
_cell_formula_units_Z 32
_cell_length_a 29.868985
_cell_length_b 9.192658
_cell_length_c 10.971445
_cell_angle_alpha 90.000000
_cell_angle_beta 144.690996
_cell_angle_gamma 90.000000
_cell_volume 1741.175797
_symmetry_space_group_name_H-M "P 21/M"
_symmetry_group_IT_number 11
_symmetry_cell_setting 'monoclinic'
loop_
_space_group_symop_operation_xyz
x,y,z
-x,1/2+y,-z
-x,-y,-z
x,1/2-y,z
loop_
_atom_site_type_symbol
_atom_site_label
_atom_site_fract_x
_atom_site_fract_y
_atom_site_fract_z
Si Si1 0.865036 0.577003 0.657174
Si Si2 0.802922 0.422896 0.148901
Si Si3 0.560493 0.078633 0.970850
Si Si4 0.053339 0.422219 0.421618
Si Si5 0.092102 0.420724 0.982873
Si Si6 0.277445 0.922886 0.769761
Si Si7 0.742268 0.920866 0.776360
Si Si8 0.595696 0.420600 0.336455
O O1 0.852899 0.750000 0.641664
O O2 0.914317 0.551405 0.644276
O O3 0.906480 0.528290 0.873180
O O4 0.782579 0.501058 0.453534
O O5 0.811237 0.250000 0.150194
O O6 0.886434 0.496745 0.356778
O O7 0.753723 0.448283 0.163263
O O8 0.760044 0.496917 0.941363
O O9 0.544702 0.250000 0.913858
O O10 0.634196 0.031031 0.055045
O O11 0.586351 0.064067 0.169611
O O12 0.482844 0.986760 0.781533
O O13 0.053709 0.250000 0.445958
O O14 0.967856 0.488325 0.230456
O O15 0.069545 0.250000 0.928565
O O16 0.179372 0.433720 0.128662
O O17 0.274220 0.750000 0.738753
O O18 0.727972 0.750000 0.765567
O O19 0.669995 0.993099 0.548287
O O20 0.603108 0.250000 0.380931
#
# Coordination Sequence:
#
# PCOD9161757 Si02
#       8
#     4   4   4   4   4   4   4   4
#     4   9  18  32  51  78 110 138 167 209 260 312
#     4  10  21  38  57  75 101 137 177 220 261 304
#     4   9  18  34  56  83 113 139 167 206 253 308
#     4  10  20  34  54  79 105 135 172 214 261 310
#     4  10  21  35  52  76 105 138 174 213 260 312
#     4   9  18  33  55  80 104 136 175 213 257 307
#     4  11  23  38  55  75 103 139 178 218 260 305
#     4  10  20  34  55  83 112 140 169 205 254 309
#
# _framework density 18.378385000000002
#
# number of rings (size 3 to 8) (size 9 to 14) (size 15 to 20)
#    0.000    2.250    0.000    2.625    0.000    4.000 
#    0.000    0.625    0.000    0.000    0.000    0.000 
#    0.000    0.000    0.000    0.000    0.000    0.000 
#
# Total GULP energy -178685.743632 kJ/mol
# GULP energy per Si atom -5583.929488 kJ/mol
# Density = 1.833656 g / cm^3
# Si number density = 18.378385 Si / 1000 Ang^3
#
#
#
# Elastic Constant Matrix: (Units=GPa)
#
#
# Indices 1 2 3 4 5 6 
#
# 1 22.8586 34.3678 28.5013 0.0000 3.2258 0.0000
# 2 34.3678 83.8402 70.1276 0.0000 6.5760 0.0000
# 3 28.5013 70.1276 104.2124 0.0000 20.0986 0.0000
# 4 0.0000 0.0000 0.0000 40.1294 0.0000 2.1497
# 5 3.2258 6.5760 20.0986 0.0000 19.3986 0.0000
# 6 0.0000 0.0000 0.0000 2.1497 0.0000 20.9455
#
#
#
# Elastic Compliance Matrix: (Units=1/GPa)
#
#
# Indices 1 2 3 4 5 6 
#
# 1 0.114375 -0.048330 0.002187 0.000000 -0.004902 0.000000
# 2 -0.048330 0.050238 -0.023563 0.000000 0.015420 0.000000
# 3 0.002187 -0.023563 0.029223 0.000000 -0.022653 0.000000
# 4 0.000000 0.000000 0.000000 0.025057 0.000000 -0.002572
# 5 -0.004902 0.015420 -0.022653 0.000000 0.070609 0.000000
# 6 0.000000 0.000000 0.000000 -0.002572 0.000000 0.048007
#
#
# Mechanical properties :
#
#
# Convention : Reuss Voigt Hill
#
# Bulk Modulus (GPa) = 18.37371 52.98939 35.68155
# Shear Modulus (GPa) = 10.09973 21.28901 15.69437
#
# Velocity S-wave (km/s) = 2.34678 3.40718 2.92543
# Velocity P-wave (km/s) = 4.16681 6.66135 5.55589
#
# Compressibility (1/GPa) = 0.05442560
#
# Stress axis : x y z
#
# Youngs Moduli (GPa) = 8.74314 19.90507 34.21982
#
# Poissons Ratio (x) = 0.96201 -0.07484
# Poissons Ratio (y) = 0.42255 0.80632
# Poissons Ratio (z) = -0.01912 0.46902
#
# Static dielectric constant tensor:
#      x y z
#    x 1.654040 0.000000 0.004850 
#    y 0.000000 1.614540 0.000000 
#    z 0.004850 0.000000 1.598080 
# 
# From -- ./inp_files/45349.got.cif
#   From: 2010.05.17/outbox.cif.g08.bks.cpg/sg11_23_cif.got.tgz:45349.got - 2010.06.03 12:22:45.
