data_PCOD9161263
_publ_section_title
;
Structure prediction by ZEFSAII (Michael W. Deem and Ramdas Pophale) SiO2 
 PCOD9161263
Probable space group: P 21/M
;
_chemical_formula_sum "Si O2"
_cell_formula_units_Z 28
_cell_length_a 17.350195
_cell_length_b 7.420967
_cell_length_c 17.635342
_cell_angle_alpha 90.000000
_cell_angle_beta 26.863904
_cell_angle_gamma 90.000000
_cell_volume 1026.041530
_symmetry_space_group_name_H-M "P 21/M"
_symmetry_group_IT_number 11
_symmetry_cell_setting 'monoclinic'
loop_
_space_group_symop_operation_xyz
x,y,z
-x,1/2+y,-z
-x,-y,-z
x,1/2-y,z
loop_
_atom_site_type_symbol
_atom_site_label
_atom_site_fract_x
_atom_site_fract_y
_atom_site_fract_z
Si Si1 0.383670 0.469938 0.500667
Si Si2 0.765399 0.952475 0.216074
Si Si3 0.109909 0.469113 0.627047
Si Si4 0.441047 0.955851 0.866034
Si Si5 0.693318 0.964087 0.860482
Si Si6 0.844224 0.034930 0.984290
Si Si7 0.192751 0.470090 0.395545
O O1 0.394044 0.250000 0.494810
O O2 0.262259 0.535541 0.676608
O O3 0.571391 0.538439 0.353804
O O4 0.294960 0.516823 0.499453
O O5 0.817652 0.750000 0.185496
O O6 0.872414 0.009405 0.048666
O O7 0.103379 0.250000 0.631347
O O8 0.081775 0.529610 0.565320
O O9 0.981330 0.534191 0.804153
O O10 0.483354 0.750000 0.808394
O O11 0.617852 0.030116 0.742428
O O12 0.336434 0.036723 0.888515
O O13 0.310311 0.954107 0.052593
O O14 0.713686 0.750000 0.850299
O O15 0.815897 0.031813 0.684430
O O16 0.500000 0.000000 0.000000
O O17 0.838147 0.250000 0.979763
O O18 0.189672 0.250000 0.394524
#
# Coordination Sequence:
#
# PCOD9161263 Si02
#       7
#     4   4   4   4   4   4   4
#     4   9  18  34  55  76  98 128 167 206 245 295
#     4  10  20  33  51  76 103 129 161 205 253 297
#     4   9  17  31  51  73  97 129 169 206 241 290
#     4   9  17  30  48  70  95 126 165 205 244 290
#     4   9  16  27  46  72  98 124 158 203 251 293
#     4  10  20  33  51  73  98 132 170 204 243 296
#     4   8  14  26  46  69  92 120 157 200 240 280
#
# _framework density 27.289345000000001
#
# number of rings (size 3 to 8) (size 9 to 14) (size 15 to 20)
#    0.000    2.857    0.000    2.571    0.000    4.000 
#    0.000    1.429    0.000    5.143    0.000    0.000 
#    0.000    0.000    0.000    0.000    0.000    0.000 
#
# Total GULP energy -156475.801622 kJ/mol
# GULP energy per Si atom -5588.421487 kJ/mol
# Density = 2.722723 g / cm^3
# Si number density = 27.289345 Si / 1000 Ang^3
#
#
#
# Elastic Constant Matrix: (Units=GPa)
#
#
# Indices 1 2 3 4 5 6 
#
# 1 152.3357 -2.4454 29.7135 0.0000 40.3252 0.0000
# 2 -2.4454 97.8356 -3.8050 0.0000 -2.3977 0.0000
# 3 29.7135 -3.8050 155.9593 0.0000 42.3017 0.0000
# 4 0.0000 0.0000 0.0000 20.1934 0.0000 8.7385
# 5 40.3252 -2.3977 42.3017 0.0000 57.3238 0.0000
# 6 0.0000 0.0000 0.0000 8.7385 0.0000 4.7545
#
#
#
# Elastic Compliance Matrix: (Units=1/GPa)
#
#
# Indices 1 2 3 4 5 6 
#
# 1 0.008067 0.000063 0.000004 0.000000 -0.005675 0.000000
# 2 0.000063 0.010236 0.000167 0.000000 0.000261 0.000000
# 3 0.000004 0.000167 0.008019 0.000000 -0.005913 0.000000
# 4 0.000000 0.000000 0.000000 0.241985 0.000000 -0.444753
# 5 -0.005675 0.000261 -0.005913 0.000000 0.025812 0.000000
# 6 0.000000 0.000000 0.000000 -0.444753 0.000000 1.027755
#
#
# Mechanical properties :
#
#
# Convention : Reuss Voigt Hill
#
# Bulk Modulus (GPa) = 37.32859 50.33966 43.83413
# Shear Modulus (GPa) = 3.75845 41.96551 22.86198
#
# Velocity S-wave (km/s) = 1.17484 3.92573 2.89755
# Velocity P-wave (km/s) = 3.94320 6.24781 5.22418
#
# Compressibility (1/GPa) = 0.02678912
#
# Stress axis : x y z
#
# Youngs Moduli (GPa) = 123.96254 97.69749 124.70069
#
# Poissons Ratio (x) = -0.00613 -0.00048
# Poissons Ratio (y) = -0.00777 -0.02083
# Poissons Ratio (z) = -0.00048 -0.01632
#
# Static dielectric constant tensor:
#      x y z
#    x 2.102570 0.000000 -0.037630 
#    y 0.000000 2.030800 0.000000 
#    z -0.037630 0.000000 2.258550 
# 
# From -- ./inp_files/61237.got.cif
#   From: 2010.05.17/outbox.cif.g08.bks.cpg/sg11_31_cif.got.tgz:61237.got - 2010.06.03 12:22:45.
