data_PCOD9161730
_publ_section_title
;
Structure prediction by ZEFSAII (Michael W. Deem and Ramdas Pophale) SiO2 
 PCOD9161730
Probable space group: P 21/M
;
_chemical_formula_sum "Si O2"
_cell_formula_units_Z 32
_cell_length_a 28.477558
_cell_length_b 7.639937
_cell_length_c 22.013102
_cell_angle_alpha 90.000000
_cell_angle_beta 161.183032
_cell_angle_gamma 90.000000
_cell_volume 1544.775837
_symmetry_space_group_name_H-M "P 21/M"
_symmetry_group_IT_number 11
_symmetry_cell_setting 'monoclinic'
loop_
_space_group_symop_operation_xyz
x,y,z
-x,1/2+y,-z
-x,-y,-z
x,1/2-y,z
loop_
_atom_site_type_symbol
_atom_site_label
_atom_site_fract_x
_atom_site_fract_y
_atom_site_fract_z
Si Si1 0.086632 0.461660 0.426083
Si Si2 0.541105 0.959077 0.729616
Si Si3 0.936421 0.539561 0.016886
Si Si4 0.164094 0.040922 0.975586
Si Si5 0.224504 0.960440 0.304967
Si Si6 0.079912 0.959736 0.659805
Si Si7 0.581715 0.960691 0.163414
Si Si8 0.592237 0.038343 0.931689
O O1 0.092189 0.250000 0.434509
O O2 0.252345 0.525413 0.629421
O O3 0.980509 0.509505 0.241118
O O4 0.009250 0.527590 0.392230
O O5 0.542209 0.750000 0.721598
O O6 0.387650 0.027953 0.515698
O O7 0.540704 0.990496 0.801316
O O8 0.690098 0.027456 0.880200
O O9 0.946984 0.750000 0.035199
O O10 0.834785 0.500010 0.834785
O O11 0.868437 0.472048 0.996483
O O12 0.098950 0.474850 0.197901
O O13 0.183449 0.250000 0.004065
O O14 0.229437 0.750000 0.317645
O O15 0.088129 0.750000 0.676239
O O16 0.243327 0.027591 0.860334
O O17 0.000000 0.000000 0.500000
O O18 0.586244 0.750000 0.172470
O O19 0.498246 0.025415 0.121180
O O20 0.500000 0.000000 0.000000
O O21 0.592412 0.250000 0.934731
#
# Coordination Sequence:
#
# PCOD9161730 Si02
#       8
#     4   4   4   4   4   4   4   4
#     4  10  21  37  54  78 110 142 178 222 269 320
#     4  10  21  36  55  81 111 143 181 223 266 316
#     4   9  19  36  56  80 110 142 178 219 263 314
#     4  10  21  36  55  81 111 143 181 223 266 316
#     4   9  19  36  56  80 110 142 178 219 263 314
#     4  10  20  34  54  76 103 138 177 218 263 314
#     4  10  22  38  56  80 109 140 179 226 273 324
#     4  10  21  37  54  78 110 142 178 222 269 320
#
# _framework density 20.714980000000001
#
# number of rings (size 3 to 8) (size 9 to 14) (size 15 to 20)
#    0.000    2.250    1.250    0.750    1.750    3.500 
#    0.000    0.000    0.000    0.000    0.000    0.000 
#    0.000    0.000    0.000    0.000    0.000    0.000 
#
# Total GULP energy -178628.189326 kJ/mol
# GULP energy per Si atom -5582.130916 kJ/mol
# Density = 2.066783 g / cm^3
# Si number density = 20.714980 Si / 1000 Ang^3
#
#
#
# Elastic Constant Matrix: (Units=GPa)
#
#
# Indices 1 2 3 4 5 6 
#
# 1 205.2857 5.3604 121.2755 0.0000 17.8254 0.0000
# 2 5.3604 40.1682 3.8491 0.0000 9.8403 0.0000
# 3 121.2755 3.8491 199.6350 0.0000 18.8131 0.0000
# 4 0.0000 0.0000 0.0000 15.5641 0.0000 -16.0768
# 5 17.8254 9.8403 18.8131 0.0000 34.1854 0.0000
# 6 0.0000 0.0000 0.0000 -16.0768 0.0000 13.1007
#
#
#
# Elastic Compliance Matrix: (Units=1/GPa)
#
#
# Indices 1 2 3 4 5 6 
#
# 1 0.007674 -0.000237 -0.004521 0.000000 -0.001445 0.000000
# 2 -0.000237 0.026801 0.000361 0.000000 -0.007790 0.000000
# 3 -0.004521 0.000361 0.007948 0.000000 -0.002121 0.000000
# 4 0.000000 0.000000 0.000000 -0.240097 0.000000 -0.294640
# 5 -0.001445 -0.007790 -0.002121 0.000000 0.033415 0.000000
# 6 0.000000 0.000000 0.000000 -0.294640 0.000000 -0.285243
#
#
# Mechanical properties :
#
#
# Convention : Reuss Voigt Hill
#
# Bulk Modulus (GPa) = 29.73556 78.45101 54.09328
# Shear Modulus (GPa) = -11.64148 33.54365 10.95109
#
# Velocity S-wave (km/s) = -2.37319 4.02841 2.30175
# Velocity P-wave (km/s) = 2.62229 7.71954 5.76488
#
# Compressibility (1/GPa) = 0.03362977
#
# Stress axis : x y z
#
# Youngs Moduli (GPa) = 130.31462 37.31257 125.81080
#
# Poissons Ratio (x) = 0.00884 0.56878
# Poissons Ratio (y) = 0.03086 -0.04544
# Poissons Ratio (z) = 0.58914 -0.01348
#
# Static dielectric constant tensor:
#      x y z
#    x 1.724770 0.000000 0.028730 
#    y 0.000000 1.784170 0.000000 
#    z 0.028730 0.000000 1.720330 
# 
# From -- ./inp_files/67270.got.cif
#   From: 2010.05.17/outbox.cif.g08.bks.cpg/sg11_34_cif.got.tgz:67270.got - 2010.06.03 12:22:45.
