data_PCOD9161119
_publ_section_title
;
Structure prediction by ZEFSAII (Michael W. Deem and Ramdas Pophale) SiO2 
 PCOD9161119
Probable space group: P 21/M
;
_chemical_formula_sum "Si O2"
_cell_formula_units_Z 28
_cell_length_a 18.061700
_cell_length_b 14.386203
_cell_length_c 5.327990
_cell_angle_alpha 90.000000
_cell_angle_beta 68.001320
_cell_angle_gamma 90.000000
_cell_volume 1283.624839
_symmetry_space_group_name_H-M "P 21/M"
_symmetry_group_IT_number 11
_symmetry_cell_setting 'monoclinic'
loop_
_space_group_symop_operation_xyz
x,y,z
-x,1/2+y,-z
-x,-y,-z
x,1/2-y,z
loop_
_atom_site_type_symbol
_atom_site_label
_atom_site_fract_x
_atom_site_fract_y
_atom_site_fract_z
Si Si1 0.052630 0.438118 0.239682
Si Si2 0.395419 0.852700 0.337895
Si Si3 0.622584 0.951147 0.841689
Si Si4 0.793278 0.515611 0.728711
Si Si5 0.244548 0.651629 0.881586
Si Si6 0.553786 0.640617 0.430126
Si Si7 0.098453 0.595301 0.787455
O O1 0.137857 0.414838 0.256565
O O2 0.000000 0.500000 0.500000
O O3 0.985637 0.368672 0.215263
O O4 0.078058 0.505344 0.981202
O O5 0.412065 0.750000 0.206669
O O6 0.309157 0.851902 0.578114
O O7 0.460752 0.868121 0.473209
O O8 0.398099 0.939309 0.148461
O O9 0.577931 0.904392 0.663032
O O10 0.718296 0.939499 0.686138
O O11 0.597871 0.907228 0.137705
O O12 0.843734 0.442348 0.502054
O O13 0.752944 0.447288 0.984283
O O14 0.259644 0.750000 0.003919
O O15 0.154860 0.655785 0.888759
O O16 0.573076 0.750000 0.412840
#
# Coordination Sequence:
#
# PCOD9161119 Si02
#       7
#     4   4   4   4   4   4   4
#     4   8  16  30  53  83 111 148 189 257 297 371
#     4  10  22  41  63  95 134 169 212 266 330 395
#     4  12  23  42  69  95 128 170 221 267 327 391
#     4  10  20  32  55  88 119 155 210 255 312 379
#     4  10  20  34  53  83 129 169 202 255 318 389
#     4  11  26  45  66  92 126 172 224 280 329 380
#     4   9  16  32  53  80 119 147 203 243 304 371
#
# _framework density 21.813229
#
# number of rings (size 3 to 8) (size 9 to 14) (size 15 to 20)
#    0.000    2.000    1.429    2.143    2.000    2.286 
#    0.000    5.000    0.000    1.714    0.000    3.000 
#    0.000    0.000    0.000    0.000    0.000    0.000 
#
# Total GULP energy -156141.911724 kJ/mol
# GULP energy per Si atom -5576.496847 kJ/mol
# Density = 2.176358 g / cm^3
# Si number density = 21.813229 Si / 1000 Ang^3
#
#
#
# Elastic Constant Matrix: (Units=GPa)
#
#
# Indices 1 2 3 4 5 6 
#
# 1 173.8127 34.2713 -1.6837 0.0000 -7.0912 0.0000
# 2 34.2713 70.6614 28.2287 0.0000 -7.7840 0.0000
# 3 -1.6837 28.2287 55.8780 0.0000 0.5786 0.0000
# 4 0.0000 0.0000 0.0000 1.8972 0.0000 -4.3974
# 5 -7.0912 -7.7840 0.5786 0.0000 25.3494 0.0000
# 6 0.0000 0.0000 0.0000 -4.3974 0.0000 8.8699
#
#
#
# Elastic Compliance Matrix: (Units=1/GPa)
#
#
# Indices 1 2 3 4 5 6 
#
# 1 0.006591 -0.004025 0.002226 0.000000 0.000557 0.000000
# 2 -0.004025 0.021036 -0.010806 0.000000 0.005580 0.000000
# 3 0.002226 -0.010806 0.023456 0.000000 -0.003231 0.000000
# 4 0.000000 0.000000 0.000000 -3.534304 0.000000 -1.752207
# 5 0.000557 0.005580 -0.003231 0.000000 0.041392 0.000000
# 6 0.000000 0.000000 0.000000 -1.752207 0.000000 -0.755953
#
#
# Mechanical properties :
#
#
# Convention : Reuss Voigt Hill
#
# Bulk Modulus (GPa) = 38.64986 46.88719 42.76853
# Shear Modulus (GPa) = -1.20078 23.19234 10.99578
#
# Velocity S-wave (km/s) = -0.74275 3.26425 2.24763
# Velocity P-wave (km/s) = 4.12570 5.97901 5.13663
#
# Compressibility (1/GPa) = 0.02587331
#
# Stress axis : x y z
#
# Youngs Moduli (GPa) = 151.71804 47.53854 42.63365
#
# Poissons Ratio (x) = 0.19133 -0.09490
# Poissons Ratio (y) = 0.61062 0.46069
# Poissons Ratio (z) = -0.33773 0.51370
#
# Static dielectric constant tensor:
#      x y z
#    x 1.856210 0.000000 0.193250 
#    y 0.000000 1.795480 0.000000 
#    z 0.193250 0.000000 1.244340 
# 
# From -- ./inp_files/8028.got.cif
#   From: 2010.05.17/outbox.cif.g08.bks.cpg/sg11_5_cif.got.tgz:8028.got - 2010.06.03 12:22:45.
