data_PCOD9161607
_publ_section_title
;
Structure prediction by ZEFSAII (Michael W. Deem and Ramdas Pophale) SiO2 
 PCOD9161607
Probable space group: P 21/M
;
_chemical_formula_sum "Si O2"
_cell_formula_units_Z 32
_cell_length_a 11.876568
_cell_length_b 7.738222
_cell_length_c 20.392497
_cell_angle_alpha 90.000000
_cell_angle_beta 54.595242
_cell_angle_gamma 90.000000
_cell_volume 1527.575281
_symmetry_space_group_name_H-M "P 21/M"
_symmetry_group_IT_number 11
_symmetry_cell_setting 'monoclinic'
loop_
_space_group_symop_operation_xyz
x,y,z
-x,1/2+y,-z
-x,-y,-z
x,1/2-y,z
loop_
_atom_site_type_symbol
_atom_site_label
_atom_site_fract_x
_atom_site_fract_y
_atom_site_fract_z
Si Si1 0.156369 0.545919 0.924035
Si Si2 0.666420 0.545533 0.904545
Si Si3 0.773907 0.541051 0.250348
Si Si4 0.043375 0.960528 0.391531
Si Si5 0.964357 0.459114 0.755042
Si Si6 0.501522 0.541247 0.421687
Si Si7 0.406933 0.552147 0.926000
Si Si8 0.767595 0.047084 0.562623
O O1 0.160514 0.750000 0.932429
O O2 0.194076 0.508022 0.835649
O O3 0.283260 0.470794 0.925143
O O4 0.000000 0.500000 0.000000
O O5 0.639109 0.750000 0.922592
O O6 0.823907 0.519467 0.834429
O O7 0.562323 0.478903 0.882533
O O8 0.640008 0.453439 0.982402
O O9 0.770145 0.750000 0.252687
O O10 0.634142 0.481484 0.334369
O O11 0.902482 0.480127 0.250576
O O12 0.040857 0.750000 0.395270
O O13 0.037935 0.016901 0.318961
O O14 0.179059 0.021754 0.385308
O O15 0.904703 0.026003 0.472813
O O16 0.966848 0.250000 0.754790
O O17 0.500000 0.500000 0.500000
O O18 0.501882 0.750000 0.418975
O O19 0.363794 0.474064 0.431398
O O20 0.423370 0.750000 0.897391
O O21 0.738346 0.250000 0.581803
#
# Coordination Sequence:
#
# PCOD9161607 Si02
#       8
#     4   4   4   4   4   4   4   4
#     4  11  23  39  59  82 111 147 184 224 271 322
#     4  10  20  34  55  80 103 132 172 216 261 313
#     4  10  22  38  55  80 113 146 183 226 271 324
#     4   9  18  33  53  76 103 137 173 211 263 323
#     4  10  20  34  52  75 105 138 171 212 264 316
#     4  10  21  37  57  81 111 147 185 227 273 321
#     4   9  20  38  55  75 106 138 170 213 265 316
#     4   9  18  33  53  78 105 133 173 222 265 309
#
# _framework density 20.948231
#
# number of rings (size 3 to 8) (size 9 to 14) (size 15 to 20)
#    0.000    2.250    0.000    2.250    0.000    8.500 
#    0.000    1.250    0.000    0.000    0.000    0.000 
#    0.000    0.000    0.000    0.000    0.000    0.000 
#
# Total GULP energy -178417.228248 kJ/mol
# GULP energy per Si atom -5575.538383 kJ/mol
# Density = 2.090055 g / cm^3
# Si number density = 20.948231 Si / 1000 Ang^3
#
#
#
# Elastic Constant Matrix: (Units=GPa)
#
#
# Indices 1 2 3 4 5 6 
#
# 1 222.3066 6.7245 77.2073 0.0000 -12.5371 0.0000
# 2 6.7245 33.0520 -5.1436 0.0000 -1.9982 0.0000
# 3 77.2073 -5.1436 92.7144 0.0000 -8.5443 0.0000
# 4 0.0000 0.0000 0.0000 26.4564 0.0000 -0.8752
# 5 -12.5371 -1.9982 -8.5443 0.0000 34.4037 0.0000
# 6 0.0000 0.0000 0.0000 -0.8752 0.0000 17.1829
#
#
#
# Elastic Compliance Matrix: (Units=1/GPa)
#
#
# Indices 1 2 3 4 5 6 
#
# 1 0.006507 -0.002119 -0.005454 0.000000 0.000894 0.000000
# 2 -0.002119 0.031379 0.003686 0.000000 0.001966 0.000000
# 3 -0.005454 0.003686 0.015728 0.000000 0.002133 0.000000
# 4 0.000000 0.000000 0.000000 0.037862 0.000000 0.001928
# 5 0.000894 0.001966 0.002133 0.000000 0.030036 0.000000
# 6 0.000000 0.000000 0.000000 0.001928 0.000000 0.058295
#
#
# Mechanical properties :
#
#
# Convention : Reuss Voigt Hill
#
# Bulk Modulus (GPa) = 21.81404 56.18327 38.99866
# Shear Modulus (GPa) = 24.64749 33.56093 29.10421
#
# Velocity S-wave (km/s) = 3.43387 4.00695 3.73143
# Velocity P-wave (km/s) = 5.11447 6.94880 6.10097
#
# Compressibility (1/GPa) = 0.04584204
#
# Stress axis : x y z
#
# Youngs Moduli (GPa) = 153.68407 31.86860 63.57919
#
# Poissons Ratio (x) = 0.06751 0.34674
# Poissons Ratio (y) = 0.32558 -0.23437
# Poissons Ratio (z) = 0.83815 -0.11747
#
# Static dielectric constant tensor:
#      x y z
#    x 1.796440 0.000000 -0.006030 
#    y 0.000000 1.797150 0.000000 
#    z -0.006030 0.000000 1.721670 
# 
# From -- ./inp_files/64370.got.cif
#   From: 2010.05.17/outbox.cif.g08.bks.cpg/sg11_33_cif.got.tgz:64370.got - 2010.06.03 12:22:45.
