data_PCOD9161148
_publ_section_title
;
Structure prediction by ZEFSAII (Michael W. Deem and Ramdas Pophale) SiO2 
 PCOD9161148
Probable space group: P 21/M
;
_chemical_formula_sum "Si O2"
_cell_formula_units_Z 28
_cell_length_a 15.361298
_cell_length_b 9.009719
_cell_length_c 20.073033
_cell_angle_alpha 90.000000
_cell_angle_beta 139.872859
_cell_angle_gamma 90.000000
_cell_volume 1790.463944
_symmetry_space_group_name_H-M "P 21/M"
_symmetry_group_IT_number 11
_symmetry_cell_setting 'monoclinic'
loop_
_space_group_symop_operation_xyz
x,y,z
-x,1/2+y,-z
-x,-y,-z
x,1/2-y,z
loop_
_atom_site_type_symbol
_atom_site_label
_atom_site_fract_x
_atom_site_fract_y
_atom_site_fract_z
Si Si1 0.035740 0.080977 0.624531
Si Si2 0.389254 0.570919 0.610110
Si Si3 0.679734 0.427098 0.779004
Si Si4 0.788639 0.080171 0.373197
Si Si5 0.888388 0.074476 0.779341
Si Si6 0.105765 0.072399 0.010473
Si Si7 0.847714 0.926038 0.614938
O O1 0.054278 0.250000 0.657817
O O2 0.914907 0.080987 0.498915
O O3 0.165677 0.019010 0.661865
O O4 0.979028 0.980286 0.650563
O O5 0.389540 0.750000 0.605517
O O6 0.535664 0.502689 0.684110
O O7 0.335453 0.531286 0.652986
O O8 0.280578 0.505326 0.494803
O O9 0.667622 0.250000 0.779776
O O10 0.776988 0.453636 0.771915
O O11 0.753643 0.498535 0.886507
O O12 0.767750 0.250000 0.339341
O O13 0.881168 0.250000 0.758727
O O14 0.035539 0.045012 0.898151
O O15 0.860691 0.978781 0.698275
O O16 0.111497 0.250000 0.023447
O O17 0.000000 0.000000 0.000000
O O18 0.832941 0.750000 0.600981
#
# Coordination Sequence:
#
# PCOD9161148 Si02
#       7
#     4   4   4   4   4   4   4
#     4   9  16  27  44  64  89 120 151 188 231 273
#     4  10  20  33  48  67  96 129 158 191 231 278
#     4  10  20  33  50  71  95 123 157 196 234 276
#     4   8  15  27  43  64  88 117 153 190 227 268
#     4   9  19  34  49  67  93 124 157 193 232 274
#     4   9  17  31  51  71  91 117 153 197 238 274
#     4  11  21  31  46  68  95 126 159 194 231 277
#
# _framework density 15.638404
#
# number of rings (size 3 to 8) (size 9 to 14) (size 15 to 20)
#    0.000    2.571    0.000    4.714    0.000    8.000 
#    0.000    0.000    0.000    0.000    0.000    1.000 
#    0.000    0.000    0.000    0.000    0.000    0.000 
#
# Total GULP energy -155973.856472 kJ/mol
# GULP energy per Si atom -5570.494874 kJ/mol
# Density = 1.560281 g / cm^3
# Si number density = 15.638404 Si / 1000 Ang^3
#
#
#
# Elastic Constant Matrix: (Units=GPa)
#
#
# Indices 1 2 3 4 5 6 
#
# 1 67.7196 55.3176 43.1861 0.0000 -6.8011 0.0000
# 2 55.3176 97.5952 54.6719 0.0000 -4.0946 0.0000
# 3 43.1861 54.6719 75.9369 0.0000 -4.0616 0.0000
# 4 0.0000 0.0000 0.0000 24.9516 0.0000 0.8311
# 5 -6.8011 -4.0946 -4.0616 0.0000 -1.8333 0.0000
# 6 0.0000 0.0000 0.0000 0.8311 0.0000 24.8220
#
#
#
# Elastic Compliance Matrix: (Units=1/GPa)
#
#
# Indices 1 2 3 4 5 6 
#
# 1 0.024502 -0.011144 -0.008442 0.000000 -0.047305 0.000000
# 2 -0.011144 0.022046 -0.008902 0.000000 0.011824 0.000000
# 3 -0.008442 -0.008902 0.024245 0.000000 -0.002513 0.000000
# 4 0.000000 0.000000 0.000000 0.040122 0.000000 -0.001343
# 5 -0.047305 0.011824 -0.002513 0.000000 -0.390812 0.000000
# 6 0.000000 0.000000 0.000000 -0.001343 0.000000 0.040332
#
#
# Mechanical properties :
#
#
# Convention : Reuss Voigt Hill
#
# Bulk Modulus (GPa) = 72.37365 60.84478 66.60921
# Shear Modulus (GPa) = -28.09239 15.45980 -6.31629
#
# Velocity S-wave (km/s) = -4.24296 3.14758 -2.01190
# Velocity P-wave (km/s) = 4.73036 7.22506 6.10646
#
# Compressibility (1/GPa) = 0.01381718
#
# Stress axis : x y z
#
# Youngs Moduli (GPa) = 40.81249 45.36024 41.24636
#
# Poissons Ratio (x) = 0.50548 0.34819
# Poissons Ratio (y) = 0.45480 0.36718
# Poissons Ratio (z) = 0.34453 0.40380
#
# Static dielectric constant tensor:
#      x y z
#    x 1.529630 0.000000 0.006900 
#    y 0.000000 1.528500 0.000000 
#    z 0.006900 0.000000 1.516840 
# 
# From -- ./inp_files/42298.got.cif
#   From: 2010.05.17/outbox.cif.g08.bks.cpg/sg11_22_cif.got.tgz:42298.got - 2010.06.03 12:22:45.
