data_PCOD9161617
_publ_section_title
;
Structure prediction by ZEFSAII (Michael W. Deem and Ramdas Pophale) SiO2 
 PCOD9161617
Probable space group: P 21/M
;
_chemical_formula_sum "Si O2"
_cell_formula_units_Z 28
_cell_length_a 16.171722
_cell_length_b 8.828436
_cell_length_c 20.545299
_cell_angle_alpha 90.000000
_cell_angle_beta 147.864552
_cell_angle_gamma 90.000000
_cell_volume 1560.274215
_symmetry_space_group_name_H-M "P 21/M"
_symmetry_group_IT_number 11
_symmetry_cell_setting 'monoclinic'
loop_
_space_group_symop_operation_xyz
x,y,z
-x,1/2+y,-z
-x,-y,-z
x,1/2-y,z
loop_
_atom_site_type_symbol
_atom_site_label
_atom_site_fract_x
_atom_site_fract_y
_atom_site_fract_z
Si Si1 0.536771 0.567298 0.595700
Si Si2 0.404143 0.926791 0.022579
Si Si3 0.031542 0.071193 0.450330
Si Si4 0.647690 0.077251 0.863245
Si Si5 0.831965 0.926615 0.876814
Si Si6 0.738911 0.925480 0.195885
Si Si7 0.664209 0.926839 0.423224
O O1 0.500000 0.500000 0.500000
O O2 0.536236 0.750000 0.592544
O O3 0.706917 0.517999 0.738410
O O4 0.407526 0.512344 0.562144
O O5 0.379318 0.750000 0.987152
O O6 0.323371 0.035209 0.917169
O O7 0.343921 0.948793 0.054815
O O8 0.589611 0.950904 0.142579
O O9 0.055319 0.250000 0.475140
O O10 0.179972 0.013830 0.507721
O O11 0.878813 0.033608 0.307458
O O12 0.000000 0.000000 0.500000
O O13 0.702221 0.250000 0.885263
O O14 0.470449 0.069705 0.720953
O O15 0.742001 0.958791 0.883899
O O16 0.854803 0.750000 0.879800
O O17 0.000000 0.000000 0.000000
O O18 0.785802 0.750000 0.232642
O O19 0.688859 0.750000 0.458226
#
# Coordination Sequence:
#
# PCOD9161617 Si02
#       7
#     4   4   4   4   4   4   4
#     4  10  21  38  61  87 114 148 189 233 285 342
#     4   9  18  34  54  76 104 142 182 220 270 324
#     4  11  22  36  55  80 111 147 185 227 276 326
#     4   9  17  33  57  79 103 138 178 220 268 320
#     4  10  21  37  57  84 113 141 180 227 277 334
#     4  10  20  34  52  76 108 142 182 227 269 319
#     4   9  19  36  57  81 110 145 185 226 271 328
#
# _framework density 17.945564999999998
#
# number of rings (size 3 to 8) (size 9 to 14) (size 15 to 20)
#    0.000    2.286    0.000    2.571    0.000    6.286 
#    2.571    2.857    0.000    0.000    0.000    0.000 
#    0.000    0.000    0.000    0.000    0.000    0.000 
#
# Total GULP energy -156087.089508 kJ/mol
# GULP energy per Si atom -5574.538911 kJ/mol
# Density = 1.790472 g / cm^3
# Si number density = 17.945565 Si / 1000 Ang^3
#
#
#
# Elastic Constant Matrix: (Units=GPa)
#
#
# Indices 1 2 3 4 5 6 
#
# 1 88.2663 29.8556 52.0959 0.0000 -1.7257 0.0000
# 2 29.8556 34.8882 27.9557 0.0000 1.8053 0.0000
# 3 52.0959 27.9557 82.3737 0.0000 15.3666 0.0000
# 4 0.0000 0.0000 0.0000 30.5112 0.0000 -0.4500
# 5 -1.7257 1.8053 15.3666 0.0000 15.3989 0.0000
# 6 0.0000 0.0000 0.0000 -0.4500 0.0000 28.6003
#
#
#
# Elastic Compliance Matrix: (Units=1/GPa)
#
#
# Indices 1 2 3 4 5 6 
#
# 1 0.024089 -0.008919 -0.015858 0.000000 0.019570 0.000000
# 2 -0.008919 0.044164 -0.010070 0.000000 0.003871 0.000000
# 3 -0.015858 -0.010070 0.031576 0.000000 -0.032106 0.000000
# 4 0.000000 0.000000 0.000000 0.032782 0.000000 0.000516
# 5 0.019570 0.003871 -0.032106 0.000000 0.098718 0.000000
# 6 0.000000 0.000000 0.000000 0.000516 0.000000 0.034973
#
#
# Mechanical properties :
#
#
# Convention : Reuss Voigt Hill
#
# Bulk Modulus (GPa) = 33.18481 47.26027 40.22254
# Shear Modulus (GPa) = 14.44918 21.27680 17.86299
#
# Velocity S-wave (km/s) = 2.84062 3.44703 3.15842
# Velocity P-wave (km/s) = 5.41211 6.49886 5.98023
#
# Compressibility (1/GPa) = 0.03013427
#
# Stress axis : x y z
#
# Youngs Moduli (GPa) = 41.51343 22.64283 31.66991
#
# Poissons Ratio (x) = 0.20196 0.50223
# Poissons Ratio (y) = 0.37028 0.31890
# Poissons Ratio (z) = 0.65833 0.22800
#
# Static dielectric constant tensor:
#      x y z
#    x 1.597390 0.000000 0.009900 
#    y 0.000000 1.549580 0.000000 
#    z 0.009900 0.000000 1.623400 
# 
# From -- ./inp_files/28605.got.cif
#   From: 2010.05.17/outbox.cif.g08.bks.cpg/sg11_15_cif.got.tgz:28605.got - 2010.06.03 12:22:45.
