data_PCOD9161852
_publ_section_title
;
Structure prediction by ZEFSAII (Michael W. Deem and Ramdas Pophale) SiO2 
 PCOD9161852
Probable space group: P 21/M
;
_chemical_formula_sum "Si O2"
_cell_formula_units_Z 32
_cell_length_a 11.674882
_cell_length_b 7.863538
_cell_length_c 20.297816
_cell_angle_alpha 90.000000
_cell_angle_beta 55.604234
_cell_angle_gamma 90.000000
_cell_volume 1537.642824
_symmetry_space_group_name_H-M "P 21/M"
_symmetry_group_IT_number 11
_symmetry_cell_setting 'monoclinic'
loop_
_space_group_symop_operation_xyz
x,y,z
-x,1/2+y,-z
-x,-y,-z
x,1/2-y,z
loop_
_atom_site_type_symbol
_atom_site_label
_atom_site_fract_x
_atom_site_fract_y
_atom_site_fract_z
Si Si1 0.150546 0.044237 0.920382
Si Si2 0.673488 0.544597 0.889844
Si Si3 0.764511 0.552994 0.252415
Si Si4 0.049891 0.946662 0.380387
Si Si5 0.975202 0.556065 0.754564
Si Si6 0.502616 0.544785 0.421473
Si Si7 0.388261 0.453468 0.942561
Si Si8 0.786114 0.456534 0.550894
O O1 0.152895 0.250000 0.917799
O O2 0.186064 0.981779 0.834675
O O3 0.275063 0.983150 0.927606
O O4 0.000000 0.000000 0.000000
O O5 0.675419 0.750000 0.889877
O O6 0.826021 0.483892 0.822601
O O7 0.550602 0.492462 0.880516
O O8 0.642728 0.480784 0.973711
O O9 0.727856 0.750000 0.251406
O O10 0.634571 0.479269 0.336135
O O11 0.896830 0.543287 0.256913
O O12 0.069258 0.750000 0.355159
O O13 0.178369 0.000357 0.384955
O O14 0.025471 0.053901 0.323612
O O15 0.910906 0.963926 0.468663
O O16 0.986646 0.750000 0.775449
O O17 0.500000 0.500000 0.500000
O O18 0.507270 0.750000 0.418087
O O19 0.360916 0.490628 0.431106
O O20 0.373738 0.250000 0.948677
O O21 0.796669 0.250000 0.542934
#
# Coordination Sequence:
#
# PCOD9161852 Si02
#       8
#     4   4   4   4   4   4   4   4
#     4  10  21  37  58  83 113 149 185 226 275 326
#     4   9  19  34  52  76 105 137 173 217 266 319
#     4  10  22  38  56  81 110 142 186 232 272 326
#     4  10  20  34  55  81 107 138 177 221 268 322
#     4  11  22  36  54  77 108 141 176 221 272 323
#     4  10  21  37  56  79 109 145 184 226 273 324
#     4   9  18  34  55  78 104 136 176 219 268 323
#     4   9  19  36  56  78 106 140 177 219 270 322
#
# _framework density 20.811074999999999
#
# number of rings (size 3 to 8) (size 9 to 14) (size 15 to 20)
#    0.000    2.250    0.000    2.250    0.000    7.500 
#    0.000    5.000    0.000    0.000    0.000    0.000 
#    0.000    0.000    0.000    0.000    0.000    0.000 
#
# Total GULP energy -178499.483547 kJ/mol
# GULP energy per Si atom -5578.108861 kJ/mol
# Density = 2.076371 g / cm^3
# Si number density = 20.811075 Si / 1000 Ang^3
#
#
#
# Elastic Constant Matrix: (Units=GPa)
#
#
# Indices 1 2 3 4 5 6 
#
# 1 188.0386 8.1424 77.5283 0.0000 -5.1403 0.0000
# 2 8.1424 24.5367 6.5002 0.0000 1.7265 0.0000
# 3 77.5283 6.5002 115.2067 0.0000 -3.5685 0.0000
# 4 0.0000 0.0000 0.0000 20.0410 0.0000 -7.8039
# 5 -5.1403 1.7265 -3.5685 0.0000 33.7615 0.0000
# 6 0.0000 0.0000 0.0000 -7.8039 0.0000 -8.5126
#
#
#
# Elastic Compliance Matrix: (Units=1/GPa)
#
#
# Indices 1 2 3 4 5 6 
#
# 1 0.007407 -0.001208 -0.004896 0.000000 0.000672 0.000000
# 2 -0.001208 0.041761 -0.001620 0.000000 -0.002491 0.000000
# 3 -0.004896 -0.001620 0.012085 0.000000 0.000615 0.000000
# 4 0.000000 0.000000 0.000000 0.036771 0.000000 -0.033710
# 5 0.000672 -0.002491 0.000615 0.000000 0.029914 0.000000
# 6 0.000000 0.000000 0.000000 -0.033710 0.000000 -0.086570
#
#
# Mechanical properties :
#
#
# Convention : Reuss Voigt Hill
#
# Bulk Modulus (GPa) = 21.83189 56.90263 39.36726
# Shear Modulus (GPa) = 69.36201 24.76540 47.06370
#
# Velocity S-wave (km/s) = 5.77942 3.45340 4.76065
# Velocity P-wave (km/s) = 7.41950 6.58051 7.01256
#
# Compressibility (1/GPa) = 0.04580455
#
# Stress axis : x y z
#
# Youngs Moduli (GPa) = 135.00278 23.94589 82.74671
#
# Poissons Ratio (x) = 0.02894 0.40510
# Poissons Ratio (y) = 0.16314 0.13406
# Poissons Ratio (z) = 0.66093 0.03880
#
# Static dielectric constant tensor:
#      x y z
#    x 1.729410 0.000000 0.000560 
#    y 0.000000 1.772040 0.000000 
#    z 0.000560 0.000000 1.768000 
# 
# From -- ./inp_files/64372.got.cif
#   From: 2010.05.17/outbox.cif.g08.bks.cpg/sg11_33_cif.got.tgz:64372.got - 2010.06.03 12:22:45.
