data_PCOD9161430
_publ_section_title
;
Structure prediction by ZEFSAII (Michael W. Deem and Ramdas Pophale) SiO2 
 PCOD9161430
Probable space group: P 21/M
;
_chemical_formula_sum "Si O2"
_cell_formula_units_Z 24
_cell_length_a 26.850232
_cell_length_b 8.753823
_cell_length_c 17.677074
_cell_angle_alpha 90.000000
_cell_angle_beta 161.438972
_cell_angle_gamma 90.000000
_cell_volume 1322.551845
_symmetry_space_group_name_H-M "P 21/M"
_symmetry_group_IT_number 11
_symmetry_cell_setting 'monoclinic'
loop_
_space_group_symop_operation_xyz
x,y,z
-x,1/2+y,-z
-x,-y,-z
x,1/2-y,z
loop_
_atom_site_type_symbol
_atom_site_label
_atom_site_fract_x
_atom_site_fract_y
_atom_site_fract_z
Si Si1 0.946899 0.929303 0.650322
Si Si2 0.881845 0.067140 0.391649
Si Si3 0.631293 0.076726 0.238945
Si Si4 0.450359 0.423162 0.135251
Si Si5 0.022062 0.068899 0.909593
Si Si6 0.750116 0.930901 0.624586
O O1 0.973696 0.750000 0.679499
O O2 0.937562 0.007385 0.554452
O O3 0.777227 0.966515 0.440885
O O4 0.050898 0.997294 0.868308
O O5 0.882623 0.250000 0.392614
O O6 0.000000 0.000000 0.500000
O O7 0.708414 0.008108 0.118271
O O8 0.672040 0.250000 0.272790
O O9 0.557082 0.085884 0.214168
O O10 0.500000 0.000000 0.000000
O O11 0.411765 0.250000 0.104085
O O12 0.573548 0.504695 0.368309
O O13 0.996238 0.250000 0.863063
O O14 0.165906 0.042654 0.173908
O O15 0.869835 0.003916 0.735317
O O16 0.745124 0.750000 0.602468
#
# Coordination Sequence:
#
# PCOD9161430 Si02
#       6
#     4   4   4   4   4   4
#     4  12  23  36  57  84 116 152 192 233 284 342
#     4  12  26  44  64  84 112 147 191 240 290 341
#     4  11  21  32  51  81 115 150 186 229 282 343
#     4  11  22  36  57  84 118 153 191 233 283 342
#     4  10  20  34  52  81 119 157 194 232 280 338
#     4  10  20  33  53  82 118 157 194 232 280 338
#
# _framework density 18.146736000000001
#
# number of rings (size 3 to 8) (size 9 to 14) (size 15 to 20)
#    0.000    1.000    3.333    5.000    0.000    3.333 
#    0.000    0.000    0.000    1.000    0.000    0.000 
#    0.000    0.000    0.000    0.000    0.000    0.000 
#
# Total GULP energy -133884.799456 kJ/mol
# GULP energy per Si atom -5578.533311 kJ/mol
# Density = 1.810543 g / cm^3
# Si number density = 18.146736 Si / 1000 Ang^3
#
#
#
# Elastic Constant Matrix: (Units=GPa)
#
#
# Indices 1 2 3 4 5 6 
#
# 1 98.2575 61.8160 60.1794 0.0000 -14.9241 0.0000
# 2 61.8160 153.0712 66.2531 0.0000 -24.6313 0.0000
# 3 60.1794 66.2531 83.3180 0.0000 -31.3716 0.0000
# 4 0.0000 0.0000 0.0000 28.7941 0.0000 -1.8518
# 5 -14.9241 -24.6313 -31.3716 0.0000 28.2896 0.0000
# 6 0.0000 0.0000 0.0000 -1.8518 0.0000 27.0013
#
#
#
# Elastic Compliance Matrix: (Units=1/GPa)
#
#
# Indices 1 2 3 4 5 6 
#
# 1 0.020301 -0.002794 -0.016010 0.000000 -0.009477 0.000000
# 2 -0.002794 0.010346 -0.005790 0.000000 0.001114 0.000000
# 3 -0.016010 -0.005790 0.039646 0.000000 0.030478 0.000000
# 4 0.000000 0.000000 0.000000 0.034883 0.000000 0.002392
# 5 -0.009477 0.001114 0.030478 0.000000 0.065117 0.000000
# 6 0.000000 0.000000 0.000000 0.002392 0.000000 0.037199
#
#
# Mechanical properties :
#
#
# Convention : Reuss Voigt Hill
#
# Bulk Modulus (GPa) = 47.38016 79.01595 63.19805
# Shear Modulus (GPa) = 18.95984 26.57689 22.76836
#
# Velocity S-wave (km/s) = 3.23585 3.83110 3.54599
# Velocity P-wave (km/s) = 6.33460 7.95029 7.18799
#
# Compressibility (1/GPa) = 0.02110588
#
# Stress axis : x y z
#
# Youngs Moduli (GPa) = 49.25847 96.65158 25.22345
#
# Poissons Ratio (x) = 0.27003 0.40382
# Poissons Ratio (y) = 0.13762 0.14604
# Poissons Ratio (z) = 0.78862 0.55961
#
# Static dielectric constant tensor:
#      x y z
#    x 1.625080 0.000000 -0.034290 
#    y 0.000000 1.677410 0.000000 
#    z -0.034290 0.000000 1.654420 
# 
# From -- ./inp_files/62109.got.cif
#   From: 2010.05.17/outbox.cif.g08.bks.cpg/sg11_32_cif.got.tgz:62109.got - 2010.06.03 12:22:45.
