data_PCOD9161631
_publ_section_title
;
Structure prediction by ZEFSAII (Michael W. Deem and Ramdas Pophale) SiO2 
 PCOD9161631
Probable space group: P 21/M
;
_chemical_formula_sum "Si O2"
_cell_formula_units_Z 24
_cell_length_a 11.932403
_cell_length_b 8.923780
_cell_length_c 23.411504
_cell_angle_alpha 90.000000
_cell_angle_beta 145.667897
_cell_angle_gamma 90.000000
_cell_volume 1405.971708
_symmetry_space_group_name_H-M "P 21/M"
_symmetry_group_IT_number 11
_symmetry_cell_setting 'monoclinic'
loop_
_space_group_symop_operation_xyz
x,y,z
-x,1/2+y,-z
-x,-y,-z
x,1/2-y,z
loop_
_atom_site_type_symbol
_atom_site_label
_atom_site_fract_x
_atom_site_fract_y
_atom_site_fract_z
Si Si1 0.976809 0.426099 0.352599
Si Si2 0.304578 0.426118 0.284597
Si Si3 0.698487 0.578703 0.418268
Si Si4 0.195717 0.070463 0.109522
Si Si5 0.284860 0.928381 0.394458
Si Si6 0.393301 0.425395 0.752198
O O1 0.962019 0.250000 0.332978
O O2 0.761278 0.498257 0.270035
O O3 0.095259 0.440199 0.462548
O O4 0.117302 0.507164 0.365998
O O5 0.276508 0.250000 0.283718
O O6 0.537843 0.463648 0.375089
O O7 0.210364 0.465381 0.183508
O O8 0.233636 0.521554 0.308455
O O9 0.629038 0.750000 0.401661
O O10 0.699788 0.562854 0.350860
O O11 0.195071 0.250000 0.103939
O O12 0.393381 0.004547 0.163128
O O13 0.000000 0.000000 0.000000
O O14 0.299370 0.750000 0.405489
O O15 0.500000 0.000000 0.500000
O O16 0.418048 0.250000 0.775566
#
# Coordination Sequence:
#
# PCOD9161631 Si02
#       6
#     4   4   4   4   4   4
#     4  11  21  33  50  75 109 149 186 221 265 318
#     4  10  20  34  54  80 109 142 183 226 268 318
#     4   9  18  31  49  73 106 146 182 219 264 315
#     4  10  21  38  61  86 109 138 177 226 280 328
#     4  12  23  35  52  76 109 150 190 225 264 315
#     4  10  20  34  52  78 109 142 181 224 272 324
#
# _framework density 17.070045
#
# number of rings (size 3 to 8) (size 9 to 14) (size 15 to 20)
#    0.000    1.667    1.667    4.000    0.000    3.333 
#    0.000    0.000    0.000    1.000    0.000    0.000 
#    0.000    0.000    0.000    0.000    0.000    0.000 
#
# Total GULP energy -133988.365422 kJ/mol
# GULP energy per Si atom -5582.848559 kJ/mol
# Density = 1.703119 g / cm^3
# Si number density = 17.070045 Si / 1000 Ang^3
#
#
#
# Elastic Constant Matrix: (Units=GPa)
#
#
# Indices 1 2 3 4 5 6 
#
# 1 112.2063 76.6654 60.6685 0.0000 23.6880 0.0000
# 2 76.6654 123.8572 65.9055 0.0000 13.5309 0.0000
# 3 60.6685 65.9055 98.8267 0.0000 13.0829 0.0000
# 4 0.0000 0.0000 0.0000 26.0408 0.0000 4.0641
# 5 23.6880 13.5309 13.0829 0.0000 15.6593 0.0000
# 6 0.0000 0.0000 0.0000 4.0641 0.0000 32.1488
#
#
#
# Elastic Compliance Matrix: (Units=1/GPa)
#
#
# Indices 1 2 3 4 5 6 
#
# 1 0.022106 -0.008703 -0.004875 0.000000 -0.021848 0.000000
# 2 -0.008703 0.016206 -0.006020 0.000000 0.004191 0.000000
# 3 -0.004875 -0.006020 0.017384 0.000000 -0.001948 0.000000
# 4 0.000000 0.000000 0.000000 0.039174 0.000000 -0.004952
# 5 -0.021848 0.004191 -0.001948 0.000000 0.094916 0.000000
# 6 0.000000 0.000000 0.000000 -0.004952 0.000000 0.031731
#
#
# Mechanical properties :
#
#
# Convention : Reuss Voigt Hill
#
# Bulk Modulus (GPa) = 60.60111 82.37434 71.48772
# Shear Modulus (GPa) = 18.78198 23.54649 21.16423
#
# Velocity S-wave (km/s) = 3.32066 3.71806 3.52497
# Velocity P-wave (km/s) = 7.09090 8.17272 7.65096
#
# Compressibility (1/GPa) = 0.01650135
#
# Stress axis : x y z
#
# Youngs Moduli (GPa) = 45.23561 61.70570 57.52527
#
# Poissons Ratio (x) = 0.53701 0.28043
# Poissons Ratio (y) = 0.39367 0.34629
# Poissons Ratio (z) = 0.22052 0.37145
#
# Static dielectric constant tensor:
#      x y z
#    x 1.580870 0.000000 -0.017490 
#    y 0.000000 1.569460 0.000000 
#    z -0.017490 0.000000 1.558860 
# 
# From -- ./inp_files/42252.got.cif
#   From: 2010.05.17/outbox.cif.g08.bks.cpg/sg11_22_cif.got.tgz:42252.got - 2010.06.03 12:22:45.
