data_PCOD9161066
_publ_section_title
;
Structure prediction by ZEFSAII (Michael W. Deem and Ramdas Pophale) SiO2 
 PCOD9161066
Probable space group: P 21/M
;
_chemical_formula_sum "Si O2"
_cell_formula_units_Z 28
_cell_length_a 18.796797
_cell_length_b 8.830676
_cell_length_c 21.506090
_cell_angle_alpha 90.000000
_cell_angle_beta 29.403815
_cell_angle_gamma 90.000000
_cell_volume 1752.616635
_symmetry_space_group_name_H-M "P 21/M"
_symmetry_group_IT_number 11
_symmetry_cell_setting 'monoclinic'
loop_
_space_group_symop_operation_xyz
x,y,z
-x,1/2+y,-z
-x,-y,-z
x,1/2-y,z
loop_
_atom_site_type_symbol
_atom_site_label
_atom_site_fract_x
_atom_site_fract_y
_atom_site_fract_z
Si Si1 0.337882 0.431035 0.866044
Si Si2 0.607517 0.432574 0.734844
Si Si3 0.916182 0.070005 0.870918
Si Si4 0.089411 0.929374 0.987741
Si Si5 0.085224 0.431736 0.254276
Si Si6 0.576088 0.932275 0.002412
Si Si7 0.926125 0.569101 0.494778
O O1 0.324167 0.250000 0.875849
O O2 0.503370 0.469115 0.755385
O O3 0.241922 0.497194 0.995871
O O4 0.250582 0.500292 0.874301
O O5 0.630056 0.250000 0.718182
O O6 0.759635 0.516044 0.618712
O O7 0.516595 0.473443 0.865968
O O8 0.906576 0.250000 0.869008
O O9 0.984010 0.042801 0.888084
O O10 0.978618 0.991102 0.762635
O O11 0.101709 0.750000 0.970607
O O12 0.000000 0.000000 0.000000
O O13 0.075650 0.250000 0.264481
O O14 0.255061 0.477667 0.125311
O O15 0.006872 0.504882 0.372641
O O16 0.574457 0.750000 0.000436
O O17 0.500000 0.000000 0.000000
O O18 0.936278 0.750000 0.489024
O O19 0.000000 0.500000 0.500000
#
# Coordination Sequence:
#
# PCOD9161066 Si02
#       7
#     4   4   4   4   4   4   4
#     4   9  16  30  51  74 103 136 172 212 257 307
#     4  10  20  37  55  74 101 136 175 218 265 319
#     4   9  18  30  48  76 106 136 171 211 254 306
#     4   9  17  27  45  76 114 146 175 213 260 310
#     4  11  21  37  56  75 100 136 175 218 267 318
#     4  10  20  32  49  73  96 123 163 208 260 313
#     4  12  26  41  55  75 103 139 180 226 275 323
#
# _framework density 15.976112000000001
#
# number of rings (size 3 to 8) (size 9 to 14) (size 15 to 20)
#    0.857    1.143    1.429    3.429    0.000    5.143 
#    0.000    0.000    0.000    0.000    0.000    1.000 
#    0.000    0.000    0.000    0.000    0.000    0.000 
#
# Total GULP energy -155885.206052 kJ/mol
# GULP energy per Si atom -5567.328788 kJ/mol
# Density = 1.593975 g / cm^3
# Si number density = 15.976112 Si / 1000 Ang^3
#
#
#
# Elastic Constant Matrix: (Units=GPa)
#
#
# Indices 1 2 3 4 5 6 
#
# 1 148.0108 68.5379 61.4224 0.0000 -4.6246 0.0000
# 2 68.5379 83.9390 49.4646 0.0000 -0.5636 0.0000
# 3 61.4224 49.4646 97.6146 0.0000 0.2940 0.0000
# 4 0.0000 0.0000 0.0000 22.9545 0.0000 1.2907
# 5 -4.6246 -0.5636 0.2940 0.0000 20.1142 0.0000
# 6 0.0000 0.0000 0.0000 1.2907 0.0000 29.4042
#
#
#
# Elastic Compliance Matrix: (Units=1/GPa)
#
#
# Indices 1 2 3 4 5 6 
#
# 1 0.011814 -0.007477 -0.003653 0.000000 0.002560 0.000000
# 2 -0.007477 0.021725 -0.006301 0.000000 -0.001018 0.000000
# 3 -0.003653 -0.006301 0.015740 0.000000 -0.001246 0.000000
# 4 0.000000 0.000000 0.000000 0.043672 0.000000 -0.001917
# 5 0.002560 -0.001018 -0.001246 0.000000 0.050294 0.000000
# 6 0.000000 0.000000 0.000000 -0.001917 0.000000 0.034093
#
#
# Mechanical properties :
#
#
# Convention : Reuss Voigt Hill
#
# Bulk Modulus (GPa) = 69.36134 76.49047 72.92590
# Shear Modulus (GPa) = 23.04093 24.50389 23.77241
#
# Velocity S-wave (km/s) = 3.80177 3.92060 3.86164
# Velocity P-wave (km/s) = 7.92345 8.27507 8.10117
#
# Compressibility (1/GPa) = 0.01441725
#
# Stress axis : x y z
#
# Youngs Moduli (GPa) = 84.64225 46.03069 63.53420
#
# Poissons Ratio (x) = 0.34417 0.23209
# Poissons Ratio (y) = 0.63286 0.40032
# Poissons Ratio (z) = 0.30920 0.29003
#
# Static dielectric constant tensor:
#      x y z
#    x 1.555370 0.000000 0.000190 
#    y 0.000000 1.528430 0.000000 
#    z 0.000190 0.000000 1.497890 
# 
# From -- ./inp_files/65994.got.cif
#   From: 2010.05.17/outbox.cif.g08.bks.cpg/sg11_33_cif.got.tgz:65994.got - 2010.06.03 12:22:45.
