data_PCOD9161684
_publ_section_title
;
Structure prediction by ZEFSAII (Michael W. Deem and Ramdas Pophale) SiO2 
 PCOD9161684
Probable space group: P 21/M
;
_chemical_formula_sum "Si O2"
_cell_formula_units_Z 32
_cell_length_a 23.041532
_cell_length_b 8.938059
_cell_length_c 28.775452
_cell_angle_alpha 90.000000
_cell_angle_beta 18.121175
_cell_angle_gamma 90.000000
_cell_volume 1843.214095
_symmetry_space_group_name_H-M "P 21/M"
_symmetry_group_IT_number 11
_symmetry_cell_setting 'monoclinic'
loop_
_space_group_symop_operation_xyz
x,y,z
-x,1/2+y,-z
-x,-y,-z
x,1/2-y,z
loop_
_atom_site_type_symbol
_atom_site_label
_atom_site_fract_x
_atom_site_fract_y
_atom_site_fract_z
Si Si1 0.992265 0.071139 0.330801
Si Si2 0.013167 0.929009 0.169034
Si Si3 0.301092 0.071690 0.017880
Si Si4 0.992755 0.570391 0.077017
Si Si5 0.029939 0.928578 0.403170
Si Si6 0.699250 0.928540 0.222770
Si Si7 0.704331 0.571533 0.724155
Si Si8 0.295204 0.428624 0.519551
O O1 0.973396 0.250000 0.348099
O O2 0.169113 0.037473 0.162789
O O3 0.018831 0.001399 0.361140
O O4 0.812910 0.001678 0.441532
O O5 0.045074 0.750000 0.147277
O O6 0.832982 0.962396 0.337869
O O7 0.982326 0.969887 0.138984
O O8 0.187301 0.011604 0.060067
O O9 0.323456 0.250000 0.998046
O O10 0.500244 0.993945 0.871084
O O11 0.021509 0.750000 0.051614
O O12 0.806270 0.535406 0.189611
O O13 0.162780 0.487955 0.922268
O O14 0.051134 0.750000 0.383395
O O15 0.841895 0.959765 0.575947
O O16 0.198090 0.996674 0.305502
O O17 0.679246 0.750000 0.234766
O O18 0.499998 0.005792 0.370220
O O19 0.696369 0.750000 0.736473
O O20 0.302585 0.250000 0.507998
#
# Coordination Sequence:
#
# PCOD9161684 Si02
#       8
#     4   4   4   4   4   4   4   4
#     4  10  21  37  56  79 107 139 176 217 261 310
#     4   9  19  36  56  77 103 137 176 217 262 312
#     4  10  21  36  55  80 108 138 174 217 263 311
#     4   9  19  36  55  76 105 139 176 218 262 311
#     4  10  21  37  57  81 108 139 176 217 261 309
#     4  10  20  34  53  78 107 139 175 216 262 312
#     4  10  21  37  57  80 107 140 176 215 260 310
#     4  10  20  35  55  78 105 138 175 216 263 313
#
# _framework density 17.360977999999999
#
# number of rings (size 3 to 8) (size 9 to 14) (size 15 to 20)
#    0.000    2.250    0.000    2.250    0.000    6.500 
#    0.000    1.250    0.000    0.000    0.000    0.000 
#    0.000    0.000    0.000    0.000    0.000    0.000 
#
# Total GULP energy -178652.720193 kJ/mol
# GULP energy per Si atom -5582.897506 kJ/mol
# Density = 1.732146 g / cm^3
# Si number density = 17.360978 Si / 1000 Ang^3
#
#
#
# Elastic Constant Matrix: (Units=GPa)
#
#
# Indices 1 2 3 4 5 6 
#
# 1 342.2291 165.5965 218.4305 0.0000 -20.3887 0.0000
# 2 165.5965 117.9336 139.8389 0.0000 -20.0902 0.0000
# 3 218.4305 139.8389 230.7244 0.0000 -48.9508 0.0000
# 4 0.0000 0.0000 0.0000 283.0551 0.0000 -169.6574
# 5 -20.3887 -20.0902 -48.9508 0.0000 23.5699 0.0000
# 6 0.0000 0.0000 0.0000 -169.6574 0.0000 141.9832
#
#
#
# Elastic Compliance Matrix: (Units=1/GPa)
#
#
# Indices 1 2 3 4 5 6 
#
# 1 0.013074 -0.007157 -0.012397 0.000000 -0.020537 0.000000
# 2 -0.007157 0.042056 -0.022207 0.000000 -0.016464 0.000000
# 3 -0.012397 -0.022207 0.041543 0.000000 0.056627 0.000000
# 4 0.000000 0.000000 0.000000 0.012449 0.000000 0.014875
# 5 -0.020537 -0.016464 0.056627 0.000000 0.128234 0.000000
# 6 0.000000 0.000000 0.000000 0.014875 0.000000 0.024818
#
#
# Mechanical properties :
#
#
# Convention : Reuss Voigt Hill
#
# Bulk Modulus (GPa) = 76.03138 193.17988 134.60563
# Shear Modulus (GPa) = 14.28254 100.85640 57.56947
#
# Velocity S-wave (km/s) = 2.87135 7.63019 5.76474
# Velocity P-wave (km/s) = 7.40826 13.75284 11.04588
#
# Compressibility (1/GPa) = 0.01315246
#
# Stress axis : x y z
#
# Youngs Moduli (GPa) = 76.48920 23.77810 24.07117
#
# Poissons Ratio (x) = 0.17018 0.29840
# Poissons Ratio (y) = 0.54742 0.53454
# Poissons Ratio (z) = 0.94820 0.52803
#
# Static dielectric constant tensor:
#      x y z
#    x 1.564840 0.000000 0.008450 
#    y 0.000000 1.576540 0.000000 
#    z 0.008450 0.000000 1.561080 
# 
# From -- ./inp_files/67211.got.cif
#   From: 2010.05.17/outbox.cif.g08.bks.cpg/sg11_34_cif.got.tgz:67211.got - 2010.06.03 12:22:45.
