data_PCOD9161614
_publ_section_title
;
Structure prediction by ZEFSAII (Michael W. Deem and Ramdas Pophale) SiO2 
 PCOD9161614
Probable space group: P 21/M
;
_chemical_formula_sum "Si O2"
_cell_formula_units_Z 32
_cell_length_a 28.950884
_cell_length_b 8.841333
_cell_length_c 10.250700
_cell_angle_alpha 90.000000
_cell_angle_beta 45.009577
_cell_angle_gamma 90.000000
_cell_volume 1855.627001
_symmetry_space_group_name_H-M "P 21/M"
_symmetry_group_IT_number 11
_symmetry_cell_setting 'monoclinic'
loop_
_space_group_symop_operation_xyz
x,y,z
-x,1/2+y,-z
-x,-y,-z
x,1/2-y,z
loop_
_atom_site_type_symbol
_atom_site_label
_atom_site_fract_x
_atom_site_fract_y
_atom_site_fract_z
Si Si1 0.178797 0.068751 0.797117
Si Si2 0.576367 0.932290 0.209408
Si Si3 0.426509 0.567824 0.503102
Si Si4 0.074396 0.569233 0.202576
Si Si5 0.321635 0.432375 0.215356
Si Si6 0.170537 0.068980 0.511085
Si Si7 0.067623 0.930466 0.518551
Si Si8 0.679139 0.431654 0.500587
O O1 0.183036 0.250000 0.797113
O O2 0.159477 0.030926 0.685808
O O3 0.250268 0.998664 0.677285
O O4 0.126913 0.005767 0.002918
O O5 0.578627 0.750000 0.213397
O O6 0.501707 0.976366 0.324547
O O7 0.591465 0.000041 0.320734
O O8 0.627949 0.979719 0.996913
O O9 0.424731 0.750000 0.515317
O O10 0.376129 0.520901 0.492041
O O11 0.076373 0.750000 0.184286
O O12 0.086828 0.531971 0.330430
O O13 0.001894 0.509021 0.316458
O O14 0.325069 0.250000 0.223847
O O15 0.246385 0.468701 0.331203
O O16 0.336756 0.507859 0.323541
O O17 0.162620 0.250000 0.512362
O O18 0.121458 0.986215 0.512686
O O19 0.059532 0.750000 0.542800
O O20 0.682820 0.250000 0.494871
#
# Coordination Sequence:
#
# PCOD9161614 Si02
#       8
#     4   4   4   4   4   4   4   4
#     4  10  21  37  56  78 104 136 175 214 254 305
#     4   9  18  34  54  75 102 137 175 215 259 307
#     4   9  19  34  51  75 106 136 171 216 261 308
#     4  10  21  37  56  79 107 137 170 211 257 303
#     4   9  19  35  53  75 103 135 174 215 255 306
#     4   9  19  35  53  75 103 134 170 214 259 303
#     4  10  21  36  55  79 105 136 173 210 252 305
#     4  10  20  34  52  76 106 137 170 212 261 308
#
# _framework density 17.244847
#
# number of rings (size 3 to 8) (size 9 to 14) (size 15 to 20)
#    0.000    2.500    0.000    2.250    0.000    7.500 
#    0.000    2.500    0.000    0.000    0.000    0.000 
#    0.000    0.000    0.000    0.000    0.000    0.000 
#
# Total GULP energy -178549.522997 kJ/mol
# GULP energy per Si atom -5579.672594 kJ/mol
# Density = 1.720560 g / cm^3
# Si number density = 17.244847 Si / 1000 Ang^3
#
#
#
# Elastic Constant Matrix: (Units=GPa)
#
#
# Indices 1 2 3 4 5 6 
#
# 1 233.6848 81.9129 158.0290 0.0000 7.1531 0.0000
# 2 81.9129 51.2398 81.3106 0.0000 1.2424 0.0000
# 3 158.0290 81.3106 251.9274 0.0000 -3.6291 0.0000
# 4 0.0000 0.0000 0.0000 30.0867 0.0000 5.2466
# 5 7.1531 1.2424 -3.6291 0.0000 5.8465 0.0000
# 6 0.0000 0.0000 0.0000 5.2466 0.0000 24.5278
#
#
#
# Elastic Compliance Matrix: (Units=1/GPa)
#
#
# Indices 1 2 3 4 5 6 
#
# 1 0.011253 -0.012655 -0.003162 0.000000 -0.013041 0.000000
# 2 -0.012655 0.055914 -0.010147 0.000000 -0.002698 0.000000
# 3 -0.003162 -0.010147 0.009399 0.000000 0.011859 0.000000
# 4 0.000000 0.000000 0.000000 0.034525 0.000000 -0.007385
# 5 -0.013041 -0.002698 0.011859 0.000000 0.194934 0.000000
# 6 0.000000 0.000000 0.000000 -0.007385 0.000000 0.042350
#
#
# Mechanical properties :
#
#
# Convention : Reuss Voigt Hill
#
# Bulk Modulus (GPa) = 40.58891 131.03966 85.81428
# Shear Modulus (GPa) = 12.23947 26.46549 19.35248
#
# Velocity S-wave (km/s) = 2.66700 3.92176 3.35359
# Velocity P-wave (km/s) = 5.75081 9.83156 8.05392
#
# Compressibility (1/GPa) = 0.02463727
#
# Stress axis : x y z
#
# Youngs Moduli (GPa) = 88.86847 17.88466 106.39657
#
# Poissons Ratio (x) = 0.22632 0.33643
# Poissons Ratio (y) = 1.12460 1.07964
# Poissons Ratio (z) = 0.28101 0.18148
#
# Static dielectric constant tensor:
#      x y z
#    x 1.560890 0.000000 -0.002920 
#    y 0.000000 1.577290 0.000000 
#    z -0.002920 0.000000 1.564520 
# 
# From -- ./inp_files/28052.got.cif
#   From: 2010.05.17/outbox.cif.g08.bks.cpg/sg11_15_cif.got.tgz:28052.got - 2010.06.03 12:22:45.
