data_PCOD9161378
_publ_section_title
;
Structure prediction by ZEFSAII (Michael W. Deem and Ramdas Pophale) SiO2 
 PCOD9161378
Probable space group: P 21/M
;
_chemical_formula_sum "Si O2"
_cell_formula_units_Z 32
_cell_length_a 6.342237
_cell_length_b 13.877580
_cell_length_c 18.235871
_cell_angle_alpha 90.000000
_cell_angle_beta 72.841420
_cell_angle_gamma 90.000000
_cell_volume 1533.591598
_symmetry_space_group_name_H-M "P 21/M"
_symmetry_group_IT_number 11
_symmetry_cell_setting 'monoclinic'
loop_
_space_group_symop_operation_xyz
x,y,z
-x,1/2+y,-z
-x,-y,-z
x,1/2-y,z
loop_
_atom_site_type_symbol
_atom_site_label
_atom_site_fract_x
_atom_site_fract_y
_atom_site_fract_z
Si Si1 0.670050 0.637352 0.121863
Si Si2 0.831125 0.969403 0.245703
Si Si3 0.540806 0.857985 0.532209
Si Si4 0.697049 0.512246 0.864771
Si Si5 0.933252 0.637535 0.958332
Si Si6 0.235550 0.962009 0.446835
Si Si7 0.359122 0.637560 0.817070
Si Si8 0.937171 0.857801 0.374952
O O1 0.618085 0.750000 0.126902
O O2 0.476064 0.573538 0.107159
O O3 0.710227 0.598586 0.199162
O O4 0.887401 0.621908 0.048845
O O5 0.828018 0.926952 0.326513
O O6 0.086153 0.972375 0.196368
O O7 0.733879 0.075384 0.240908
O O8 0.495214 0.750000 0.565530
O O9 0.348210 0.896315 0.498021
O O10 0.757999 0.850841 0.458355
O O11 0.607519 0.944857 0.579992
O O12 0.775193 0.567475 0.929137
O O13 0.581660 0.590487 0.823763
O O14 0.877238 0.750000 0.948952
O O15 0.178303 0.623278 0.901273
O O16 0.165496 0.900984 0.383057
O O17 0.000000 0.000000 0.500000
O O18 0.377682 0.750000 0.799650
O O19 0.972187 0.750000 0.341717
#
# Coordination Sequence:
#
# PCOD9161378 Si02
#       8
#     4   4   4   4   4   4   4   4
#     4  10  21  34  48  72 105 137 171 215 267 319
#     4  10  22  36  51  75 108 141 174 214 258 308
#     4   9  18  34  58  85 112 142 175 213 253 295
#     4  10  20  33  53  75  98 131 174 220 267 319
#     4   9  18  33  53  75  98 128 169 219 274 325
#     4   9  18  33  55  83 112 139 174 214 251 294
#     4   9  19  36  55  73  96 130 174 224 274 321
#     4  10  20  35  56  80 109 147 181 207 246 302
#
# _framework density 20.866052
#
# number of rings (size 3 to 8) (size 9 to 14) (size 15 to 20)
#    0.000    2.500    0.000    1.500    0.000    9.500 
#    0.000    3.125    0.000    8.250    0.000    0.000 
#    0.000    0.000    0.000    0.000    0.000    0.000 
#
# Total GULP energy -178618.583286 kJ/mol
# GULP energy per Si atom -5581.830728 kJ/mol
# Density = 2.081856 g / cm^3
# Si number density = 20.866052 Si / 1000 Ang^3
#
#
#
# Elastic Constant Matrix: (Units=GPa)
#
#
# Indices 1 2 3 4 5 6 
#
# 1 56.9872 24.2680 -0.3964 0.0000 10.7498 0.0000
# 2 24.2680 126.5629 8.1618 0.0000 5.2230 0.0000
# 3 -0.3964 8.1618 21.6239 0.0000 1.2768 0.0000
# 4 0.0000 0.0000 0.0000 19.5931 0.0000 -0.7050
# 5 10.7498 5.2230 1.2768 0.0000 18.6205 0.0000
# 6 0.0000 0.0000 0.0000 -0.7050 0.0000 17.8768
#
#
#
# Elastic Compliance Matrix: (Units=1/GPa)
#
#
# Indices 1 2 3 4 5 6 
#
# 1 0.021330 -0.003779 0.002492 0.000000 -0.011425 0.000000
# 2 -0.003779 0.008848 -0.003405 0.000000 -0.000067 0.000000
# 3 0.002492 -0.003405 0.047798 0.000000 -0.003761 0.000000
# 4 0.000000 0.000000 0.000000 0.051111 0.000000 0.002016
# 5 -0.011425 -0.000067 -0.003761 0.000000 0.060577 0.000000
# 6 0.000000 0.000000 0.000000 0.002016 0.000000 0.056018
#
#
# Mechanical properties :
#
#
# Convention : Reuss Voigt Hill
#
# Bulk Modulus (GPa) = 14.57910 29.91567 22.24738
# Shear Modulus (GPa) = 17.99018 22.76076 20.37547
#
# Velocity S-wave (km/s) = 2.93947 3.30631 3.12827
# Velocity P-wave (km/s) = 4.30381 5.37994 4.87168
#
# Compressibility (1/GPa) = 0.06859135
#
# Stress axis : x y z
#
# Youngs Moduli (GPa) = 46.88332 113.01764 20.92139
#
# Poissons Ratio (x) = 0.42710 -0.05213
# Poissons Ratio (y) = 0.17718 0.07124
# Poissons Ratio (z) = -0.11683 0.38483
#
# Static dielectric constant tensor:
#      x y z
#    x 1.734030 0.000000 -0.023960 
#    y 0.000000 1.776270 0.000000 
#    z -0.023960 0.000000 1.766090 
# 
# From -- ./inp_files/57058.got.cif
#   From: 2010.05.17/outbox.cif.g08.bks.cpg/sg11_29_cif.got.tgz:57058.got - 2010.06.03 12:22:45.
