data_PCOD9161665
_publ_section_title
;
Structure prediction by ZEFSAII (Michael W. Deem and Ramdas Pophale) SiO2 
 PCOD9161665
Probable space group: P 21/M
;
_chemical_formula_sum "Si O2"
_cell_formula_units_Z 32
_cell_length_a 9.037190
_cell_length_b 28.881274
_cell_length_c 11.535783
_cell_angle_alpha 90.000000
_cell_angle_beta 38.426623
_cell_angle_gamma 90.000000
_cell_volume 1871.312250
_symmetry_space_group_name_H-M "P 21/M"
_symmetry_group_IT_number 11
_symmetry_cell_setting 'monoclinic'
loop_
_space_group_symop_operation_xyz
x,y,z
-x,1/2+y,-z
-x,-y,-z
x,1/2-y,z
loop_
_atom_site_type_symbol
_atom_site_label
_atom_site_fract_x
_atom_site_fract_y
_atom_site_fract_z
Si Si1 0.191459 0.196352 0.485973
Si Si2 0.641093 0.552984 0.535909
Si Si3 0.599024 0.629544 0.224793
Si Si4 0.146191 0.379638 0.177066
Si Si5 0.836595 0.303648 0.485973
Si Si6 0.287089 0.552984 0.535910
Si Si7 0.951392 0.629544 0.224792
Si Si8 0.499676 0.379638 0.177066
O O1 0.254767 0.250000 0.462464
O O2 0.408190 0.165296 0.304688
O O3 0.985689 0.193371 0.514311
O O4 0.097543 0.172739 0.660530
O O5 0.429221 0.554542 0.570779
O O6 0.719655 0.500000 0.499998
O O7 0.551918 0.576766 0.708142
O O8 0.852204 0.584717 0.354736
O O9 0.418602 0.672738 0.339471
O O10 0.438325 0.584717 0.354736
O O11 0.794244 0.634023 0.205756
O O12 0.724887 0.624472 0.024533
O O13 0.339004 0.382810 0.160995
O O14 0.982437 0.334704 0.304686
O O15 0.968201 0.423233 0.291858
O O16 0.820302 0.250000 0.462466
O O17 0.226047 0.624472 0.024533
#
# Coordination Sequence:
#
# PCOD9161665 Si02
#       8
#     4   4   4   4   4   4   4   4
#     4   9  19  36  55  74  99 133 171 208 248 298
#     4   9  19  36  55  74 100 136 175 214 257 305
#     4  10  20  34  53  77 104 133 168 211 256 302
#     4  10  20  34  53  77 105 136 170 210 256 306
#     4   9  19  36  55  74  99 133 171 208 248 298
#     4   9  19  36  55  74 100 136 175 214 257 305
#     4  10  20  34  53  77 104 133 168 211 256 302
#     4  10  20  34  53  77 105 136 170 210 256 306
#
# _framework density 17.100300000000001
#
# number of rings (size 3 to 8) (size 9 to 14) (size 15 to 20)
#    0.000    2.500    0.000    1.500    0.000    5.000 
#    0.000    7.500    0.000    0.000    0.000    0.000 
#    0.000    0.000    0.000    0.000    0.000    0.000 
#
# Total GULP energy -178561.867538 kJ/mol
# GULP energy per Si atom -5580.058361 kJ/mol
# Density = 1.706138 g / cm^3
# Si number density = 17.100300 Si / 1000 Ang^3
#
#
#
# Elastic Constant Matrix: (Units=GPa)
#
#
# Indices 1 2 3 4 5 6 
#
# 1 44.3708 39.0213 56.3283 0.0000 9.2283 0.0000
# 2 39.0213 121.5486 40.6767 0.0000 0.1773 0.0000
# 3 56.3283 40.6767 132.4115 0.0000 0.2061 0.0000
# 4 0.0000 0.0000 0.0000 7.4241 0.0000 -3.4847
# 5 9.2283 0.1773 0.2061 0.0000 36.1131 0.0000
# 6 0.0000 0.0000 0.0000 -3.4847 0.0000 39.9609
#
#
#
# Elastic Compliance Matrix: (Units=1/GPa)
#
#
# Indices 1 2 3 4 5 6 
#
# 1 0.072561 -0.014431 -0.026406 0.000000 -0.018320 0.000000
# 2 -0.014431 0.012040 0.002435 0.000000 0.003615 0.000000
# 3 -0.026406 0.002435 0.018027 0.000000 0.006633 0.000000
# 4 0.000000 0.000000 0.000000 0.140445 0.000000 0.012247
# 5 -0.018320 0.003615 0.006633 0.000000 0.032317 0.000000
# 6 0.000000 0.000000 0.000000 0.012247 0.000000 0.026092
#
#
# Mechanical properties :
#
#
# Convention : Reuss Voigt Hill
#
# Bulk Modulus (GPa) = 38.72439 63.37595 51.05017
# Shear Modulus (GPa) = 12.92344 27.51993 20.22168
#
# Velocity S-wave (km/s) = 2.75206 4.01599 3.44253
# Velocity P-wave (km/s) = 5.72652 7.65807 6.76162
#
# Compressibility (1/GPa) = 0.02582352
#
# Stress axis : x y z
#
# Youngs Moduli (GPa) = 13.78154 83.05686 55.47195
#
# Poissons Ratio (x) = 1.19859 1.46479
# Poissons Ratio (y) = 0.19888 -0.13506
# Poissons Ratio (z) = 0.36391 -0.20222
#
# Static dielectric constant tensor:
#      x y z
#    x 1.569590 0.000000 -0.002840 
#    y 0.000000 1.566500 0.000000 
#    z -0.002840 0.000000 1.543040 
# 
# From -- ./inp_files/33200.got.cif
#   From: 2010.05.17/outbox.cif.g08.bks.cpg/sg11_17_cif.got.tgz:33200.got - 2010.06.03 12:22:45.
