data_PCOD9161996
_publ_section_title
;
Structure prediction by ZEFSAII (Michael W. Deem and Ramdas Pophale) SiO2 
 PCOD9161996
Probable space group: P 21/M
;
_chemical_formula_sum "Si O2"
_cell_formula_units_Z 32
_cell_length_a 16.452170
_cell_length_b 8.880415
_cell_length_c 12.459102
_cell_angle_alpha 90.000000
_cell_angle_beta 91.481980
_cell_angle_gamma 90.000000
_cell_volume 1819.692057
_symmetry_space_group_name_H-M "P 21/M"
_symmetry_group_IT_number 11
_symmetry_cell_setting 'monoclinic'
loop_
_space_group_symop_operation_xyz
x,y,z
-x,1/2+y,-z
-x,-y,-z
x,1/2-y,z
loop_
_atom_site_type_symbol
_atom_site_label
_atom_site_fract_x
_atom_site_fract_y
_atom_site_fract_z
Si Si1 0.384250 0.571614 0.768286
Si Si2 0.790485 0.929783 0.637846
Si Si3 0.768424 0.429243 0.078641
Si Si4 0.469788 0.928959 0.110944
Si Si5 0.870936 0.570475 0.264561
Si Si6 0.033189 0.570179 0.390652
Si Si7 0.706642 0.570198 0.862176
Si Si8 0.260890 0.569709 0.580232
O O1 0.403519 0.750000 0.772463
O O2 0.314707 0.543786 0.856053
O O3 0.463161 0.476639 0.799305
O O4 0.340922 0.536971 0.653807
O O5 0.794822 0.750000 0.623714
O O6 0.749388 0.962527 0.750495
O O7 0.880697 0.998195 0.634841
O O8 0.740440 0.001056 0.537739
O O9 0.778101 0.250000 0.069464
O O10 0.840153 0.498234 0.153032
O O11 0.757806 0.504966 0.963329
O O12 0.464772 0.750000 0.099606
O O13 0.382040 0.995661 0.135640
O O14 0.500000 0.000000 0.000000
O O15 0.857963 0.750000 0.261916
O O16 0.814469 0.499902 0.355938
O O17 0.964154 0.541354 0.298848
O O18 0.041777 0.750000 0.403910
O O19 0.000000 0.500000 0.500000
O O20 0.698743 0.750000 0.873649
O O21 0.251109 0.750000 0.576434
#
# Coordination Sequence:
#
# PCOD9161996 Si02
#       8
#     4   4   4   4   4   4   4   4
#     4   9  19  35  56  86 117 146 189 239 286 337
#     4  11  24  40  59  85 118 156 196 239 293 350
#     4  10  20  35  58  86 116 151 191 238 290 345
#     4  12  23  36  59  88 117 150 192 240 288 343
#     4  10  20  34  56  86 118 150 190 240 289 342
#     4  11  22  36  59  88 118 152 194 242 287 341
#     4  11  24  41  60  83 117 157 195 240 291 348
#     4  10  20  35  58  85 116 153 192 238 289 343
#
# _framework density 17.585393
#
# number of rings (size 3 to 8) (size 9 to 14) (size 15 to 20)
#    0.000    1.500    2.500    4.125    0.000    6.000 
#    0.000    1.250    0.000    0.000    0.000    0.000 
#    0.000    0.000    0.000    0.000    0.000    0.000 
#
# Total GULP energy -178803.260861 kJ/mol
# GULP energy per Si atom -5587.601902 kJ/mol
# Density = 1.754537 g / cm^3
# Si number density = 17.585393 Si / 1000 Ang^3
#
#
#
# Elastic Constant Matrix: (Units=GPa)
#
#
# Indices 1 2 3 4 5 6 
#
# 1 106.4507 70.2580 79.2127 0.0000 8.2566 0.0000
# 2 70.2580 101.4796 89.2945 0.0000 5.8464 0.0000
# 3 79.2127 89.2945 159.3189 0.0000 17.7972 0.0000
# 4 0.0000 0.0000 0.0000 30.5796 0.0000 4.7216
# 5 8.2566 5.8464 17.7972 0.0000 25.6546 0.0000
# 6 0.0000 0.0000 0.0000 4.7216 0.0000 30.5204
#
#
#
# Elastic Compliance Matrix: (Units=1/GPa)
#
#
# Indices 1 2 3 4 5 6 
#
# 1 0.018529 -0.009412 -0.003806 0.000000 -0.001178 0.000000
# 2 -0.009412 0.024500 -0.009503 0.000000 0.004038 0.000000
# 3 -0.003806 -0.009503 0.014219 0.000000 -0.006473 0.000000
# 4 0.000000 0.000000 0.000000 0.033502 0.000000 -0.005183
# 5 -0.001178 0.004038 -0.006473 0.000000 0.042929 0.000000
# 6 0.000000 0.000000 0.000000 -0.005183 0.000000 0.033567
#
#
# Mechanical properties :
#
#
# Convention : Reuss Voigt Hill
#
# Bulk Modulus (GPa) = 84.70473 93.86442 89.28457
# Shear Modulus (GPa) = 23.08170 25.91652 24.49911
#
# Velocity S-wave (km/s) = 3.62684 3.84311 3.73654
# Velocity P-wave (km/s) = 8.11239 8.55482 8.33654
#
# Compressibility (1/GPa) = 0.01180572
#
# Stress axis : x y z
#
# Youngs Moduli (GPa) = 53.96853 40.81699 70.33074
#
# Poissons Ratio (x) = 0.38415 0.26769
# Poissons Ratio (y) = 0.50793 0.66837
# Poissons Ratio (z) = 0.20541 0.38789
#
# Static dielectric constant tensor:
#      x y z
#    x 1.580130 0.000000 0.024020 
#    y 0.000000 1.584080 0.000000 
#    z 0.024020 0.000000 1.591250 
# 
# From -- ./inp_files/38126.got.cif
#   From: 2010.05.17/outbox.cif.g08.bks.cpg/sg11_20_cif.got.tgz:38126.got - 2010.06.03 12:22:45.
