data_PCOD9161630
_publ_section_title
;
Structure prediction by ZEFSAII (Michael W. Deem and Ramdas Pophale) SiO2 
 PCOD9161630
Probable space group: P 21/M
;
_chemical_formula_sum "Si O2"
_cell_formula_units_Z 28
_cell_length_a 9.226673
_cell_length_b 8.731036
_cell_length_c 26.505843
_cell_angle_alpha 90.000000
_cell_angle_beta 45.388943
_cell_angle_gamma 90.000000
_cell_volume 1520.077551
_symmetry_space_group_name_H-M "P 21/M"
_symmetry_group_IT_number 11
_symmetry_cell_setting 'monoclinic'
loop_
_space_group_symop_operation_xyz
x,y,z
-x,1/2+y,-z
-x,-y,-z
x,1/2-y,z
loop_
_atom_site_type_symbol
_atom_site_label
_atom_site_fract_x
_atom_site_fract_y
_atom_site_fract_z
Si Si1 0.625767 0.067754 0.771291
Si Si2 0.719414 0.567254 0.227823
Si Si3 0.616011 0.065855 0.361145
Si Si4 0.057126 0.566320 0.635326
Si Si5 0.008123 0.934760 0.072400
Si Si6 0.667773 0.068900 0.081298
Si Si7 0.159519 0.434164 0.500886
O O1 0.654038 0.250000 0.763387
O O2 0.462137 0.028040 0.767194
O O3 0.525163 0.018663 0.848994
O O4 0.836091 0.984623 0.708597
O O5 0.713117 0.750000 0.236467
O O6 0.684832 0.489175 0.289479
O O7 0.931408 0.529569 0.147392
O O8 0.615179 0.250000 0.361401
O O9 0.773284 0.015232 0.365745
O O10 0.387183 0.014652 0.430061
O O11 0.064102 0.750000 0.629054
O O12 0.103469 0.492818 0.570004
O O13 0.977429 0.750000 0.072562
O O14 0.234751 0.969838 0.997153
O O15 0.850787 0.023888 0.074812
O O16 0.629664 0.250000 0.092741
O O17 0.152333 0.250000 0.501754
O O18 0.000000 0.500000 0.500000
#
# Coordination Sequence:
#
# PCOD9161630 Si02
#       7
#     4   4   4   4   4   4   4
#     4  10  20  34  52  78 109 140 178 223 269 319
#     4   9  18  32  52  77 106 139 176 218 263 313
#     4  10  23  39  55  78 109 141 175 216 262 313
#     4  11  23  39  57  79 107 140 178 219 263 313
#     4   8  15  27  43  70 106 139 175 221 269 315
#     4   9  15  25  45  72 103 139 176 219 270 317
#     4  11  23  40  61  85 111 140 174 215 262 311
#
# _framework density 18.420112
#
# number of rings (size 3 to 8) (size 9 to 14) (size 15 to 20)
#    0.000    2.286    0.000    3.857    0.000    8.000 
#    0.000    0.000    0.000    0.857    0.000    0.000 
#    0.000    0.000    0.000    0.000    0.000    0.000 
#
# Total GULP energy -156172.243763 kJ/mol
# GULP energy per Si atom -5577.580134 kJ/mol
# Density = 1.837819 g / cm^3
# Si number density = 18.420112 Si / 1000 Ang^3
#
#
#
# Elastic Constant Matrix: (Units=GPa)
#
#
# Indices 1 2 3 4 5 6 
#
# 1 91.5672 31.4459 74.8164 0.0000 0.2967 0.0000
# 2 31.4459 34.3154 36.4060 0.0000 3.4752 0.0000
# 3 74.8164 36.4060 174.9657 0.0000 13.2837 0.0000
# 4 0.0000 0.0000 0.0000 36.1315 0.0000 4.3051
# 5 0.2967 3.4752 13.2837 0.0000 -11.1438 0.0000
# 6 0.0000 0.0000 0.0000 4.3051 0.0000 22.4086
#
#
#
# Elastic Compliance Matrix: (Units=1/GPa)
#
#
# Indices 1 2 3 4 5 6 
#
# 1 0.018898 -0.010982 -0.005111 0.000000 -0.009015 0.000000
# 2 -0.010982 0.043720 -0.004965 0.000000 0.007424 0.000000
# 3 -0.005111 -0.004965 0.008310 0.000000 0.008221 0.000000
# 4 0.000000 0.000000 0.000000 0.028325 0.000000 -0.005442
# 5 -0.009015 0.007424 0.008221 0.000000 -0.077861 0.000000
# 6 0.000000 0.000000 0.000000 -0.005442 0.000000 0.045671
#
#
# Mechanical properties :
#
#
# Convention : Reuss Voigt Hill
#
# Bulk Modulus (GPa) = 34.70771 65.13166 49.91969
# Shear Modulus (GPa) = 42.09326 20.02460 31.05893
#
# Velocity S-wave (km/s) = 4.78554 3.30070 4.11072
# Velocity P-wave (km/s) = 7.02982 7.06838 7.04913
#
# Compressibility (1/GPa) = 0.02881204
#
# Stress axis : x y z
#
# Youngs Moduli (GPa) = 52.91587 22.87258 120.33776
#
# Poissons Ratio (x) = 0.25119 0.61509
# Poissons Ratio (y) = 0.58112 0.59745
# Poissons Ratio (z) = 0.27047 0.11356
#
# Static dielectric constant tensor:
#      x y z
#    x 1.605370 0.000000 -0.004660 
#    y 0.000000 1.619580 0.000000 
#    z -0.004660 0.000000 1.660590 
# 
# From -- ./inp_files/28588.got.cif
#   From: 2010.05.17/outbox.cif.g08.bks.cpg/sg11_15_cif.got.tgz:28588.got - 2010.06.03 12:22:45.
