data_PCOD9161480
_publ_section_title
;
Structure prediction by ZEFSAII (Michael W. Deem and Ramdas Pophale) SiO2 
 PCOD9161480
Probable space group: P 21/M
;
_chemical_formula_sum "Si O2"
_cell_formula_units_Z 32
_cell_length_a 12.450665
_cell_length_b 18.305021
_cell_length_c 9.976830
_cell_angle_alpha 90.000000
_cell_angle_beta 125.801103
_cell_angle_gamma 90.000000
_cell_volume 1844.184425
_symmetry_space_group_name_H-M "P 21/M"
_symmetry_group_IT_number 11
_symmetry_cell_setting 'monoclinic'
loop_
_space_group_symop_operation_xyz
x,y,z
-x,1/2+y,-z
-x,-y,-z
x,1/2-y,z
loop_
_atom_site_type_symbol
_atom_site_label
_atom_site_fract_x
_atom_site_fract_y
_atom_site_fract_z
Si Si1 0.780969 0.836272 0.733561
Si Si2 0.885541 0.102460 0.645147
Si Si3 0.815023 0.917732 0.204439
Si Si4 0.086459 0.836577 0.043247
Si Si5 0.613915 0.837913 0.867776
Si Si6 0.842238 0.415138 0.173685
Si Si7 0.146667 0.066503 0.457289
Si Si8 0.314482 0.664250 0.711033
O O1 0.763837 0.750000 0.691439
O O2 0.675860 0.859566 0.769443
O O3 0.779732 0.883720 0.597959
O O4 0.928051 0.845141 0.904350
O O5 0.873518 0.123268 0.791458
O O6 0.787418 0.149928 0.483791
O O7 0.038773 0.114415 0.716451
O O8 0.853567 0.017740 0.589769
O O9 0.799811 0.925835 0.353306
O O10 0.814358 0.998962 0.141122
O O11 0.704102 0.870704 0.050836
O O12 0.114092 0.750000 0.070771
O O13 0.154588 0.873560 0.964785
O O14 0.622165 0.750000 0.878815
O O15 0.461576 0.859408 0.775775
O O16 0.740405 0.379712 0.202281
O O17 0.991485 0.409961 0.343060
O O18 0.317738 0.750000 0.745544
#
# Coordination Sequence:
#
# PCOD9161480 Si02
#       8
#     4   4   4   4   4   4   4   4
#     4   9  19  36  55  81 114 149 186 231 286 333
#     4  11  20  36  58  87 114 144 187 232 283 333
#     4  11  20  37  61  85 115 145 191 236 273 337
#     4  10  20  33  56  88 113 143 192 236 276 333
#     4  10  23  39  57  82 113 152 193 228 279 340
#     4  10  20  36  57  86 117 147 180 236 291 329
#     4  10  20  35  58  89 116 140 186 242 281 332
#     4  11  22  39  58  80 117 155 184 229 286 336
#
# _framework density 17.351844
#
# number of rings (size 3 to 8) (size 9 to 14) (size 15 to 20)
#    0.000    1.750    3.750    1.500    1.750    3.500 
#    0.000    1.875    0.000    3.000    0.000    0.000 
#    0.000    0.000    0.000    0.000    0.000    0.000 
#
# Total GULP energy -178636.376275 kJ/mol
# GULP energy per Si atom -5582.386759 kJ/mol
# Density = 1.731235 g / cm^3
# Si number density = 17.351844 Si / 1000 Ang^3
#
#
#
# Elastic Constant Matrix: (Units=GPa)
#
#
# Indices 1 2 3 4 5 6 
#
# 1 119.6985 41.7175 44.6602 0.0000 -8.9805 0.0000
# 2 41.7175 30.6692 26.5214 0.0000 -2.2130 0.0000
# 3 44.6602 26.5214 65.2616 0.0000 -11.3361 0.0000
# 4 0.0000 0.0000 0.0000 27.1667 0.0000 -5.3349
# 5 -8.9805 -2.2130 -11.3361 0.0000 27.9892 0.0000
# 6 0.0000 0.0000 0.0000 -5.3349 0.0000 26.2888
#
#
#
# Elastic Compliance Matrix: (Units=1/GPa)
#
#
# Indices 1 2 3 4 5 6 
#
# 1 0.016509 -0.019875 -0.002769 0.000000 0.002604 0.000000
# 2 -0.019875 0.074762 -0.018138 0.000000 -0.007812 0.000000
# 3 -0.002769 -0.018138 0.026016 0.000000 0.008214 0.000000
# 4 0.000000 0.000000 0.000000 0.038338 0.000000 0.007780
# 5 0.002604 -0.007812 0.008214 0.000000 0.039273 0.000000
# 6 0.000000 0.000000 0.000000 0.007780 0.000000 0.039618
#
#
# Mechanical properties :
#
#
# Convention : Reuss Voigt Hill
#
# Bulk Modulus (GPa) = 27.99274 49.04750 38.52012
# Shear Modulus (GPa) = 15.24453 23.13764 19.19108
#
# Velocity S-wave (km/s) = 2.96726 3.65559 3.32926
# Velocity P-wave (km/s) = 5.28270 6.79306 6.08492
#
# Compressibility (1/GPa) = 0.03572355
#
# Stress axis : x y z
#
# Youngs Moduli (GPa) = 60.57123 13.37580 38.43846
#
# Poissons Ratio (x) = 0.26584 0.10642
# Poissons Ratio (y) = 1.20383 0.69721
# Poissons Ratio (z) = 0.16770 0.24261
#
# Static dielectric constant tensor:
#      x y z
#    x 1.583060 0.000000 -0.003700 
#    y 0.000000 1.581910 0.000000 
#    z -0.003700 0.000000 1.562760 
# 
# From -- ./inp_files/18824.got.cif
#   From: 2010.05.17/outbox.cif.g08.bks.cpg/sg11_10_cif.got.tgz:18824.got - 2010.06.03 12:22:45.
