data_PCOD9161411
_publ_section_title
;
Structure prediction by ZEFSAII (Michael W. Deem and Ramdas Pophale) SiO2 
 PCOD9161411
Probable space group: P 21/M
;
_chemical_formula_sum "Si O2"
_cell_formula_units_Z 32
_cell_length_a 10.619954
_cell_length_b 9.460921
_cell_length_c 25.293493
_cell_angle_alpha 90.000000
_cell_angle_beta 140.047673
_cell_angle_gamma 90.000000
_cell_volume 1631.929327
_symmetry_space_group_name_H-M "P 21/M"
_symmetry_group_IT_number 11
_symmetry_cell_setting 'monoclinic'
loop_
_space_group_symop_operation_xyz
x,y,z
-x,1/2+y,-z
-x,-y,-z
x,1/2-y,z
loop_
_atom_site_type_symbol
_atom_site_label
_atom_site_fract_x
_atom_site_fract_y
_atom_site_fract_z
Si Si1 0.972110 0.921024 0.547151
Si Si2 0.299157 0.081671 0.718450
Si Si3 0.887101 0.086385 0.031536
Si Si4 0.459254 0.083813 0.883137
Si Si5 0.809693 0.412972 0.132605
Si Si6 0.181331 0.911415 0.268860
Si Si7 0.263159 0.587472 0.169799
Si Si8 0.547567 0.582003 0.461636
O O1 0.990904 0.750000 0.547636
O O2 0.757178 0.951674 0.502592
O O3 0.000000 0.000000 0.500000
O O4 0.134163 0.987142 0.638477
O O5 0.271415 0.250000 0.697179
O O6 0.316620 0.067077 0.787197
O O7 0.515637 0.037318 0.768315
O O8 0.926774 0.250000 0.031578
O O9 0.837116 0.077465 0.078345
O O10 0.681162 0.040627 0.939542
O O11 0.081741 0.995752 0.086169
O O12 0.470002 0.250000 0.899870
O O13 0.374131 0.997659 0.904287
O O14 0.791982 0.250000 0.141368
O O15 0.002897 0.482924 0.220048
O O16 0.120631 0.750000 0.262314
O O17 0.230576 0.914862 0.222490
O O18 0.373275 0.946791 0.364061
O O19 0.256862 0.750000 0.149337
O O20 0.500000 0.500000 0.500000
O O21 0.547496 0.750000 0.472335
#
# Coordination Sequence:
#
# PCOD9161411 Si02
#       8
#     4   4   4   4   4   4   4   4
#     4  11  24  43  66  92 122 158 202 250 299 361
#     4  10  22  39  59  84 115 152 192 236 289 348
#     4   9  19  35  54  80 112 148 190 237 287 339
#     4  10  21  36  54  78 114 154 189 230 286 348
#     4  10  20  33  53  80 111 145 189 239 281 333
#     4   9  18  35  57  78 105 144 184 225 282 347
#     4   9  18  35  58  81 108 144 190 237 282 339
#     4  10  23  40  60  88 121 155 195 245 300 359
#
# _framework density 19.608692000000001
#
# number of rings (size 3 to 8) (size 9 to 14) (size 15 to 20)
#    0.000    2.250    0.000    1.875    1.750    6.000 
#    0.000    2.500    0.000    0.000    0.000    0.000 
#    0.000    0.000    0.000    0.000    0.000    0.000 
#
# Total GULP energy -178710.139058 kJ/mol
# GULP energy per Si atom -5584.691846 kJ/mol
# Density = 1.956406 g / cm^3
# Si number density = 19.608692 Si / 1000 Ang^3
#
#
#
# Elastic Constant Matrix: (Units=GPa)
#
#
# Indices 1 2 3 4 5 6 
#
# 1 90.8402 48.3699 43.0705 0.0000 14.9141 0.0000
# 2 48.3699 65.1249 63.1382 0.0000 5.9083 0.0000
# 3 43.0705 63.1382 146.4671 0.0000 6.1653 0.0000
# 4 0.0000 0.0000 0.0000 32.0821 0.0000 8.6261
# 5 14.9141 5.9083 6.1653 0.0000 25.6999 0.0000
# 6 0.0000 0.0000 0.0000 8.6261 0.0000 25.7262
#
#
#
# Elastic Compliance Matrix: (Units=1/GPa)
#
#
# Indices 1 2 3 4 5 6 
#
# 1 0.019871 -0.014909 0.000934 0.000000 -0.008328 0.000000
# 2 -0.014909 0.037858 -0.012055 0.000000 0.002840 0.000000
# 3 0.000934 -0.012055 0.011774 0.000000 -0.000595 0.000000
# 4 0.000000 0.000000 0.000000 0.034259 0.000000 -0.011487
# 5 -0.008328 0.002840 -0.000595 0.000000 0.043233 0.000000
# 6 0.000000 0.000000 0.000000 -0.011487 0.000000 0.042723
#
#
# Mechanical properties :
#
#
# Convention : Reuss Voigt Hill
#
# Bulk Modulus (GPa) = 57.32651 67.95437 62.64044
# Shear Modulus (GPa) = 20.19444 26.55855 23.37649
#
# Velocity S-wave (km/s) = 3.21264 3.68425 3.45650
# Velocity P-wave (km/s) = 6.56202 7.26834 6.92419
#
# Compressibility (1/GPa) = 0.01744394
#
# Stress axis : x y z
#
# Youngs Moduli (GPa) = 50.32343 26.41453 84.92948
#
# Poissons Ratio (x) = 0.39381 -0.07932
# Poissons Ratio (y) = 0.75027 1.02382
# Poissons Ratio (z) = -0.04700 0.31843
#
# Static dielectric constant tensor:
#      x y z
#    x 1.702770 0.000000 -0.020100 
#    y 0.000000 1.652510 0.000000 
#    z -0.020100 0.000000 1.687030 
# 
# From -- ./inp_files/38096.got.cif
#   From: 2010.05.17/outbox.cif.g08.bks.cpg/sg11_20_cif.got.tgz:38096.got - 2010.06.03 12:22:45.
