data_PCOD9161150
_publ_section_title
;
Structure prediction by ZEFSAII (Michael W. Deem and Ramdas Pophale) SiO2 
 PCOD9161150
Probable space group: P 21/M
;
_chemical_formula_sum "Si O2"
_cell_formula_units_Z 32
_cell_length_a 7.271329
_cell_length_b 9.212818
_cell_length_c 23.666941
_cell_angle_alpha 90.000000
_cell_angle_beta 113.560007
_cell_angle_gamma 90.000000
_cell_volume 1453.276148
_symmetry_space_group_name_H-M "P 21/M"
_symmetry_group_IT_number 11
_symmetry_cell_setting 'monoclinic'
loop_
_space_group_symop_operation_xyz
x,y,z
-x,1/2+y,-z
-x,-y,-z
x,1/2-y,z
loop_
_atom_site_type_symbol
_atom_site_label
_atom_site_fract_x
_atom_site_fract_y
_atom_site_fract_z
Si Si1 0.386644 0.413099 0.937094
Si Si2 0.621212 0.915723 0.434316
Si Si3 0.796767 0.576336 0.818412
Si Si4 0.185956 0.917260 0.444122
Si Si5 0.175508 0.426229 0.803049
Si Si6 0.993507 0.418561 0.320917
Si Si7 0.052708 0.914379 0.062652
Si Si8 0.435907 0.084571 0.315621
O O1 0.468923 0.250000 0.945944
O O2 0.356953 0.465936 0.868588
O O3 0.158313 0.405619 0.930737
O O4 0.500000 0.500000 0.000000
O O5 0.687084 0.750000 0.441478
O O6 0.403393 0.920046 0.438981
O O7 0.769666 0.011623 0.490053
O O8 0.577803 0.978345 0.367234
O O9 0.832067 0.750000 0.825265
O O10 0.605901 0.551660 0.754937
O O11 0.979540 0.496291 0.808833
O O12 0.797060 0.505459 0.879881
O O13 0.125645 0.750000 0.440897
O O14 0.035284 0.007628 0.386276
O O15 0.163606 0.250000 0.799993
O O16 0.157271 0.493227 0.738238
O O17 0.934970 0.250000 0.318050
O O18 0.214393 0.420793 0.317748
O O19 0.121080 0.750000 0.061123
O O20 0.000000 0.000000 0.000000
O O21 0.506421 0.250000 0.330538
#
# Coordination Sequence:
#
# PCOD9161150 Si02
#       8
#     4   4   4   4   4   4   4   4
#     4   9  19  32  47  67  90 115 146 182 220 264
#     4   9  15  20  27  39  56  81 115 154 194 236
#     4   9  16  26  40  57  76 101 132 168 208 250
#     4   9  15  21  28  38  56  83 114 153 198 239
#     4   9  16  26  38  55  77 100 130 168 207 250
#     4   9  15  22  32  46  63  87 121 159 199 243
#     4  10  20  33  48  68  91 116 147 183 222 266
#     4   8  14  22  31  44  63  87 118 155 196 240
#
# _framework density 22.019214999999999
#
# number of rings (size 3 to 8) (size 9 to 14) (size 15 to 20)
#    0.000    3.000    0.000    3.750    0.000    9.500 
#    0.000    0.000    0.000    0.000    0.000    0.000 
#    0.000    0.000    0.000    0.000    0.000    1.250 
#
# Total GULP energy -178565.306464 kJ/mol
# GULP energy per Si atom -5580.165827 kJ/mol
# Density = 2.196910 g / cm^3
# Si number density = 22.019215 Si / 1000 Ang^3
#
#
#
# Elastic Constant Matrix: (Units=GPa)
#
#
# Indices 1 2 3 4 5 6 
#
# 1 77.5107 6.4917 -0.5297 0.0000 12.9116 0.0000
# 2 6.4917 161.7563 130.9976 0.0000 6.8318 0.0000
# 3 -0.5297 130.9976 223.6382 0.0000 3.2289 0.0000
# 4 0.0000 0.0000 0.0000 50.1764 0.0000 2.8265
# 5 12.9116 6.8318 3.2289 0.0000 5.2891 0.0000
# 6 0.0000 0.0000 0.0000 2.8265 0.0000 -6.7546
#
#
#
# Elastic Compliance Matrix: (Units=1/GPa)
#
#
# Indices 1 2 3 4 5 6 
#
# 1 0.022069 0.001475 -0.000007 0.000000 -0.055775 0.000000
# 2 0.001475 0.012541 -0.007120 0.000000 -0.015454 0.000000
# 3 -0.000007 -0.007120 0.008584 0.000000 0.003972 0.000000
# 4 0.000000 0.000000 0.000000 0.019471 0.000000 0.008148
# 5 -0.055775 -0.015454 0.003972 0.000000 0.342759 0.000000
# 6 0.000000 0.000000 0.000000 0.008148 0.000000 -0.144637
#
#
# Mechanical properties :
#
#
# Convention : Reuss Voigt Hill
#
# Bulk Modulus (GPa) = 31.35504 81.86938 56.61221
# Shear Modulus (GPa) = 17.68539 31.47189 24.57864
#
# Velocity S-wave (km/s) = 2.83712 3.78470 3.34464
# Velocity P-wave (km/s) = 5.00031 7.50734 6.37822
#
# Compressibility (1/GPa) = 0.03189280
#
# Stress axis : x y z
#
# Youngs Moduli (GPa) = 45.31313 79.73588 116.48904
#
# Poissons Ratio (x) = -0.11764 0.00077
# Poissons Ratio (y) = -0.06685 0.82935
# Poissons Ratio (z) = 0.00030 0.56769
#
# Static dielectric constant tensor:
#      x y z
#    x 1.737530 0.000000 -0.010080 
#    y 0.000000 1.749900 0.000000 
#    z -0.010080 0.000000 1.831110 
# 
# From -- ./inp_files/71178.got.cif
#   From: 2010.05.17/outbox.cif.g08.bks.cpg/sg11_36_cif.got.tgz:71178.got - 2010.06.03 12:22:45.
