data_PCOD9161224
_publ_section_title
;
Structure prediction by ZEFSAII (Michael W. Deem and Ramdas Pophale) SiO2 
 PCOD9161224
Probable space group: P 21/M
;
_chemical_formula_sum "Si O2"
_cell_formula_units_Z 28
_cell_length_a 8.061989
_cell_length_b 13.467913
_cell_length_c 15.223077
_cell_angle_alpha 90.000000
_cell_angle_beta 121.800354
_cell_angle_gamma 90.000000
_cell_volume 1404.776972
_symmetry_space_group_name_H-M "P 21/M"
_symmetry_group_IT_number 11
_symmetry_cell_setting 'monoclinic'
loop_
_space_group_symop_operation_xyz
x,y,z
-x,1/2+y,-z
-x,-y,-z
x,1/2-y,z
loop_
_atom_site_type_symbol
_atom_site_label
_atom_site_fract_x
_atom_site_fract_y
_atom_site_fract_z
Si Si1 0.846907 0.559012 0.613657
Si Si2 0.603935 0.866289 0.883609
Si Si3 0.210276 0.499711 0.212989
Si Si4 0.834008 0.866257 0.114601
Si Si5 0.386884 0.441236 0.613074
Si Si6 0.748212 0.138437 0.334073
Si Si7 0.088217 0.138259 0.667779
O O1 0.818491 0.570023 0.709341
O O2 0.659207 0.577892 0.501269
O O3 0.026981 0.622250 0.626650
O O4 0.922637 0.445608 0.620566
O O5 0.651974 0.750000 0.881686
O O6 0.728134 0.936051 0.853808
O O7 0.380836 0.878018 0.790088
O O8 0.657509 0.888558 0.999123
O O9 0.392153 0.569024 0.293355
O O10 0.017452 0.564023 0.144295
O O11 0.885833 0.750000 0.116498
O O12 0.797170 0.878015 0.208164
O O13 0.325973 0.554743 0.620047
O O14 0.237372 0.378208 0.630166
O O15 0.714153 0.250000 0.356171
O O16 0.010490 0.250000 0.644977
#
# Coordination Sequence:
#
# PCOD9161224 Si02
#       7
#     4   4   4   4   4   4   4
#     4  10  20  33  50  73 101 133 166 202 245 291
#     4   9  18  34  54  74  99 131 165 204 249 293
#     4  10  20  34  50  74 104 134 164 200 242 296
#     4   9  18  34  54  74  99 131 165 204 249 293
#     4  10  20  33  50  73 101 133 166 202 245 291
#     4   9  18  33  52  73  97 127 167 209 246 289
#     4   9  18  33  52  73  97 127 167 209 246 289
#
# _framework density 19.931989000000002
#
# number of rings (size 3 to 8) (size 9 to 14) (size 15 to 20)
#    0.000    2.571    0.000    2.571    0.000    3.429 
#    0.000   12.857    0.000    8.571    0.000    0.000 
#    0.000    0.000    0.000    0.000    0.000    0.000 
#
# Total GULP energy -156183.094347 kJ/mol
# GULP energy per Si atom -5577.967655 kJ/mol
# Density = 1.988662 g / cm^3
# Si number density = 19.931989 Si / 1000 Ang^3
#
#
#
# Elastic Constant Matrix: (Units=GPa)
#
#
# Indices 1 2 3 4 5 6 
#
# 1 25.1770 -9.4346 -1.2016 0.0000 2.4142 0.0000
# 2 -9.4346 53.3250 14.0721 0.0000 -1.1820 0.0000
# 3 -1.2016 14.0721 126.0496 0.0000 4.9153 0.0000
# 4 0.0000 0.0000 0.0000 14.1659 0.0000 0.6653
# 5 2.4142 -1.1820 4.9153 0.0000 3.4211 0.0000
# 6 0.0000 0.0000 0.0000 0.6653 0.0000 9.8370
#
#
#
# Elastic Compliance Matrix: (Units=1/GPa)
#
#
# Indices 1 2 3 4 5 6 
#
# 1 0.045379 0.007126 0.000837 0.000000 -0.030763 0.000000
# 2 0.007126 0.020794 -0.002476 0.000000 0.005713 0.000000
# 3 0.000837 -0.002476 0.008765 0.000000 -0.014040 0.000000
# 4 0.000000 0.000000 0.000000 0.070817 0.000000 -0.004789
# 5 -0.030763 0.005713 -0.014040 0.000000 0.336160 0.000000
# 6 0.000000 0.000000 0.000000 -0.004789 0.000000 0.101981
#
#
# Mechanical properties :
#
#
# Convention : Reuss Voigt Hill
#
# Bulk Modulus (GPa) = 11.63995 23.49148 17.56571
# Shear Modulus (GPa) = 8.31173 18.89251 13.60212
#
# Velocity S-wave (km/s) = 2.04428 3.08206 2.61516
# Velocity P-wave (km/s) = 3.38004 4.94741 4.23683
#
# Compressibility (1/GPa) = 0.08591101
#
# Stress axis : x y z
#
# Youngs Moduli (GPa) = 22.03665 48.09121 114.08637
#
# Poissons Ratio (x) = -0.34270 -0.09545
# Poissons Ratio (y) = -0.15704 0.28251
# Poissons Ratio (z) = -0.01844 0.11909
#
# Static dielectric constant tensor:
#      x y z
#    x 1.678000 0.000000 -0.002030 
#    y 0.000000 1.705230 0.000000 
#    z -0.002030 0.000000 1.732880 
# 
# From -- ./inp_files/22094.got.cif
#   From: 2010.05.17/outbox.cif.g08.bks.cpg/sg11_12_cif.got.tgz:22094.got - 2010.06.03 12:22:45.
