data_PCOD9161824
_publ_section_title
;
Structure prediction by ZEFSAII (Michael W. Deem and Ramdas Pophale) SiO2 
 PCOD9161824
Probable space group: P 21/M
;
_chemical_formula_sum "Si O2"
_cell_formula_units_Z 32
_cell_length_a 5.286261
_cell_length_b 12.637482
_cell_length_c 26.946849
_cell_angle_alpha 90.000000
_cell_angle_beta 75.676289
_cell_angle_gamma 90.000000
_cell_volume 1744.223434
_symmetry_space_group_name_H-M "P 21/M"
_symmetry_group_IT_number 11
_symmetry_cell_setting 'monoclinic'
loop_
_space_group_symop_operation_xyz
x,y,z
-x,1/2+y,-z
-x,-y,-z
x,1/2-y,z
loop_
_atom_site_type_symbol
_atom_site_label
_atom_site_fract_x
_atom_site_fract_y
_atom_site_fract_z
Si Si1 0.086034 0.375888 0.760548
Si Si2 0.756252 0.555103 0.536590
Si Si3 0.205279 0.376536 0.036445
Si Si4 0.500979 0.123259 0.825377
Si Si5 0.090100 0.501079 0.658243
Si Si6 0.334691 0.502909 0.930968
Si Si7 0.635007 0.871798 0.435433
Si Si8 0.377917 0.130347 0.356095
O O1 0.100634 0.250000 0.751450
O O2 0.802218 0.398724 0.797699
O O3 0.314291 0.404206 0.788079
O O4 0.111885 0.433560 0.707012
O O5 0.593762 0.454476 0.564118
O O6 0.646605 0.619124 0.494757
O O7 0.773662 0.628014 0.583458
O O8 0.000000 0.500000 0.500000
O O9 0.199894 0.250000 0.038141
O O10 0.428036 0.424243 0.061315
O O11 0.925012 0.426932 0.063220
O O12 0.274323 0.419011 0.977891
O O13 0.475022 0.250000 0.835349
O O14 0.411742 0.059079 0.877770
O O15 0.132515 0.424674 0.608081
O O16 0.330600 0.584883 0.648977
O O17 0.809699 0.557551 0.668137
O O18 0.597262 0.750000 0.423185
O O19 0.393133 0.250000 0.336869
#
# Coordination Sequence:
#
# PCOD9161824 Si02
#       8
#     4   4   4   4   4   4   4   4
#     4  10  21  37  60  86 112 143 179 235 293 332
#     4  10  20  38  51  81 111 141 182 214 267 331
#     4  10  20  34  54  83 119 155 191 231 277 333
#     4  10  20  36  59  86 114 147 188 230 283 336
#     4  11  22  40  59  84 112 138 186 228 276 335
#     4  10  20  34  56  83 115 154 192 233 279 329
#     4  10  21  35  55  79 111 143 173 220 272 330
#     4  11  23  39  61  81 109 149 183 224 270 327
#
# _framework density 18.346271999999999
#
# number of rings (size 3 to 8) (size 9 to 14) (size 15 to 20)
#    0.000    1.750    1.250    3.375    0.000    1.000 
#    0.000    5.000    0.000   15.000    0.000    0.000 
#    0.000    0.000    0.000    0.000    0.000    0.000 
#
# Total GULP energy -178447.955620 kJ/mol
# GULP energy per Si atom -5576.498613 kJ/mol
# Density = 1.830452 g / cm^3
# Si number density = 18.346272 Si / 1000 Ang^3
#
#
#
# Elastic Constant Matrix: (Units=GPa)
#
#
# Indices 1 2 3 4 5 6 
#
# 1 72.9364 16.0455 2.5556 0.0000 0.3402 0.0000
# 2 16.0455 94.7064 24.1896 0.0000 -2.4448 0.0000
# 3 2.5556 24.1896 50.9064 0.0000 1.6262 0.0000
# 4 0.0000 0.0000 0.0000 13.2114 0.0000 -6.4133
# 5 0.3402 -2.4448 1.6262 0.0000 17.6979 0.0000
# 6 0.0000 0.0000 0.0000 -6.4133 0.0000 8.2642
#
#
#
# Elastic Compliance Matrix: (Units=1/GPa)
#
#
# Indices 1 2 3 4 5 6 
#
# 1 0.014260 -0.002568 0.000526 0.000000 -0.000677 0.000000
# 2 -0.002568 0.012565 -0.005916 0.000000 0.002329 0.000000
# 3 0.000526 -0.005916 0.022521 0.000000 -0.002897 0.000000
# 4 0.000000 0.000000 0.000000 0.121441 0.000000 0.094243
# 5 -0.000677 0.002329 -0.002897 0.000000 0.057105 0.000000
# 6 0.000000 0.000000 0.000000 0.094243 0.000000 0.194139
#
#
# Mechanical properties :
#
#
# Convention : Reuss Voigt Hill
#
# Bulk Modulus (GPa) = 29.91279 33.79227 31.85253
# Shear Modulus (GPa) = 11.13358 19.55192 15.34275
#
# Velocity S-wave (km/s) = 2.46612 3.26807 2.89500
# Velocity P-wave (km/s) = 4.94459 5.71835 5.34549
#
# Compressibility (1/GPa) = 0.03343052
#
# Stress axis : x y z
#
# Youngs Moduli (GPa) = 70.12522 79.58484 44.40244
#
# Poissons Ratio (x) = 0.20436 -0.02335
# Poissons Ratio (y) = 0.18007 0.26269
# Poissons Ratio (z) = -0.03688 0.47084
#
# Static dielectric constant tensor:
#      x y z
#    x 1.684220 0.000000 -0.005930 
#    y 0.000000 1.625780 0.000000 
#    z -0.005930 0.000000 1.646180 
# 
# From -- ./inp_files/9353.got.cif
#   From: 2010.05.17/outbox.cif.g08.bks.cpg/sg11_5_cif.got.tgz:9353.got - 2010.06.03 12:22:45.
