data_PCOD9161599
_publ_section_title
;
Structure prediction by ZEFSAII (Michael W. Deem and Ramdas Pophale) SiO2 
 PCOD9161599
Probable space group: P 21/M
;
_chemical_formula_sum "Si O2"
_cell_formula_units_Z 32
_cell_length_a 12.530351
_cell_length_b 7.557890
_cell_length_c 12.850668
_cell_angle_alpha 90.000000
_cell_angle_beta 100.088503
_cell_angle_gamma 90.000000
_cell_volume 1198.180216
_symmetry_space_group_name_H-M "P 21/M"
_symmetry_group_IT_number 11
_symmetry_cell_setting 'monoclinic'
loop_
_space_group_symop_operation_xyz
x,y,z
-x,1/2+y,-z
-x,-y,-z
x,1/2-y,z
loop_
_atom_site_type_symbol
_atom_site_label
_atom_site_fract_x
_atom_site_fract_y
_atom_site_fract_z
Si Si1 0.117503 0.044952 0.151937
Si Si2 0.359083 0.542547 0.574661
Si Si3 0.644022 0.964446 0.106737
Si Si4 0.396443 0.464342 0.352659
Si Si5 0.417263 0.455614 0.133313
Si Si6 0.135598 0.043140 0.603577
Si Si7 0.913967 0.544949 0.633624
Si Si8 0.131735 0.465773 0.925189
O O1 0.151043 0.250000 0.164398
O O2 0.133719 0.964589 0.269047
O O3 0.160732 0.977762 0.048967
O O4 0.986867 0.038627 0.116208
O O5 0.363368 0.750000 0.593740
O O6 0.334622 0.512668 0.447501
O O7 0.479829 0.468775 0.610327
O O8 0.264866 0.470029 0.632277
O O9 0.638493 0.750000 0.110048
O O10 0.770260 0.014722 0.134751
O O11 0.548484 0.033293 0.163601
O O12 0.611339 0.030320 0.984459
O O13 0.397144 0.250000 0.349468
O O14 0.365964 0.526039 0.231288
O O15 0.387188 0.250000 0.121276
O O16 0.108930 0.250000 0.603516
O O17 0.112781 0.966843 0.483551
O O18 0.045448 0.957773 0.661051
O O19 0.878958 0.750000 0.622897
O O20 0.123840 0.250000 0.923044
#
# Coordination Sequence:
#
# PCOD9161599 Si02
#       8
#     4   4   4   4   4   4   4   4
#     4   9  18  33  52  72  96 128 164 202 243 287
#     4  10  20  34  52  75 103 131 162 204 248 292
#     4   9  18  32  50  72  99 129 161 200 243 288
#     4   9  19  35  53  73  98 131 169 205 243 290
#     4   9  18  33  52  72  96 128 165 203 241 285
#     4  10  20  34  53  75 100 131 165 203 247 295
#     4   9  19  35  53  73  98 130 168 207 245 289
#     4   9  18  32  49  72 100 128 160 199 244 291
#
# _framework density 26.707170000000001
#
# number of rings (size 3 to 8) (size 9 to 14) (size 15 to 20)
#    0.000    2.750    0.000    0.750    0.000    4.500 
#    0.000    7.500    0.000    3.000    0.000    0.000 
#    0.000    0.000    0.000    0.000    0.000    0.000 
#
# Total GULP energy -178871.306993 kJ/mol
# GULP energy per Si atom -5589.728344 kJ/mol
# Density = 2.664638 g / cm^3
# Si number density = 26.707170 Si / 1000 Ang^3
#
#
#
# Elastic Constant Matrix: (Units=GPa)
#
#
# Indices 1 2 3 4 5 6 
#
# 1 153.3598 -1.9466 13.0780 0.0000 -30.8956 0.0000
# 2 -1.9466 79.9261 -6.2137 0.0000 -0.9972 0.0000
# 3 13.0780 -6.2137 106.9269 0.0000 -33.4922 0.0000
# 4 0.0000 0.0000 0.0000 8.0529 0.0000 -3.1730
# 5 -30.8956 -0.9972 -33.4922 0.0000 51.6476 0.0000
# 6 0.0000 0.0000 0.0000 -3.1730 0.0000 19.0564
#
#
#
# Elastic Compliance Matrix: (Units=1/GPa)
#
#
# Indices 1 2 3 4 5 6 
#
# 1 0.007452 0.000291 0.000632 0.000000 0.004873 0.000000
# 2 0.000291 0.012613 0.001039 0.000000 0.001092 0.000000
# 3 0.000632 0.001039 0.011871 0.000000 0.008096 0.000000
# 4 0.000000 0.000000 0.000000 0.132897 0.000000 0.022128
# 5 0.004873 0.001092 0.008096 0.000000 0.027548 0.000000
# 6 0.000000 0.000000 0.000000 0.022128 0.000000 0.056160
#
#
# Mechanical properties :
#
#
# Convention : Reuss Voigt Hill
#
# Bulk Modulus (GPa) = 27.88481 38.89423 33.38952
# Shear Modulus (GPa) = 19.48777 38.10441 28.79609
#
# Velocity S-wave (km/s) = 2.70420 3.78133 3.28718
# Velocity P-wave (km/s) = 4.49598 5.80168 5.19005
#
# Compressibility (1/GPa) = 0.03586182
#
# Stress axis : x y z
#
# Youngs Moduli (GPa) = 134.18864 79.28284 84.23710
#
# Poissons Ratio (x) = -0.02311 -0.05323
# Poissons Ratio (y) = -0.03911 -0.08755
# Poissons Ratio (z) = -0.08480 -0.08240
#
# Static dielectric constant tensor:
#      x y z
#    x 2.129680 0.000000 0.087180 
#    y 0.000000 1.988520 0.000000 
#    z 0.087180 0.000000 2.165370 
# 
# From -- ./inp_files/51388.got.cif
#   From: 2010.05.17/outbox.cif.g08.bks.cpg/sg11_26_cif.got.tgz:51388.got - 2010.06.03 12:22:45.
