data_PCOD9161316
_publ_section_title
;
Structure prediction by ZEFSAII (Michael W. Deem and Ramdas Pophale) SiO2 
 PCOD9161316
Probable space group: P 21/M
;
_chemical_formula_sum "Si O2"
_cell_formula_units_Z 24
_cell_length_a 14.395808
_cell_length_b 13.931482
_cell_length_c 8.315693
_cell_angle_alpha 90.000000
_cell_angle_beta 139.093318
_cell_angle_gamma 90.000000
_cell_volume 1092.093165
_symmetry_space_group_name_H-M "P 21/M"
_symmetry_group_IT_number 11
_symmetry_cell_setting 'monoclinic'
loop_
_space_group_symop_operation_xyz
x,y,z
-x,1/2+y,-z
-x,-y,-z
x,1/2-y,z
loop_
_atom_site_type_symbol
_atom_site_label
_atom_site_fract_x
_atom_site_fract_y
_atom_site_fract_z
Si Si1 0.803315 0.356131 0.779016
Si Si2 0.114127 0.864249 0.580910
Si Si3 0.917234 0.490973 0.168029
Si Si4 0.522939 0.146023 0.610337
Si Si5 0.603333 0.952218 0.857722
Si Si6 0.394805 0.861971 0.793922
O O1 0.870425 0.250000 0.849251
O O2 0.686492 0.349108 0.769070
O O3 0.707581 0.373944 0.496762
O O4 0.897996 0.442135 0.969705
O O5 0.097639 0.750000 0.542301
O O6 0.283335 0.885922 0.788943
O O7 0.032421 0.925595 0.338495
O O8 0.051171 0.904793 0.664587
O O9 0.769045 0.533504 0.042113
O O10 0.483367 0.250000 0.628267
O O11 0.439602 0.125104 0.336258
O O12 0.514214 0.049299 0.701209
O O13 0.540722 0.915052 0.944084
O O14 0.427718 0.750000 0.852329
#
# Coordination Sequence:
#
# PCOD9161316 Si02
#       6
#     4   4   4   4   4   4
#     4   8  14  28  51  75  97 125 159 191 231 284
#     4  10  22  37  49  67  98 131 161 196 240 286
#     4  10  20  33  52  72  93 127 165 199 232 278
#     4   8  14  25  44  74 105 126 151 194 243 285
#     4   9  16  28  50  74  95 124 162 199 234 279
#     4   9  18  33  52  74 100 125 152 194 244 288
#
# _framework density 21.976144999999999
#
# number of rings (size 3 to 8) (size 9 to 14) (size 15 to 20)
#    0.000    3.000    0.000    3.000    0.000    3.333 
#    0.000    0.000    0.000    5.000    0.000    0.000 
#    0.000    0.000    0.000    0.000    0.000    0.000 
#
# Total GULP energy -133771.878378 kJ/mol
# GULP energy per Si atom -5573.828266 kJ/mol
# Density = 2.192613 g / cm^3
# Si number density = 21.976145 Si / 1000 Ang^3
#
#
#
# Elastic Constant Matrix: (Units=GPa)
#
#
# Indices 1 2 3 4 5 6 
#
# 1 58.2853 27.2355 -2.4514 0.0000 9.0404 0.0000
# 2 27.2355 104.9631 15.9968 0.0000 16.6443 0.0000
# 3 -2.4514 15.9968 46.7608 0.0000 0.7834 0.0000
# 4 0.0000 0.0000 0.0000 16.9501 0.0000 11.1412
# 5 9.0404 16.6443 0.7834 0.0000 26.4769 0.0000
# 6 0.0000 0.0000 0.0000 11.1412 0.0000 22.5365
#
#
#
# Elastic Compliance Matrix: (Units=1/GPa)
#
#
# Indices 1 2 3 4 5 6 
#
# 1 0.020244 -0.005087 0.002865 0.000000 -0.003799 0.000000
# 2 -0.005087 0.012469 -0.004432 0.000000 -0.005971 0.000000
# 3 0.002865 -0.004432 0.023033 0.000000 0.001127 0.000000
# 4 0.000000 0.000000 0.000000 0.087395 0.000000 -0.043205
# 5 -0.003799 -0.005971 0.001127 0.000000 0.042786 0.000000
# 6 0.000000 0.000000 0.000000 -0.043205 0.000000 0.065731
#
#
# Mechanical properties :
#
#
# Convention : Reuss Voigt Hill
#
# Bulk Modulus (GPa) = 23.56394 32.39677 27.98035
# Shear Modulus (GPa) = 17.91389 24.47459 21.19424
#
# Velocity S-wave (km/s) = 2.85818 3.34082 3.10888
# Velocity P-wave (km/s) = 4.65167 5.44566 5.06425
#
# Compressibility (1/GPa) = 0.04243773
#
# Stress axis : x y z
#
# Youngs Moduli (GPa) = 49.39783 80.19608 43.41579
#
# Poissons Ratio (x) = 0.40796 -0.12439
# Poissons Ratio (y) = 0.25129 0.19244
# Poissons Ratio (z) = -0.14153 0.35546
#
# Static dielectric constant tensor:
#      x y z
#    x 1.860800 0.000000 -0.059110 
#    y 0.000000 1.858570 0.000000 
#    z -0.059110 0.000000 1.853970 
# 
# From -- ./inp_files/17251.got.cif
#   From: 2010.05.17/outbox.cif.g08.bks.cpg/sg11_9_cif.got.tgz:17251.got - 2010.06.03 12:22:45.
