data_PCOD9161401
_publ_section_title
;
Structure prediction by ZEFSAII (Michael W. Deem and Ramdas Pophale) SiO2 
 PCOD9161401
Probable space group: P 21/M
;
_chemical_formula_sum "Si O2"
_cell_formula_units_Z 32
_cell_length_a 16.091494
_cell_length_b 8.783730
_cell_length_c 25.993491
_cell_angle_alpha 90.000000
_cell_angle_beta 150.049682
_cell_angle_gamma 90.000000
_cell_volume 1834.243739
_symmetry_space_group_name_H-M "P 21/M"
_symmetry_group_IT_number 11
_symmetry_cell_setting 'monoclinic'
loop_
_space_group_symop_operation_xyz
x,y,z
-x,1/2+y,-z
-x,-y,-z
x,1/2-y,z
loop_
_atom_site_type_symbol
_atom_site_label
_atom_site_fract_x
_atom_site_fract_y
_atom_site_fract_z
Si Si1 0.850862 0.566724 0.855148
Si Si2 0.768264 0.068336 0.919827
Si Si3 0.888963 0.567053 0.394942
Si Si4 0.405445 0.067031 0.900383
Si Si5 0.361462 0.433480 0.357456
Si Si6 0.974093 0.568111 0.324059
Si Si7 0.713603 0.931836 0.566769
Si Si8 0.465582 0.931868 0.821378
O O1 0.835722 0.750000 0.853108
O O2 0.773780 0.487062 0.863806
O O3 0.756452 0.520405 0.752709
O O4 0.047617 0.531612 0.959410
O O5 0.744857 0.250000 0.909676
O O6 0.624003 0.986510 0.874022
O O7 0.878139 0.750000 0.393009
O O8 0.967776 0.529754 0.381334
O O9 0.703617 0.497973 0.294410
O O10 0.000000 0.500000 0.500000
O O11 0.420772 0.250000 0.907014
O O12 0.208423 0.029184 0.795983
O O13 0.472816 0.998502 0.883076
O O14 0.500000 0.000000 0.000000
O O15 0.372691 0.250000 0.363119
O O16 0.290757 0.479858 0.375424
O O17 0.546224 0.500455 0.452155
O O18 0.994820 0.750000 0.330990
O O19 0.122689 0.488397 0.374043
O O20 0.705673 0.750000 0.560734
O O21 0.456880 0.750000 0.818477
#
# Coordination Sequence:
#
# PCOD9161401 Si02
#       8
#     4   4   4   4   4   4   4   4
#     4   9  19  36  56  77 104 140 179 219 268 324
#     4  10  20  35  55  80 109 139 176 224 272 320
#     4  10  21  38  58  81 109 142 181 225 274 326
#     4  10  21  38  58  82 111 143 181 224 272 324
#     4   9  19  36  54  74 104 139 174 215 263 313
#     4   9  20  37  55  77 108 142 174 215 266 318
#     4  10  20  33  53  80 105 135 176 218 261 311
#     4  11  22  37  57  81 110 146 185 224 270 322
#
# _framework density 17.445882000000001
#
# number of rings (size 3 to 8) (size 9 to 14) (size 15 to 20)
#    0.000    2.250    0.000    3.375    0.000    6.500 
#    0.000    2.500    0.000    0.000    0.000    0.000 
#    0.000    0.000    0.000    0.000    0.000    0.000 
#
# Total GULP energy -178637.551779 kJ/mol
# GULP energy per Si atom -5582.423493 kJ/mol
# Density = 1.740617 g / cm^3
# Si number density = 17.445882 Si / 1000 Ang^3
#
#
#
# Elastic Constant Matrix: (Units=GPa)
#
#
# Indices 1 2 3 4 5 6 
#
# 1 133.8294 62.9802 108.0785 0.0000 16.2801 0.0000
# 2 62.9802 67.4672 63.3608 0.0000 2.7271 0.0000
# 3 108.0785 63.3608 160.7696 0.0000 -19.9873 0.0000
# 4 0.0000 0.0000 0.0000 30.9240 0.0000 0.8789
# 5 16.2801 2.7271 -19.9873 0.0000 28.4579 0.0000
# 6 0.0000 0.0000 0.0000 0.8789 0.0000 34.3458
#
#
#
# Elastic Compliance Matrix: (Units=1/GPa)
#
#
# Indices 1 2 3 4 5 6 
#
# 1 0.039388 -0.008517 -0.028293 0.000000 -0.041588 0.000000
# 2 -0.008517 0.028043 -0.005538 0.000000 -0.001705 0.000000
# 3 -0.028293 -0.005538 0.032323 0.000000 0.039418 0.000000
# 4 0.000000 0.000000 0.000000 0.032361 0.000000 -0.000828
# 5 -0.041588 -0.001705 0.039418 0.000000 0.086780 0.000000
# 6 0.000000 0.000000 0.000000 -0.000828 0.000000 0.029137
#
#
# Mechanical properties :
#
#
# Convention : Reuss Voigt Hill
#
# Bulk Modulus (GPa) = 66.40829 92.32280 79.36555
# Shear Modulus (GPa) = 14.80401 27.25530 21.02965
#
# Velocity S-wave (km/s) = 2.91618 3.95685 3.47569
# Velocity P-wave (km/s) = 7.03468 8.59709 7.85483
#
# Compressibility (1/GPa) = 0.01505836
#
# Stress axis : x y z
#
# Youngs Moduli (GPa) = 25.38844 35.66015 30.93741
#
# Poissons Ratio (x) = 0.30371 0.87530
# Poissons Ratio (y) = 0.21623 0.17134
# Poissons Ratio (z) = 0.71831 0.19750
#
# Static dielectric constant tensor:
#      x y z
#    x 1.566030 0.000000 -0.006340 
#    y 0.000000 1.584860 0.000000 
#    z -0.006340 0.000000 1.572360 
# 
# From -- ./inp_files/68894.got.cif
#   From: 2010.05.17/outbox.cif.g08.bks.cpg/sg11_35_cif.got.tgz:68894.got - 2010.06.03 12:22:45.
