data_PCOD9161884
_publ_section_title
;
Structure prediction by ZEFSAII (Michael W. Deem and Ramdas Pophale) SiO2 
 PCOD9161884
Probable space group: P 21/M
;
_chemical_formula_sum "Si O2"
_cell_formula_units_Z 32
_cell_length_a 12.576743
_cell_length_b 8.757814
_cell_length_c 29.766450
_cell_angle_alpha 90.000000
_cell_angle_beta 33.912153
_cell_angle_gamma 90.000000
_cell_volume 1829.210864
_symmetry_space_group_name_H-M "P 21/M"
_symmetry_group_IT_number 11
_symmetry_cell_setting 'monoclinic'
loop_
_space_group_symop_operation_xyz
x,y,z
-x,1/2+y,-z
-x,-y,-z
x,1/2-y,z
loop_
_atom_site_type_symbol
_atom_site_label
_atom_site_fract_x
_atom_site_fract_y
_atom_site_fract_z
Si Si1 0.446087 0.067649 0.237245
Si Si2 0.823771 0.566923 0.533473
Si Si3 0.026510 0.566983 0.373443
Si Si4 0.558990 0.566990 0.289916
Si Si5 0.508301 0.932414 0.880858
Si Si6 0.071471 0.933291 0.257332
Si Si7 0.669831 0.568221 0.970956
Si Si8 0.944308 0.934119 0.205055
O O1 0.450557 0.250000 0.240428
O O2 0.522233 0.027650 0.160814
O O3 0.226399 0.012345 0.315555
O O4 0.555217 0.991189 0.240088
O O5 0.821105 0.750000 0.539308
O O6 0.627677 0.499296 0.620372
O O7 0.000000 0.500000 0.500000
O O8 0.868991 0.527966 0.465659
O O9 0.057062 0.750000 0.365353
O O10 0.982420 0.528552 0.337091
O O11 0.547675 0.750000 0.294211
O O12 0.750235 0.518854 0.248732
O O13 0.495163 0.750000 0.890398
O O14 0.723404 0.985753 0.816805
O O15 0.369763 0.012986 0.964506
O O16 0.104030 0.750000 0.245063
O O17 0.950763 0.973341 0.255742
O O18 0.662369 0.750000 0.970829
O O19 0.870454 0.507135 0.882576
O O20 0.500000 0.500000 0.000000
O O21 0.960161 0.750000 0.195897
#
# Coordination Sequence:
#
# PCOD9161884 Si02
#       8
#     4   4   4   4   4   4   4   4
#     4  10  20  34  55  82 112 145 184 232 280 330
#     4  11  21  34  55  83 113 146 187 236 282 329
#     4   9  18  32  54  82 109 140 183 232 280 332
#     4  11  23  38  56  80 114 153 190 229 280 340
#     4  10  20  34  55  85 114 141 182 233 280 328
#     4   9  17  33  56  80 108 144 184 228 280 330
#     4  12  23  36  58  86 115 147 186 231 277 330
#     4  10  22  39  58  81 112 150 189 232 281 333
#
# _framework density 17.493881999999999
#
# number of rings (size 3 to 8) (size 9 to 14) (size 15 to 20)
#    0.000    1.750    2.500    2.625    0.000    3.000 
#    0.000    1.250    0.000    0.000    0.000    0.000 
#    0.000    0.000    0.000    0.000    0.000    0.000 
#
# Total GULP energy -178652.700967 kJ/mol
# GULP energy per Si atom -5582.896905 kJ/mol
# Density = 1.745407 g / cm^3
# Si number density = 17.493882 Si / 1000 Ang^3
#
#
#
# Elastic Constant Matrix: (Units=GPa)
#
#
# Indices 1 2 3 4 5 6 
#
# 1 168.3371 54.2578 86.7947 0.0000 6.9339 0.0000
# 2 54.2578 46.4929 42.2827 0.0000 3.5937 0.0000
# 3 86.7947 42.2827 112.3300 0.0000 6.3042 0.0000
# 4 0.0000 0.0000 0.0000 28.4760 0.0000 2.8251
# 5 6.9339 3.5937 6.3042 0.0000 28.0465 0.0000
# 6 0.0000 0.0000 0.0000 2.8251 0.0000 20.1365
#
#
#
# Elastic Compliance Matrix: (Units=1/GPa)
#
#
# Indices 1 2 3 4 5 6 
#
# 1 0.011631 -0.008191 -0.005875 0.000000 -0.000505 0.000000
# 2 -0.008191 0.038530 -0.008113 0.000000 -0.001088 0.000000
# 3 -0.005875 -0.008113 0.016565 0.000000 -0.001231 0.000000
# 4 0.000000 0.000000 0.000000 0.035613 0.000000 -0.004996
# 5 -0.000505 -0.001088 -0.001231 0.000000 0.036196 0.000000
# 6 0.000000 0.000000 0.000000 -0.004996 0.000000 0.050362
#
#
# Mechanical properties :
#
#
# Convention : Reuss Voigt Hill
#
# Bulk Modulus (GPa) = 44.70853 77.09224 60.90039
# Shear Modulus (GPa) = 20.77173 24.92010 22.84591
#
# Velocity S-wave (km/s) = 3.44956 3.77835 3.61770
# Velocity P-wave (km/s) = 6.44035 7.94974 7.23452
#
# Compressibility (1/GPa) = 0.02236709
#
# Stress axis : x y z
#
# Youngs Moduli (GPa) = 85.98063 25.95358 60.36814
#
# Poissons Ratio (x) = 0.21258 0.35467
# Poissons Ratio (y) = 0.70425 0.48979
# Poissons Ratio (z) = 0.50515 0.21057
#
# Static dielectric constant tensor:
#      x y z
#    x 1.604880 0.000000 0.037020 
#    y 0.000000 1.585210 0.000000 
#    z 0.037020 0.000000 1.570760 
# 
# From -- ./inp_files/67418.got.cif
#   From: 2010.05.17/outbox.cif.g08.bks.cpg/sg11_34_cif.got.tgz:67418.got - 2010.06.03 12:22:45.
