data_PCOD9161922
_publ_section_title
;
Structure prediction by ZEFSAII (Michael W. Deem and Ramdas Pophale) SiO2 
 PCOD9161922
Probable space group: P 21/M
;
_chemical_formula_sum "Si O2"
_cell_formula_units_Z 28
_cell_length_a 9.701970
_cell_length_b 8.723768
_cell_length_c 26.612788
_cell_angle_alpha 90.000000
_cell_angle_beta 38.598113
_cell_angle_gamma 90.000000
_cell_volume 1405.197194
_symmetry_space_group_name_H-M "P 21/M"
_symmetry_group_IT_number 11
_symmetry_cell_setting 'monoclinic'
loop_
_space_group_symop_operation_xyz
x,y,z
-x,1/2+y,-z
-x,-y,-z
x,1/2-y,z
loop_
_atom_site_type_symbol
_atom_site_label
_atom_site_fract_x
_atom_site_fract_y
_atom_site_fract_z
Si Si1 0.838704 0.069103 0.004439
Si Si2 0.543627 0.066188 0.365588
Si Si3 0.747675 0.932457 0.926479
Si Si4 0.551424 0.067773 0.825280
Si Si5 0.016544 0.931020 0.238475
Si Si6 0.385034 0.935102 0.304075
Si Si7 0.919430 0.934408 0.469810
O O1 0.868597 0.250000 0.990908
O O2 0.595923 0.028119 0.094474
O O3 0.868266 0.989137 0.942487
O O4 0.000000 0.000000 0.000000
O O5 0.554212 0.250000 0.361684
O O6 0.336399 0.017086 0.460017
O O7 0.489758 0.008787 0.324053
O O8 0.776263 0.999535 0.316438
O O9 0.734060 0.750000 0.929208
O O10 0.876017 0.993429 0.841456
O O11 0.500000 0.000000 0.000000
O O12 0.500764 0.250000 0.845860
O O13 0.806838 0.047307 0.767339
O O14 0.509098 0.023916 0.779539
O O15 0.995402 0.750000 0.235450
O O16 0.399494 0.750000 0.305086
O O17 0.123259 0.977619 0.375968
O O18 0.917088 0.750000 0.472026
O O19 0.000000 0.000000 0.500000
#
# Coordination Sequence:
#
# PCOD9161922 Si02
#       7
#     4   4   4   4   4   4   4
#     4  12  26  43  64  88 119 155 194 242 292 344
#     4  10  20  34  55  85 117 149 191 240 288 344
#     4  12  24  42  65  89 116 152 196 239 290 348
#     4  10  22  40  60  83 115 151 194 242 293 346
#     4  11  23  39  59  83 115 155 196 238 287 344
#     4   9  18  35  59  84 112 149 192 239 292 346
#     4   8  15  30  53  80 111 147 187 234 287 341
#
# _framework density 19.926027000000001
#
# number of rings (size 3 to 8) (size 9 to 14) (size 15 to 20)
#    0.000    1.714    1.429    3.429    2.000    1.714 
#    0.000    0.714    0.000    0.000    0.000    0.000 
#    0.000    0.000    0.000    0.000    0.000    0.000 
#
# Total GULP energy -156332.381698 kJ/mol
# GULP energy per Si atom -5583.299346 kJ/mol
# Density = 1.988067 g / cm^3
# Si number density = 19.926027 Si / 1000 Ang^3
#
#
#
# Elastic Constant Matrix: (Units=GPa)
#
#
# Indices 1 2 3 4 5 6 
#
# 1 50.3780 15.8206 -11.3260 0.0000 -8.6959 0.0000
# 2 15.8206 67.8843 5.5168 0.0000 -6.8659 0.0000
# 3 -11.3260 5.5168 28.8575 0.0000 -13.2585 0.0000
# 4 0.0000 0.0000 0.0000 27.2899 0.0000 -7.3820
# 5 -8.6959 -6.8659 -13.2585 0.0000 38.9729 0.0000
# 6 0.0000 0.0000 0.0000 -7.3820 0.0000 26.7941
#
#
#
# Elastic Compliance Matrix: (Units=1/GPa)
#
#
# Indices 1 2 3 4 5 6 
#
# 1 0.027687 -0.006750 0.017126 0.000000 0.010815 0.000000
# 2 -0.006750 0.016738 -0.006147 0.000000 -0.000649 0.000000
# 3 0.017126 -0.006147 0.051924 0.000000 0.020403 0.000000
# 4 0.000000 0.000000 0.000000 0.039594 0.000000 0.010909
# 5 0.010815 -0.000649 0.020403 0.000000 0.034899 0.000000
# 6 0.000000 0.000000 0.000000 0.010909 0.000000 0.040327
#
#
# Mechanical properties :
#
#
# Convention : Reuss Voigt Hill
#
# Bulk Modulus (GPa) = 9.54156 18.57139 14.05647
# Shear Modulus (GPa) = 21.03955 27.75194 24.39574
#
# Velocity S-wave (km/s) = 3.25296 3.73600 3.50282
# Velocity P-wave (km/s) = 4.34832 5.28684 4.84038
#
# Compressibility (1/GPa) = 0.10480468
#
# Stress axis : x y z
#
# Youngs Moduli (GPa) = 36.11827 59.74392 19.25901
#
# Poissons Ratio (x) = 0.40330 -0.32983
# Poissons Ratio (y) = 0.24381 0.11839
# Poissons Ratio (z) = -0.61855 0.36727
#
# Static dielectric constant tensor:
#      x y z
#    x 1.676030 0.000000 -0.034490 
#    y 0.000000 1.667590 0.000000 
#    z -0.034490 0.000000 1.736990 
# 
# From -- ./inp_files/28311.got.cif
#   From: 2010.05.17/outbox.cif.g08.bks.cpg/sg11_15_cif.got.tgz:28311.got - 2010.06.03 12:22:45.
