data_PCOD9161386
_publ_section_title
;
Structure prediction by ZEFSAII (Michael W. Deem and Ramdas Pophale) SiO2 
 PCOD9161386
Probable space group: P 21/M
;
_chemical_formula_sum "Si O2"
_cell_formula_units_Z 28
_cell_length_a 16.489449
_cell_length_b 8.786124
_cell_length_c 14.024724
_cell_angle_alpha 90.000000
_cell_angle_beta 50.146971
_cell_angle_gamma 90.000000
_cell_volume 1559.854554
_symmetry_space_group_name_H-M "P 21/M"
_symmetry_group_IT_number 11
_symmetry_cell_setting 'monoclinic'
loop_
_space_group_symop_operation_xyz
x,y,z
-x,1/2+y,-z
-x,-y,-z
x,1/2-y,z
loop_
_atom_site_type_symbol
_atom_site_label
_atom_site_fract_x
_atom_site_fract_y
_atom_site_fract_z
Si Si1 0.681123 0.068407 0.832122
Si Si2 0.900071 0.933237 0.194376
Si Si3 0.661183 0.933371 0.053392
Si Si4 0.433997 0.933552 0.277881
Si Si5 0.875594 0.566201 0.992828
Si Si6 0.237236 0.432519 0.523770
Si Si7 0.886553 0.067914 0.562255
O O1 0.671188 0.250000 0.852207
O O2 0.609682 0.025195 0.794870
O O3 0.801217 0.033935 0.709480
O O4 0.652830 0.987305 0.951028
O O5 0.908045 0.750000 0.190390
O O6 0.812927 0.978966 0.337423
O O7 0.871710 0.978456 0.107487
O O8 0.015205 0.001040 0.130313
O O9 0.662115 0.750000 0.053551
O O10 0.556018 0.980909 0.189677
O O11 0.770914 0.986802 0.016979
O O12 0.426503 0.750000 0.291175
O O13 0.354057 0.005869 0.413573
O O14 0.879517 0.750000 0.985351
O O15 0.237794 0.250000 0.517750
O O16 0.162275 0.498210 0.497089
O O17 0.892187 0.250000 0.548199
O O18 0.000000 0.000000 0.500000
#
# Coordination Sequence:
#
# PCOD9161386 Si02
#       7
#     4   4   4   4   4   4   4
#     4   9  19  33  49  71 102 138 171 206 253 303
#     4   9  19  36  55  75 104 135 168 213 264 313
#     4  10  20  33  53  78 103 133 174 217 259 305
#     4   9  19  36  52  73 105 139 173 212 256 309
#     4   9  19  35  54  78 103 132 170 214 263 314
#     4  10  20  34  54  76 100 137 176 212 259 308
#     4  10  21  35  50  74 107 139 172 212 255 306
#
# _framework density 17.950392000000001
#
# number of rings (size 3 to 8) (size 9 to 14) (size 15 to 20)
#    0.000    2.571    0.000    2.143    2.000    5.143 
#    0.000    0.714    0.000    0.000    0.000    0.000 
#    0.000    0.000    0.000    0.000    0.000    0.000 
#
# Total GULP energy -156196.212506 kJ/mol
# GULP energy per Si atom -5578.436161 kJ/mol
# Density = 1.790954 g / cm^3
# Si number density = 17.950392 Si / 1000 Ang^3
#
#
#
# Elastic Constant Matrix: (Units=GPa)
#
#
# Indices 1 2 3 4 5 6 
#
# 1 64.4257 15.5699 43.3760 0.0000 -23.2299 0.0000
# 2 15.5699 16.1433 29.2063 0.0000 -7.0512 0.0000
# 3 43.3760 29.2063 131.5455 0.0000 -16.0348 0.0000
# 4 0.0000 0.0000 0.0000 28.7485 0.0000 -3.6832
# 5 -23.2299 -7.0512 -16.0348 0.0000 18.2713 0.0000
# 6 0.0000 0.0000 0.0000 -3.6832 0.0000 19.3921
#
#
#
# Elastic Compliance Matrix: (Units=1/GPa)
#
#
# Indices 1 2 3 4 5 6 
#
# 1 0.033448 -0.007883 -0.005001 0.000000 0.035094 0.000000
# 2 -0.007883 0.114069 -0.020808 0.000000 0.015737 0.000000
# 3 -0.005001 -0.020808 0.013569 0.000000 -0.002481 0.000000
# 4 0.000000 0.000000 0.000000 0.035652 0.000000 0.006771
# 5 0.035094 0.015737 -0.002481 0.000000 0.103245 0.000000
# 6 0.000000 0.000000 0.000000 0.006771 0.000000 0.052853
#
#
# Mechanical properties :
#
#
# Convention : Reuss Voigt Hill
#
# Bulk Modulus (GPa) = 10.67241 43.15765 26.91503
# Shear Modulus (GPa) = 11.07533 21.54654 16.31093
#
# Velocity S-wave (km/s) = 2.48664 3.46835 3.01768
# Velocity P-wave (km/s) = 3.76867 6.33515 5.21234
#
# Compressibility (1/GPa) = 0.09369952
#
# Stress axis : x y z
#
# Youngs Moduli (GPa) = 29.89730 8.76666 73.70011
#
# Poissons Ratio (x) = 0.06911 0.36858
# Poissons Ratio (y) = 0.23569 1.53357
# Poissons Ratio (z) = 0.14952 0.18242
#
# Static dielectric constant tensor:
#      x y z
#    x 1.606690 0.000000 -0.012700 
#    y 0.000000 1.606330 0.000000 
#    z -0.012700 0.000000 1.611720 
# 
# From -- ./inp_files/37213.got.cif
#   From: 2010.05.17/outbox.cif.g08.bks.cpg/sg11_19_cif.got.tgz:37213.got - 2010.06.03 12:22:45.
