data_PCOD9161843
_publ_section_title
;
Structure prediction by ZEFSAII (Michael W. Deem and Ramdas Pophale) SiO2 
 PCOD9161843
Probable space group: P 21/M
;
_chemical_formula_sum "Si O2"
_cell_formula_units_Z 24
_cell_length_a 12.175962
_cell_length_b 8.588823
_cell_length_c 12.977351
_cell_angle_alpha 90.000000
_cell_angle_beta 89.844712
_cell_angle_gamma 90.000000
_cell_volume 1357.129819
_symmetry_space_group_name_H-M "P 21/M"
_symmetry_group_IT_number 11
_symmetry_cell_setting 'monoclinic'
loop_
_space_group_symop_operation_xyz
x,y,z
-x,1/2+y,-z
-x,-y,-z
x,1/2-y,z
loop_
_atom_site_type_symbol
_atom_site_label
_atom_site_fract_x
_atom_site_fract_y
_atom_site_fract_z
Si Si1 0.874623 0.936250 0.885672
Si Si2 0.115105 0.061959 0.878116
Si Si3 0.499154 0.561713 0.383380
Si Si4 0.265258 0.562128 0.296792
Si Si5 0.262236 0.438381 0.687847
Si Si6 0.876812 0.063168 0.504044
O O1 0.876961 0.750000 0.883278
O O2 0.782392 0.997001 0.808885
O O3 0.858607 0.986994 0.004717
O O4 0.994108 0.999325 0.851927
O O5 0.110229 0.250000 0.876552
O O6 0.204180 0.011103 0.793873
O O7 0.500000 0.500000 0.500000
O O8 0.497471 0.750000 0.387760
O O9 0.388326 0.511110 0.325794
O O10 0.611482 0.512684 0.327029
O O11 0.264408 0.750000 0.291645
O O12 0.184959 0.514965 0.390789
O O13 0.259398 0.250000 0.685049
O O14 0.192201 0.500960 0.592311
O O15 0.878798 0.250000 0.501011
O O16 0.000000 0.000000 0.500000
#
# Coordination Sequence:
#
# PCOD9161843 Si02
#       6
#     4   4   4   4   4   4
#     4  10  20  34  55  80 105 138 178 217 258 311
#     4   9  19  36  55  78 108 138 171 216 268 313
#     4  10  20  36  56  77 103 140 179 215 261 314
#     4  10  21  36  52  74 107 141 172 213 264 313
#     4  10  20  35  56  78 103 137 175 216 264 315
#     4  11  22  34  50  76 109 138 170 215 264 314
#
# _framework density 17.684380000000001
#
# number of rings (size 3 to 8) (size 9 to 14) (size 15 to 20)
#    0.000    2.000    1.667    2.000    0.000    7.333 
#    0.000    0.833    0.000    0.000    0.000    0.000 
#    0.000    0.000    0.000    0.000    0.000    0.000 
#
# Total GULP energy -133995.055934 kJ/mol
# GULP energy per Si atom -5583.127331 kJ/mol
# Density = 1.764413 g / cm^3
# Si number density = 17.684380 Si / 1000 Ang^3
#
#
#
# Elastic Constant Matrix: (Units=GPa)
#
#
# Indices 1 2 3 4 5 6 
#
# 1 163.3769 25.1840 80.3215 0.0000 19.6450 0.0000
# 2 25.1840 6.5701 19.1433 0.0000 -0.5560 0.0000
# 3 80.3215 19.1433 104.8721 0.0000 13.9215 0.0000
# 4 0.0000 0.0000 0.0000 27.5840 0.0000 5.9639
# 5 19.6450 -0.5560 13.9215 0.0000 27.7393 0.0000
# 6 0.0000 0.0000 0.0000 5.9639 0.0000 23.7092
#
#
#
# Elastic Compliance Matrix: (Units=1/GPa)
#
#
# Indices 1 2 3 4 5 6 
#
# 1 0.020396 -0.087435 0.002667 0.000000 -0.017535 0.000000
# 2 -0.087435 0.744484 -0.084780 0.000000 0.119393 0.000000
# 3 0.002667 -0.084780 0.025118 0.000000 -0.016194 0.000000
# 4 0.000000 0.000000 0.000000 0.038338 0.000000 -0.009644
# 5 -0.017535 0.119393 -0.016194 0.000000 0.058989 0.000000
# 6 0.000000 0.000000 0.000000 -0.009644 0.000000 0.044603
#
#
# Mechanical properties :
#
#
# Convention : Reuss Voigt Hill
#
# Bulk Modulus (GPa) = 2.21778 58.23519 30.22649
# Shear Modulus (GPa) = 3.51784 25.81787 14.66785
#
# Velocity S-wave (km/s) = 1.41193 3.82504 2.88310
# Velocity P-wave (km/s) = 1.97861 7.24636 5.31152
#
# Compressibility (1/GPa) = 0.45090121
#
# Stress axis : x y z
#
# Youngs Moduli (GPa) = 49.02888 1.34321 39.81150
#
# Poissons Ratio (x) = 0.11744 -0.10617
# Poissons Ratio (y) = 4.28686 3.37522
# Poissons Ratio (z) = -0.13075 0.11388
#
# Static dielectric constant tensor:
#      x y z
#    x 1.588670 0.000000 -0.015470 
#    y 0.000000 1.605600 0.000000 
#    z -0.015470 0.000000 1.589280 
# 
# From -- ./inp_files/33770.got.cif
#   From: 2010.05.17/outbox.cif.g08.bks.cpg/sg11_17_cif.got.tgz:33770.got - 2010.06.03 12:22:45.
