data_PCOD9161439
_publ_section_title
;
Structure prediction by ZEFSAII (Michael W. Deem and Ramdas Pophale) SiO2 
 PCOD9161439
Probable space group: P 21/M
;
_chemical_formula_sum "Si O2"
_cell_formula_units_Z 28
_cell_length_a 12.777923
_cell_length_b 8.867035
_cell_length_c 15.352993
_cell_angle_alpha 90.000000
_cell_angle_beta 74.189014
_cell_angle_gamma 90.000000
_cell_volume 1673.715519
_symmetry_space_group_name_H-M "P 21/M"
_symmetry_group_IT_number 11
_symmetry_cell_setting 'monoclinic'
loop_
_space_group_symop_operation_xyz
x,y,z
-x,1/2+y,-z
-x,-y,-z
x,1/2-y,z
loop_
_atom_site_type_symbol
_atom_site_label
_atom_site_fract_x
_atom_site_fract_y
_atom_site_fract_z
Si Si1 0.253129 0.931049 0.085378
Si Si2 0.361136 0.430762 0.891298
Si Si3 0.424665 0.429503 0.395050
Si Si4 0.976518 0.569766 0.910510
Si Si5 0.653848 0.570342 0.397639
Si Si6 0.792288 0.070457 0.222769
Si Si7 0.607219 0.430650 0.778420
O O1 0.249457 0.750000 0.078341
O O2 0.308481 0.970223 0.164718
O O3 0.133061 0.998230 0.102026
O O4 0.325267 0.996596 0.990338
O O5 0.351264 0.250000 0.898558
O O6 0.281540 0.492753 0.834554
O O7 0.485267 0.468457 0.838654
O O8 0.442485 0.250000 0.387969
O O9 0.540922 0.510433 0.382038
O O10 0.354776 0.463139 0.497554
O O11 0.373811 0.487425 0.317199
O O12 0.963774 0.750000 0.921876
O O13 0.082125 0.539169 0.827368
O O14 0.000000 0.500000 0.000000
O O15 0.659386 0.750000 0.384400
O O16 0.751094 0.491838 0.324166
O O17 0.775404 0.250000 0.222078
O O18 0.610774 0.250000 0.764211
#
# Coordination Sequence:
#
# PCOD9161439 Si02
#       7
#     4   4   4   4   4   4   4
#     4  11  23  38  55  78 110 147 187 225 268 323
#     4  11  21  34  54  80 111 148 183 219 268 322
#     4  10  20  33  54  81 110 144 180 220 267 323
#     4  11  23  38  57  79 106 142 185 230 273 317
#     4  10  20  34  53  81 112 142 178 221 272 325
#     4  11  22  35  55  82 110 142 181 226 272 320
#     4  10  22  37  54  79 112 148 182 222 270 323
#
# _framework density 16.729247000000001
#
# number of rings (size 3 to 8) (size 9 to 14) (size 15 to 20)
#    0.000    1.429    2.857    3.000    0.000    5.143 
#    0.000    0.000    0.000    0.857    0.000    0.000 
#    0.000    0.000    0.000    0.000    0.000    0.000 
#
# Total GULP energy -156444.244536 kJ/mol
# GULP energy per Si atom -5587.294448 kJ/mol
# Density = 1.669117 g / cm^3
# Si number density = 16.729247 Si / 1000 Ang^3
#
#
#
# Elastic Constant Matrix: (Units=GPa)
#
#
# Indices 1 2 3 4 5 6 
#
# 1 98.0359 47.7608 67.3060 0.0000 14.2041 0.0000
# 2 47.7608 62.8666 63.1569 0.0000 1.0902 0.0000
# 3 67.3060 63.1569 145.1562 0.0000 3.2704 0.0000
# 4 0.0000 0.0000 0.0000 32.9730 0.0000 0.0911
# 5 14.2041 1.0902 3.2704 0.0000 22.1789 0.0000
# 6 0.0000 0.0000 0.0000 0.0911 0.0000 25.6330
#
#
#
# Elastic Compliance Matrix: (Units=1/GPa)
#
#
# Indices 1 2 3 4 5 6 
#
# 1 0.020122 -0.010616 -0.004447 0.000000 -0.011709 0.000000
# 2 -0.010616 0.033864 -0.009960 0.000000 0.006603 0.000000
# 3 -0.004447 -0.009960 0.013254 0.000000 0.001384 0.000000
# 4 0.000000 0.000000 0.000000 0.030328 0.000000 -0.000108
# 5 -0.011709 0.006603 0.001384 0.000000 0.052058 0.000000
# 6 0.000000 0.000000 0.000000 -0.000108 0.000000 0.039013
#
#
# Mechanical properties :
#
#
# Convention : Reuss Voigt Hill
#
# Bulk Modulus (GPa) = 58.16628 73.61178 65.88903
# Shear Modulus (GPa) = 20.45689 24.67932 22.56810
#
# Velocity S-wave (km/s) = 3.50068 3.84503 3.67689
# Velocity P-wave (km/s) = 7.15433 7.98810 7.58268
#
# Compressibility (1/GPa) = 0.01719209
#
# Stress axis : x y z
#
# Youngs Moduli (GPa) = 49.69668 29.53022 75.45024
#
# Poissons Ratio (x) = 0.31350 0.33556
# Poissons Ratio (y) = 0.52758 0.75150
# Poissons Ratio (z) = 0.22102 0.29413
#
# Static dielectric constant tensor:
#      x y z
#    x 1.535340 0.000000 -0.004760 
#    y 0.000000 1.559790 0.000000 
#    z -0.004760 0.000000 1.564730 
# 
# From -- ./inp_files/48924.got.cif
#   From: 2010.05.17/outbox.cif.g08.bks.cpg/sg11_25_cif.got.tgz:48924.got - 2010.06.03 12:22:45.
