data_PCOD9161657
_publ_section_title
;
Structure prediction by ZEFSAII (Michael W. Deem and Ramdas Pophale) SiO2 
 PCOD9161657
Probable space group: P 21/M
;
_chemical_formula_sum "Si O2"
_cell_formula_units_Z 20
_cell_length_a 12.099764
_cell_length_b 12.939014
_cell_length_c 12.727234
_cell_angle_alpha 90.000000
_cell_angle_beta 145.737492
_cell_angle_gamma 90.000000
_cell_volume 1121.783934
_symmetry_space_group_name_H-M "P 21/M"
_symmetry_group_IT_number 11
_symmetry_cell_setting 'monoclinic'
loop_
_space_group_symop_operation_xyz
x,y,z
-x,1/2+y,-z
-x,-y,-z
x,1/2-y,z
loop_
_atom_site_type_symbol
_atom_site_label
_atom_site_fract_x
_atom_site_fract_y
_atom_site_fract_z
Si Si1 0.432887 0.629746 0.835064
Si Si2 0.796475 0.479560 0.161996
Si Si3 0.148572 0.630925 0.421357
Si Si4 0.078144 0.627717 0.952752
Si Si5 0.273689 0.528261 0.304216
O O1 0.478555 0.750000 0.891386
O O2 0.622040 0.557736 0.993650
O O3 0.335908 0.621579 0.644290
O O4 0.983996 0.551354 0.331625
O O5 0.276822 0.587874 0.797766
O O6 0.847142 0.407973 0.102580
O O7 0.202609 0.599132 0.345440
O O8 0.080662 0.750000 0.372172
O O9 0.060320 0.750000 0.945457
O O10 0.227009 0.585762 0.158562
O O11 0.868606 0.571840 0.806688
O O12 0.500000 0.500000 0.500000
#
# Coordination Sequence:
#
# PCOD9161657 Si02
#       5
#     4   4   4   4   4
#     4  10  20  34  54  77 102 136 173 210 256 308
#     4  10  20  35  53  76 106 135 170 214 258 306
#     4  10  20  34  53  76 103 135 171 212 258 308
#     4  10  21  36  55  79 107 139 175 216 262 310
#     4  10  21  37  55  78 107 139 176 218 261 311
#
# _framework density 17.828745000000001
#
# number of rings (size 3 to 8) (size 9 to 14) (size 15 to 20)
#    0.000    2.000    0.000    3.600    0.000    1.600 
#    0.000    5.000    0.000   13.200    0.000    0.000 
#    0.000    0.000    0.000    0.000    0.000    0.000 
#
# Total GULP energy -111663.229085 kJ/mol
# GULP energy per Si atom -5583.161454 kJ/mol
# Density = 1.778817 g / cm^3
# Si number density = 17.828745 Si / 1000 Ang^3
#
#
#
# Elastic Constant Matrix: (Units=GPa)
#
#
# Indices 1 2 3 4 5 6 
#
# 1 24.5968 12.7919 2.6309 0.0000 -9.6114 0.0000
# 2 12.7919 112.4534 21.2353 0.0000 -10.7239 0.0000
# 3 2.6309 21.2353 72.3237 0.0000 -6.6117 0.0000
# 4 0.0000 0.0000 0.0000 19.5337 0.0000 -4.2335
# 5 -9.6114 -10.7239 -6.6117 0.0000 26.0432 0.0000
# 6 0.0000 0.0000 0.0000 -4.2335 0.0000 14.8088
#
#
#
# Elastic Compliance Matrix: (Units=1/GPa)
#
#
# Indices 1 2 3 4 5 6 
#
# 1 0.049258 -0.004193 0.000966 0.000000 0.016697 0.000000
# 2 -0.004193 0.010048 -0.002622 0.000000 0.001924 0.000000
# 3 0.000966 -0.002622 0.014840 0.000000 0.003044 0.000000
# 4 0.000000 0.000000 0.000000 0.054575 0.000000 0.015602
# 5 0.016697 0.001924 0.003044 0.000000 0.046125 0.000000
# 6 0.000000 0.000000 0.000000 0.015602 0.000000 0.071988
#
#
# Mechanical properties :
#
#
# Convention : Reuss Voigt Hill
#
# Bulk Modulus (GPa) = 16.01354 31.41000 23.71177
# Shear Modulus (GPa) = 17.89882 23.59152 20.74517
#
# Velocity S-wave (km/s) = 3.17192 3.64157 3.41483
# Velocity P-wave (km/s) = 4.73457 5.94451 5.37370
#
# Compressibility (1/GPa) = 0.06244716
#
# Stress axis : x y z
#
# Youngs Moduli (GPa) = 20.30133 99.52053 67.38685
#
# Poissons Ratio (x) = 0.41732 -0.06508
# Poissons Ratio (y) = 0.08513 0.17668
# Poissons Ratio (z) = -0.01961 0.26092
#
# Static dielectric constant tensor:
#      x y z
#    x 1.589120 0.000000 0.004210 
#    y 0.000000 1.576830 0.000000 
#    z 0.004210 0.000000 1.586220 
# 
# From -- ./inp_files/60461.got.cif
#   From: 2010.05.17/outbox.cif.g08.bks.cpg/sg11_31_cif.got.tgz:60461.got - 2010.06.03 12:22:45.
