data_PCOD9161291
_publ_section_title
;
Structure prediction by ZEFSAII (Michael W. Deem and Ramdas Pophale) SiO2 
 PCOD9161291
Probable space group: P 21/M
;
_chemical_formula_sum "Si O2"
_cell_formula_units_Z 28
_cell_length_a 23.861969
_cell_length_b 8.720215
_cell_length_c 21.125862
_cell_angle_alpha 90.000000
_cell_angle_beta 19.040156
_cell_angle_gamma 90.000000
_cell_volume 1434.078077
_symmetry_space_group_name_H-M "P 21/M"
_symmetry_group_IT_number 11
_symmetry_cell_setting 'monoclinic'
loop_
_space_group_symop_operation_xyz
x,y,z
-x,1/2+y,-z
-x,-y,-z
x,1/2-y,z
loop_
_atom_site_type_symbol
_atom_site_label
_atom_site_fract_x
_atom_site_fract_y
_atom_site_fract_z
Si Si1 0.280554 0.067235 0.060202
Si Si2 0.351639 0.574605 0.852505
Si Si3 0.462323 0.065622 0.109380
Si Si4 0.948411 0.575642 0.253537
Si Si5 0.081784 0.422351 0.851918
Si Si6 0.517223 0.577810 0.549285
Si Si7 0.901199 0.936457 0.441037
O O1 0.273553 0.250000 0.072124
O O2 0.083995 0.002582 0.269474
O O3 0.366793 0.016348 0.901471
O O4 0.397274 0.998958 0.991362
O O5 0.417930 0.750000 0.790124
O O6 0.433374 0.505414 0.701553
O O7 0.149227 0.584506 0.055123
O O8 0.473202 0.250000 0.097659
O O9 0.267523 0.024473 0.338702
O O10 0.500000 0.000000 0.000000
O O11 0.878095 0.750000 0.321324
O O12 0.936222 0.500093 0.197714
O O13 0.869425 0.509441 0.402166
O O14 0.007170 0.250000 0.926577
O O15 0.282557 0.412669 0.650371
O O16 0.000000 0.500000 0.000000
O O17 0.500000 0.500000 0.500000
O O18 0.442835 0.750000 0.624058
O O19 0.918536 0.750000 0.420574
#
# Coordination Sequence:
#
# PCOD9161291 Si02
#       7
#     4   4   4   4   4   4   4
#     4  11  23  39  62  93 129 163 199 253 311 367
#     4   9  18  35  57  80 109 150 196 244 296 358
#     4  11  24  42  67  95 127 164 206 255 304 366
#     4   8  15  31  55  79 103 136 186 239 286 340
#     4  10  20  33  51  76 106 143 187 237 289 344
#     4  10  21  34  53  78 109 148 194 243 294 352
#     4   9  20  40  66  91 117 160 209 252 300 360
#
# _framework density 19.524739
#
# number of rings (size 3 to 8) (size 9 to 14) (size 15 to 20)
#    0.000    2.286    0.000    3.429    2.000    4.000 
#    0.000    4.286    0.000    0.000    0.000    0.000 
#    0.000    0.000    0.000    0.000    0.000    0.000 
#
# Total GULP energy -156112.777480 kJ/mol
# GULP energy per Si atom -5575.456339 kJ/mol
# Density = 1.948030 g / cm^3
# Si number density = 19.524739 Si / 1000 Ang^3
#
#
#
# Elastic Constant Matrix: (Units=GPa)
#
#
# Indices 1 2 3 4 5 6 
#
# 1 183.7517 51.0618 80.1109 0.0000 27.6371 0.0000
# 2 51.0618 57.5087 36.9426 0.0000 10.3635 0.0000
# 3 80.1109 36.9426 130.1706 0.0000 35.0513 0.0000
# 4 0.0000 0.0000 0.0000 19.7459 0.0000 5.5928
# 5 27.6371 10.3635 35.0513 0.0000 37.4421 0.0000
# 6 0.0000 0.0000 0.0000 5.5928 0.0000 27.6337
#
#
#
# Elastic Compliance Matrix: (Units=1/GPa)
#
#
# Indices 1 2 3 4 5 6 
#
# 1 0.008607 -0.005169 -0.003349 0.000000 -0.001788 0.000000
# 2 -0.005169 0.024373 -0.003940 0.000000 0.000758 0.000000
# 3 -0.003349 -0.003940 0.013240 0.000000 -0.008832 0.000000
# 4 0.000000 0.000000 0.000000 0.053723 0.000000 -0.010873
# 5 -0.001788 0.000758 -0.008832 0.000000 0.036085 0.000000
# 6 0.000000 0.000000 0.000000 -0.010873 0.000000 0.038388
#
#
# Mechanical properties :
#
#
# Convention : Reuss Voigt Hill
#
# Bulk Modulus (GPa) = 46.93972 78.62907 62.78439
# Shear Modulus (GPa) = 24.22091 30.51873 27.36982
#
# Velocity S-wave (km/s) = 3.52593 3.95787 3.74813
# Velocity P-wave (km/s) = 6.37727 7.82593 7.13845
#
# Compressibility (1/GPa) = 0.02130392
#
# Stress axis : x y z
#
# Youngs Moduli (GPa) = 116.17856 41.02973 75.53147
#
# Poissons Ratio (x) = 0.21209 0.25295
# Poissons Ratio (y) = 0.60054 0.29758
# Poissons Ratio (z) = 0.38908 0.16165
#
# Static dielectric constant tensor:
#      x y z
#    x 1.698860 0.000000 0.033610 
#    y 0.000000 1.697510 0.000000 
#    z 0.033610 0.000000 1.683800 
# 
# From -- ./inp_files/23990.got.cif
#   From: 2010.05.17/outbox.cif.g08.bks.cpg/sg11_12_cif.got.tgz:23990.got - 2010.06.03 12:22:45.
