data_PCOD9161052
_publ_section_title
;
Structure prediction by ZEFSAII (Michael W. Deem and Ramdas Pophale) SiO2 
 PCOD9161052
Probable space group: P 21/M
;
_chemical_formula_sum "Si O2"
_cell_formula_units_Z 32
_cell_length_a 24.146200
_cell_length_b 7.937534
_cell_length_c 17.269648
_cell_angle_alpha 90.000000
_cell_angle_beta 149.063533
_cell_angle_gamma 90.000000
_cell_volume 1701.589261
_symmetry_space_group_name_H-M "P 21/M"
_symmetry_group_IT_number 11
_symmetry_cell_setting 'monoclinic'
loop_
_space_group_symop_operation_xyz
x,y,z
-x,1/2+y,-z
-x,-y,-z
x,1/2-y,z
loop_
_atom_site_type_symbol
_atom_site_label
_atom_site_fract_x
_atom_site_fract_y
_atom_site_fract_z
Si Si1 0.836104 0.052437 0.663119
Si Si2 0.625897 0.451257 0.152855
Si Si3 0.380938 0.548220 0.333495
Si Si4 0.379851 0.543594 0.023870
Si Si5 0.628622 0.947304 0.325083
Si Si6 0.738249 0.456196 0.963663
Si Si7 0.056283 0.549468 0.880856
Si Si8 0.172712 0.543710 0.174642
O O1 0.854157 0.250000 0.690300
O O2 0.848428 0.979115 0.764602
O O3 0.716924 0.024067 0.487566
O O4 0.930656 0.985504 0.721442
O O5 0.636813 0.250000 0.171370
O O6 0.667145 0.527146 0.282492
O O7 0.500000 0.500000 0.000000
O O8 0.664511 0.507135 0.114026
O O9 0.500000 0.500000 0.500000
O O10 0.375220 0.750000 0.324375
O O11 0.291664 0.492798 0.288572
O O12 0.341811 0.490358 0.201833
O O13 0.382894 0.750000 0.026989
O O14 0.505131 0.487433 0.183214
O O15 0.307212 0.487138 0.008438
O O16 0.623951 0.750000 0.336195
O O17 0.738071 0.250000 0.965844
O O18 0.857465 0.512001 0.079304
O O19 0.070519 0.750000 0.899892
O O20 0.093805 0.486324 0.011046
O O21 0.169084 0.750000 0.172390
#
# Coordination Sequence:
#
# PCOD9161052 Si02
#       8
#     4   4   4   4   4   4   4   4
#     4  11  21  32  48  69  98 129 160 204 249 285
#     4   9  16  29  49  72 101 131 158 191 236 289
#     4   9  17  29  45  65  95 129 159 191 232 279
#     4   8  15  28  49  75  98 122 156 193 230 284
#     4  10  20  32  48  73 102 127 160 199 239 291
#     4   8  15  29  49  70  93 124 158 194 236 281
#     4   9  17  33  53  69  90 125 167 203 238 283
#     4   8  17  32  47  66  93 128 164 198 240 286
#
# _framework density 18.805948999999998
#
# number of rings (size 3 to 8) (size 9 to 14) (size 15 to 20)
#    0.000    3.000    0.000    3.750    1.750    0.000 
#    0.000    3.750    0.000    6.000    0.000    0.000 
#    0.000    0.000    0.000    0.000    0.000    0.000 
#
# Total GULP energy -178246.709466 kJ/mol
# GULP energy per Si atom -5570.209671 kJ/mol
# Density = 1.876315 g / cm^3
# Si number density = 18.805949 Si / 1000 Ang^3
#
#
#
# Elastic Constant Matrix: (Units=GPa)
#
#
# Indices 1 2 3 4 5 6 
#
# 1 135.6583 2.5833 25.2490 0.0000 -2.5808 0.0000
# 2 2.5833 10.4243 -3.3421 0.0000 1.9841 0.0000
# 3 25.2490 -3.3421 31.4279 0.0000 9.1245 0.0000
# 4 0.0000 0.0000 0.0000 22.0780 0.0000 0.4238
# 5 -2.5808 1.9841 9.1245 0.0000 15.6900 0.0000
# 6 0.0000 0.0000 0.0000 0.4238 0.0000 12.4250
#
#
#
# Elastic Compliance Matrix: (Units=1/GPa)
#
#
# Indices 1 2 3 4 5 6 
#
# 1 0.009820 -0.007850 -0.011407 0.000000 0.009242 0.000000
# 2 -0.007850 0.112663 0.027430 0.000000 -0.031490 0.000000
# 3 -0.011407 0.027430 0.054685 0.000000 -0.037147 0.000000
# 4 0.000000 0.000000 0.000000 0.045324 0.000000 -0.001546
# 5 0.009242 -0.031490 -0.037147 0.000000 0.090840 0.000000
# 6 0.000000 0.000000 0.000000 -0.001546 0.000000 0.080536
#
#
# Mechanical properties :
#
#
# Convention : Reuss Voigt Hill
#
# Bulk Modulus (GPa) = 5.16759 25.16565 15.16662
# Shear Modulus (GPa) = 11.31154 20.23995 15.77575
#
# Velocity S-wave (km/s) = 2.45518 3.28419 2.89947
# Velocity P-wave (km/s) = 3.28497 5.27181 4.39221
#
# Compressibility (1/GPa) = 0.19351392
#
# Stress axis : x y z
#
# Youngs Moduli (GPa) = 101.83414 8.87606 18.28642
#
# Poissons Ratio (x) = 0.06968 0.20860
# Poissons Ratio (y) = 0.79938 -0.50160
# Poissons Ratio (z) = 1.16164 -0.24347
#
# Static dielectric constant tensor:
#      x y z
#    x 1.690210 0.000000 -0.003450 
#    y 0.000000 1.677280 0.000000 
#    z -0.003450 0.000000 1.633470 
# 
# From -- ./inp_files/61804.got.cif
#   From: 2010.05.17/outbox.cif.g08.bks.cpg/sg11_31_cif.got.tgz:61804.got - 2010.06.03 12:22:45.
