data_PCOD9161603
_publ_section_title
;
Structure prediction by ZEFSAII (Michael W. Deem and Ramdas Pophale) SiO2 
 PCOD9161603
Probable space group: P 21/M
;
_chemical_formula_sum "Si O2"
_cell_formula_units_Z 28
_cell_length_a 10.815703
_cell_length_b 12.021901
_cell_length_c 14.886841
_cell_angle_alpha 90.000000
_cell_angle_beta 123.392998
_cell_angle_gamma 90.000000
_cell_volume 1616.116936
_symmetry_space_group_name_H-M "P 21/M"
_symmetry_group_IT_number 11
_symmetry_cell_setting 'monoclinic'
loop_
_space_group_symop_operation_xyz
x,y,z
-x,1/2+y,-z
-x,-y,-z
x,1/2-y,z
loop_
_atom_site_type_symbol
_atom_site_label
_atom_site_fract_x
_atom_site_fract_y
_atom_site_fract_z
Si Si1 0.848091 0.877265 0.497639
Si Si2 0.043799 0.380723 0.843966
Si Si3 0.475623 0.118160 0.544001
Si Si4 0.113996 0.475566 0.680524
Si Si5 0.271655 0.620219 0.204203
Si Si6 0.324056 0.503543 0.037259
Si Si7 0.372812 0.620608 0.872202
O O1 0.896564 0.750000 0.524887
O O2 0.689324 0.888903 0.481447
O O3 0.837119 0.908460 0.388162
O O4 0.971625 0.953467 0.593323
O O5 0.055815 0.250000 0.865229
O O6 0.067496 0.403101 0.747848
O O7 0.882020 0.418841 0.812129
O O8 0.173131 0.442601 0.949057
O O9 0.488905 0.250000 0.511750
O O10 0.597231 0.113176 0.671282
O O11 0.500000 0.000000 0.500000
O O12 0.248996 0.552002 0.768550
O O13 0.253216 0.750000 0.173129
O O14 0.308947 0.554780 0.129151
O O15 0.464285 0.421602 0.088981
O O16 0.352626 0.593626 0.969940
O O17 0.355758 0.750000 0.848125
#
# Coordination Sequence:
#
# PCOD9161603 Si02
#       7
#     4   4   4   4   4   4   4
#     4  10  20  35  55  78 106 138 176 221 266 317
#     4  10  20  34  53  77 106 137 170 213 260 311
#     4  10  21  38  58  81 110 143 180 222 269 320
#     4  10  20  34  54  78 104 136 174 213 262 316
#     4  10  20  35  55  77 104 138 176 216 260 313
#     4  10  20  34  53  76 103 136 173 211 257 311
#     4  10  20  34  52  75 104 135 170 214 259 306
#
# _framework density 17.325479000000001
#
# number of rings (size 3 to 8) (size 9 to 14) (size 15 to 20)
#    0.000    2.000    0.000    3.857    0.000    0.000 
#    0.000   10.714    0.000    6.857    0.000    0.000 
#    0.000    0.000    0.000    0.000    0.000    0.000 
#
# Total GULP energy -156107.303621 kJ/mol
# GULP energy per Si atom -5575.260844 kJ/mol
# Density = 1.728605 g / cm^3
# Si number density = 17.325479 Si / 1000 Ang^3
#
#
#
# Elastic Constant Matrix: (Units=GPa)
#
#
# Indices 1 2 3 4 5 6 
#
# 1 56.1284 25.1708 14.0074 0.0000 3.5074 0.0000
# 2 25.1708 72.6631 14.0031 0.0000 -11.1018 0.0000
# 3 14.0074 14.0031 56.6746 0.0000 -0.8960 0.0000
# 4 0.0000 0.0000 0.0000 16.6446 0.0000 2.5068
# 5 3.5074 -11.1018 -0.8960 0.0000 31.2369 0.0000
# 6 0.0000 0.0000 0.0000 2.5068 0.0000 19.0627
#
#
#
# Elastic Compliance Matrix: (Units=1/GPa)
#
#
# Indices 1 2 3 4 5 6 
#
# 1 0.022662 -0.007971 -0.003718 0.000000 -0.005484 0.000000
# 2 -0.007971 0.018092 -0.002385 0.000000 0.007257 0.000000
# 3 -0.003718 -0.002385 0.019155 0.000000 0.000119 0.000000
# 4 0.000000 0.000000 0.000000 0.061293 0.000000 -0.008060
# 5 -0.005484 0.007257 0.000119 0.000000 0.035212 0.000000
# 6 0.000000 0.000000 0.000000 -0.008060 0.000000 0.053519
#
#
# Mechanical properties :
#
#
# Convention : Reuss Voigt Hill
#
# Bulk Modulus (GPa) = 31.48736 32.42541 31.95638
# Shear Modulus (GPa) = 20.10715 22.20782 21.15748
#
# Velocity S-wave (km/s) = 3.41039 3.58411 3.49833
# Velocity P-wave (km/s) = 5.80699 5.99031 5.89936
#
# Compressibility (1/GPa) = 0.03175878
#
# Stress axis : x y z
#
# Youngs Moduli (GPa) = 44.12732 55.27352 52.20639
#
# Poissons Ratio (x) = 0.44061 0.19411
# Poissons Ratio (y) = 0.35176 0.12452
# Poissons Ratio (z) = 0.16407 0.13184
#
# Static dielectric constant tensor:
#      x y z
#    x 1.575380 0.000000 -0.000670 
#    y 0.000000 1.587500 0.000000 
#    z -0.000670 0.000000 1.555820 
# 
# From -- ./inp_files/21440.got.cif
#   From: 2010.05.17/outbox.cif.g08.bks.cpg/sg11_11_cif.got.tgz:21440.got - 2010.06.03 12:22:45.
