data_PCOD9161816
_publ_section_title
;
Structure prediction by ZEFSAII (Michael W. Deem and Ramdas Pophale) SiO2 
 PCOD9161816
Probable space group: P 21/M
;
_chemical_formula_sum "Si O2"
_cell_formula_units_Z 28
_cell_length_a 25.385024
_cell_length_b 11.756061
_cell_length_c 5.100080
_cell_angle_alpha 90.000000
_cell_angle_beta 74.602636
_cell_angle_gamma 90.000000
_cell_volume 1467.377695
_symmetry_space_group_name_H-M "P 21/M"
_symmetry_group_IT_number 11
_symmetry_cell_setting 'monoclinic'
loop_
_space_group_symop_operation_xyz
x,y,z
-x,1/2+y,-z
-x,-y,-z
x,1/2-y,z
loop_
_atom_site_type_symbol
_atom_site_label
_atom_site_fract_x
_atom_site_fract_y
_atom_site_fract_z
Si Si1 0.040452 0.878590 0.159709
Si Si2 0.624108 0.512392 0.252403
Si Si3 0.258087 0.386583 0.016454
Si Si4 0.514808 0.622390 0.347814
Si Si5 0.072778 0.488581 0.615991
Si Si6 0.810975 0.886352 0.391345
Si Si7 0.590696 0.378063 0.804403
O O1 0.056018 0.750000 0.194403
O O2 0.068826 0.963335 0.328027
O O3 0.055997 0.913950 0.845415
O O4 0.975442 0.896260 0.284880
O O5 0.579777 0.609680 0.238156
O O6 0.614514 0.465632 0.558303
O O7 0.685013 0.554595 0.125808
O O8 0.608796 0.413022 0.068441
O O9 0.265698 0.250000 0.993329
O O10 0.234774 0.415978 0.332299
O O11 0.212334 0.417345 0.861867
O O12 0.500000 0.500000 0.500000
O O13 0.503643 0.750000 0.480380
O O14 0.475191 0.620058 0.146959
O O15 0.131853 0.442435 0.610689
O O16 0.818268 0.750000 0.390176
O O17 0.608766 0.250000 0.719131
#
# Coordination Sequence:
#
# PCOD9161816 Si02
#       7
#     4   4   4   4   4   4   4
#     4  10  20  34  54  83 112 139 174 215 263 314
#     4  11  20  36  57  80 109 142 178 229 276 325
#     4  10  21  35  55  81 106 138 178 225 274 317
#     4   9  19  35  56  85 115 146 182 225 281 343
#     4  10  20  34  56  80 108 144 176 213 262 317
#     4  10  20  36  56  79 108 140 179 222 267 319
#     4  10  21  36  56  80 108 143 181 221 274 333
#
# _framework density 19.081657
#
# number of rings (size 3 to 8) (size 9 to 14) (size 15 to 20)
#    0.000    2.000    0.000    3.857    0.000    0.571 
#    0.000   13.571    0.000   17.143    0.000    0.000 
#    0.000    0.000    0.000    0.000    0.000    0.000 
#
# Total GULP energy -156175.847376 kJ/mol
# GULP energy per Si atom -5577.708835 kJ/mol
# Density = 1.903823 g / cm^3
# Si number density = 19.081657 Si / 1000 Ang^3
#
#
#
# Elastic Constant Matrix: (Units=GPa)
#
#
# Indices 1 2 3 4 5 6 
#
# 1 70.5980 14.6324 -14.3346 0.0000 -8.2556 0.0000
# 2 14.6324 62.7754 0.8843 0.0000 -7.0688 0.0000
# 3 -14.3346 0.8843 36.1973 0.0000 7.3727 0.0000
# 4 0.0000 0.0000 0.0000 12.6642 0.0000 4.4599
# 5 -8.2556 -7.0688 7.3727 0.0000 25.6228 0.0000
# 6 0.0000 0.0000 0.0000 4.4599 0.0000 12.2638
#
#
#
# Elastic Compliance Matrix: (Units=1/GPa)
#
#
# Indices 1 2 3 4 5 6 
#
# 1 0.016451 -0.003633 0.006085 0.000000 0.002547 0.000000
# 2 -0.003633 0.017311 -0.002758 0.000000 0.004398 0.000000
# 3 0.006085 -0.002758 0.031718 0.000000 -0.007927 0.000000
# 4 0.000000 0.000000 0.000000 0.090561 0.000000 -0.032933
# 5 0.002547 0.004398 -0.007927 0.000000 0.043343 0.000000
# 6 0.000000 0.000000 0.000000 -0.032933 0.000000 0.093517
#
#
# Mechanical properties :
#
#
# Convention : Reuss Voigt Hill
#
# Bulk Modulus (GPa) = 15.41610 19.10386 17.25998
# Shear Modulus (GPa) = 15.86618 21.33608 18.60113
#
# Velocity S-wave (km/s) = 2.88668 3.34750 3.12559
# Velocity P-wave (km/s) = 4.38259 4.99743 4.70008
#
# Compressibility (1/GPa) = 0.06486725
#
# Stress axis : x y z
#
# Youngs Moduli (GPa) = 60.78595 57.76721 31.52792
#
# Poissons Ratio (x) = 0.20990 -0.19184
# Poissons Ratio (y) = 0.22086 0.08694
# Poissons Ratio (z) = -0.36987 0.15930
#
# Static dielectric constant tensor:
#      x y z
#    x 1.645360 0.000000 -0.006010 
#    y 0.000000 1.659610 0.000000 
#    z -0.006010 0.000000 1.668400 
# 
# From -- ./inp_files/8617.got.cif
#   From: 2010.05.17/outbox.cif.g08.bks.cpg/sg11_5_cif.got.tgz:8617.got - 2010.06.03 12:22:45.
