data_PCOD9161064
_publ_section_title
;
Structure prediction by ZEFSAII (Michael W. Deem and Ramdas Pophale) SiO2 
 PCOD9161064
Probable space group: P 21/M
;
_chemical_formula_sum "Si O2"
_cell_formula_units_Z 32
_cell_length_a 14.798823
_cell_length_b 8.913407
_cell_length_c 27.221442
_cell_angle_alpha 90.000000
_cell_angle_beta 145.389346
_cell_angle_gamma 90.000000
_cell_volume 2039.519801
_symmetry_space_group_name_H-M "P 21/M"
_symmetry_group_IT_number 11
_symmetry_cell_setting 'monoclinic'
loop_
_space_group_symop_operation_xyz
x,y,z
-x,1/2+y,-z
-x,-y,-z
x,1/2-y,z
loop_
_atom_site_type_symbol
_atom_site_label
_atom_site_fract_x
_atom_site_fract_y
_atom_site_fract_z
Si Si1 0.702686 0.076262 0.757055
Si Si2 0.433557 0.571083 0.919369
Si Si3 0.442485 0.072393 0.399147
Si Si4 0.246671 0.928197 0.400570
Si Si5 0.676223 0.071661 0.954133
Si Si6 0.064673 0.571123 0.762785
Si Si7 0.177356 0.931674 0.083852
Si Si8 0.047902 0.423063 0.861295
O O1 0.649912 0.250000 0.735362
O O2 0.734687 0.020968 0.826647
O O3 0.876053 0.073084 0.809253
O O4 0.590124 0.984489 0.670263
O O5 0.452756 0.750000 0.931827
O O6 0.532218 0.508800 0.917518
O O7 0.246179 0.538304 0.829031
O O8 0.500000 0.500000 0.000000
O O9 0.411926 0.250000 0.388913
O O10 0.620907 0.043659 0.498460
O O11 0.325885 0.989593 0.385591
O O12 0.222853 0.750000 0.385030
O O13 0.079101 0.009127 0.334466
O O14 0.652954 0.250000 0.946141
O O15 0.717056 0.029154 0.916413
O O16 0.831567 0.024042 0.054170
O O17 0.049036 0.750000 0.761591
O O18 0.040474 0.488422 0.803722
O O19 0.159984 0.750000 0.077864
O O20 0.000000 0.000000 0.000000
O O21 0.103325 0.250000 0.885505
#
# Coordination Sequence:
#
# PCOD9161064 Si02
#       8
#     4   4   4   4   4   4   4   4
#     4  10  20  33  49  72 101 135 171 204 247 296
#     4  11  23  36  52  73 100 133 172 211 252 300
#     4  10  20  32  49  73 101 132 167 204 245 297
#     4  10  20  33  49  72 101 133 165 202 250 300
#     4  11  22  35  51  72 101 135 173 213 252 294
#     4  11  22  34  50  73  99 132 172 209 248 296
#     4  10  21  35  51  73 100 133 172 210 248 297
#     4  11  20  30  49  72 101 137 171 206 247 293
#
# _framework density 15.689966999999999
#
# number of rings (size 3 to 8) (size 9 to 14) (size 15 to 20)
#    0.000    1.500    3.750    2.250    0.000    4.500 
#    0.000    0.000    0.000    0.000    0.000    0.875 
#    0.000    0.000    0.000    0.000    0.000    0.000 
#
# Total GULP energy -178593.027079 kJ/mol
# GULP energy per Si atom -5581.032096 kJ/mol
# Density = 1.565426 g / cm^3
# Si number density = 15.689967 Si / 1000 Ang^3
#
#
#
# Elastic Constant Matrix: (Units=GPa)
#
#
# Indices 1 2 3 4 5 6 
#
# 1 99.1927 42.7655 55.7282 0.0000 -1.5833 0.0000
# 2 42.7655 48.2652 37.3778 0.0000 6.8182 0.0000
# 3 55.7282 37.3778 102.6036 0.0000 -1.5858 0.0000
# 4 0.0000 0.0000 0.0000 28.6168 0.0000 1.7593
# 5 -1.5833 6.8182 -1.5858 0.0000 20.9558 0.0000
# 6 0.0000 0.0000 0.0000 1.7593 0.0000 21.0583
#
#
#
# Elastic Compliance Matrix: (Units=1/GPa)
#
#
# Indices 1 2 3 4 5 6 
#
# 1 0.018944 -0.013435 -0.005312 0.000000 0.005401 0.000000
# 2 -0.013435 0.040743 -0.007775 0.000000 -0.014860 0.000000
# 3 -0.005312 -0.007775 0.015515 0.000000 0.003302 0.000000
# 4 0.000000 0.000000 0.000000 0.035125 0.000000 -0.002934
# 5 0.005401 -0.014860 0.003302 0.000000 0.053212 0.000000
# 6 0.000000 0.000000 0.000000 -0.002934 0.000000 0.047732
#
#
# Mechanical properties :
#
#
# Convention : Reuss Voigt Hill
#
# Bulk Modulus (GPa) = 45.12882 57.97828 51.55355
# Shear Modulus (GPa) = 18.40261 21.73886 20.07073
#
# Velocity S-wave (km/s) = 3.42846 3.72630 3.58048
# Velocity P-wave (km/s) = 6.67067 7.45295 7.07263
#
# Compressibility (1/GPa) = 0.02215879
#
# Stress axis : x y z
#
# Youngs Moduli (GPa) = 52.78730 24.54388 64.45531
#
# Poissons Ratio (x) = 0.32974 0.34236
# Poissons Ratio (y) = 0.70919 0.50115
# Poissons Ratio (z) = 0.28038 0.19083
#
# Static dielectric constant tensor:
#      x y z
#    x 1.518550 0.000000 -0.007640 
#    y 0.000000 1.533520 0.000000 
#    z -0.007640 0.000000 1.540390 
# 
# From -- ./inp_files/71630.got.cif
#   From: 2010.05.17/outbox.cif.g08.bks.cpg/sg11_36_cif.got.tgz:71630.got - 2010.06.03 12:22:45.
