data_PCOD9161453
_publ_section_title
;
Structure prediction by ZEFSAII (Michael W. Deem and Ramdas Pophale) SiO2 
 PCOD9161453
Probable space group: P 21/M
;
_chemical_formula_sum "Si O2"
_cell_formula_units_Z 28
_cell_length_a 14.912681
_cell_length_b 14.067900
_cell_length_c 15.338415
_cell_angle_alpha 90.000000
_cell_angle_beta 27.509846
_cell_angle_gamma 90.000000
_cell_volume 1486.327180
_symmetry_space_group_name_H-M "P 21/M"
_symmetry_group_IT_number 11
_symmetry_cell_setting 'monoclinic'
loop_
_space_group_symop_operation_xyz
x,y,z
-x,1/2+y,-z
-x,-y,-z
x,1/2-y,z
loop_
_atom_site_type_symbol
_atom_site_label
_atom_site_fract_x
_atom_site_fract_y
_atom_site_fract_z
Si Si1 0.603697 0.863276 0.929270
Si Si2 0.883335 0.480888 0.234939
Si Si3 0.218647 0.638697 0.167971
Si Si4 0.250615 0.464470 0.023930
Si Si5 0.472335 0.039774 0.342201
Si Si6 0.775283 0.863305 0.596800
Si Si7 0.852903 0.362826 0.085704
O O1 0.625892 0.750000 0.916358
O O2 0.684179 0.908063 0.947388
O O3 0.710999 0.895326 0.748266
O O4 0.378292 0.884164 0.103557
O O5 0.676646 0.504477 0.455878
O O6 0.867200 0.405845 0.170656
O O7 0.035446 0.442994 0.175864
O O8 0.988658 0.576218 0.106226
O O9 0.239656 0.750000 0.128014
O O10 0.253977 0.573985 0.053673
O O11 0.002805 0.620404 0.387014
O O12 0.401993 0.457438 0.813950
O O13 0.342527 0.087115 0.378601
O O14 0.637641 0.109562 0.237293
O O15 0.739333 0.750000 0.622782
O O16 0.884907 0.250000 0.053647
#
# Coordination Sequence:
#
# PCOD9161453 Si02
#       7
#     4   4   4   4   4   4   4
#     4  10  22  38  53  80 120 158 201 243 279 335
#     4  10  23  42  60  90 121 147 193 245 291 355
#     4  10  20  34  52  79 114 148 192 241 284 336
#     4  11  22  36  59  84 115 160 193 234 291 342
#     4  11  21  37  59  89 117 149 192 240 291 349
#     4  10  20  33  54  83 114 150 192 238 289 338
#     4  10  23  42  65  88 116 152 190 239 298 356
#
# _framework density 18.838381999999999
#
# number of rings (size 3 to 8) (size 9 to 14) (size 15 to 20)
#    0.000    1.714    2.857    1.286    0.000    5.714 
#    0.000    0.714    0.000    0.000    0.000    0.000 
#    0.000    0.000    0.000    0.000    0.000    0.000 
#
# Total GULP energy -156346.995242 kJ/mol
# GULP energy per Si atom -5583.821259 kJ/mol
# Density = 1.879550 g / cm^3
# Si number density = 18.838382 Si / 1000 Ang^3
#
#
#
# Elastic Constant Matrix: (Units=GPa)
#
#
# Indices 1 2 3 4 5 6 
#
# 1 117.5298 36.3343 18.4729 0.0000 -5.4504 0.0000
# 2 36.3343 36.8906 21.2804 0.0000 1.5776 0.0000
# 3 18.4729 21.2804 86.5096 0.0000 -8.3341 0.0000
# 4 0.0000 0.0000 0.0000 12.9360 0.0000 -1.5232
# 5 -5.4504 1.5776 -8.3341 0.0000 21.8196 0.0000
# 6 0.0000 0.0000 0.0000 -1.5232 0.0000 8.1899
#
#
#
# Elastic Compliance Matrix: (Units=1/GPa)
#
#
# Indices 1 2 3 4 5 6 
#
# 1 0.012648 -0.013216 0.000983 0.000000 0.004490 0.000000
# 2 -0.013216 0.046037 -0.009490 0.000000 -0.010255 0.000000
# 3 0.000983 -0.009490 0.014300 0.000000 0.006394 0.000000
# 4 0.000000 0.000000 0.000000 0.079035 0.000000 0.014699
# 5 0.004490 -0.010255 0.006394 0.000000 0.050135 0.000000
# 6 0.000000 0.000000 0.000000 0.014699 0.000000 0.124835
#
#
# Mechanical properties :
#
#
# Convention : Reuss Voigt Hill
#
# Bulk Modulus (GPa) = 33.85520 43.67835 38.76678
# Shear Modulus (GPa) = 13.14806 19.57859 16.36333
#
# Velocity S-wave (km/s) = 2.64472 3.22730 2.95043
# Velocity P-wave (km/s) = 5.22843 6.09290 5.67715
#
# Compressibility (1/GPa) = 0.02953756
#
# Stress axis : x y z
#
# Youngs Moduli (GPa) = 79.06355 21.72154 69.92990
#
# Poissons Ratio (x) = 0.28708 -0.06873
# Poissons Ratio (y) = 1.04493 0.66367
# Poissons Ratio (z) = -0.07771 0.20615
#
# Static dielectric constant tensor:
#      x y z
#    x 1.647940 0.000000 0.004110 
#    y 0.000000 1.653090 0.000000 
#    z 0.004110 0.000000 1.673160 
# 
# From -- ./inp_files/52445.got.cif
#   From: 2010.05.17/outbox.cif.g08.bks.cpg/sg11_27_cif.got.tgz:52445.got - 2010.06.03 12:22:45.
