data_PCOD9161468
_publ_section_title
;
Structure prediction by ZEFSAII (Michael W. Deem and Ramdas Pophale) SiO2 
 PCOD9161468
Probable space group: P 21/M
;
_chemical_formula_sum "Si O2"
_cell_formula_units_Z 24
_cell_length_a 12.626616
_cell_length_b 8.700531
_cell_length_c 18.482711
_cell_angle_alpha 90.000000
_cell_angle_beta 28.101044
_cell_angle_gamma 90.000000
_cell_volume 956.412155
_symmetry_space_group_name_H-M "P 21/M"
_symmetry_group_IT_number 11
_symmetry_cell_setting 'monoclinic'
loop_
_space_group_symop_operation_xyz
x,y,z
-x,1/2+y,-z
-x,-y,-z
x,1/2-y,z
loop_
_atom_site_type_symbol
_atom_site_label
_atom_site_fract_x
_atom_site_fract_y
_atom_site_fract_z
Si Si1 0.192527 0.929312 0.933407
Si Si2 0.784272 0.928914 0.591631
Si Si3 0.170164 0.070967 0.724551
Si Si4 0.582110 0.422566 0.842902
Si Si5 0.465519 0.570760 0.376803
Si Si6 0.126705 0.074167 0.212213
O O1 0.249882 0.750000 0.882298
O O2 0.382383 0.039836 0.786429
O O3 0.058459 0.930082 0.089611
O O4 0.000000 0.000000 0.000000
O O5 0.806209 0.750000 0.568351
O O6 0.599698 0.956706 0.767203
O O7 0.751423 0.998437 0.531133
O O8 0.000000 0.000000 0.500000
O O9 0.214657 0.250000 0.678866
O O10 0.380654 0.013129 0.647775
O O11 0.094951 0.974059 0.700202
O O12 0.618485 0.250000 0.791996
O O13 0.772617 0.463559 0.786866
O O14 0.341398 0.424802 0.027217
O O15 0.437251 0.750000 0.406088
O O16 0.104366 0.250000 0.252225
#
# Coordination Sequence:
#
# PCOD9161468 Si02
#       6
#     4   4   4   4   4   4
#     4   9  16  26  42  68 103 142 179 217 267 325
#     4  12  25  41  61  83 109 144 189 237 285 335
#     4   9  18  30  47  74 110 147 180 220 272 331
#     4  10  21  38  58  82 115 152 191 233 278 329
#     4  10  20  34  51  75 107 142 183 229 279 333
#     4  10  20  33  55  86 118 152 188 228 275 332
#
# _framework density 25.093785
#
# number of rings (size 3 to 8) (size 9 to 14) (size 15 to 20)
#    0.000    2.000    0.000    5.500    0.000    8.667 
#    0.000    0.000    0.000    1.000    0.000    0.000 
#    0.000    0.000    0.000    0.000    0.000    0.000 
#
# Total GULP energy -133863.243919 kJ/mol
# GULP energy per Si atom -5577.635163 kJ/mol
# Density = 2.503667 g / cm^3
# Si number density = 25.093785 Si / 1000 Ang^3
#
#
#
# Elastic Constant Matrix: (Units=GPa)
#
#
# Indices 1 2 3 4 5 6 
#
# 1 157.0924 64.1546 33.2676 0.0000 -35.7808 0.0000
# 2 64.1546 119.4481 -8.6931 0.0000 -14.6432 0.0000
# 3 33.2676 -8.6931 53.5387 0.0000 -15.2671 0.0000
# 4 0.0000 0.0000 0.0000 20.2283 0.0000 6.0699
# 5 -35.7808 -14.6432 -15.2671 0.0000 55.6599 0.0000
# 6 0.0000 0.0000 0.0000 6.0699 0.0000 28.5275
#
#
#
# Elastic Compliance Matrix: (Units=1/GPa)
#
#
# Indices 1 2 3 4 5 6 
#
# 1 0.011104 -0.006009 -0.006825 0.000000 0.003686 0.000000
# 2 -0.006009 0.012155 0.005986 0.000000 0.000977 0.000000
# 3 -0.006825 0.005986 0.025048 0.000000 0.004058 0.000000
# 4 0.000000 0.000000 0.000000 0.052807 0.000000 -0.011236
# 5 0.003686 0.000977 0.004058 0.000000 0.021706 0.000000
# 6 0.000000 0.000000 0.000000 -0.011236 0.000000 0.037445
#
#
# Mechanical properties :
#
#
# Convention : Reuss Voigt Hill
#
# Bulk Modulus (GPa) = 28.89228 56.39305 42.64266
# Shear Modulus (GPa) = 26.95463 36.97314 31.96389
#
# Velocity S-wave (km/s) = 3.28099 3.84265 3.57287
# Velocity P-wave (km/s) = 5.08841 6.49690 5.83530
#
# Compressibility (1/GPa) = 0.03461133
#
# Stress axis : x y z
#
# Youngs Moduli (GPa) = 90.05450 82.27370 39.92355
#
# Poissons Ratio (x) = 0.49438 0.27246
# Poissons Ratio (y) = 0.54113 -0.23898
# Poissons Ratio (z) = 0.61459 -0.49248
#
# Static dielectric constant tensor:
#      x y z
#    x 3.252300 0.000000 -0.380350 
#    y 0.000000 1.854750 0.000000 
#    z -0.380350 0.000000 2.796920 
# 
# From -- ./inp_files/37244.got.cif
#   From: 2010.05.17/outbox.cif.g08.bks.cpg/sg11_19_cif.got.tgz:37244.got - 2010.06.03 12:22:45.
