data_PCOD9161106
_publ_section_title
;
Structure prediction by ZEFSAII (Michael W. Deem and Ramdas Pophale) SiO2 
 PCOD9161106
Probable space group: P 21/M
;
_chemical_formula_sum "Si O2"
_cell_formula_units_Z 28
_cell_length_a 14.993604
_cell_length_b 18.138211
_cell_length_c 5.456800
_cell_angle_alpha 90.000000
_cell_angle_beta 113.443480
_cell_angle_gamma 90.000000
_cell_volume 1361.514708
_symmetry_space_group_name_H-M "P 21/M"
_symmetry_group_IT_number 11
_symmetry_cell_setting 'monoclinic'
loop_
_space_group_symop_operation_xyz
x,y,z
-x,1/2+y,-z
-x,-y,-z
x,1/2-y,z
loop_
_atom_site_type_symbol
_atom_site_label
_atom_site_fract_x
_atom_site_fract_y
_atom_site_fract_z
Si Si1 0.257514 0.660600 0.268874
Si Si2 0.554775 0.163415 0.252911
Si Si3 0.928046 0.660510 0.413489
Si Si4 0.616058 0.912992 0.697676
Si Si5 0.152744 0.659808 0.657290
Si Si6 0.444699 0.551215 0.136148
Si Si7 0.817554 0.660545 0.790828
O O1 0.252991 0.750000 0.257272
O O2 0.370429 0.642292 0.447018
O O3 0.199677 0.636409 0.450062
O O4 0.208571 0.634950 0.963962
O O5 0.561317 0.250000 0.223228
O O6 0.443756 0.140019 0.182310
O O7 0.591794 0.120663 0.055566
O O8 0.928634 0.750000 0.417811
O O9 0.869541 0.637791 0.593838
O O10 0.040173 0.636892 0.546426
O O11 0.878217 0.639671 0.101422
O O12 0.533408 0.926011 0.405875
O O13 0.712061 0.875727 0.703004
O O14 0.631095 0.994301 0.827192
O O15 0.155705 0.750000 0.659846
O O16 0.500000 0.500000 0.000000
O O17 0.808746 0.750000 0.778968
#
# Coordination Sequence:
#
# PCOD9161106 Si02
#       7
#     4   4   4   4   4   4   4
#     4   9  18  29  48  77 108 144 183 219 281 342
#     4  10  21  34  54  85 116 145 181 232 284 334
#     4   9  18  31  49  77 112 145 186 231 283 338
#     4  10  21  37  55  77 113 150 190 231 274 338
#     4   9  16  30  48  71 109 148 178 226 279 334
#     4   9  21  39  56  75 108 149 198 225 271 334
#     4  10  20  32  52  84 113 146 187 233 286 336
#
# _framework density 20.565328999999998
#
# number of rings (size 3 to 8) (size 9 to 14) (size 15 to 20)
#    0.000    2.571    0.000    1.286    6.000    4.571 
#    0.000    0.000    0.000    0.000    0.000    6.000 
#    0.000    0.000    0.000    0.000    0.000    0.000 
#
# Total GULP energy -156204.658704 kJ/mol
# GULP energy per Si atom -5578.737811 kJ/mol
# Density = 2.051852 g / cm^3
# Si number density = 20.565329 Si / 1000 Ang^3
#
#
#
# Elastic Constant Matrix: (Units=GPa)
#
#
# Indices 1 2 3 4 5 6 
#
# 1 140.9650 19.6351 41.8304 0.0000 -0.9087 0.0000
# 2 19.6351 53.3351 21.7174 0.0000 2.9735 0.0000
# 3 41.8304 21.7174 91.0632 0.0000 -14.0194 0.0000
# 4 0.0000 0.0000 0.0000 20.3270 0.0000 1.0075
# 5 -0.9087 2.9735 -14.0194 0.0000 28.6557 0.0000
# 6 0.0000 0.0000 0.0000 1.0075 0.0000 3.6570
#
#
#
# Elastic Compliance Matrix: (Units=1/GPa)
#
#
# Indices 1 2 3 4 5 6 
#
# 1 0.008396 -0.001501 -0.003713 0.000000 -0.001395 0.000000
# 2 -0.001501 0.021705 -0.005235 0.000000 -0.004861 0.000000
# 3 -0.003713 -0.005235 0.015142 0.000000 0.007833 0.000000
# 4 0.000000 0.000000 0.000000 0.049877 0.000000 -0.013741
# 5 -0.001395 -0.004861 0.007833 0.000000 0.039190 0.000000
# 6 0.000000 0.000000 0.000000 -0.013741 0.000000 0.277233
#
#
# Mechanical properties :
#
#
# Convention : Reuss Voigt Hill
#
# Bulk Modulus (GPa) = 41.07966 50.19212 45.63589
# Shear Modulus (GPa) = 11.34933 24.00664 17.67798
#
# Velocity S-wave (km/s) = 2.35173 3.42034 2.93508
# Velocity P-wave (km/s) = 5.23381 6.32909 5.80733
#
# Compressibility (1/GPa) = 0.02434294
#
# Stress axis : x y z
#
# Youngs Moduli (GPa) = 119.10417 46.07304 66.04303
#
# Poissons Ratio (x) = 0.06916 0.24525
# Poissons Ratio (y) = 0.17879 0.34574
# Poissons Ratio (z) = 0.44229 0.24120
#
# Static dielectric constant tensor:
#      x y z
#    x 1.799160 0.000000 -0.071760 
#    y 0.000000 1.734820 0.000000 
#    z -0.071760 0.000000 1.778560 
# 
# From -- ./inp_files/4881.got.cif
#   From: 2010.05.17/outbox.cif.g08.bks.cpg/sg11_3_cif.got.tgz:4881.got - 2010.06.03 12:22:45.
