data_PCOD9161329
_publ_section_title
;
Structure prediction by ZEFSAII (Michael W. Deem and Ramdas Pophale) SiO2 
 PCOD9161329
Probable space group: P 21/M
;
_chemical_formula_sum "Si O2"
_cell_formula_units_Z 32
_cell_length_a 25.550179
_cell_length_b 9.170671
_cell_length_c 20.339347
_cell_angle_alpha 90.000000
_cell_angle_beta 20.855520
_cell_angle_gamma 90.000000
_cell_volume 1696.670440
_symmetry_space_group_name_H-M "P 21/M"
_symmetry_group_IT_number 11
_symmetry_cell_setting 'monoclinic'
loop_
_space_group_symop_operation_xyz
x,y,z
-x,1/2+y,-z
-x,-y,-z
x,1/2-y,z
loop_
_atom_site_type_symbol
_atom_site_label
_atom_site_fract_x
_atom_site_fract_y
_atom_site_fract_z
Si Si1 0.098605 0.922980 0.330259
Si Si2 0.133027 0.916036 0.908961
Si Si3 0.668765 0.923376 0.120175
Si Si4 0.413438 0.575167 0.918580
Si Si5 0.967194 0.424784 0.745350
Si Si6 0.167418 0.577314 0.721387
Si Si7 0.738873 0.923903 0.520260
Si Si8 0.422552 0.583815 0.649437
O O1 0.087691 0.750000 0.352548
O O2 0.042106 0.953768 0.322169
O O3 0.272691 0.962524 0.128801
O O4 0.000000 0.000000 0.500000
O O5 0.073366 0.750000 0.971144
O O6 0.205977 0.955843 0.752700
O O7 0.253698 0.911950 0.823523
O O8 0.002057 0.023782 0.080823
O O9 0.664554 0.750000 0.127076
O O10 0.613704 0.987201 0.116121
O O11 0.570912 0.993258 0.291901
O O12 0.834679 0.983953 0.932127
O O13 0.401185 0.750000 0.920239
O O14 0.582241 0.544872 0.738958
O O15 0.941166 0.250000 0.784748
O O16 0.121543 0.462802 0.598233
O O17 0.181539 0.750000 0.695625
O O18 0.248525 0.498824 0.565956
O O19 0.745918 0.750000 0.501364
O O20 0.500000 0.500000 0.500000
O O21 0.474631 0.750000 0.596129
#
# Coordination Sequence:
#
# PCOD9161329 Si02
#       8
#     4   4   4   4   4   4   4   4
#     4   9  18  35  59  84 114 148 183 220 262 317
#     4   9  20  37  51  68  98 136 178 222 273 330
#     4  11  22  36  55  79 108 144 186 232 279 331
#     4   9  20  38  58  83 112 147 186 225 272 329
#     4   9  19  37  59  83 111 145 183 223 267 324
#     4  10  20  33  52  76 103 134 172 222 274 326
#     4  10  20  35  57  81 107 142 183 224 274 326
#     4  11  23  37  52  72 101 138 183 232 281 330
#
# _framework density 18.860469999999999
#
# number of rings (size 3 to 8) (size 9 to 14) (size 15 to 20)
#    0.000    2.250    0.000    3.375    1.750    7.500 
#    0.000    0.625    0.000    0.000    0.000    0.000 
#    0.000    0.000    0.000    0.000    0.000    0.000 
#
# Total GULP energy -178532.215961 kJ/mol
# GULP energy per Si atom -5579.131749 kJ/mol
# Density = 1.881754 g / cm^3
# Si number density = 18.860470 Si / 1000 Ang^3
#
#
#
# Elastic Constant Matrix: (Units=GPa)
#
#
# Indices 1 2 3 4 5 6 
#
# 1 27.7086 16.5843 25.4268 0.0000 3.6103 0.0000
# 2 16.5843 46.5527 38.6271 0.0000 7.8480 0.0000
# 3 25.4268 38.6271 112.5841 0.0000 11.9608 0.0000
# 4 0.0000 0.0000 0.0000 30.7842 0.0000 9.3187
# 5 3.6103 7.8480 11.9608 0.0000 35.8611 0.0000
# 6 0.0000 0.0000 0.0000 9.3187 0.0000 19.4399
#
#
#
# Elastic Compliance Matrix: (Units=1/GPa)
#
#
# Indices 1 2 3 4 5 6 
#
# 1 0.049725 -0.011734 -0.007201 0.000000 -0.000037 0.000000
# 2 -0.011734 0.033169 -0.008381 0.000000 -0.003282 0.000000
# 3 -0.007201 -0.008381 0.013594 0.000000 -0.001975 0.000000
# 4 0.000000 0.000000 0.000000 0.037998 0.000000 -0.018215
# 5 -0.000037 -0.003282 -0.001975 0.000000 0.029266 0.000000
# 6 0.000000 0.000000 0.000000 -0.018215 0.000000 0.060172
#
#
# Mechanical properties :
#
#
# Convention : Reuss Voigt Hill
#
# Bulk Modulus (GPa) = 23.89103 38.68021 31.28562
# Shear Modulus (GPa) = 17.09357 24.29752 20.69555
#
# Velocity S-wave (km/s) = 3.01378 3.59315 3.31614
# Velocity P-wave (km/s) = 4.98048 6.14552 5.59342
#
# Compressibility (1/GPa) = 0.04185671
#
# Stress axis : x y z
#
# Youngs Moduli (GPa) = 20.11050 30.14869 73.56224
#
# Poissons Ratio (x) = 0.35375 0.52970
# Poissons Ratio (y) = 0.23597 0.61656
# Poissons Ratio (z) = 0.14481 0.25269
#
# Static dielectric constant tensor:
#      x y z
#    x 1.689920 0.000000 0.015820 
#    y 0.000000 1.630450 0.000000 
#    z 0.015820 0.000000 1.746830 
# 
# From -- ./inp_files/67048.got.cif
#   From: 2010.05.17/outbox.cif.g08.bks.cpg/sg11_34_cif.got.tgz:67048.got - 2010.06.03 12:22:45.
