data_PCOD9161707
_publ_section_title
;
Structure prediction by ZEFSAII (Michael W. Deem and Ramdas Pophale) SiO2 
 PCOD9161707
Probable space group: P 21/M
;
_chemical_formula_sum "Si O2"
_cell_formula_units_Z 28
_cell_length_a 19.203465
_cell_length_b 8.706286
_cell_length_c 19.250452
_cell_angle_alpha 90.000000
_cell_angle_beta 150.236041
_cell_angle_gamma 90.000000
_cell_volume 1597.753345
_symmetry_space_group_name_H-M "P 21/M"
_symmetry_group_IT_number 11
_symmetry_cell_setting 'monoclinic'
loop_
_space_group_symop_operation_xyz
x,y,z
-x,1/2+y,-z
-x,-y,-z
x,1/2-y,z
loop_
_atom_site_type_symbol
_atom_site_label
_atom_site_fract_x
_atom_site_fract_y
_atom_site_fract_z
Si Si1 0.520538 0.565295 0.303283
Si Si2 0.868687 0.434989 0.927894
Si Si3 0.083343 0.434362 0.737091
Si Si4 0.154770 0.434724 0.650201
Si Si5 0.234083 0.565497 0.579280
Si Si6 0.433499 0.433820 0.372495
Si Si7 0.791202 0.434001 0.013831
O O1 0.525479 0.750000 0.312999
O O2 0.648163 0.503520 0.368356
O O3 0.516764 0.493830 0.376895
O O4 0.371586 0.522318 0.138829
O O5 0.864202 0.250000 0.919641
O O6 0.724293 0.502689 0.772881
O O7 0.870757 0.478182 0.011482
O O8 0.000000 0.500000 0.000000
O O9 0.083076 0.250000 0.739961
O O10 0.175632 0.477856 0.749041
O O11 0.142741 0.497871 0.859891
O O12 0.921687 0.481585 0.582498
O O13 0.154400 0.250000 0.644546
O O14 0.249599 0.504703 0.671661
O O15 0.000000 0.500000 0.500000
O O16 0.240089 0.750000 0.584577
O O17 0.500000 0.500000 0.500000
O O18 0.432938 0.250000 0.373238
O O19 0.796330 0.250000 0.023234
#
# Coordination Sequence:
#
# PCOD9161707 Si02
#       7
#     4   4   4   4   4   4   4
#     4  10  21  38  56  78 108 141 176 219 266 317
#     4  10  21  38  57  81 110 142 180 223 268 320
#     4   9  19  33  52  78 106 134 173 218 261 311
#     4   9  17  31  50  75 105 137 173 219 267 313
#     4  10  20  34  53  80 107 138 179 220 263 316
#     4  11  22  38  59  82 108 142 180 222 270 322
#     4   9  20  36  54  76 105 138 174 213 261 315
#
# _framework density 17.524608000000001
#
# number of rings (size 3 to 8) (size 9 to 14) (size 15 to 20)
#    0.000    2.286    0.000    4.714    0.000    8.000 
#    0.000    3.571    0.000    0.000    0.000    0.000 
#    0.000    0.000    0.000    0.000    0.000    0.000 
#
# Total GULP energy -156190.054361 kJ/mol
# GULP energy per Si atom -5578.216227 kJ/mol
# Density = 1.748472 g / cm^3
# Si number density = 17.524608 Si / 1000 Ang^3
#
#
#
# Elastic Constant Matrix: (Units=GPa)
#
#
# Indices 1 2 3 4 5 6 
#
# 1 204.9717 67.6341 98.9484 0.0000 -10.6897 0.0000
# 2 67.6341 80.5765 40.5658 0.0000 -6.4689 0.0000
# 3 98.9484 40.5658 86.0420 0.0000 -26.8097 0.0000
# 4 0.0000 0.0000 0.0000 31.3754 0.0000 -2.4133
# 5 -10.6897 -6.4689 -26.8097 0.0000 31.5830 0.0000
# 6 0.0000 0.0000 0.0000 -2.4133 0.0000 37.3433
#
#
#
# Elastic Compliance Matrix: (Units=1/GPa)
#
#
# Indices 1 2 3 4 5 6 
#
# 1 0.014361 -0.003754 -0.018315 0.000000 -0.011455 0.000000
# 2 -0.003754 0.017700 -0.004479 0.000000 -0.001448 0.000000
# 3 -0.018315 -0.004479 0.044295 0.000000 0.030484 0.000000
# 4 0.000000 0.000000 0.000000 0.032031 0.000000 0.002070
# 5 -0.011455 -0.001448 0.030484 0.000000 0.053366 0.000000
# 6 0.000000 0.000000 0.000000 0.002070 0.000000 0.026912
#
#
# Mechanical properties :
#
#
# Convention : Reuss Voigt Hill
#
# Bulk Modulus (GPa) = 42.99170 87.32076 65.15623
# Shear Modulus (GPa) = 20.03872 31.02312 25.53092
#
# Velocity S-wave (km/s) = 3.38518 4.21201 3.82103
# Velocity P-wave (km/s) = 6.31385 8.57848 7.53177
#
# Compressibility (1/GPa) = 0.02326030
#
# Stress axis : x y z
#
# Youngs Moduli (GPa) = 69.63089 56.49660 22.57571
#
# Poissons Ratio (x) = 0.21206 0.41348
# Poissons Ratio (y) = 0.26136 0.10113
# Poissons Ratio (z) = 1.27531 0.25307
#
# Static dielectric constant tensor:
#      x y z
#    x 1.645430 0.000000 0.039920 
#    y 0.000000 1.585860 0.000000 
#    z 0.039920 0.000000 1.632530 
# 
# From -- ./inp_files/28227.got.cif
#   From: 2010.05.17/outbox.cif.g08.bks.cpg/sg11_15_cif.got.tgz:28227.got - 2010.06.03 12:22:45.
