data_PCOD9161942
_publ_section_title
;
Structure prediction by ZEFSAII (Michael W. Deem and Ramdas Pophale) SiO2 
 PCOD9161942
Probable space group: P 21/M
;
_chemical_formula_sum "Si O2"
_cell_formula_units_Z 24
_cell_length_a 21.638789
_cell_length_b 9.604193
_cell_length_c 5.575101
_cell_angle_alpha 90.000000
_cell_angle_beta 103.292550
_cell_angle_gamma 90.000000
_cell_volume 1127.593562
_symmetry_space_group_name_H-M "P 21/M"
_symmetry_group_IT_number 11
_symmetry_cell_setting 'monoclinic'
loop_
_space_group_symop_operation_xyz
x,y,z
-x,1/2+y,-z
-x,-y,-z
x,1/2-y,z
loop_
_atom_site_type_symbol
_atom_site_label
_atom_site_fract_x
_atom_site_fract_y
_atom_site_fract_z
Si Si1 0.933756 0.079720 0.909829
Si Si2 0.747763 0.095171 0.531834
Si Si3 0.378129 0.904570 0.869723
Si Si4 0.319252 0.095332 0.210798
Si Si5 0.452195 0.407973 0.616081
Si Si6 0.867351 0.416124 0.346350
O O1 0.940503 0.250000 0.917467
O O2 0.891366 0.037191 0.105965
O O3 0.904798 0.039334 0.622893
O O4 0.000000 0.000000 0.000000
O O5 0.767895 0.250000 0.644714
O O6 0.675314 0.109785 0.382469
O O7 0.794070 0.059928 0.353160
O O8 0.741658 0.967218 0.707277
O O9 0.399306 0.750000 0.952927
O O10 0.434380 0.003967 0.835191
O O11 0.339903 0.980449 0.041248
O O12 0.307145 0.250000 0.100840
O O13 0.383382 0.106562 0.427209
O O14 0.500000 0.500000 0.500000
O O15 0.474971 0.250000 0.674484
O O16 0.875243 0.250000 0.344071
#
# Coordination Sequence:
#
# PCOD9161942 Si02
#       6
#     4   4   4   4   4   4
#     4  10  20  36  57  83 115 153 192 238 287 340
#     4   9  19  35  56  81 106 139 185 232 274 331
#     4  10  20  34  56  81 106 140 182 227 277 335
#     4  10  21  36  54  78 110 144 175 222 285 338
#     4  10  21  37  55  76 106 141 182 229 278 336
#     4   9  19  34  58  85 112 149 195 240 287 338
#
# _framework density 21.284265999999999
#
# number of rings (size 3 to 8) (size 9 to 14) (size 15 to 20)
#    0.000    2.333    0.000    2.000    2.333    3.333 
#    0.000    1.667    0.000    0.000    0.000    0.000 
#    0.000    0.000    0.000    0.000    0.000    0.000 
#
# Total GULP energy -133709.390823 kJ/mol
# GULP energy per Si atom -5571.224618 kJ/mol
# Density = 2.123582 g / cm^3
# Si number density = 21.284266 Si / 1000 Ang^3
#
#
#
# Elastic Constant Matrix: (Units=GPa)
#
#
# Indices 1 2 3 4 5 6 
#
# 1 92.2905 27.9460 21.5006 0.0000 -16.4485 0.0000
# 2 27.9460 133.7890 26.9283 0.0000 -18.2106 0.0000
# 3 21.5006 26.9283 63.7603 0.0000 -17.1344 0.0000
# 4 0.0000 0.0000 0.0000 19.8539 0.0000 -7.8725
# 5 -16.4485 -18.2106 -17.1344 0.0000 44.5836 0.0000
# 6 0.0000 0.0000 0.0000 -7.8725 0.0000 24.7912
#
#
#
# Elastic Compliance Matrix: (Units=1/GPa)
#
#
# Indices 1 2 3 4 5 6 
#
# 1 0.012490 -0.001667 -0.002735 0.000000 0.002876 0.000000
# 2 -0.001667 0.008597 -0.002554 0.000000 0.001915 0.000000
# 3 -0.002735 -0.002554 0.019106 0.000000 0.005291 0.000000
# 4 0.000000 0.000000 0.000000 0.057624 0.000000 0.018299
# 5 0.002876 0.001915 0.005291 0.000000 0.026306 0.000000
# 6 0.000000 0.000000 0.000000 0.018299 0.000000 0.046148
#
#
# Mechanical properties :
#
#
# Convention : Reuss Voigt Hill
#
# Bulk Modulus (GPa) = 38.04931 49.17661 43.61296
# Shear Modulus (GPa) = 25.91422 32.07673 28.99547
#
# Velocity S-wave (km/s) = 3.49310 3.88630 3.69493
# Velocity P-wave (km/s) = 5.84675 6.57971 6.22403
#
# Compressibility (1/GPa) = 0.02628169
#
# Stress axis : x y z
#
# Youngs Moduli (GPa) = 80.06527 116.31384 52.33827
#
# Poissons Ratio (x) = 0.19389 0.14313
# Poissons Ratio (y) = 0.13347 0.13369
# Poissons Ratio (z) = 0.21896 0.29710
#
# Static dielectric constant tensor:
#      x y z
#    x 1.783520 0.000000 0.039830 
#    y 0.000000 1.783110 0.000000 
#    z 0.039830 0.000000 1.881260 
# 
# From -- ./inp_files/9241.got.cif
#   From: 2010.05.17/outbox.cif.g08.bks.cpg/sg11_5_cif.got.tgz:9241.got - 2010.06.03 12:22:45.
