data_PCOD9161158
_publ_section_title
;
Structure prediction by ZEFSAII (Michael W. Deem and Ramdas Pophale) SiO2 
 PCOD9161158
Probable space group: P 21/M
;
_chemical_formula_sum "Si O2"
_cell_formula_units_Z 32
_cell_length_a 21.272600
_cell_length_b 7.436536
_cell_length_c 28.738509
_cell_angle_alpha 90.000000
_cell_angle_beta 18.275743
_cell_angle_gamma 90.000000
_cell_volume 1425.667842
_symmetry_space_group_name_H-M "P 21/M"
_symmetry_group_IT_number 11
_symmetry_cell_setting 'monoclinic'
loop_
_space_group_symop_operation_xyz
x,y,z
-x,1/2+y,-z
-x,-y,-z
x,1/2-y,z
loop_
_atom_site_type_symbol
_atom_site_label
_atom_site_fract_x
_atom_site_fract_y
_atom_site_fract_z
Si Si1 0.324631 0.962494 0.160351
Si Si2 0.411900 0.528767 0.363865
Si Si3 0.014922 0.044655 0.303855
Si Si4 0.604173 0.546793 0.139123
Si Si5 0.382024 0.030905 0.691818
Si Si6 0.643723 0.529146 0.007198
Si Si7 0.315189 0.537789 0.595397
Si Si8 0.023067 0.455165 0.878679
O O1 0.288029 0.750000 0.189440
O O2 0.132568 0.045496 0.270481
O O3 0.432305 0.023825 0.131950
O O4 0.500000 0.000000 0.000000
O O5 0.407907 0.750000 0.365229
O O6 0.453043 0.464336 0.282758
O O7 0.589373 0.479544 0.275006
O O8 0.201653 0.465659 0.532964
O O9 0.978051 0.250000 0.314572
O O10 0.167662 0.967905 0.157447
O O11 0.534100 0.750000 0.179120
O O12 0.644688 0.467620 0.059770
O O13 0.814786 0.552760 0.018399
O O14 0.377676 0.250000 0.691431
O O15 0.587623 0.974703 0.520973
O O16 0.186249 0.969555 0.800818
O O17 0.652584 0.750000 0.999134
O O18 0.500000 0.500000 0.500000
O O19 0.274839 0.750000 0.620237
O O20 0.129071 0.456240 0.753278
O O21 0.981119 0.250000 0.921282
#
# Coordination Sequence:
#
# PCOD9161158 Si02
#       8
#     4   4   4   4   4   4   4   4
#     4   9  16  30  52  77 104 130 162 201 245 297
#     4   9  18  32  51  74 100 132 173 211 245 300
#     4   9  17  31  53  77 101 130 164 204 250 297
#     4  10  20  34  52  74  98 131 176 215 248 296
#     4   8  16  30  49  71  97 131 167 207 254 301
#     4   8  16  30  51  76  99 128 164 202 245 297
#     4   9  16  28  49  73  98 125 159 206 257 303
#     4  10  20  33  48  70 101 134 171 213 261 304
#
# _framework density 22.445620999999999
#
# number of rings (size 3 to 8) (size 9 to 14) (size 15 to 20)
#    0.000    3.000    0.000    2.625    1.750    0.500 
#    0.000    4.375    0.000    5.250    0.000    0.000 
#    0.000    0.000    0.000    0.000    0.000    0.000 
#
# Total GULP energy -178328.649737 kJ/mol
# GULP energy per Si atom -5572.770304 kJ/mol
# Density = 2.239453 g / cm^3
# Si number density = 22.445621 Si / 1000 Ang^3
#
#
#
# Elastic Constant Matrix: (Units=GPa)
#
#
# Indices 1 2 3 4 5 6 
#
# 1 152.6687 0.5993 70.4852 0.0000 14.5208 0.0000
# 2 0.5993 72.7912 -1.5204 0.0000 3.1450 0.0000
# 3 70.4852 -1.5204 59.1239 0.0000 15.2636 0.0000
# 4 0.0000 0.0000 0.0000 2.0609 0.0000 -7.4934
# 5 14.5208 3.1450 15.2636 0.0000 31.2258 0.0000
# 6 0.0000 0.0000 0.0000 -7.4934 0.0000 7.6456
#
#
#
# Elastic Compliance Matrix: (Units=1/GPa)
#
#
# Indices 1 2 3 4 5 6 
#
# 1 0.014700 -0.000587 -0.018071 0.000000 0.002057 0.000000
# 2 -0.000587 0.013856 0.001541 0.000000 -0.001876 0.000000
# 3 -0.018071 0.001541 0.041619 0.000000 -0.012096 0.000000
# 4 0.000000 0.000000 0.000000 -0.189275 0.000000 -0.185507
# 5 0.002057 -0.001876 -0.012096 0.000000 0.037170 0.000000
# 6 0.000000 0.000000 0.000000 -0.185507 0.000000 -0.051019
#
#
# Mechanical properties :
#
#
# Convention : Reuss Voigt Hill
#
# Bulk Modulus (GPa) = 27.82386 47.07912 37.45149
# Shear Modulus (GPa) = -57.64671 22.52111 -17.56280
#
# Velocity S-wave (km/s) = -5.07332 3.17103 -2.80028
# Velocity P-wave (km/s) = 4.67922 5.86749 2.50324
#
# Compressibility (1/GPa) = 0.03594038
#
# Stress axis : x y z
#
# Youngs Moduli (GPa) = 68.02831 72.17103 24.02752
#
# Poissons Ratio (x) = 0.04239 0.43419
# Poissons Ratio (y) = 0.03995 -0.03702
# Poissons Ratio (z) = 1.22931 -0.11119
#
# Static dielectric constant tensor:
#      x y z
#    x 1.865590 0.000000 0.016860 
#    y 0.000000 1.833010 0.000000 
#    z 0.016860 0.000000 1.824090 
# 
# From -- ./inp_files/72032.got.cif
#   From: 2010.05.17/outbox.cif.g08.bks.cpg/sg11_37_cif.got.tgz:72032.got - 2010.06.03 12:22:45.
