data_PCOD9161198
_publ_section_title
;
Structure prediction by ZEFSAII (Michael W. Deem and Ramdas Pophale) SiO2 
 PCOD9161198
Probable space group: P 21/M
;
_chemical_formula_sum "Si O2"
_cell_formula_units_Z 32
_cell_length_a 27.466731
_cell_length_b 7.994618
_cell_length_c 21.867285
_cell_angle_alpha 90.000000
_cell_angle_beta 20.809194
_cell_angle_gamma 90.000000
_cell_volume 1705.855177
_symmetry_space_group_name_H-M "P 21/M"
_symmetry_group_IT_number 11
_symmetry_cell_setting 'monoclinic'
loop_
_space_group_symop_operation_xyz
x,y,z
-x,1/2+y,-z
-x,-y,-z
x,1/2-y,z
loop_
_atom_site_type_symbol
_atom_site_label
_atom_site_fract_x
_atom_site_fract_y
_atom_site_fract_z
Si Si1 0.226615 0.545195 0.449717
Si Si2 0.518654 0.547969 0.159791
Si Si3 0.595788 0.045675 0.577996
Si Si4 0.890382 0.453537 0.285280
Si Si5 0.594324 0.053318 0.444954
Si Si6 0.903786 0.950336 0.056381
Si Si7 0.902843 0.050344 0.524394
Si Si8 0.188120 0.949151 0.236127
O O1 0.225699 0.750000 0.450414
O O2 0.383071 0.494655 0.281161
O O3 0.133516 0.492321 0.616893
O O4 0.167777 0.484817 0.454268
O O5 0.518231 0.750000 0.160309
O O6 0.495596 0.491470 0.257081
O O7 0.661362 0.490573 0.964339
O O8 0.591862 0.250000 0.582459
O O9 0.752610 0.999675 0.410075
O O10 0.559728 0.981649 0.552947
O O11 0.894071 0.250000 0.281688
O O12 0.021943 0.511256 0.092942
O O13 0.577385 0.250000 0.470831
O O14 0.500000 0.000000 0.500000
O O15 0.752132 0.016673 0.244711
O O16 0.896616 0.750000 0.062363
O O17 0.000000 0.000000 0.000000
O O18 0.882231 0.250000 0.548099
O O19 0.838304 0.984862 0.663765
O O20 0.065113 0.017636 0.338612
O O21 0.171958 0.750000 0.256681
#
# Coordination Sequence:
#
# PCOD9161198 Si02
#       8
#     4   4   4   4   4   4   4   4
#     4   8  15  30  54  79  99 124 170 219 248 287
#     4   9  17  32  56  79  97 127 173 213 249 302
#     4   8  15  31  54  75  98 132 172 211 249 301
#     4   8  14  28  52  79 101 125 165 215 256 296
#     4  11  22  38  55  76 107 140 177 221 267 315
#     4  11  20  33  56  82 106 138 177 219 264 313
#     4   9  18  34  54  74  99 135 174 209 247 298
#     4  10  20  33  49  73 107 139 167 204 253 305
#
# _framework density 18.75892
#
# number of rings (size 3 to 8) (size 9 to 14) (size 15 to 20)
#    0.000    2.750    1.250    2.625    0.000    1.000 
#    2.250    1.875    0.000    0.750    0.000    0.000 
#    0.000    0.000    0.000    0.000    0.000    0.000 
#
# Total GULP energy -178390.860272 kJ/mol
# GULP energy per Si atom -5574.714383 kJ/mol
# Density = 1.871622 g / cm^3
# Si number density = 18.758920 Si / 1000 Ang^3
#
#
#
# Elastic Constant Matrix: (Units=GPa)
#
#
# Indices 1 2 3 4 5 6 
#
# 1 176.8061 7.7147 86.8101 0.0000 2.2514 0.0000
# 2 7.7147 10.2915 -10.4408 0.0000 1.8726 0.0000
# 3 86.8101 -10.4408 108.6405 0.0000 7.9353 0.0000
# 4 0.0000 0.0000 0.0000 25.1334 0.0000 -2.4265
# 5 2.2514 1.8726 7.9353 0.0000 18.6550 0.0000
# 6 0.0000 0.0000 0.0000 -2.4265 0.0000 17.8785
#
#
#
# Elastic Compliance Matrix: (Units=1/GPa)
#
#
# Indices 1 2 3 4 5 6 
#
# 1 0.013269 -0.024818 -0.013471 0.000000 0.006620 0.000000
# 2 -0.024818 0.158730 0.037186 0.000000 -0.028757 0.000000
# 3 -0.013471 0.037186 0.024456 0.000000 -0.012510 0.000000
# 4 0.000000 0.000000 0.000000 0.040316 0.000000 0.005472
# 5 0.006620 -0.028757 -0.012510 0.000000 0.061014 0.000000
# 6 0.000000 0.000000 0.000000 0.005472 0.000000 0.056676
#
#
# Mechanical properties :
#
#
# Convention : Reuss Voigt Hill
#
# Bulk Modulus (GPa) = 5.14804 51.54512 28.34658
# Shear Modulus (GPa) = 11.86476 26.44365 19.15420
#
# Velocity S-wave (km/s) = 2.51766 3.75861 3.19889
# Velocity P-wave (km/s) = 3.34690 6.80981 5.36541
#
# Compressibility (1/GPa) = 0.19424879
#
# Stress axis : x y z
#
# Youngs Moduli (GPa) = 75.36551 6.30002 40.88926
#
# Poissons Ratio (x) = 0.15635 0.55082
# Poissons Ratio (y) = 1.87039 -1.52050
# Poissons Ratio (z) = 1.01525 -0.23427
#
# Static dielectric constant tensor:
#      x y z
#    x 1.664570 0.000000 0.037800 
#    y 0.000000 1.668840 0.000000 
#    z 0.037800 0.000000 1.628900 
# 
# From -- ./inp_files/67055.got.cif
#   From: 2010.05.17/outbox.cif.g08.bks.cpg/sg11_34_cif.got.tgz:67055.got - 2010.06.03 12:22:45.
