data_PCOD9161740
_publ_section_title
;
Structure prediction by ZEFSAII (Michael W. Deem and Ramdas Pophale) SiO2 
 PCOD9161740
Probable space group: P 21/M
;
_chemical_formula_sum "Si O2"
_cell_formula_units_Z 32
_cell_length_a 16.962231
_cell_length_b 8.095589
_cell_length_c 11.782083
_cell_angle_alpha 90.000000
_cell_angle_beta 87.472130
_cell_angle_gamma 90.000000
_cell_volume 1616.332401
_symmetry_space_group_name_H-M "P 21/M"
_symmetry_group_IT_number 11
_symmetry_cell_setting 'monoclinic'
loop_
_space_group_symop_operation_xyz
x,y,z
-x,1/2+y,-z
-x,-y,-z
x,1/2-y,z
loop_
_atom_site_type_symbol
_atom_site_label
_atom_site_fract_x
_atom_site_fract_y
_atom_site_fract_z
Si Si1 0.272446 0.447287 0.670244
Si Si2 0.669122 0.948861 0.723146
Si Si3 0.044801 0.948113 0.324325
Si Si4 0.413686 0.052943 0.042277
Si Si5 0.115632 0.450777 0.559071
Si Si6 0.740927 0.056390 0.073534
Si Si7 0.824097 0.448513 0.845127
Si Si8 0.408994 0.050524 0.506347
O O1 0.273421 0.250000 0.656244
O O2 0.199854 0.509903 0.598418
O O3 0.255522 0.481703 0.802236
O O4 0.356533 0.508016 0.616779
O O5 0.676419 0.750000 0.717374
O O6 0.606730 0.990749 0.826325
O O7 0.636930 0.006740 0.604255
O O8 0.752911 0.014680 0.761942
O O9 0.040816 0.750000 0.314211
O O10 0.094709 0.012465 0.214411
O O11 0.955744 0.006563 0.353550
O O12 0.093305 0.989519 0.435292
O O13 0.405335 0.250000 0.031139
O O14 0.500000 0.000000 0.000000
O O15 0.346862 0.969794 0.969754
O O16 0.115824 0.250000 0.556675
O O17 0.756938 0.250000 0.083560
O O18 0.797837 0.986548 0.970461
O O19 0.829324 0.250000 0.854441
O O20 0.408664 0.250000 0.504909
O O21 0.500000 0.000000 0.500000
#
# Coordination Sequence:
#
# PCOD9161740 Si02
#       8
#     4   4   4   4   4   4   4   4
#     4  10  21  37  54  74 105 141 176 214 262 316
#     4   9  19  35  53  74 101 131 168 210 255 309
#     4   9  17  31  54  82 110 136 171 216 260 310
#     4  10  20  34  54  78 103 131 169 217 264 311
#     4   9  18  33  54  80 109 141 172 210 262 315
#     4  10  21  36  53  74 102 140 180 218 261 309
#     4   9  18  33  53  78 105 134 171 214 260 304
#     4  10  22  37  52  74 101 132 169 211 258 310
#
# _framework density 19.797908
#
# number of rings (size 3 to 8) (size 9 to 14) (size 15 to 20)
#    0.000    2.500    0.000    1.500    1.750    4.000 
#    0.000    0.625    0.000    0.000    0.000    0.000 
#    0.000    0.000    0.000    0.000    0.000    0.000 
#
# Total GULP energy -178513.145241 kJ/mol
# GULP energy per Si atom -5578.535789 kJ/mol
# Density = 1.975285 g / cm^3
# Si number density = 19.797908 Si / 1000 Ang^3
#
#
#
# Elastic Constant Matrix: (Units=GPa)
#
#
# Indices 1 2 3 4 5 6 
#
# 1 104.8394 9.5387 47.3128 0.0000 -32.6152 0.0000
# 2 9.5387 9.0356 7.6181 0.0000 -4.4195 0.0000
# 3 47.3128 7.6181 72.5197 0.0000 -13.2575 0.0000
# 4 0.0000 0.0000 0.0000 21.4591 0.0000 1.7846
# 5 -32.6152 -4.4195 -13.2575 0.0000 30.9130 0.0000
# 6 0.0000 0.0000 0.0000 1.7846 0.0000 18.3503
#
#
#
# Elastic Compliance Matrix: (Units=1/GPa)
#
#
# Indices 1 2 3 4 5 6 
#
# 1 0.018764 -0.004795 -0.008945 0.000000 0.015275 0.000000
# 2 -0.004795 0.127589 -0.008534 0.000000 0.009522 0.000000
# 3 -0.008945 -0.008534 0.020154 0.000000 -0.002015 0.000000
# 4 0.000000 0.000000 0.000000 0.046980 0.000000 -0.004569
# 5 0.015275 0.009522 -0.002015 0.000000 0.048962 0.000000
# 6 0.000000 0.000000 0.000000 -0.004569 0.000000 0.054939
#
#
# Mechanical properties :
#
#
# Convention : Reuss Voigt Hill
#
# Bulk Modulus (GPa) = 8.19961 35.03711 21.61836
# Shear Modulus (GPa) = 12.41962 22.27280 17.34621
#
# Velocity S-wave (km/s) = 2.50735 3.35775 2.96322
# Velocity P-wave (km/s) = 3.54021 5.72437 4.75928
#
# Compressibility (1/GPa) = 0.12195696
#
# Stress axis : x y z
#
# Youngs Moduli (GPa) = 53.29461 7.83770 49.61885
#
# Poissons Ratio (x) = 0.03758 0.44386
# Poissons Ratio (y) = 0.25554 0.42345
# Poissons Ratio (z) = 0.47675 0.06689
#
# Static dielectric constant tensor:
#      x y z
#    x 1.692830 0.000000 -0.042150 
#    y 0.000000 1.703390 0.000000 
#    z -0.042150 0.000000 1.698580 
# 
# From -- ./inp_files/38253.got.cif
#   From: 2010.05.17/outbox.cif.g08.bks.cpg/sg11_20_cif.got.tgz:38253.got - 2010.06.03 12:22:45.
