data_PCOD9161711
_publ_section_title
;
Structure prediction by ZEFSAII (Michael W. Deem and Ramdas Pophale) SiO2 
 PCOD9161711
Probable space group: P 21/M
;
_chemical_formula_sum "Si O2"
_cell_formula_units_Z 32
_cell_length_a 10.137435
_cell_length_b 13.576831
_cell_length_c 14.618493
_cell_angle_alpha 90.000000
_cell_angle_beta 60.659072
_cell_angle_gamma 90.000000
_cell_volume 1753.904107
_symmetry_space_group_name_H-M "P 21/M"
_symmetry_group_IT_number 11
_symmetry_cell_setting 'monoclinic'
loop_
_space_group_symop_operation_xyz
x,y,z
-x,1/2+y,-z
-x,-y,-z
x,1/2-y,z
loop_
_atom_site_type_symbol
_atom_site_label
_atom_site_fract_x
_atom_site_fract_y
_atom_site_fract_z
Si Si1 0.271453 0.637969 0.069559
Si Si2 0.248248 0.363636 0.307948
Si Si3 0.825030 0.028403 0.543312
Si Si4 0.080880 0.867759 0.664087
Si Si5 0.957187 0.860497 0.076403
Si Si6 0.369656 0.636786 0.243305
Si Si7 0.445822 0.551330 0.851018
Si Si8 0.158934 0.570182 0.842213
O O1 0.322709 0.750000 0.028552
O O2 0.294763 0.624652 0.168756
O O3 0.096953 0.632502 0.099953
O O4 0.363475 0.561053 0.976583
O O5 0.240832 0.250000 0.333503
O O6 0.257211 0.428504 0.397199
O O7 0.397334 0.389625 0.200689
O O8 0.095525 0.387704 0.302726
O O9 0.820005 0.073040 0.444094
O O10 0.753579 0.106538 0.638573
O O11 0.000000 0.000000 0.500000
O O12 0.103439 0.750000 0.647809
O O13 0.121528 0.901937 0.751810
O O14 0.893029 0.750000 0.101666
O O15 0.853192 0.953070 0.134553
O O16 0.035921 0.879469 0.951181
O O17 0.416088 0.750000 0.238904
O O18 0.506018 0.558406 0.195327
O O19 0.326011 0.597849 0.820552
#
# Coordination Sequence:
#
# PCOD9161711 Si02
#       8
#     4   4   4   4   4   4   4   4
#     4   9  18  32  54  81 107 142 182 221 272 327
#     4   9  19  35  56  81 112 142 178 227 274 320
#     4   9  19  34  55  80 107 140 176 231 274 315
#     4  10  20  36  58  83 106 140 188 230 269 320
#     4   9  19  35  53  77 110 145 182 226 272 321
#     4  10  20  34  53  80 111 145 181 222 277 327
#     4  10  20  35  54  80 113 147 177 221 268 327
#     4  10  21  35  56  79 108 146 184 224 270 322
#
# _framework density 18.245011000000002
#
# number of rings (size 3 to 8) (size 9 to 14) (size 15 to 20)
#    0.000    2.500    0.000    1.500    5.250    2.500 
#    2.250    3.125    0.000    1.500    0.000    0.000 
#    0.000    0.000    0.000    0.000    0.000    0.000 
#
# Total GULP energy -178317.872327 kJ/mol
# GULP energy per Si atom -5572.433510 kJ/mol
# Density = 1.820349 g / cm^3
# Si number density = 18.245011 Si / 1000 Ang^3
#
#
#
# Elastic Constant Matrix: (Units=GPa)
#
#
# Indices 1 2 3 4 5 6 
#
# 1 55.1700 15.8382 37.3560 0.0000 17.9707 0.0000
# 2 15.8382 63.9566 6.6125 0.0000 7.2376 0.0000
# 3 37.3560 6.6125 56.4016 0.0000 16.2856 0.0000
# 4 0.0000 0.0000 0.0000 18.6997 0.0000 1.1656
# 5 17.9707 7.2376 16.2856 0.0000 26.1715 0.0000
# 6 0.0000 0.0000 0.0000 1.1656 0.0000 18.8946
#
#
#
# Elastic Compliance Matrix: (Units=1/GPa)
#
#
# Indices 1 2 3 4 5 6 
#
# 1 0.037720 -0.005900 -0.021069 0.000000 -0.011158 0.000000
# 2 -0.005900 0.017089 0.002559 0.000000 -0.002267 0.000000
# 3 -0.021069 0.002559 0.033416 0.000000 -0.007034 0.000000
# 4 0.000000 0.000000 0.000000 0.053683 0.000000 -0.003312
# 5 -0.011158 -0.002267 -0.007034 0.000000 0.050875 0.000000
# 6 0.000000 0.000000 0.000000 -0.003312 0.000000 0.053129
#
#
# Mechanical properties :
#
#
# Convention : Reuss Voigt Hill
#
# Bulk Modulus (GPa) = 25.37851 32.79352 29.08602
# Shear Modulus (GPa) = 16.24070 20.46793 18.35432
#
# Velocity S-wave (km/s) = 2.98677 3.35302 3.17518
# Velocity P-wave (km/s) = 5.08276 5.74485 5.42391
#
# Compressibility (1/GPa) = 0.03940341
#
# Stress axis : x y z
#
# Youngs Moduli (GPa) = 26.51080 58.51839 29.92605
#
# Poissons Ratio (x) = 0.34526 0.63053
# Poissons Ratio (y) = 0.15641 -0.07657
# Poissons Ratio (z) = 0.55857 -0.14973
#
# Static dielectric constant tensor:
#      x y z
#    x 1.614070 0.000000 -0.001540 
#    y 0.000000 1.669680 0.000000 
#    z -0.001540 0.000000 1.634400 
# 
# From -- ./inp_files/47612.got.cif
#   From: 2010.05.17/outbox.cif.g08.bks.cpg/sg11_24_cif.got.tgz:47612.got - 2010.06.03 12:22:45.
