data_PCOD9161475
_publ_section_title
;
Structure prediction by ZEFSAII (Michael W. Deem and Ramdas Pophale) SiO2 
 PCOD9161475
Probable space group: P 21/M
;
_chemical_formula_sum "Si O2"
_cell_formula_units_Z 32
_cell_length_a 20.324724
_cell_length_b 10.484553
_cell_length_c 11.612522
_cell_angle_alpha 90.000000
_cell_angle_beta 44.862608
_cell_angle_gamma 90.000000
_cell_volume 1745.589873
_symmetry_space_group_name_H-M "P 21/M"
_symmetry_group_IT_number 11
_symmetry_cell_setting 'monoclinic'
loop_
_space_group_symop_operation_xyz
x,y,z
-x,1/2+y,-z
-x,-y,-z
x,1/2-y,z
loop_
_atom_site_type_symbol
_atom_site_label
_atom_site_fract_x
_atom_site_fract_y
_atom_site_fract_z
Si Si1 0.939978 0.392321 0.012148
Si Si2 0.332097 0.598168 0.223814
Si Si3 0.057695 0.973040 0.253616
Si Si4 0.594878 0.097309 0.615966
Si Si5 0.240132 0.390671 0.980937
Si Si6 0.597980 0.602384 0.038245
Si Si7 0.726012 0.099695 0.251153
Si Si8 0.118136 0.893296 0.425407
O O1 0.970056 0.250000 0.009033
O O2 0.946709 0.405331 0.864678
O O3 0.829986 0.406606 0.176551
O O4 0.000000 0.500000 0.000000
O O5 0.352334 0.750000 0.180450
O O6 0.350595 0.567389 0.334163
O O7 0.224552 0.576520 0.323514
O O8 0.393263 0.502301 0.071730
O O9 0.100711 0.898905 0.309575
O O10 0.955918 0.016230 0.420542
O O11 0.131674 0.087768 0.144899
O O12 0.598040 0.250000 0.600364
O O13 0.487122 0.064813 0.771714
O O14 0.648605 0.051051 0.436787
O O15 0.253111 0.250000 0.912189
O O16 0.305586 0.396565 0.011305
O O17 0.270167 0.506637 0.862156
O O18 0.580507 0.750000 0.020747
O O19 0.711197 0.250000 0.239528
O O20 0.099714 0.750000 0.488983
#
# Coordination Sequence:
#
# PCOD9161475 Si02
#       8
#     4   4   4   4   4   4   4   4
#     4  10  22  37  57  81 111 147 184 224 269 324
#     4  10  20  35  57  83 108 142 185 227 267 321
#     4  10  20  36  54  79 114 145 181 220 275 319
#     4   9  19  36  58  80 109 142 182 227 270 320
#     4  10  20  35  55  80 113 145 179 222 274 325
#     4  10  20  36  56  81 111 145 177 220 280 329
#     4   9  20  38  58  79 106 144 185 225 268 316
#     4  10  20  33  56  83 108 142 186 227 266 320
#
# _framework density 18.331911999999999
#
# number of rings (size 3 to 8) (size 9 to 14) (size 15 to 20)
#    0.000    2.250    1.250    1.125    1.750    4.000 
#    0.000    1.875    0.000    0.000    0.000    0.000 
#    0.000    0.000    0.000    0.000    0.000    0.000 
#
# Total GULP energy -178336.786525 kJ/mol
# GULP energy per Si atom -5573.024579 kJ/mol
# Density = 1.829019 g / cm^3
# Si number density = 18.331912 Si / 1000 Ang^3
#
#
#
# Elastic Constant Matrix: (Units=GPa)
#
#
# Indices 1 2 3 4 5 6 
#
# 1 42.4851 18.5516 2.1877 0.0000 -6.8740 0.0000
# 2 18.5516 76.0238 26.3650 0.0000 -0.8868 0.0000
# 3 2.1877 26.3650 72.9007 0.0000 4.8187 0.0000
# 4 0.0000 0.0000 0.0000 11.0078 0.0000 -7.5069
# 5 -6.8740 -0.8868 4.8187 0.0000 17.2773 0.0000
# 6 0.0000 0.0000 0.0000 -7.5069 0.0000 16.0597
#
#
#
# Elastic Compliance Matrix: (Units=1/GPa)
#
#
# Indices 1 2 3 4 5 6 
#
# 1 0.028322 -0.007146 0.001033 0.000000 0.010613 0.000000
# 2 -0.007146 0.016936 -0.005889 0.000000 -0.000331 0.000000
# 3 0.001033 -0.005889 0.016106 0.000000 -0.004383 0.000000
# 4 0.000000 0.000000 0.000000 0.133356 0.000000 0.062336
# 5 0.010613 -0.000331 -0.004383 0.000000 0.063308 0.000000
# 6 0.000000 0.000000 0.000000 0.062336 0.000000 0.091406
#
#
# Mechanical properties :
#
#
# Convention : Reuss Voigt Hill
#
# Bulk Modulus (GPa) = 26.76620 31.73536 29.25078
# Shear Modulus (GPa) = 12.95711 18.48932 15.72321
#
# Velocity S-wave (km/s) = 2.66147 3.17927 2.93182
# Velocity P-wave (km/s) = 4.90684 5.55213 5.23943
#
# Compressibility (1/GPa) = 0.03736056
#
# Stress axis : x y z
#
# Youngs Moduli (GPa) = 35.30841 59.04670 62.08993
#
# Poissons Ratio (x) = 0.42192 -0.06412
# Poissons Ratio (y) = 0.25230 0.36562
# Poissons Ratio (z) = -0.03647 0.34770
#
# Static dielectric constant tensor:
#      x y z
#    x 1.621680 0.000000 -0.008850 
#    y 0.000000 1.636500 0.000000 
#    z -0.008850 0.000000 1.639990 
# 
# From -- ./inp_files/43120.got.cif
#   From: 2010.05.17/outbox.cif.g08.bks.cpg/sg11_22_cif.got.tgz:43120.got - 2010.06.03 12:22:45.
