data_PCOD9161945
_publ_section_title
;
Structure prediction by ZEFSAII (Michael W. Deem and Ramdas Pophale) SiO2 
 PCOD9161945
Probable space group: P 21/M
;
_chemical_formula_sum "Si O2"
_cell_formula_units_Z 28
_cell_length_a 14.246603
_cell_length_b 8.878080
_cell_length_c 16.798697
_cell_angle_alpha 90.000000
_cell_angle_beta 47.769209
_cell_angle_gamma 90.000000
_cell_volume 1573.250579
_symmetry_space_group_name_H-M "P 21/M"
_symmetry_group_IT_number 11
_symmetry_cell_setting 'monoclinic'
loop_
_space_group_symop_operation_xyz
x,y,z
-x,1/2+y,-z
-x,-y,-z
x,1/2-y,z
loop_
_atom_site_type_symbol
_atom_site_label
_atom_site_fract_x
_atom_site_fract_y
_atom_site_fract_z
Si Si1 0.955588 0.569089 0.330425
Si Si2 0.835302 0.573376 0.677095
Si Si3 0.009171 0.431648 0.870715
Si Si4 0.731172 0.567809 0.565896
Si Si5 0.795103 0.430005 0.117351
Si Si6 0.472088 0.429702 0.767772
Si Si7 0.546896 0.927602 0.891910
O O1 0.959233 0.750000 0.328307
O O2 0.985904 0.518145 0.223643
O O3 0.816457 0.525500 0.441804
O O4 0.058945 0.512707 0.334258
O O5 0.868131 0.750000 0.656821
O O6 0.810522 0.524427 0.600188
O O7 0.698599 0.556487 0.797015
O O8 0.025986 0.250000 0.864139
O O9 0.119555 0.508887 0.859008
O O10 0.876995 0.465248 0.990914
O O11 0.715283 0.750000 0.578011
O O12 0.594297 0.492537 0.650871
O O13 0.781344 0.250000 0.130322
O O14 0.659103 0.507609 0.191637
O O15 0.473154 0.250000 0.767276
O O16 0.487392 0.492063 0.848945
O O17 0.516661 0.750000 0.906176
O O18 0.500000 0.000000 0.000000
#
# Coordination Sequence:
#
# PCOD9161945 Si02
#       7
#     4   4   4   4   4   4   4
#     4  10  20  34  56  82 109 143 183 227 276 325
#     4   9  19  33  50  76 110 146 182 221 266 318
#     4   9  20  37  56  83 110 137 178 227 275 330
#     4   9  19  37  55  77 111 147 184 227 271 322
#     4  10  20  37  59  81 109 144 178 222 280 333
#     4  11  22  36  57  81 107 145 186 225 274 328
#     4  10  21  36  52  78 113 147 185 228 270 321
#
# _framework density 17.797547000000002
#
# number of rings (size 3 to 8) (size 9 to 14) (size 15 to 20)
#    0.000    2.286    0.000    3.429    2.000    4.571 
#    0.000    0.714    0.000    0.000    0.000    0.000 
#    0.000    0.000    0.000    0.000    0.000    0.000 
#
# Total GULP energy -156286.878786 kJ/mol
# GULP energy per Si atom -5581.674242 kJ/mol
# Density = 1.775704 g / cm^3
# Si number density = 17.797547 Si / 1000 Ang^3
#
#
#
# Elastic Constant Matrix: (Units=GPa)
#
#
# Indices 1 2 3 4 5 6 
#
# 1 81.0358 36.9409 57.9441 0.0000 -21.1766 0.0000
# 2 36.9409 54.3177 39.4705 0.0000 -9.1203 0.0000
# 3 57.9441 39.4705 90.1596 0.0000 5.0529 0.0000
# 4 0.0000 0.0000 0.0000 22.7029 0.0000 -4.5875
# 5 -21.1766 -9.1203 5.0529 0.0000 17.5044 0.0000
# 6 0.0000 0.0000 0.0000 -4.5875 0.0000 33.4059
#
#
#
# Elastic Compliance Matrix: (Units=1/GPa)
#
#
# Indices 1 2 3 4 5 6 
#
# 1 0.118029 0.017949 -0.093756 0.000000 0.179206 0.000000
# 2 0.017949 0.036535 -0.030304 0.000000 0.049497 0.000000
# 3 -0.093756 -0.030304 0.093366 0.000000 -0.156166 0.000000
# 4 0.000000 0.000000 0.000000 0.045304 0.000000 0.006221
# 5 0.179206 0.049497 -0.156166 0.000000 0.344798 0.000000
# 6 0.000000 0.000000 0.000000 0.006221 0.000000 0.030789
#
#
# Mechanical properties :
#
#
# Convention : Reuss Voigt Hill
#
# Bulk Modulus (GPa) = 28.00591 54.91380 41.45986
# Shear Modulus (GPa) = 5.59944 20.79981 13.19962
#
# Velocity S-wave (km/s) = 1.77567 3.42232 2.72629
# Velocity P-wave (km/s) = 4.46923 6.82188 5.76680
#
# Compressibility (1/GPa) = 0.03570675
#
# Stress axis : x y z
#
# Youngs Moduli (GPa) = 8.47251 27.37095 10.71057
#
# Poissons Ratio (x) = -0.49127 1.00418
# Poissons Ratio (y) = -0.15207 0.32457
# Poissons Ratio (z) = 0.79435 0.82944
#
# Static dielectric constant tensor:
#      x y z
#    x 1.573190 0.000000 0.005110 
#    y 0.000000 1.592710 0.000000 
#    z 0.005110 0.000000 1.617960 
# 
# From -- ./inp_files/60084.got.cif
#   From: 2010.05.17/outbox.cif.g08.bks.cpg/sg11_31_cif.got.tgz:60084.got - 2010.06.03 12:22:45.
