data_PCOD9161407
_publ_section_title
;
Structure prediction by ZEFSAII (Michael W. Deem and Ramdas Pophale) SiO2 
 PCOD9161407
Probable space group: P 21/M
;
_chemical_formula_sum "Si O2"
_cell_formula_units_Z 32
_cell_length_a 30.255538
_cell_length_b 7.784342
_cell_length_c 12.284965
_cell_angle_alpha 90.000000
_cell_angle_beta 148.564386
_cell_angle_gamma 90.000000
_cell_volume 1508.997092
_symmetry_space_group_name_H-M "P 21/M"
_symmetry_group_IT_number 11
_symmetry_cell_setting 'monoclinic'
loop_
_space_group_symop_operation_xyz
x,y,z
-x,1/2+y,-z
-x,-y,-z
x,1/2-y,z
loop_
_atom_site_type_symbol
_atom_site_label
_atom_site_fract_x
_atom_site_fract_y
_atom_site_fract_z
Si Si1 0.543359 0.543220 0.894879
Si Si2 0.041291 0.548061 0.911412
Si Si3 0.349726 0.539335 0.500077
Si Si4 0.301215 0.544306 0.630825
Si Si5 0.923353 0.042648 0.258406
Si Si6 0.735821 0.044216 0.902651
Si Si7 0.121315 0.958894 0.307848
Si Si8 0.585473 0.954165 0.744994
O O1 0.539165 0.750000 0.880971
O O2 0.447457 0.483181 0.711816
O O3 0.576409 0.476270 0.848126
O O4 0.610211 0.497440 0.127399
O O5 0.062477 0.750000 0.952334
O O6 0.062722 0.478168 0.836743
O O7 0.942765 0.525708 0.735698
O O8 0.089294 0.481375 0.120532
O O9 0.349112 0.750000 0.497155
O O10 0.301698 0.482397 0.507528
O O11 0.306471 0.479836 0.298288
O O12 0.294298 0.750000 0.611805
O O13 0.218507 0.484039 0.521961
O O14 0.920652 0.250000 0.246645
O O15 0.832337 0.980984 0.112454
O O16 0.000000 0.000000 0.500000
O O17 0.740454 0.250000 0.903468
O O18 0.670308 0.008338 0.861420
O O19 0.116139 0.750000 0.300065
O O20 0.587576 0.750000 0.756297
O O21 0.500000 0.000000 0.500000
#
# Coordination Sequence:
#
# PCOD9161407 Si02
#       8
#     4   4   4   4   4   4   4   4
#     4  10  21  36  53  76 109 145 177 220 273 320
#     4   9  18  35  57  79 104 141 183 221 270 329
#     4   9  17  34  57  78 105 141 181 224 271 323
#     4  10  20  33  53  80 109 141 179 221 268 326
#     4  10  22  38  58  82 112 148 187 231 280 334
#     4  10  20  38  62  84 108 146 189 231 281 333
#     4   9  18  33  54  81 107 136 178 226 271 320
#     4  11  22  38  59  83 111 145 186 233 276 324
#
# _framework density 21.206136999999998
#
# number of rings (size 3 to 8) (size 9 to 14) (size 15 to 20)
#    0.000    2.250    1.250    1.500    0.000    6.500 
#    0.000    5.625    0.000    3.000    0.000    0.000 
#    0.000    0.000    0.000    0.000    0.000    0.000 
#
# Total GULP energy -178652.282306 kJ/mol
# GULP energy per Si atom -5582.883822 kJ/mol
# Density = 2.115787 g / cm^3
# Si number density = 21.206137 Si / 1000 Ang^3
#
#
#
# Elastic Constant Matrix: (Units=GPa)
#
#
# Indices 1 2 3 4 5 6 
#
# 1 100.2925 0.7473 12.4428 0.0000 22.2822 0.0000
# 2 0.7473 23.5976 -2.8619 0.0000 0.3953 0.0000
# 3 12.4428 -2.8619 55.5907 0.0000 33.3438 0.0000
# 4 0.0000 0.0000 0.0000 23.9711 0.0000 1.0203
# 5 22.2822 0.3953 33.3438 0.0000 36.5051 0.0000
# 6 0.0000 0.0000 0.0000 1.0203 0.0000 20.3510
#
#
#
# Elastic Compliance Matrix: (Units=1/GPa)
#
#
# Indices 1 2 3 4 5 6 
#
# 1 0.011878 0.000260 0.003771 0.000000 -0.010698 0.000000
# 2 0.000260 0.043146 0.005615 0.000000 -0.005755 0.000000
# 3 0.003771 0.005615 0.041693 0.000000 -0.040445 0.000000
# 4 0.000000 0.000000 0.000000 0.041806 0.000000 -0.002096
# 5 -0.010698 -0.005755 -0.040445 0.000000 0.070928 0.000000
# 6 0.000000 0.000000 0.000000 -0.002096 0.000000 0.049243
#
#
# Mechanical properties :
#
#
# Convention : Reuss Voigt Hill
#
# Bulk Modulus (GPa) = 8.62000 22.23749 15.42874
# Shear Modulus (GPa) = 17.98102 27.44227 22.71165
#
# Velocity S-wave (km/s) = 2.91506 3.60122 3.27615
# Velocity P-wave (km/s) = 3.92476 5.27265 4.64783
#
# Compressibility (1/GPa) = 0.11600932
#
# Stress axis : x y z
#
# Youngs Moduli (GPa) = 84.19141 23.17697 23.98494
#
# Poissons Ratio (x) = -0.00604 -0.09045
# Poissons Ratio (y) = -0.02193 -0.13466
# Poissons Ratio (z) = -0.31751 -0.13013
#
# Static dielectric constant tensor:
#      x y z
#    x 1.768080 0.000000 0.004120 
#    y 0.000000 1.791450 0.000000 
#    z 0.004120 0.000000 1.744740 
# 
# From -- ./inp_files/42834.got.cif
#   From: 2010.05.17/outbox.cif.g08.bks.cpg/sg11_22_cif.got.tgz:42834.got - 2010.06.03 12:22:45.
