data_PCOD9161741
_publ_section_title
;
Structure prediction by ZEFSAII (Michael W. Deem and Ramdas Pophale) SiO2 
 PCOD9161741
Probable space group: P 21/M
;
_chemical_formula_sum "Si O2"
_cell_formula_units_Z 28
_cell_length_a 24.631378
_cell_length_b 8.536967
_cell_length_c 26.820905
_cell_angle_alpha 90.000000
_cell_angle_beta 16.054977
_cell_angle_gamma 90.000000
_cell_volume 1559.748077
_symmetry_space_group_name_H-M "P 21/M"
_symmetry_group_IT_number 11
_symmetry_cell_setting 'monoclinic'
loop_
_space_group_symop_operation_xyz
x,y,z
-x,1/2+y,-z
-x,-y,-z
x,1/2-y,z
loop_
_atom_site_type_symbol
_atom_site_label
_atom_site_fract_x
_atom_site_fract_y
_atom_site_fract_z
Si Si1 0.517200 0.560408 0.132083
Si Si2 0.040211 0.061262 0.019935
Si Si3 0.652601 0.563793 0.615799
Si Si4 0.467886 0.060066 0.677371
Si Si5 0.069353 0.439592 0.281365
Si Si6 0.359772 0.938738 0.580082
Si Si7 0.907670 0.438598 0.530776
O O1 0.520164 0.750000 0.130597
O O2 0.475867 0.501771 0.224571
O O3 0.319871 0.512008 0.276210
O O4 0.723180 0.508266 0.925607
O O5 0.044607 0.250000 0.013062
O O6 0.859159 0.011734 0.213614
O O7 0.244418 0.011101 0.863713
O O8 0.000000 0.000000 0.000000
O O9 0.659135 0.750000 0.613619
O O10 0.558192 0.510739 0.647268
O O11 0.874554 0.498225 0.425009
O O12 0.475134 0.250000 0.674955
O O13 0.579975 0.011101 0.528155
O O14 0.067887 0.250000 0.281354
O O15 0.031631 0.487993 0.372289
O O16 0.371597 0.750000 0.570733
O O17 0.500000 0.000000 0.500000
O O18 0.909373 0.250000 0.530208
O O19 0.000000 0.500000 0.500000
#
# Coordination Sequence:
#
# PCOD9161741 Si02
#       7
#     4   4   4   4   4   4   4
#     4   9  19  38  61  80 106 150 195 231 271 327
#     4  10  20  34  54  78 103 133 171 212 258 313
#     4  11  23  37  55  83 114 140 177 236 290 330
#     4  10  21  37  54  76 107 144 182 218 263 330
#     4   9  19  38  61  80 106 150 195 231 271 327
#     4  10  20  34  54  78 103 133 171 212 258 313
#     4   9  18  32  52  83 118 150 186 226 272 324
#
# _framework density 17.951618
#
# number of rings (size 3 to 8) (size 9 to 14) (size 15 to 20)
#    0.000    2.286    1.429    2.143    0.000    5.714 
#    0.000    2.857    0.000    0.000    0.000    0.000 
#    0.000    0.000    0.000    0.000    0.000    0.000 
#
# Total GULP energy -156191.814395 kJ/mol
# GULP energy per Si atom -5578.279086 kJ/mol
# Density = 1.791076 g / cm^3
# Si number density = 17.951618 Si / 1000 Ang^3
#
#
#
# Elastic Constant Matrix: (Units=GPa)
#
#
# Indices 1 2 3 4 5 6 
#
# 1 184.2086 25.0944 117.1866 0.0000 -7.9416 0.0000
# 2 25.0944 11.2976 33.4743 0.0000 1.7003 0.0000
# 3 117.1866 33.4743 208.9899 0.0000 12.9711 0.0000
# 4 0.0000 0.0000 0.0000 15.3396 0.0000 -3.8278
# 5 -7.9416 1.7003 12.9711 0.0000 18.1706 0.0000
# 6 0.0000 0.0000 0.0000 -3.8278 0.0000 34.2128
#
#
#
# Elastic Compliance Matrix: (Units=1/GPa)
#
#
# Indices 1 2 3 4 5 6 
#
# 1 0.010090 -0.010202 -0.004559 0.000000 0.008619 0.000000
# 2 -0.010202 0.179014 -0.022639 0.000000 -0.005049 0.000000
# 3 -0.004559 -0.022639 0.011467 0.000000 -0.008060 0.000000
# 4 0.000000 0.000000 0.000000 0.067063 0.000000 0.007503
# 5 0.008619 -0.005049 -0.008060 0.000000 0.065027 0.000000
# 6 0.000000 0.000000 0.000000 0.007503 0.000000 0.030068
#
#
# Mechanical properties :
#
#
# Convention : Reuss Voigt Hill
#
# Bulk Modulus (GPa) = 7.95090 84.00073 45.97582
# Shear Modulus (GPa) = 10.42854 28.79399 19.61127
#
# Velocity S-wave (km/s) = 2.41285 4.00931 3.30881
# Velocity P-wave (km/s) = 3.49302 8.26603 6.34541
#
# Compressibility (1/GPa) = 0.12577187
#
# Stress axis : x y z
#
# Youngs Moduli (GPa) = 99.10763 5.58615 87.20388
#
# Poissons Ratio (x) = 0.05699 0.39752
# Poissons Ratio (y) = 1.01114 1.97419
# Poissons Ratio (z) = 0.45179 0.12646
#
# Static dielectric constant tensor:
#      x y z
#    x 1.578420 0.000000 0.009140 
#    y 0.000000 1.617150 0.000000 
#    z 0.009140 0.000000 1.623480 
# 
# From -- ./inp_files/69757.got.cif
#   From: 2010.05.17/outbox.cif.g08.bks.cpg/sg11_35_cif.got.tgz:69757.got - 2010.06.03 12:22:45.
