data_PCOD9161756
_publ_section_title
;
Structure prediction by ZEFSAII (Michael W. Deem and Ramdas Pophale) SiO2 
 PCOD9161756
Probable space group: P 21/M
;
_chemical_formula_sum "Si O2"
_cell_formula_units_Z 32
_cell_length_a 20.951963
_cell_length_b 7.562119
_cell_length_c 26.768790
_cell_angle_alpha 90.000000
_cell_angle_beta 158.635607
_cell_angle_gamma 90.000000
_cell_volume 1545.090326
_symmetry_space_group_name_H-M "P 21/M"
_symmetry_group_IT_number 11
_symmetry_cell_setting 'monoclinic'
loop_
_space_group_symop_operation_xyz
x,y,z
-x,1/2+y,-z
-x,-y,-z
x,1/2-y,z
loop_
_atom_site_type_symbol
_atom_site_label
_atom_site_fract_x
_atom_site_fract_y
_atom_site_fract_z
Si Si1 0.276530 0.465235 0.697576
Si Si2 0.145574 0.963220 0.426739
Si Si3 0.028468 0.461549 0.229180
Si Si4 0.198922 0.037951 0.159699
Si Si5 0.297689 0.037558 0.341601
Si Si6 0.459591 0.035657 0.263204
Si Si7 0.029946 0.458469 0.603658
Si Si8 0.357105 0.541164 0.075440
O O1 0.276464 0.250000 0.697765
O O2 0.187230 0.529488 0.683902
O O3 0.471971 0.529837 0.828740
O O4 0.145682 0.520194 0.557648
O O5 0.149217 0.750000 0.433448
O O6 0.342258 0.025592 0.582303
O O7 0.013450 0.031071 0.373264
O O8 0.090237 0.006859 0.330482
O O9 0.020423 0.250000 0.215958
O O10 0.169303 0.530345 0.291573
O O11 0.832787 0.532916 0.077160
O O12 0.220209 0.250000 0.176716
O O13 0.243903 0.969578 0.247690
O O14 0.331171 0.972300 0.213468
O O15 0.000000 0.000000 0.000000
O O16 0.278962 0.250000 0.326868
O O17 0.500000 0.000000 0.500000
O O18 0.460339 0.250000 0.264191
O O19 0.392474 0.979752 0.160064
O O20 0.064606 0.250000 0.634577
O O21 0.352386 0.750000 0.060636
#
# Coordination Sequence:
#
# PCOD9161756 Si02
#       8
#     4   4   4   4   4   4   4   4
#     4   9  17  30  52  80 106 136 172 211 256 305
#     4  10  20  35  54  77 105 138 174 216 259 303
#     4  10  22  37  53  75 106 141 175 214 260 311
#     4  10  21  36  54  77 105 134 169 215 264 313
#     4  10  21  38  57  76 101 136 177 218 261 311
#     4  10  20  34  54  79 104 133 172 216 261 311
#     4   9  17  31  52  78 107 136 171 214 257 302
#     4  10  20  35  54  78 108 141 174 212 259 310
#
# _framework density 20.710764000000001
#
# number of rings (size 3 to 8) (size 9 to 14) (size 15 to 20)
#    0.000    2.250    1.250    1.500    0.000    5.000 
#    0.000    0.625    0.000    0.000    0.000    0.000 
#    0.000    0.000    0.000    0.000    0.000    0.000 
#
# Total GULP energy -178705.086606 kJ/mol
# GULP energy per Si atom -5584.533956 kJ/mol
# Density = 2.066363 g / cm^3
# Si number density = 20.710764 Si / 1000 Ang^3
#
#
#
# Elastic Constant Matrix: (Units=GPa)
#
#
# Indices 1 2 3 4 5 6 
#
# 1 157.7082 -7.7893 89.0258 0.0000 37.9968 0.0000
# 2 -7.7893 43.4651 -16.1656 0.0000 5.3365 0.0000
# 3 89.0258 -16.1656 128.6565 0.0000 2.9919 0.0000
# 4 0.0000 0.0000 0.0000 17.3971 0.0000 -5.7075
# 5 37.9968 5.3365 2.9919 0.0000 28.1379 0.0000
# 6 0.0000 0.0000 0.0000 -5.7075 0.0000 18.7360
#
#
#
# Elastic Compliance Matrix: (Units=1/GPa)
#
#
# Indices 1 2 3 4 5 6 
#
# 1 0.020105 0.001954 -0.013058 0.000000 -0.026131 0.000000
# 2 0.001954 0.025022 0.001968 0.000000 -0.007594 0.000000
# 3 -0.013058 0.001968 0.016696 0.000000 0.015485 0.000000
# 4 0.000000 0.000000 0.000000 0.063863 0.000000 0.019454
# 5 -0.026131 -0.007594 0.015485 0.000000 0.070620 0.000000
# 6 0.000000 0.000000 0.000000 0.019454 0.000000 0.059300
#
#
# Mechanical properties :
#
#
# Convention : Reuss Voigt Hill
#
# Bulk Modulus (GPa) = 22.96195 51.10796 37.03496
# Shear Modulus (GPa) = 17.33746 30.50478 23.92112
#
# Velocity S-wave (km/s) = 2.89645 3.84199 3.40223
# Velocity P-wave (km/s) = 4.72196 6.66422 5.77532
#
# Compressibility (1/GPa) = 0.04355030
#
# Stress axis : x y z
#
# Youngs Moduli (GPa) = 49.74007 39.96551 59.89550
#
# Poissons Ratio (x) = -0.07811 0.78214
# Poissons Ratio (y) = -0.09722 -0.11788
# Poissons Ratio (z) = 0.64952 -0.07866
#
# Static dielectric constant tensor:
#      x y z
#    x 1.745260 0.000000 0.031670 
#    y 0.000000 1.806330 0.000000 
#    z 0.031670 0.000000 1.696260 
# 
# From -- ./inp_files/72026.got.cif
#   From: 2010.05.17/outbox.cif.g08.bks.cpg/sg11_37_cif.got.tgz:72026.got - 2010.06.03 12:22:45.
