data_PCOD9161414
_publ_section_title
;
Structure prediction by ZEFSAII (Michael W. Deem and Ramdas Pophale) SiO2 
 PCOD9161414
Probable space group: P 21/M
;
_chemical_formula_sum "Si O2"
_cell_formula_units_Z 32
_cell_length_a 21.350407
_cell_length_b 8.501359
_cell_length_c 11.071593
_cell_angle_alpha 90.000000
_cell_angle_beta 125.681366
_cell_angle_gamma 90.000000
_cell_volume 1632.325581
_symmetry_space_group_name_H-M "P 21/M"
_symmetry_group_IT_number 11
_symmetry_cell_setting 'monoclinic'
loop_
_space_group_symop_operation_xyz
x,y,z
-x,1/2+y,-z
-x,-y,-z
x,1/2-y,z
loop_
_atom_site_type_symbol
_atom_site_label
_atom_site_fract_x
_atom_site_fract_y
_atom_site_fract_z
Si Si1 0.251551 0.064379 0.961368
Si Si2 0.888070 0.932629 0.791867
Si Si3 0.411892 0.061084 0.036805
Si Si4 0.981602 0.434606 0.675830
Si Si5 0.836586 0.436269 0.365031
Si Si6 0.742315 0.562942 0.482897
Si Si7 0.423237 0.439002 0.769487
Si Si8 0.119685 0.931938 0.959547
O O1 0.253716 0.250000 0.989891
O O2 0.201349 0.033704 0.784653
O O3 0.205054 0.977814 0.013763
O O4 0.337610 0.005613 0.027695
O O5 0.906995 0.750000 0.788835
O O6 0.797450 0.956510 0.659963
O O7 0.934569 0.035401 0.747617
O O8 0.903442 0.973199 0.947060
O O9 0.407960 0.250000 0.030903
O O10 0.495199 0.009177 0.177848
O O11 0.407833 0.009221 0.891492
O O12 0.997512 0.250000 0.679532
O O13 0.922462 0.485521 0.504168
O O14 0.060551 0.526828 0.785094
O O15 0.837348 0.250000 0.337097
O O16 0.782496 0.467707 0.420367
O O17 0.744700 0.750000 0.453206
O O18 0.652852 0.518777 0.391603
O O19 0.430861 0.250000 0.778351
O O20 0.114231 0.750000 0.982046
#
# Coordination Sequence:
#
# PCOD9161414 Si02
#       8
#     4   4   4   4   4   4   4   4
#     4  11  22  38  56  74 107 146 180 216 260 319
#     4  10  20  36  59  82 106 138 177 222 269 310
#     4   9  18  31  49  76 108 141 172 209 256 309
#     4  10  21  38  58  81 108 137 174 221 268 313
#     4  10  20  33  53  81 109 138 174 216 264 313
#     4   9  17  32  54  80 109 141 175 214 262 314
#     4   9  16  29  50  79 110 138 171 210 255 307
#     4  12  25  39  55  77 104 138 182 223 266 317
#
# _framework density 19.603933000000001
#
# number of rings (size 3 to 8) (size 9 to 14) (size 15 to 20)
#    0.000    2.000    1.250    3.000    0.000    4.000 
#    0.000    0.000    0.000    0.750    0.000    0.000 
#    0.000    0.000    0.000    0.000    0.000    0.000 
#
# Total GULP energy -178670.502655 kJ/mol
# GULP energy per Si atom -5583.453208 kJ/mol
# Density = 1.955931 g / cm^3
# Si number density = 19.603933 Si / 1000 Ang^3
#
#
#
# Elastic Constant Matrix: (Units=GPa)
#
#
# Indices 1 2 3 4 5 6 
#
# 1 72.5092 -5.5807 14.4136 0.0000 31.4679 0.0000
# 2 -5.5807 17.7962 2.0012 0.0000 9.1346 0.0000
# 3 14.4136 2.0012 53.8273 0.0000 24.0925 0.0000
# 4 0.0000 0.0000 0.0000 21.7461 0.0000 4.7728
# 5 31.4679 9.1346 24.0925 0.0000 34.7673 0.0000
# 6 0.0000 0.0000 0.0000 4.7728 0.0000 26.6638
#
#
#
# Elastic Compliance Matrix: (Units=1/GPa)
#
#
# Indices 1 2 3 4 5 6 
#
# 1 0.035683 0.035248 0.011213 0.000000 -0.049328 0.000000
# 2 0.035248 0.101971 0.018905 0.000000 -0.071795 0.000000
# 3 0.011213 0.018905 0.031367 0.000000 -0.036853 0.000000
# 4 0.000000 0.000000 0.000000 0.047866 0.000000 -0.008568
# 5 -0.049328 -0.071795 -0.036853 0.000000 0.117810 0.000000
# 6 0.000000 0.000000 0.000000 -0.008568 0.000000 0.039038
#
#
# Mechanical properties :
#
#
# Convention : Reuss Voigt Hill
#
# Bulk Modulus (GPa) = 3.33607 18.42233 10.87920
# Shear Modulus (GPa) = 14.58067 25.52199 20.05133
#
# Velocity S-wave (km/s) = 2.73016 3.61207 3.20163
# Velocity P-wave (km/s) = 3.41230 5.17820 4.38506
#
# Compressibility (1/GPa) = 0.29975429
#
# Stress axis : x y z
#
# Youngs Moduli (GPa) = 28.02466 9.80671 31.88034
#
# Poissons Ratio (x) = -0.34567 -0.35748
# Poissons Ratio (y) = -0.98782 -0.60270
# Poissons Ratio (z) = -0.31425 -0.18540
#
# Static dielectric constant tensor:
#      x y z
#    x 1.696710 0.000000 0.025590 
#    y 0.000000 1.641930 0.000000 
#    z 0.025590 0.000000 1.694080 
# 
# From -- ./inp_files/42905.got.cif
#   From: 2010.05.17/outbox.cif.g08.bks.cpg/sg11_22_cif.got.tgz:42905.got - 2010.06.03 12:22:45.
