data_PCOD9161526
_publ_section_title
;
Structure prediction by ZEFSAII (Michael W. Deem and Ramdas Pophale) SiO2 
 PCOD9161526
Probable space group: P 21/M
;
_chemical_formula_sum "Si O2"
_cell_formula_units_Z 28
_cell_length_a 28.136290
_cell_length_b 8.933875
_cell_length_c 7.561372
_cell_angle_alpha 90.000000
_cell_angle_beta 48.611209
_cell_angle_gamma 90.000000
_cell_volume 1425.961410
_symmetry_space_group_name_H-M "P 21/M"
_symmetry_group_IT_number 11
_symmetry_cell_setting 'monoclinic'
loop_
_space_group_symop_operation_xyz
x,y,z
-x,1/2+y,-z
-x,-y,-z
x,1/2-y,z
loop_
_atom_site_type_symbol
_atom_site_label
_atom_site_fract_x
_atom_site_fract_y
_atom_site_fract_z
Si Si1 0.200304 0.931458 0.939827
Si Si2 0.934881 0.081766 0.698673
Si Si3 0.806526 0.929437 0.437027
Si Si4 0.065933 0.919145 0.873767
Si Si5 0.332596 0.431544 0.208874
Si Si6 0.430854 0.430209 0.673478
Si Si7 0.329542 0.069842 0.627384
O O1 0.199888 0.750000 0.924594
O O2 0.198822 0.010256 0.751053
O O3 0.266302 0.989494 0.854718
O O4 0.133778 0.977465 0.194764
O O5 0.941498 0.250000 0.614778
O O6 0.928630 0.085719 0.926705
O O7 0.000000 0.000000 0.500000
O O8 0.811629 0.750000 0.424653
O O9 0.738059 0.974001 0.683610
O O10 0.871265 0.998946 0.350941
O O11 0.063980 0.750000 0.811876
O O12 0.000000 0.000000 0.000000
O O13 0.333654 0.250000 0.203460
O O14 0.339898 0.475267 0.396738
O O15 0.388495 0.483456 0.944122
O O16 0.500000 0.500000 0.500000
O O17 0.436394 0.250000 0.670335
O O18 0.389718 0.465036 0.600156
O O19 0.319207 0.250000 0.657581
#
# Coordination Sequence:
#
# PCOD9161526 Si02
#       7
#     4   4   4   4   4   4   4
#     4   9  17  31  51  75 103 132 171 220 264 310
#     4   9  19  33  49  71 101 135 173 216 264 318
#     4   9  16  30  53  75  99 135 175 215 263 316
#     4  10  20  34  50  73 104 138 177 222 270 321
#     4   8  16  33  55  77 104 137 174 216 261 314
#     4  10  21  37  55  79 111 140 173 218 264 319
#     4   9  18  34  56  78 101 139 182 212 261 325
#
# _framework density 19.635874000000001
#
# number of rings (size 3 to 8) (size 9 to 14) (size 15 to 20)
#    0.000    2.857    0.000    3.000    0.000    4.571 
#    2.571    3.571    0.000    0.000    0.000    0.000 
#    0.000    0.000    0.000    0.000    0.000    0.000 
#
# Total GULP energy -156027.623137 kJ/mol
# GULP energy per Si atom -5572.415112 kJ/mol
# Density = 1.959118 g / cm^3
# Si number density = 19.635874 Si / 1000 Ang^3
#
#
#
# Elastic Constant Matrix: (Units=GPa)
#
#
# Indices 1 2 3 4 5 6 
#
# 1 121.7639 42.5348 80.3316 0.0000 -40.1363 0.0000
# 2 42.5348 57.2617 47.9256 0.0000 -25.0289 0.0000
# 3 80.3316 47.9256 167.8826 0.0000 -46.4276 0.0000
# 4 0.0000 0.0000 0.0000 28.9839 0.0000 -15.1052
# 5 -40.1363 -25.0289 -46.4276 0.0000 49.2377 0.0000
# 6 0.0000 0.0000 0.0000 -15.1052 0.0000 23.6919
#
#
#
# Elastic Compliance Matrix: (Units=1/GPa)
#
#
# Indices 1 2 3 4 5 6 
#
# 1 0.014345 -0.004979 -0.003935 0.000000 0.005452 0.000000
# 2 -0.004979 0.026872 -0.003563 0.000000 0.006242 0.000000
# 3 -0.003935 -0.003563 0.010103 0.000000 0.004508 0.000000
# 4 0.000000 0.000000 0.000000 0.051671 0.000000 0.032943
# 5 0.005452 0.006242 0.004508 0.000000 0.032177 0.000000
# 6 0.000000 0.000000 0.000000 0.032943 0.000000 0.063212
#
#
# Mechanical properties :
#
#
# Convention : Reuss Voigt Hill
#
# Bulk Modulus (GPa) = 37.92620 76.49914 57.21267
# Shear Modulus (GPa) = 21.54031 32.12380 26.83205
#
# Velocity S-wave (km/s) = 3.31567 4.04911 3.70060
# Velocity P-wave (km/s) = 5.83223 7.80409 6.88908
#
# Compressibility (1/GPa) = 0.02636699
#
# Stress axis : x y z
#
# Youngs Moduli (GPa) = 69.71021 37.21295 98.97992
#
# Poissons Ratio (x) = 0.18530 0.38948
# Poissons Ratio (y) = 0.34711 0.35262
# Poissons Ratio (z) = 0.27430 0.13257
#
# Static dielectric constant tensor:
#      x y z
#    x 1.737360 0.000000 0.009630 
#    y 0.000000 1.669670 0.000000 
#    z 0.009630 0.000000 1.715940 
# 
# From -- ./inp_files/29005.got.cif
#   From: 2010.05.17/outbox.cif.g08.bks.cpg/sg11_15_cif.got.tgz:29005.got - 2010.06.03 12:22:45.
