data_PCOD9161068
_publ_section_title
;
Structure prediction by ZEFSAII (Michael W. Deem and Ramdas Pophale) SiO2 
 PCOD9161068
Probable space group: P 21/M
;
_chemical_formula_sum "Si O2"
_cell_formula_units_Z 32
_cell_length_a 15.743211
_cell_length_b 9.114019
_cell_length_c 27.758680
_cell_angle_alpha 90.000000
_cell_angle_beta 151.569018
_cell_angle_gamma 90.000000
_cell_volume 1896.269475
_symmetry_space_group_name_H-M "P 21/M"
_symmetry_group_IT_number 11
_symmetry_cell_setting 'monoclinic'
loop_
_space_group_symop_operation_xyz
x,y,z
-x,1/2+y,-z
-x,-y,-z
x,1/2-y,z
loop_
_atom_site_type_symbol
_atom_site_label
_atom_site_fract_x
_atom_site_fract_y
_atom_site_fract_z
Si Si1 0.686155 0.925299 0.768733
Si Si2 0.700668 0.076211 0.878269
Si Si3 0.685371 0.923269 0.150507
Si Si4 0.943480 0.426037 0.090840
Si Si5 0.936743 0.425374 0.351376
Si Si6 0.714647 0.576838 0.323163
Si Si7 0.311016 0.423215 0.962213
Si Si8 0.313214 0.074499 0.578498
O O1 0.673028 0.750000 0.764818
O O2 0.850504 0.963283 0.815861
O O3 0.728679 0.987500 0.843198
O O4 0.497374 0.993506 0.659328
O O5 0.719957 0.250000 0.877324
O O6 0.495539 0.053755 0.792150
O O7 0.834237 0.036943 0.987629
O O8 0.677259 0.750000 0.156741
O O9 0.713800 0.944137 0.107513
O O10 0.839697 0.997894 0.258432
O O11 0.495270 0.996404 0.068038
O O12 0.928147 0.250000 0.089967
O O13 0.849791 0.508391 0.087841
O O14 0.922246 0.250000 0.340450
O O15 0.834616 0.480921 0.348122
O O16 0.145040 0.463724 0.461604
O O17 0.753940 0.750000 0.335806
O O18 0.737234 0.541215 0.390924
O O19 0.327573 0.250000 0.979748
O O20 0.342966 0.250000 0.591389
#
# Coordination Sequence:
#
# PCOD9161068 Si02
#       8
#     4   4   4   4   4   4   4   4
#     4  10  20  32  49  74 101 133 173 211 248 292
#     4   9  18  32  48  69 102 139 168 199 246 298
#     4  10  21  37  55  77 106 133 158 198 251 299
#     4  10  20  33  51  76 104 133 166 207 254 297
#     4  11  21  32  51  77 100 129 172 211 246 297
#     4   9  17  30  48  71 101 136 168 202 249 296
#     4  10  21  36  56  80 102 130 166 199 240 299
#     4   9  20  36  50  68  99 137 173 210 251 291
#
# _framework density 16.875239000000001
#
# number of rings (size 3 to 8) (size 9 to 14) (size 15 to 20)
#    0.000    2.250    0.000    3.750    0.000    7.000 
#    0.000    0.000    0.000    0.750    0.000    0.000 
#    0.000    0.000    0.000    0.000    0.000    0.000 
#
# Total GULP energy -178655.287560 kJ/mol
# GULP energy per Si atom -5582.977736 kJ/mol
# Density = 1.683683 g / cm^3
# Si number density = 16.875239 Si / 1000 Ang^3
#
#
#
# Elastic Constant Matrix: (Units=GPa)
#
#
# Indices 1 2 3 4 5 6 
#
# 1 88.9610 59.2498 56.2448 0.0000 21.5806 0.0000
# 2 59.2498 68.4067 64.6187 0.0000 9.5216 0.0000
# 3 56.2448 64.6187 125.2724 0.0000 4.4124 0.0000
# 4 0.0000 0.0000 0.0000 26.4833 0.0000 1.0149
# 5 21.5806 9.5216 4.4124 0.0000 13.9699 0.0000
# 6 0.0000 0.0000 0.0000 1.0149 0.0000 29.5631
#
#
#
# Elastic Compliance Matrix: (Units=1/GPa)
#
#
# Indices 1 2 3 4 5 6 
#
# 1 0.043168 -0.027547 -0.003524 0.000000 -0.046797 0.000000
# 2 -0.027547 0.049554 -0.013654 0.000000 0.013093 0.000000
# 3 -0.003524 -0.013654 0.016269 0.000000 0.009611 0.000000
# 4 0.000000 0.000000 0.000000 0.037809 0.000000 -0.001298
# 5 -0.046797 0.013093 0.009611 0.000000 0.131915 0.000000
# 6 0.000000 0.000000 0.000000 -0.001298 0.000000 0.033871
#
#
# Mechanical properties :
#
#
# Convention : Reuss Voigt Hill
#
# Bulk Modulus (GPa) = 51.17440 71.42963 61.30202
# Shear Modulus (GPa) = 12.23841 20.83839 16.53840
#
# Velocity S-wave (km/s) = 2.69593 3.51786 3.13395
# Velocity P-wave (km/s) = 6.33101 7.67596 7.03570
#
# Compressibility (1/GPa) = 0.01954102
#
# Stress axis : x y z
#
# Youngs Moduli (GPa) = 23.16532 20.18004 61.46532
#
# Poissons Ratio (x) = 0.55590 0.21659
# Poissons Ratio (y) = 0.63814 0.83926
# Poissons Ratio (z) = 0.08163 0.27554
#
# Static dielectric constant tensor:
#      x y z
#    x 1.550260 0.000000 0.000450 
#    y 0.000000 1.561100 0.000000 
#    z 0.000450 0.000000 1.571040 
# 
# From -- ./inp_files/51707.got.cif
#   From: 2010.05.17/outbox.cif.g08.bks.cpg/sg11_26_cif.got.tgz:51707.got - 2010.06.03 12:22:45.
