data_PCOD9161201
_publ_section_title
;
Structure prediction by ZEFSAII (Michael W. Deem and Ramdas Pophale) SiO2 
 PCOD9161201
Probable space group: P 21/M
;
_chemical_formula_sum "Si O2"
_cell_formula_units_Z 28
_cell_length_a 21.031872
_cell_length_b 7.886022
_cell_length_c 16.685683
_cell_angle_alpha 90.000000
_cell_angle_beta 151.330635
_cell_angle_gamma 90.000000
_cell_volume 1327.696777
_symmetry_space_group_name_H-M "P 21/M"
_symmetry_group_IT_number 11
_symmetry_cell_setting 'monoclinic'
loop_
_space_group_symop_operation_xyz
x,y,z
-x,1/2+y,-z
-x,-y,-z
x,1/2-y,z
loop_
_atom_site_type_symbol
_atom_site_label
_atom_site_fract_x
_atom_site_fract_y
_atom_site_fract_z
Si Si1 0.755017 0.042406 0.030093
Si Si2 0.806859 0.955722 0.512776
Si Si3 0.998363 0.953873 0.590764
Si Si4 0.537527 0.542527 0.295558
Si Si5 0.204775 0.949052 0.107212
Si Si6 0.347841 0.441781 0.413820
Si Si7 0.085067 0.943486 0.201752
O O1 0.758652 0.250000 0.033245
O O2 0.607523 0.991818 0.893235
O O3 0.771543 0.985211 0.956245
O O4 0.872392 0.983935 0.217661
O O5 0.809640 0.750000 0.519206
O O6 0.658902 0.011095 0.373248
O O7 0.868466 0.010765 0.496624
O O8 0.900593 0.022706 0.687508
O O9 0.000496 0.750000 0.597728
O O10 0.000000 0.000000 0.500000
O O11 0.541584 0.750000 0.303702
O O12 0.565183 0.482684 0.417619
O O13 0.181952 0.750000 0.075462
O O14 0.324661 0.977306 0.301618
O O15 0.066764 0.023392 0.987406
O O16 0.392112 0.250000 0.449632
O O17 0.200055 0.444675 0.289665
O O18 0.119546 0.750000 0.220096
#
# Coordination Sequence:
#
# PCOD9161201 Si02
#       7
#     4   4   4   4   4   4   4
#     4   9  18  34  55  78 105 140 178 216 265 319
#     4   9  17  34  57  80 106 139 175 215 264 316
#     4  10  20  36  58  83 109 136 171 215 265 318
#     4   8  16  32  55  77 103 142 182 215 255 314
#     4  11  20  32  50  73 106 142 183 224 265 309
#     4  10  20  33  49  74 107 142 183 223 264 307
#     4  11  20  31  50  76 106 140 182 224 267 311
#
# _framework density 21.089153
#
# number of rings (size 3 to 8) (size 9 to 14) (size 15 to 20)
#    0.000    2.286    1.429    3.429    0.000    1.143 
#    0.000    0.714    0.000   12.000    0.000    0.000 
#    0.000    0.000    0.000    0.000    0.000    0.000 
#
# Total GULP energy -156306.427856 kJ/mol
# GULP energy per Si atom -5582.372423 kJ/mol
# Density = 2.104115 g / cm^3
# Si number density = 21.089153 Si / 1000 Ang^3
#
#
#
# Elastic Constant Matrix: (Units=GPa)
#
#
# Indices 1 2 3 4 5 6 
#
# 1 126.7699 -0.7337 69.0556 0.0000 -14.5743 0.0000
# 2 -0.7337 30.9368 3.2979 0.0000 2.0426 0.0000
# 3 69.0556 3.2979 109.9082 0.0000 6.0812 0.0000
# 4 0.0000 0.0000 0.0000 14.6197 0.0000 -9.0109
# 5 -14.5743 2.0426 6.0812 0.0000 28.0671 0.0000
# 6 0.0000 0.0000 0.0000 -9.0109 0.0000 18.7679
#
#
#
# Elastic Compliance Matrix: (Units=1/GPa)
#
#
# Indices 1 2 3 4 5 6 
#
# 1 0.014065 0.000720 -0.009372 0.000000 0.009282 0.000000
# 2 0.000720 0.032596 -0.001336 0.000000 -0.001709 0.000000
# 3 -0.009372 -0.001336 0.015477 0.000000 -0.008123 0.000000
# 4 0.000000 0.000000 0.000000 0.097151 0.000000 0.046644
# 5 0.009282 -0.001709 -0.008123 0.000000 0.042333 0.000000
# 6 0.000000 0.000000 0.000000 0.046644 0.000000 0.075678
#
#
# Mechanical properties :
#
#
# Convention : Reuss Voigt Hill
#
# Bulk Modulus (GPa) = 23.71836 45.65050 34.68443
# Shear Modulus (GPa) = 16.06018 25.35727 20.70873
#
# Velocity S-wave (km/s) = 2.76259 3.47130 3.13703
# Velocity P-wave (km/s) = 4.63109 6.14492 5.44091
#
# Compressibility (1/GPa) = 0.04216143
#
# Stress axis : x y z
#
# Youngs Moduli (GPa) = 71.09912 30.67839 64.61381
#
# Poissons Ratio (x) = -0.02208 0.60557
# Poissons Ratio (y) = -0.05118 0.08631
# Poissons Ratio (z) = 0.66635 0.04098
#
# Static dielectric constant tensor:
#      x y z
#    x 1.784800 0.000000 0.018170 
#    y 0.000000 1.766350 0.000000 
#    z 0.018170 0.000000 1.749470 
# 
# From -- ./inp_files/61288.got.cif
#   From: 2010.05.17/outbox.cif.g08.bks.cpg/sg11_31_cif.got.tgz:61288.got - 2010.06.03 12:22:45.
