data_PCOD9161405
_publ_section_title
;
Structure prediction by ZEFSAII (Michael W. Deem and Ramdas Pophale) SiO2 
 PCOD9161405
Probable space group: P 21/M
;
_chemical_formula_sum "Si O2"
_cell_formula_units_Z 28
_cell_length_a 15.521189
_cell_length_b 9.514569
_cell_length_c 21.127155
_cell_angle_alpha 90.000000
_cell_angle_beta 150.961084
_cell_angle_gamma 90.000000
_cell_volume 1514.460964
_symmetry_space_group_name_H-M "P 21/M"
_symmetry_group_IT_number 11
_symmetry_cell_setting 'monoclinic'
loop_
_space_group_symop_operation_xyz
x,y,z
-x,1/2+y,-z
-x,-y,-z
x,1/2-y,z
loop_
_atom_site_type_symbol
_atom_site_label
_atom_site_fract_x
_atom_site_fract_y
_atom_site_fract_z
Si Si1 0.064638 0.417894 0.479515
Si Si2 0.418992 0.415710 0.631076
Si Si3 0.546962 0.580091 0.595236
Si Si4 0.400229 0.088280 0.026621
Si Si5 0.685397 0.088126 0.911593
Si Si6 0.230964 0.911959 0.812875
Si Si7 0.941488 0.915688 0.900199
O O1 0.055873 0.250000 0.486460
O O2 0.260057 0.449697 0.577893
O O3 0.000000 0.500000 0.500000
O O4 0.931113 0.450071 0.336233
O O5 0.400169 0.250000 0.601240
O O6 0.429127 0.514069 0.576362
O O7 0.599365 0.431622 0.787334
O O8 0.500000 0.500000 0.500000
O O9 0.526569 0.750000 0.576716
O O10 0.751402 0.549789 0.747584
O O11 0.353388 0.250000 0.003670
O O12 0.261055 0.009723 0.892132
O O13 0.590887 0.078811 0.114971
O O14 0.405039 0.012553 0.096527
O O15 0.651260 0.250000 0.907687
O O16 0.895496 0.063500 0.043524
O O17 0.210648 0.750000 0.820344
O O18 0.937397 0.750000 0.913863
O O19 0.000000 0.000000 0.000000
#
# Coordination Sequence:
#
# PCOD9161405 Si02
#       7
#     4   4   4   4   4   4   4
#     4  10  21  36  57  84 114 151 190 233 287 346
#     4  10  21  38  60  85 115 152 194 240 292 352
#     4  11  24  41  62  88 120 159 199 244 300 357
#     4  10  20  33  53  80 107 142 187 232 276 330
#     4  10  20  35  57  83 112 144 181 230 287 342
#     4   9  19  36  53  73 109 148 183 228 280 331
#     4  10  21  38  61  86 112 147 189 234 287 344
#
# _framework density 18.488426
#
# number of rings (size 3 to 8) (size 9 to 14) (size 15 to 20)
#    0.000    2.000    1.429    1.714    0.000    4.571 
#    0.000    5.714    0.000    0.000    0.000    0.000 
#    0.000    0.000    0.000    0.000    0.000    0.000 
#
# Total GULP energy -156240.210762 kJ/mol
# GULP energy per Si atom -5580.007527 kJ/mol
# Density = 1.844635 g / cm^3
# Si number density = 18.488426 Si / 1000 Ang^3
#
#
#
# Elastic Constant Matrix: (Units=GPa)
#
#
# Indices 1 2 3 4 5 6 
#
# 1 75.6486 57.1557 30.6532 0.0000 -14.5683 0.0000
# 2 57.1557 75.1636 38.9134 0.0000 -16.5398 0.0000
# 3 30.6532 38.9134 92.0993 0.0000 0.3693 0.0000
# 4 0.0000 0.0000 0.0000 26.9336 0.0000 -9.4868
# 5 -14.5683 -16.5398 0.3693 0.0000 21.4577 0.0000
# 6 0.0000 0.0000 0.0000 -9.4868 0.0000 36.2764
#
#
#
# Elastic Compliance Matrix: (Units=1/GPa)
#
#
# Indices 1 2 3 4 5 6 
#
# 1 0.031347 -0.022465 -0.000957 0.000000 0.003983 0.000000
# 2 -0.022465 0.037966 -0.008621 0.000000 0.014161 0.000000
# 3 -0.000957 -0.008621 0.014849 0.000000 -0.007551 0.000000
# 4 0.000000 0.000000 0.000000 0.040895 0.000000 0.010695
# 5 0.003983 0.014161 -0.007551 0.000000 0.060353 0.000000
# 6 0.000000 0.000000 0.000000 0.010695 0.000000 0.030363
#
#
# Mechanical properties :
#
#
# Convention : Reuss Voigt Hill
#
# Bulk Modulus (GPa) = 49.81076 55.15068 52.48072
# Shear Modulus (GPa) = 17.44880 24.67951 21.06415
#
# Velocity S-wave (km/s) = 3.07541 3.65754 3.37904
# Velocity P-wave (km/s) = 6.29373 6.90879 6.60842
#
# Compressibility (1/GPa) = 0.02007598
#
# Stress axis : x y z
#
# Youngs Moduli (GPa) = 31.90107 26.33909 67.34268
#
# Poissons Ratio (x) = 0.59170 0.06448
# Poissons Ratio (y) = 0.71664 0.58058
# Poissons Ratio (z) = 0.03054 0.22708
#
# Static dielectric constant tensor:
#      x y z
#    x 1.632880 0.000000 0.026070 
#    y 0.000000 1.623180 0.000000 
#    z 0.026070 0.000000 1.653900 
# 
# From -- ./inp_files/54470.got.cif
#   From: 2010.05.17/outbox.cif.g08.bks.cpg/sg11_28_cif.got.tgz:54470.got - 2010.06.03 12:22:45.
