data_PCOD9161028
_publ_section_title
;
Structure prediction by ZEFSAII (Michael W. Deem and Ramdas Pophale) SiO2 
 PCOD9161028
Probable space group: P 21/M
;
_chemical_formula_sum "Si O2"
_cell_formula_units_Z 32
_cell_length_a 23.833944
_cell_length_b 8.927449
_cell_length_c 21.373521
_cell_angle_alpha 90.000000
_cell_angle_beta 156.026428
_cell_angle_gamma 90.000000
_cell_volume 1847.831888
_symmetry_space_group_name_H-M "P 21/M"
_symmetry_group_IT_number 11
_symmetry_cell_setting 'monoclinic'
loop_
_space_group_symop_operation_xyz
x,y,z
-x,1/2+y,-z
-x,-y,-z
x,1/2-y,z
loop_
_atom_site_type_symbol
_atom_site_label
_atom_site_fract_x
_atom_site_fract_y
_atom_site_fract_z
Si Si1 0.039945 0.928180 0.165447
Si Si2 0.469429 0.429151 0.623716
Si Si3 0.846145 0.069467 0.472828
Si Si4 0.287707 0.929711 0.329654
Si Si5 0.082483 0.569936 0.642689
Si Si6 0.745725 0.069945 0.846401
Si Si7 0.348103 0.929911 0.843062
Si Si8 0.745882 0.430190 0.508274
O O1 0.018497 0.750000 0.146880
O O2 0.134790 0.958639 0.201396
O O3 0.132033 0.973003 0.319144
O O4 0.894867 0.008246 0.014390
O O5 0.460612 0.250000 0.617129
O O6 0.390200 0.487420 0.481133
O O7 0.627952 0.474862 0.775432
O O8 0.392274 0.498143 0.604550
O O9 0.862867 0.250000 0.487285
O O10 0.737214 0.028302 0.306929
O O11 0.785261 0.027585 0.478112
O O12 0.995000 0.994926 0.611211
O O13 0.311724 0.750000 0.358534
O O14 0.296653 0.978434 0.267051
O O15 0.072487 0.750000 0.631207
O O16 0.243032 0.530231 0.793170
O O17 0.000000 0.500000 0.500000
O O18 0.751147 0.250000 0.850249
O O19 0.362320 0.750000 0.857411
O O20 0.500000 0.000000 0.000000
O O21 0.732409 0.250000 0.497467
#
# Coordination Sequence:
#
# PCOD9161028 Si02
#       8
#     4   4   4   4   4   4   4   4
#     4   9  18  31  49  71  92 120 160 202 245 293
#     4  10  20  32  48  72  98 126 162 200 242 293
#     4   9  18  34  55  75  96 128 169 205 239 284
#     4   9  18  33  50  69  94 125 161 199 244 297
#     4   9  17  30  49  75 103 130 163 198 234 277
#     4  10  20  32  47  70  99 126 155 199 251 298
#     4   9  18  31  49  76 106 132 158 193 238 283
#     4   9  19  37  55  70  93 127 167 206 241 285
#
# _framework density 17.317594
#
# number of rings (size 3 to 8) (size 9 to 14) (size 15 to 20)
#    0.000    2.750    0.000    3.000    0.000    6.500 
#    0.000    1.250    0.000    7.500    0.000    0.000 
#    0.000    0.000    0.000    0.000    0.000    0.000 
#
# Total GULP energy -178325.043486 kJ/mol
# GULP energy per Si atom -5572.657609 kJ/mol
# Density = 1.727818 g / cm^3
# Si number density = 17.317594 Si / 1000 Ang^3
#
#
#
# Elastic Constant Matrix: (Units=GPa)
#
#
# Indices 1 2 3 4 5 6 
#
# 1 123.9072 30.5612 43.1806 0.0000 29.4476 0.0000
# 2 30.5612 17.9638 24.5971 0.0000 14.4159 0.0000
# 3 43.1806 24.5971 76.9620 0.0000 35.9524 0.0000
# 4 0.0000 0.0000 0.0000 30.3428 0.0000 4.8802
# 5 29.4476 14.4159 35.9524 0.0000 25.0190 0.0000
# 6 0.0000 0.0000 0.0000 4.8802 0.0000 24.1345
#
#
#
# Elastic Compliance Matrix: (Units=1/GPa)
#
#
# Indices 1 2 3 4 5 6 
#
# 1 0.014446 -0.021459 0.002799 0.000000 -0.008661 0.000000
# 2 -0.021459 0.142229 -0.021088 0.000000 -0.026390 0.000000
# 3 0.002799 -0.021088 0.042668 0.000000 -0.052458 0.000000
# 4 0.000000 0.000000 0.000000 0.034065 0.000000 -0.006888
# 5 -0.008661 -0.026390 -0.052458 0.000000 0.140752 0.000000
# 6 0.000000 0.000000 0.000000 -0.006888 0.000000 0.042827
#
#
# Mechanical properties :
#
#
# Convention : Reuss Voigt Hill
#
# Bulk Modulus (GPa) = 8.34400 46.16785 27.25593
# Shear Modulus (GPa) = 9.32081 23.93220 16.62650
#
# Velocity S-wave (km/s) = 2.32249 3.72150 3.10190
# Velocity P-wave (km/s) = 3.46708 6.72187 5.34809
#
# Compressibility (1/GPa) = 0.11984663
#
# Stress axis : x y z
#
# Youngs Moduli (GPa) = 69.22199 7.03091 23.43651
#
# Poissons Ratio (x) = 0.15088 -0.06560
# Poissons Ratio (y) = 1.48545 0.49424
# Poissons Ratio (z) = -0.19374 0.14827
#
# Static dielectric constant tensor:
#      x y z
#    x 1.610470 0.000000 0.019650 
#    y 0.000000 1.579110 0.000000 
#    z 0.019650 0.000000 1.575900 
# 
# From -- ./inp_files/70000.got.cif
#   From: 2010.05.17/outbox.cif.g08.bks.cpg/sg11_35_cif.got.tgz:70000.got - 2010.06.03 12:22:45.
