data_PCOD9161288
_publ_section_title
;
Structure prediction by ZEFSAII (Michael W. Deem and Ramdas Pophale) SiO2 
 PCOD9161288
Probable space group: P 21/M
;
_chemical_formula_sum "Si O2"
_cell_formula_units_Z 24
_cell_length_a 11.594008
_cell_length_b 7.482863
_cell_length_c 22.930740
_cell_angle_alpha 90.000000
_cell_angle_beta 31.822441
_cell_angle_gamma 90.000000
_cell_volume 1048.981595
_symmetry_space_group_name_H-M "P 21/M"
_symmetry_group_IT_number 11
_symmetry_cell_setting 'monoclinic'
loop_
_space_group_symop_operation_xyz
x,y,z
-x,1/2+y,-z
-x,-y,-z
x,1/2-y,z
loop_
_atom_site_type_symbol
_atom_site_label
_atom_site_fract_x
_atom_site_fract_y
_atom_site_fract_z
Si Si1 0.862489 0.965009 0.458090
Si Si2 0.608513 0.539445 0.320587
Si Si3 0.348359 0.968714 0.245410
Si Si4 0.776100 0.964437 0.129981
Si Si5 0.317534 0.962554 0.125758
Si Si6 0.831808 0.532536 0.337701
O O1 0.867195 0.750000 0.455589
O O2 0.819630 0.029219 0.409794
O O3 0.106128 0.024767 0.371187
O O4 0.646759 0.019448 0.585491
O O5 0.653462 0.750000 0.305604
O O6 0.758031 0.467544 0.204128
O O7 0.663447 0.465611 0.361290
O O8 0.349748 0.750000 0.246016
O O9 0.560435 0.030846 0.188958
O O10 0.366333 0.027809 0.170142
O O11 0.756809 0.750000 0.141114
O O12 0.000000 0.000000 0.000000
O O13 0.303166 0.750000 0.137613
O O14 0.074578 0.020486 0.212240
O O15 0.500000 0.000000 0.000000
O O16 0.817107 0.750000 0.347363
#
# Coordination Sequence:
#
# PCOD9161288 Si02
#       6
#     4   4   4   4   4   4
#     4   9  17  33  56  76  98 133 171 205 248 309
#     4  10  20  33  51  76 105 134 164 209 260 297
#     4   8  17  35  53  71 101 137 168 205 255 304
#     4  10  22  38  54  73 102 139 174 210 254 302
#     4   9  17  30  50  72  97 132 170 207 248 297
#     4   8  16  31  49  72 103 134 162 199 256 309
#
# _framework density 22.879334
#
# number of rings (size 3 to 8) (size 9 to 14) (size 15 to 20)
#    0.000    3.000    0.000    2.500    2.333    1.333 
#    0.000    5.000    0.000    0.000    0.000    0.000 
#    0.000    0.000    0.000    0.000    0.000    0.000 
#
# Total GULP energy -133918.211034 kJ/mol
# GULP energy per Si atom -5579.925460 kJ/mol
# Density = 2.282726 g / cm^3
# Si number density = 22.879334 Si / 1000 Ang^3
#
#
#
# Elastic Constant Matrix: (Units=GPa)
#
#
# Indices 1 2 3 4 5 6 
#
# 1 75.5854 4.0658 19.8186 0.0000 -27.0959 0.0000
# 2 4.0658 60.0570 -12.2639 0.0000 1.8028 0.0000
# 3 19.8186 -12.2639 125.1240 0.0000 -11.7684 0.0000
# 4 0.0000 0.0000 0.0000 25.8398 0.0000 -3.7701
# 5 -27.0959 1.8028 -11.7684 0.0000 24.8291 0.0000
# 6 0.0000 0.0000 0.0000 -3.7701 0.0000 1.9199
#
#
#
# Elastic Compliance Matrix: (Units=1/GPa)
#
#
# Indices 1 2 3 4 5 6 
#
# 1 0.022299 -0.002539 -0.001543 0.000000 0.023787 0.000000
# 2 -0.002539 0.017285 0.001798 0.000000 -0.003174 0.000000
# 3 -0.001543 0.001798 0.008627 0.000000 0.002274 0.000000
# 4 0.000000 0.000000 0.000000 0.054241 0.000000 0.106514
# 5 0.023787 -0.003174 0.002274 0.000000 0.067542 0.000000
# 6 0.000000 0.000000 0.000000 0.106514 0.000000 0.730028
#
#
# Mechanical properties :
#
#
# Convention : Reuss Voigt Hill
#
# Bulk Modulus (GPa) = 22.91404 31.55639 27.23522
# Shear Modulus (GPa) = 5.43988 27.12747 16.28368
#
# Velocity S-wave (km/s) = 1.54363 3.44710 2.67070
# Velocity P-wave (km/s) = 3.63510 5.44663 4.63032
#
# Compressibility (1/GPa) = 0.04364136
#
# Stress axis : x y z
#
# Youngs Moduli (GPa) = 44.84593 57.85328 115.92015
#
# Poissons Ratio (x) = 0.14688 0.17892
# Poissons Ratio (y) = 0.11386 -0.20840
# Poissons Ratio (z) = 0.06922 -0.10401
#
# Static dielectric constant tensor:
#      x y z
#    x 1.874980 0.000000 0.008930 
#    y 0.000000 1.867230 0.000000 
#    z 0.008930 0.000000 1.860830 
# 
# From -- ./inp_files/27564.got.cif
#   From: 2010.05.17/outbox.cif.g08.bks.cpg/sg11_14_cif.got.tgz:27564.got - 2010.06.03 12:22:45.
