data_PCOD9161851
_publ_section_title
;
Structure prediction by ZEFSAII (Michael W. Deem and Ramdas Pophale) SiO2 
 PCOD9161851
Probable space group: P 21/M
;
_chemical_formula_sum "Si O2"
_cell_formula_units_Z 32
_cell_length_a 13.199144
_cell_length_b 7.626601
_cell_length_c 15.276201
_cell_angle_alpha 90.000000
_cell_angle_beta 101.503989
_cell_angle_gamma 90.000000
_cell_volume 1506.880147
_symmetry_space_group_name_H-M "P 21/M"
_symmetry_group_IT_number 11
_symmetry_cell_setting 'monoclinic'
loop_
_space_group_symop_operation_xyz
x,y,z
-x,1/2+y,-z
-x,-y,-z
x,1/2-y,z
loop_
_atom_site_type_symbol
_atom_site_label
_atom_site_fract_x
_atom_site_fract_y
_atom_site_fract_z
Si Si1 0.101946 0.038300 0.142122
Si Si2 0.025935 0.039973 0.405070
Si Si3 0.673796 0.545240 0.120745
Si Si4 0.778814 0.537164 0.658243
Si Si5 0.546947 0.960580 0.602017
Si Si6 0.291688 0.466020 0.068292
Si Si7 0.906031 0.462716 0.211171
Si Si8 0.513417 0.543325 0.785642
O O1 0.094465 0.250000 0.133104
O O2 0.170717 0.997209 0.239661
O O3 0.175527 0.977087 0.075761
O O4 0.986815 0.976694 0.148993
O O5 0.026534 0.250000 0.396798
O O6 0.140360 0.975579 0.400338
O O7 0.950514 0.978668 0.313597
O O8 0.000000 0.000000 0.500000
O O9 0.651411 0.750000 0.109055
O O10 0.789335 0.521269 0.177147
O O11 0.584942 0.475177 0.168636
O O12 0.676343 0.472472 0.022573
O O13 0.773920 0.750000 0.653882
O O14 0.664080 0.471374 0.626688
O O15 0.548436 0.750000 0.606025
O O16 0.494819 0.024444 0.683697
O O17 0.500000 0.000000 0.500000
O O18 0.290118 0.250000 0.068320
O O19 0.381104 0.525027 0.151134
O O20 0.907175 0.250000 0.210213
O O21 0.533117 0.750000 0.780673
#
# Coordination Sequence:
#
# PCOD9161851 Si02
#       8
#     4   4   4   4   4   4   4   4
#     4   8  13  28  56  80  98 129 177 224 259 309
#     4   9  18  32  53  78 101 132 175 217 259 314
#     4  11  23  35  51  79 115 147 178 225 277 319
#     4   8  14  29  51  73  96 127 169 211 253 306
#     4  10  20  34  55  81 105 134 174 219 268 319
#     4   9  17  32  56  83 105 136 184 229 271 322
#     4   9  19  35  54  77 107 142 181 220 265 328
#     4  10  20  37  59  78 104 144 188 225 264 326
#
# _framework density 21.23593
#
# number of rings (size 3 to 8) (size 9 to 14) (size 15 to 20)
#    0.000    2.750    1.250    2.250    0.000    2.500 
#    0.000    3.750    0.000    2.250    0.000    0.000 
#    0.000    0.000    0.000    0.000    0.000    0.000 
#
# Total GULP energy -178438.469875 kJ/mol
# GULP energy per Si atom -5576.202184 kJ/mol
# Density = 2.118760 g / cm^3
# Si number density = 21.235930 Si / 1000 Ang^3
#
#
#
# Elastic Constant Matrix: (Units=GPa)
#
#
# Indices 1 2 3 4 5 6 
#
# 1 82.4880 -8.7993 45.9604 0.0000 -20.5359 0.0000
# 2 -8.7993 37.3073 3.6812 0.0000 -0.6117 0.0000
# 3 45.9604 3.6812 129.6307 0.0000 -31.3805 0.0000
# 4 0.0000 0.0000 0.0000 14.7993 0.0000 1.0031
# 5 -20.5359 -0.6117 -31.3805 0.0000 34.5862 0.0000
# 6 0.0000 0.0000 0.0000 1.0031 0.0000 3.0945
#
#
#
# Elastic Compliance Matrix: (Units=1/GPa)
#
#
# Indices 1 2 3 4 5 6 
#
# 1 0.016606 0.004467 -0.004624 0.000000 0.005743 0.000000
# 2 0.004467 0.028084 -0.002075 0.000000 0.001267 0.000000
# 3 -0.004624 -0.002075 0.011199 0.000000 0.007378 0.000000
# 4 0.000000 0.000000 0.000000 0.069089 0.000000 -0.022397
# 5 0.005743 0.001267 0.007378 0.000000 0.039040 0.000000
# 6 0.000000 0.000000 0.000000 -0.022397 0.000000 0.330414
#
#
# Mechanical properties :
#
#
# Convention : Reuss Voigt Hill
#
# Bulk Modulus (GPa) = 19.44591 36.79007 28.11799
# Shear Modulus (GPa) = 9.68924 24.40158 17.04541
#
# Velocity S-wave (km/s) = 2.13836 3.39347 2.83621
# Velocity P-wave (km/s) = 3.90816 5.71981 4.89847
#
# Compressibility (1/GPa) = 0.05142469
#
# Stress axis : x y z
#
# Youngs Moduli (GPa) = 60.21998 35.60808 89.29563
#
# Poissons Ratio (x) = -0.15906 0.41291
# Poissons Ratio (y) = -0.26901 0.18526
# Poissons Ratio (z) = 0.27846 0.07387
#
# Static dielectric constant tensor:
#      x y z
#    x 1.763570 0.000000 -0.020240 
#    y 0.000000 1.820320 0.000000 
#    z -0.020240 0.000000 1.787780 
# 
# From -- ./inp_files/49380.got.cif
#   From: 2010.05.17/outbox.cif.g08.bks.cpg/sg11_25_cif.got.tgz:49380.got - 2010.06.03 12:22:45.
