data_PCOD9161925
_publ_section_title
;
Structure prediction by ZEFSAII (Michael W. Deem and Ramdas Pophale) SiO2 
 PCOD9161925
Probable space group: P 21/M
;
_chemical_formula_sum "Si O2"
_cell_formula_units_Z 28
_cell_length_a 15.328294
_cell_length_b 8.716909
_cell_length_c 21.450930
_cell_angle_alpha 90.000000
_cell_angle_beta 151.006173
_cell_angle_gamma 90.000000
_cell_volume 1389.278343
_symmetry_space_group_name_H-M "P 21/M"
_symmetry_group_IT_number 11
_symmetry_cell_setting 'monoclinic'
loop_
_space_group_symop_operation_xyz
x,y,z
-x,1/2+y,-z
-x,-y,-z
x,1/2-y,z
loop_
_atom_site_type_symbol
_atom_site_label
_atom_site_fract_x
_atom_site_fract_y
_atom_site_fract_z
Si Si1 0.771040 0.418438 0.524082
Si Si2 0.548963 0.069869 0.842664
Si Si3 0.403864 0.932768 0.263725
Si Si4 0.170366 0.924418 0.576508
Si Si5 0.981003 0.924905 0.752118
Si Si6 0.681782 0.068556 0.648726
Si Si7 0.635032 0.567715 0.031248
O O1 0.788328 0.250000 0.565210
O O2 0.568944 0.452162 0.377776
O O3 0.874986 0.416481 0.524702
O O4 0.837169 0.556770 0.607004
O O5 0.569701 0.250000 0.868891
O O6 0.660036 0.035152 0.847664
O O7 0.344432 0.028345 0.696892
O O8 0.585515 0.979482 0.929205
O O9 0.453940 0.750000 0.293355
O O10 0.304700 0.955084 0.267860
O O11 0.206869 0.750000 0.620903
O O12 0.000000 0.000000 0.500000
O O13 0.022633 0.750000 0.793622
O O14 0.867250 0.003984 0.735945
O O15 0.159664 0.006484 0.837824
O O16 0.668021 0.250000 0.630185
O O17 0.500000 0.000000 0.500000
O O18 0.632074 0.750000 0.036219
O O19 0.500000 0.500000 0.000000
#
# Coordination Sequence:
#
# PCOD9161925 Si02
#       7
#     4   4   4   4   4   4   4
#     4  10  20  34  55  85 122 161 203 253 309 370
#     4  10  21  41  64  89 122 161 207 258 312 377
#     4   9  19  36  61  91 127 166 203 248 310 373
#     4  10  21  35  55  85 119 157 203 256 317 376
#     4  12  25  41  62  91 127 168 214 263 315 376
#     4  11  21  36  61  97 134 171 210 258 316 379
#     4  12  27  48  70  92 121 164 214 266 319 378
#
# _framework density 20.154349
#
# number of rings (size 3 to 8) (size 9 to 14) (size 15 to 20)
#    0.000    1.429    1.429    4.286    2.000    2.857 
#    0.000    0.714    0.000    0.000    0.000    0.000 
#    0.000    0.000    0.000    0.000    0.000    0.000 
#
# Total GULP energy -155929.085232 kJ/mol
# GULP energy per Si atom -5568.895901 kJ/mol
# Density = 2.010848 g / cm^3
# Si number density = 20.154349 Si / 1000 Ang^3
#
#
#
# Elastic Constant Matrix: (Units=GPa)
#
#
# Indices 1 2 3 4 5 6 
#
# 1 154.2007 68.2211 23.5386 0.0000 -0.4645 0.0000
# 2 68.2211 116.2658 14.9243 0.0000 6.9975 0.0000
# 3 23.5386 14.9243 24.6897 0.0000 -7.5257 0.0000
# 4 0.0000 0.0000 0.0000 27.9994 0.0000 -1.7491
# 5 -0.4645 6.9975 -7.5257 0.0000 29.1890 0.0000
# 6 0.0000 0.0000 0.0000 -1.7491 0.0000 27.9501
#
#
#
# Elastic Compliance Matrix: (Units=1/GPa)
#
#
# Indices 1 2 3 4 5 6 
#
# 1 0.009565 -0.004780 -0.006332 0.000000 -0.000335 0.000000
# 2 -0.004780 0.012165 -0.004025 0.000000 -0.004030 0.000000
# 3 -0.006332 -0.004025 0.053435 0.000000 0.014641 0.000000
# 4 0.000000 0.000000 0.000000 0.035855 0.000000 0.002244
# 5 -0.000335 -0.004030 0.014641 0.000000 0.038995 0.000000
# 6 0.000000 0.000000 0.000000 0.002244 0.000000 0.035918
#
#
# Mechanical properties :
#
#
# Convention : Reuss Voigt Hill
#
# Bulk Modulus (GPa) = 22.27562 56.50267 39.38914
# Shear Modulus (GPa) = 21.62899 29.59251 25.61075
#
# Velocity S-wave (km/s) = 3.27948 3.83599 3.56860
# Velocity P-wave (km/s) = 5.04147 6.90765 6.04699
#
# Compressibility (1/GPa) = 0.04489213
#
# Stress axis : x y z
#
# Youngs Moduli (GPa) = 104.54533 82.20501 18.71422
#
# Poissons Ratio (x) = 0.39291 0.11850
# Poissons Ratio (y) = 0.49969 0.07532
# Poissons Ratio (z) = 0.66199 0.33086
#
# Static dielectric constant tensor:
#      x y z
#    x 1.740510 0.000000 -0.029410 
#    y 0.000000 1.704090 0.000000 
#    z -0.029410 0.000000 1.739690 
# 
# From -- ./inp_files/65434.got.cif
#   From: 2010.05.17/outbox.cif.g08.bks.cpg/sg11_33_cif.got.tgz:65434.got - 2010.06.03 12:22:45.
