data_PCOD9161091
_publ_section_title
;
Structure prediction by ZEFSAII (Michael W. Deem and Ramdas Pophale) SiO2 
 PCOD9161091
Probable space group: P 21/M
;
_chemical_formula_sum "Si O2"
_cell_formula_units_Z 24
_cell_length_a 10.561935
_cell_length_b 8.685206
_cell_length_c 14.476240
_cell_angle_alpha 90.000000
_cell_angle_beta 89.999927
_cell_angle_gamma 90.000000
_cell_volume 1327.942862
_symmetry_space_group_name_H-M "P 21/M"
_symmetry_group_IT_number 11
_symmetry_cell_setting 'monoclinic'
loop_
_space_group_symop_operation_xyz
x,y,z
-x,1/2+y,-z
-x,-y,-z
x,1/2-y,z
loop_
_atom_site_type_symbol
_atom_site_label
_atom_site_fract_x
_atom_site_fract_y
_atom_site_fract_z
Si Si1 0.147394 0.434213 0.899885
Si Si2 0.249386 0.435971 0.284805
Si Si3 0.500000 0.063864 0.396271
Si Si4 1.000000 0.564376 0.602673
Si Si5 0.750615 0.064029 0.284805
Si Si6 0.147394 0.934213 0.100116
O O1 0.151795 0.250000 0.902087
O O2 0.233023 0.497270 0.817364
O O3 1.000000 0.481508 0.882591
O O4 0.182867 0.500002 1.000000
O O5 0.249391 0.250000 0.278817
O O6 0.375122 0.483837 0.339530
O O7 0.233023 0.502727 0.182636
O O8 0.125704 0.484684 0.342815
O O9 0.500000 0.250000 0.401671
O O10 0.624880 0.016164 0.339530
O O11 0.500000 0.000000 0.500000
O O12 1.000000 0.750000 0.598916
O O13 0.125703 0.515317 0.657185
O O14 0.000000 0.500000 0.500000
O O15 0.750611 0.250000 0.278815
O O16 0.151796 0.750000 0.097916
#
# Coordination Sequence:
#
# PCOD9161091 Si02
#       6
#     4   4   4   4   4   4
#     4  10  20  34  56  85 113 143 179 224 276 329
#     4  10  20  36  55  79 110 145 183 225 273 323
#     4  10  22  38  57  80 111 150 187 226 274 326
#     4  10  20  32  51  76 105 138 177 226 272 316
#     4  10  20  36  55  79 110 145 183 225 273 323
#     4  10  20  34  56  85 113 143 179 224 276 329
#
# _framework density 18.073066000000001
#
# number of rings (size 3 to 8) (size 9 to 14) (size 15 to 20)
#    0.000    2.000    1.667    2.000    0.000    4.000 
#    0.000    0.833    0.000    0.000    0.000    0.000 
#    0.000    0.000    0.000    0.000    0.000    0.000 
#
# Total GULP energy -134024.852204 kJ/mol
# GULP energy per Si atom -5584.368842 kJ/mol
# Density = 1.803193 g / cm^3
# Si number density = 18.073066 Si / 1000 Ang^3
#
#
#
# Elastic Constant Matrix: (Units=GPa)
#
#
# Indices 1 2 3 4 5 6 
#
# 1 152.9729 32.8500 103.5281 0.0000 0.0005 0.0000
# 2 32.8500 15.8915 38.5698 0.0000 0.0003 0.0000
# 3 103.5281 38.5698 202.8128 0.0000 0.0007 0.0000
# 4 0.0000 0.0000 0.0000 40.6741 0.0000 0.0000
# 5 0.0005 0.0003 0.0007 0.0000 33.7441 0.0000
# 6 0.0000 0.0000 0.0000 0.0000 0.0000 8.7733
#
#
#
# Elastic Compliance Matrix: (Units=1/GPa)
#
#
# Indices 1 2 3 4 5 6 
#
# 1 0.012519 -0.019256 -0.002728 0.000000 0.000000 0.000000
# 2 -0.019256 0.146489 -0.018029 0.000000 -0.000001 0.000000
# 3 -0.002728 -0.018029 0.009752 0.000000 0.000000 0.000000
# 4 0.000000 0.000000 0.000000 0.024586 0.000000 0.000000
# 5 0.000000 -0.000001 0.000000 0.000000 0.029635 0.000000
# 6 0.000000 0.000000 0.000000 0.000000 0.000000 0.113982
#
#
# Mechanical properties :
#
#
# Convention : Reuss Voigt Hill
#
# Bulk Modulus (GPa) = 11.26977 80.17477 45.72227
# Shear Modulus (GPa) = 11.19655 29.75360 20.47507
#
# Velocity S-wave (km/s) = 2.49171 4.06186 3.36952
# Velocity P-wave (km/s) = 3.81148 8.15206 6.36331
#
# Compressibility (1/GPa) = 0.08873297
#
# Stress axis : x y z
#
# Youngs Moduli (GPa) = 79.88065 6.82645 102.54331
#
# Poissons Ratio (x) = 0.13145 0.27977
# Poissons Ratio (y) = 1.53819 1.84875
# Poissons Ratio (z) = 0.21794 0.12307
#
# Static dielectric constant tensor:
#      x y z
#    x 1.619580 0.000000 0.000000 
#    y 0.000000 1.607420 0.000000 
#    z 0.000000 0.000000 1.584430 
# 
# From -- ./inp_files/20499.got.cif
#   From: 2010.05.17/outbox.cif.g08.bks.cpg/sg11_11_cif.got.tgz:20499.got - 2010.06.03 12:22:45.
