data_PCOD9161798
_publ_section_title
;
Structure prediction by ZEFSAII (Michael W. Deem and Ramdas Pophale) SiO2 
 PCOD9161798
Probable space group: P 21/M
;
_chemical_formula_sum "Si O2"
_cell_formula_units_Z 28
_cell_length_a 20.919169
_cell_length_b 8.691557
_cell_length_c 15.755916
_cell_angle_alpha 90.000000
_cell_angle_beta 33.096261
_cell_angle_gamma 90.000000
_cell_volume 1564.285161
_symmetry_space_group_name_H-M "P 21/M"
_symmetry_group_IT_number 11
_symmetry_cell_setting 'monoclinic'
loop_
_space_group_symop_operation_xyz
x,y,z
-x,1/2+y,-z
-x,-y,-z
x,1/2-y,z
loop_
_atom_site_type_symbol
_atom_site_label
_atom_site_fract_x
_atom_site_fract_y
_atom_site_fract_z
Si Si1 0.083198 0.568687 0.656355
Si Si2 0.896320 0.935458 0.554642
Si Si3 0.323440 0.065601 0.722440
Si Si4 0.057801 0.436549 0.020990
Si Si5 0.674945 0.927833 0.588970
Si Si6 0.628185 0.926847 0.840637
Si Si7 0.517212 0.565529 0.612710
O O1 0.064860 0.750000 0.662394
O O2 0.075180 0.484720 0.574280
O O3 0.213563 0.535339 0.545213
O O4 0.000038 0.515153 0.825454
O O5 0.895741 0.750000 0.560429
O O6 0.758923 0.986778 0.725227
O O7 0.000000 0.000000 0.500000
O O8 0.323227 0.250000 0.721646
O O9 0.391166 0.014486 0.562120
O O10 0.395564 0.008820 0.722808
O O11 0.191648 0.011472 0.870618
O O12 0.052132 0.250000 0.024798
O O13 0.000000 0.500000 0.000000
O O14 0.707223 0.750000 0.531026
O O15 0.640287 0.929734 0.725389
O O16 0.569926 0.974773 0.644704
O O17 0.621790 0.750000 0.877269
O O18 0.500000 0.000000 0.000000
O O19 0.505891 0.750000 0.620537
#
# Coordination Sequence:
#
# PCOD9161798 Si02
#       7
#     4   4   4   4   4   4   4
#     4  10  20  34  54  81 110 139 179 224 265 322
#     4  10  21  39  61  84 111 148 187 228 280 335
#     4   9  18  32  48  69 100 134 167 209 259 306
#     4  10  21  35  52  76 107 141 177 220 267 314
#     4   9  18  34  54  75 102 135 174 216 260 315
#     4   9  19  35  55  80 109 137 174 223 272 325
#     4   9  17  31  51  71  95 131 172 213 255 304
#
# _framework density 17.899549
#
# number of rings (size 3 to 8) (size 9 to 14) (size 15 to 20)
#    0.000    2.571    0.000    2.571    0.000    6.286 
#    2.571    2.857    0.000    0.000    0.000    0.000 
#    0.000    0.000    0.000    0.000    0.000    0.000 
#
# Total GULP energy -155919.798210 kJ/mol
# GULP energy per Si atom -5568.564222 kJ/mol
# Density = 1.785881 g / cm^3
# Si number density = 17.899549 Si / 1000 Ang^3
#
#
#
# Elastic Constant Matrix: (Units=GPa)
#
#
# Indices 1 2 3 4 5 6 
#
# 1 137.3220 21.5796 53.0944 0.0000 -28.9304 0.0000
# 2 21.5796 20.5858 26.6981 0.0000 -6.6178 0.0000
# 3 53.0944 26.6981 104.4322 0.0000 -29.3643 0.0000
# 4 0.0000 0.0000 0.0000 22.4338 0.0000 -2.4955
# 5 -28.9304 -6.6178 -29.3643 0.0000 25.2612 0.0000
# 6 0.0000 0.0000 0.0000 -2.4955 0.0000 33.3548
#
#
#
# Elastic Compliance Matrix: (Units=1/GPa)
#
#
# Indices 1 2 3 4 5 6 
#
# 1 0.010726 -0.006834 -0.001122 0.000000 0.009189 0.000000
# 2 -0.006834 0.077273 -0.018999 0.000000 -0.009668 0.000000
# 3 -0.001122 -0.018999 0.019672 0.000000 0.016605 0.000000
# 4 0.000000 0.000000 0.000000 0.044950 0.000000 0.003363
# 5 0.009189 -0.009668 0.016605 0.000000 0.066879 0.000000
# 6 0.000000 0.000000 0.000000 0.003363 0.000000 0.030232
#
#
# Mechanical properties :
#
#
# Convention : Reuss Voigt Hill
#
# Bulk Modulus (GPa) = 18.60093 51.67600 35.13846
# Shear Modulus (GPa) = 15.54904 26.94115 21.24509
#
# Velocity S-wave (km/s) = 2.95054 3.88381 3.44889
# Velocity P-wave (km/s) = 4.69276 7.00319 5.96098
#
# Compressibility (1/GPa) = 0.05376077
#
# Stress axis : x y z
#
# Youngs Moduli (GPa) = 93.23206 12.94112 50.83319
#
# Poissons Ratio (x) = 0.08844 0.05705
# Poissons Ratio (y) = 0.63717 0.96576
# Poissons Ratio (z) = 0.10463 0.24586
#
# Static dielectric constant tensor:
#      x y z
#    x 1.603820 0.000000 -0.010520 
#    y 0.000000 1.629130 0.000000 
#    z -0.010520 0.000000 1.629880 
# 
# From -- ./inp_files/54519.got.cif
#   From: 2010.05.17/outbox.cif.g08.bks.cpg/sg11_28_cif.got.tgz:54519.got - 2010.06.03 12:22:45.
