data_PCOD9161074
_publ_section_title
;
Structure prediction by ZEFSAII (Michael W. Deem and Ramdas Pophale) SiO2 
 PCOD9161074
Probable space group: P 21/M
;
_chemical_formula_sum "Si O2"
_cell_formula_units_Z 28
_cell_length_a 29.388823
_cell_length_b 8.246998
_cell_length_c 7.445398
_cell_angle_alpha 90.000000
_cell_angle_beta 136.122755
_cell_angle_gamma 90.000000
_cell_volume 1250.753362
_symmetry_space_group_name_H-M "P 21/M"
_symmetry_group_IT_number 11
_symmetry_cell_setting 'monoclinic'
loop_
_space_group_symop_operation_xyz
x,y,z
-x,1/2+y,-z
-x,-y,-z
x,1/2-y,z
loop_
_atom_site_type_symbol
_atom_site_label
_atom_site_fract_x
_atom_site_fract_y
_atom_site_fract_z
Si Si1 0.645567 0.556091 0.312596
Si Si2 0.953936 0.564514 0.596044
Si Si3 0.323920 0.942740 0.199730
Si Si4 0.184537 0.435276 0.881665
Si Si5 0.568704 0.055818 0.776543
Si Si6 0.921109 0.057517 0.887590
Si Si7 0.216542 0.064296 0.394662
O O1 0.651015 0.750000 0.333087
O O2 0.650556 0.495929 0.530627
O O3 0.710286 0.493699 0.388532
O O4 0.583292 0.505345 0.018948
O O5 0.956077 0.750000 0.536202
O O6 0.887382 0.483353 0.333746
O O7 0.939389 0.550382 0.768009
O O8 0.029572 0.504307 0.809083
O O9 0.325849 0.750000 0.199742
O O10 0.373364 0.007759 0.189786
O O11 0.247714 0.992983 0.961856
O O12 0.177116 0.250000 0.796038
O O13 0.203674 0.430740 0.144174
O O14 0.570496 0.250000 0.783732
O O15 0.500000 0.000000 0.500000
O O16 0.932795 0.250000 0.889842
O O17 0.844476 0.032176 0.701721
O O18 0.214889 0.250000 0.457552
#
# Coordination Sequence:
#
# PCOD9161074 Si02
#       7
#     4   4   4   4   4   4   4
#     4  10  22  41  65  91 122 163 204 244 295 355
#     4   9  19  35  51  72 105 145 189 236 285 341
#     4  10  22  40  62  92 126 156 195 250 302 348
#     4   9  19  36  57  79 106 146 193 235 284 348
#     4  11  25  43  65  95 127 160 199 243 293 355
#     4  10  20  32  49  75 107 144 187 235 288 341
#     4   9  19  35  54  79 108 143 187 233 284 344
#
# _framework density 22.386507000000002
#
# number of rings (size 3 to 8) (size 9 to 14) (size 15 to 20)
#    0.000    2.286    0.000    2.571    2.000    7.429 
#    0.000    0.000    0.000    0.000    0.000    0.000 
#    0.000    0.000    0.000    0.000    0.000    0.000 
#
# Total GULP energy -156209.749734 kJ/mol
# GULP energy per Si atom -5578.919633 kJ/mol
# Density = 2.233555 g / cm^3
# Si number density = 22.386507 Si / 1000 Ang^3
#
#
#
# Elastic Constant Matrix: (Units=GPa)
#
#
# Indices 1 2 3 4 5 6 
#
# 1 55.1478 1.2067 1.9493 0.0000 3.5110 0.0000
# 2 1.2067 41.6550 -5.5631 0.0000 2.4424 0.0000
# 3 1.9493 -5.5631 131.5916 0.0000 1.8620 0.0000
# 4 0.0000 0.0000 0.0000 25.4294 0.0000 7.1899
# 5 3.5110 2.4424 1.8620 0.0000 13.1449 0.0000
# 6 0.0000 0.0000 0.0000 7.1899 0.0000 24.0186
#
#
#
# Elastic Compliance Matrix: (Units=1/GPa)
#
#
# Indices 1 2 3 4 5 6 
#
# 1 0.018455 -0.000279 -0.000217 0.000000 -0.004847 0.000000
# 2 -0.000279 0.024433 0.001102 0.000000 -0.004621 0.000000
# 3 -0.000217 0.001102 0.007667 0.000000 -0.001233 0.000000
# 4 0.000000 0.000000 0.000000 0.042961 0.000000 -0.012860
# 5 -0.004847 -0.004621 -0.001233 0.000000 0.078403 0.000000
# 6 0.000000 0.000000 0.000000 -0.012860 0.000000 0.045484
#
#
# Mechanical properties :
#
#
# Convention : Reuss Voigt Hill
#
# Bulk Modulus (GPa) = 19.31699 24.84226 22.07963
# Shear Modulus (GPa) = 21.41823 27.90534 24.66178
#
# Velocity S-wave (km/s) = 3.09649 3.53445 3.32269
# Velocity P-wave (km/s) = 4.62946 5.27043 4.96031
#
# Compressibility (1/GPa) = 0.05176789
#
# Stress axis : x y z
#
# Youngs Moduli (GPa) = 54.18457 40.92822 130.43710
#
# Poissons Ratio (x) = 0.01143 0.02825
# Poissons Ratio (y) = 0.01514 -0.14380
# Poissons Ratio (z) = 0.01174 -0.04512
#
# Static dielectric constant tensor:
#      x y z
#    x 1.856530 0.000000 0.036180 
#    y 0.000000 1.838250 0.000000 
#    z 0.036180 0.000000 1.896640 
# 
# From -- ./inp_files/29095.got.cif
#   From: 2010.05.17/outbox.cif.g08.bks.cpg/sg11_15_cif.got.tgz:29095.got - 2010.06.03 12:22:45.
