data_PCOD9161696
_publ_section_title
;
Structure prediction by ZEFSAII (Michael W. Deem and Ramdas Pophale) SiO2 
 PCOD9161696
Probable space group: P 21/M
;
_chemical_formula_sum "Si O2"
_cell_formula_units_Z 32
_cell_length_a 27.623597
_cell_length_b 8.813936
_cell_length_c 22.263307
_cell_angle_alpha 90.000000
_cell_angle_beta 20.302333
_cell_angle_gamma 90.000000
_cell_volume 1880.773646
_symmetry_space_group_name_H-M "P 21/M"
_symmetry_group_IT_number 11
_symmetry_cell_setting 'monoclinic'
loop_
_space_group_symop_operation_xyz
x,y,z
-x,1/2+y,-z
-x,-y,-z
x,1/2-y,z
loop_
_atom_site_type_symbol
_atom_site_label
_atom_site_fract_x
_atom_site_fract_y
_atom_site_fract_z
Si Si1 0.849120 0.431754 0.687103
Si Si2 0.659756 0.432368 0.662815
Si Si3 0.860705 0.568997 0.189425
Si Si4 0.448298 0.067707 0.497384
Si Si5 0.350656 0.932541 0.189385
Si Si6 0.451220 0.430891 0.738299
Si Si7 0.655957 0.932428 0.011971
Si Si8 0.736017 0.569314 0.457106
O O1 0.855566 0.250000 0.681617
O O2 0.754789 0.478559 0.739955
O O3 0.000000 0.500000 0.500000
O O4 0.774185 0.491854 0.834304
O O5 0.672311 0.250000 0.641812
O O6 0.691361 0.477273 0.694238
O O7 0.497107 0.471472 0.837615
O O8 0.755800 0.513644 0.501742
O O9 0.866351 0.750000 0.175540
O O10 0.712081 0.520111 0.332563
O O11 0.849897 0.537020 0.273486
O O12 0.000000 0.500000 0.000000
O O13 0.450418 0.250000 0.496749
O O14 0.500000 0.000000 0.500000
O O15 0.547896 0.011276 0.327149
O O16 0.360920 0.750000 0.177402
O O17 0.500000 0.000000 0.000000
O O18 0.443923 0.250000 0.738817
O O19 0.346500 0.474548 0.914350
O O20 0.600466 0.478242 0.592296
O O21 0.668637 0.750000 0.993650
O O22 0.707812 0.750000 0.488506
#
# Coordination Sequence:
#
# PCOD9161696 Si02
#       8
#     4   4   4   4   4   4   4   4
#     4  11  23  36  53  75 103 139 176 212 257 311
#     4   9  17  30  50  76 104 130 164 211 261 307
#     4   9  19  33  51  76 105 136 173 211 251 304
#     4  10  20  34  53  80 109 137 174 217 260 307
#     4  10  20  34  53  79 104 131 170 213 259 307
#     4   9  17  30  50  76 104 135 170 211 259 305
#     4   9  17  31  52  76 103 132 166 211 258 306
#     4   9  17  29  46  74 106 133 168 212 254 301
#
# _framework density 17.014274
#
# number of rings (size 3 to 8) (size 9 to 14) (size 15 to 20)
#    0.000    2.500    1.250    3.000    0.000    6.500 
#    0.000    0.000    2.750    0.000    0.000    0.000 
#    0.000    0.000    0.000    0.000    0.000    0.000 
#
# Total GULP energy -178275.092185 kJ/mol
# GULP energy per Si atom -5571.096631 kJ/mol
# Density = 1.697555 g / cm^3
# Si number density = 17.014274 Si / 1000 Ang^3
#
#
#
# Elastic Constant Matrix: (Units=GPa)
#
#
# Indices 1 2 3 4 5 6 
#
# 1 128.3960 39.3106 75.2817 0.0000 33.6282 0.0000
# 2 39.3106 31.6330 43.2177 0.0000 11.4165 0.0000
# 3 75.2817 43.2177 133.2461 0.0000 28.7534 0.0000
# 4 0.0000 0.0000 0.0000 30.5801 0.0000 8.2723
# 5 33.6282 11.4165 28.7534 0.0000 31.8911 0.0000
# 6 0.0000 0.0000 0.0000 8.2723 0.0000 25.6263
#
#
#
# Elastic Compliance Matrix: (Units=1/GPa)
#
#
# Indices 1 2 3 4 5 6 
#
# 1 0.015702 -0.012132 -0.002857 0.000000 -0.009639 0.000000
# 2 -0.012132 0.066695 -0.015378 0.000000 0.002782 0.000000
# 3 -0.002857 -0.015378 0.015232 0.000000 -0.005216 0.000000
# 4 0.000000 0.000000 0.000000 0.035830 0.000000 -0.011566
# 5 -0.009639 0.002782 -0.005216 0.000000 0.045228 0.000000
# 6 0.000000 0.000000 0.000000 -0.011566 0.000000 0.042756
#
#
# Mechanical properties :
#
#
# Convention : Reuss Voigt Hill
#
# Bulk Modulus (GPa) = 27.10314 67.65503 47.37908
# Shear Modulus (GPa) = 16.97938 26.65051 21.81494
#
# Velocity S-wave (km/s) = 3.16246 3.96202 3.58460
# Velocity P-wave (km/s) = 5.41286 7.79616 6.71116
#
# Compressibility (1/GPa) = 0.03689610
#
# Stress axis : x y z
#
# Youngs Moduli (GPa) = 63.68547 14.99365 65.64989
#
# Poissons Ratio (x) = 0.18190 0.18753
# Poissons Ratio (y) = 0.77262 1.00958
# Poissons Ratio (z) = 0.18192 0.23058
#
# Static dielectric constant tensor:
#      x y z
#    x 1.600450 0.000000 0.030920 
#    y 0.000000 1.572950 0.000000 
#    z 0.030920 0.000000 1.561960 
# 
# From -- ./inp_files/67108.got.cif
#   From: 2010.05.17/outbox.cif.g08.bks.cpg/sg11_34_cif.got.tgz:67108.got - 2010.06.03 12:22:45.
