data_PCOD9161491
_publ_section_title
;
Structure prediction by ZEFSAII (Michael W. Deem and Ramdas Pophale) SiO2 
 PCOD9161491
Probable space group: P 21/M
;
_chemical_formula_sum "Si O2"
_cell_formula_units_Z 28
_cell_length_a 10.424217
_cell_length_b 8.845750
_cell_length_c 17.522487
_cell_angle_alpha 90.000000
_cell_angle_beta 105.246400
_cell_angle_gamma 90.000000
_cell_volume 1558.880693
_symmetry_space_group_name_H-M "P 21/M"
_symmetry_group_IT_number 11
_symmetry_cell_setting 'monoclinic'
loop_
_space_group_symop_operation_xyz
x,y,z
-x,1/2+y,-z
-x,-y,-z
x,1/2-y,z
loop_
_atom_site_type_symbol
_atom_site_label
_atom_site_fract_x
_atom_site_fract_y
_atom_site_fract_z
Si Si1 0.589098 0.429823 0.401424
Si Si2 0.824582 0.068331 0.172965
Si Si3 0.315092 0.929686 0.417332
Si Si4 0.312555 0.068721 0.160181
Si Si5 0.120170 0.431132 0.272894
Si Si6 0.857413 0.068632 0.000146
Si Si7 0.599295 0.929705 0.242703
O O1 0.585883 0.250000 0.387934
O O2 0.675039 0.461296 0.490783
O O3 0.440389 0.486590 0.398062
O O4 0.636716 0.512652 0.333111
O O5 0.808141 0.250000 0.177834
O O6 0.968794 0.028386 0.230135
O O7 0.708273 0.985852 0.199750
O O8 0.826369 0.032255 0.083342
O O9 0.331448 0.750000 0.409364
O O10 0.183182 0.986938 0.355408
O O11 0.319175 0.250000 0.154964
O O12 0.212387 0.031930 0.214199
O O13 0.251156 0.998757 0.074109
O O14 0.456905 0.002815 0.200721
O O15 0.127132 0.250000 0.284865
O O16 0.863198 0.250000 0.993808
O O17 0.000000 0.000000 0.000000
O O18 0.587831 0.750000 0.240270
#
# Coordination Sequence:
#
# PCOD9161491 Si02
#       7
#     4   4   4   4   4   4   4
#     4  10  20  36  57  84 121 160 194 240 298 350
#     4  10  23  43  62  84 119 161 197 239 299 358
#     4  10  20  33  57  91 120 151 198 248 291 343
#     4  11  22  39  63  90 120 158 198 244 299 353
#     4  10  20  37  61  88 118 157 199 240 296 355
#     4  11  22  39  63  91 122 156 200 249 297 351
#     4  12  25  40  60  90 120 156 201 246 298 354
#
# _framework density 17.961604000000001
#
# number of rings (size 3 to 8) (size 9 to 14) (size 15 to 20)
#    0.000    1.429    2.857    3.000    0.000    4.571 
#    0.000    0.714    0.000    0.000    0.000    0.000 
#    0.000    0.000    0.000    0.000    0.000    0.000 
#
# Total GULP energy -156490.892767 kJ/mol
# GULP energy per Si atom -5588.960456 kJ/mol
# Density = 1.792072 g / cm^3
# Si number density = 17.961604 Si / 1000 Ang^3
#
#
#
# Elastic Constant Matrix: (Units=GPa)
#
#
# Indices 1 2 3 4 5 6 
#
# 1 94.1979 46.1864 47.1437 0.0000 -6.5002 0.0000
# 2 46.1864 65.8009 55.9249 0.0000 -5.8354 0.0000
# 3 47.1437 55.9249 123.3187 0.0000 3.0182 0.0000
# 4 0.0000 0.0000 0.0000 34.6691 0.0000 4.7759
# 5 -6.5002 -5.8354 3.0182 0.0000 30.9716 0.0000
# 6 0.0000 0.0000 0.0000 4.7759 0.0000 25.9232
#
#
#
# Elastic Compliance Matrix: (Units=1/GPa)
#
#
# Indices 1 2 3 4 5 6 
#
# 1 0.016500 -0.009801 -0.001907 0.000000 0.001802 0.000000
# 2 -0.009801 0.031622 -0.010715 0.000000 0.004945 0.000000
# 3 -0.001907 -0.010715 0.013789 0.000000 -0.003763 0.000000
# 4 0.000000 0.000000 0.000000 0.029595 0.000000 -0.005452
# 5 0.001802 0.004945 -0.003763 0.000000 0.033964 0.000000
# 6 0.000000 0.000000 0.000000 -0.005452 0.000000 0.039580
#
#
# Mechanical properties :
#
#
# Convention : Reuss Voigt Hill
#
# Bulk Modulus (GPa) = 58.59695 64.64749 61.62222
# Shear Modulus (GPa) = 23.19264 27.25029 25.22147
#
# Velocity S-wave (km/s) = 3.59727 3.89928 3.75131
# Velocity P-wave (km/s) = 7.06740 7.50617 7.29009
#
# Compressibility (1/GPa) = 0.01706573
#
# Stress axis : x y z
#
# Youngs Moduli (GPa) = 60.60462 31.62376 72.51920
#
# Poissons Ratio (x) = 0.30994 0.13832
# Poissons Ratio (y) = 0.59398 0.77702
# Poissons Ratio (z) = 0.11560 0.33884
#
# Static dielectric constant tensor:
#      x y z
#    x 1.580550 0.000000 0.005530 
#    y 0.000000 1.598910 0.000000 
#    z 0.005530 0.000000 1.614330 
# 
# From -- ./inp_files/57557.got.cif
#   From: 2010.05.17/outbox.cif.g08.bks.cpg/sg11_29_cif.got.tgz:57557.got - 2010.06.03 12:22:45.
