data_PCOD9161171
_publ_section_title
;
Structure prediction by ZEFSAII (Michael W. Deem and Ramdas Pophale) SiO2 
 PCOD9161171
Probable space group: P 21/M
;
_chemical_formula_sum "Si O2"
_cell_formula_units_Z 32
_cell_length_a 18.410295
_cell_length_b 7.529326
_cell_length_c 25.126205
_cell_angle_alpha 90.000000
_cell_angle_beta 152.817222
_cell_angle_gamma 90.000000
_cell_volume 1591.105222
_symmetry_space_group_name_H-M "P 21/M"
_symmetry_group_IT_number 11
_symmetry_cell_setting 'monoclinic'
loop_
_space_group_symop_operation_xyz
x,y,z
-x,1/2+y,-z
-x,-y,-z
x,1/2-y,z
loop_
_atom_site_type_symbol
_atom_site_label
_atom_site_fract_x
_atom_site_fract_y
_atom_site_fract_z
Si Si1 0.942490 0.538773 0.522390
Si Si2 0.514466 0.539502 0.872305
Si Si3 0.534005 0.463491 0.390105
Si Si4 0.419853 0.544837 0.696972
Si Si5 0.199270 0.964278 0.868329
Si Si6 0.656721 0.537652 0.637195
Si Si7 0.255112 0.967064 0.787818
Si Si8 0.153423 0.463987 0.336453
O O1 0.924946 0.750000 0.516867
O O2 0.771102 0.457915 0.421986
O O3 0.000000 0.500000 0.500000
O O4 0.082206 0.480023 0.653003
O O5 0.480715 0.750000 0.846409
O O6 0.487886 0.464651 0.795949
O O7 0.388561 0.468659 0.833670
O O8 0.688128 0.515222 0.009692
O O9 0.518949 0.250000 0.377901
O O10 0.535177 0.534681 0.330896
O O11 0.393305 0.530858 0.337264
O O12 0.703468 0.496118 0.529450
O O13 0.473208 0.750000 0.730149
O O14 0.194811 0.750000 0.863289
O O15 0.272678 0.026659 0.860037
O O16 0.018562 0.028438 0.757200
O O17 0.500000 0.500000 0.500000
O O18 0.677201 0.750000 0.655177
O O19 0.797024 0.470328 0.690370
O O20 0.259558 0.750000 0.790508
O O21 0.145221 0.250000 0.328453
#
# Coordination Sequence:
#
# PCOD9161171 Si02
#       8
#     4   4   4   4   4   4   4   4
#     4  11  20  33  52  73  98 127 156 191 237 287
#     4  10  20  35  49  62  89 127 160 198 242 277
#     4   9  17  29  49  75  99 123 157 193 227 284
#     4  10  20  34  49  69  98 128 159 196 237 281
#     4  10  20  33  49  69  90 119 161 201 234 277
#     4   8  14  26  45  70  97 125 151 183 233 285
#     4   9  18  33  50  67  92 121 152 194 240 277
#     4   9  17  30  48  71 101 127 150 190 244 289
#
# _framework density 20.111806000000001
#
# number of rings (size 3 to 8) (size 9 to 14) (size 15 to 20)
#    0.000    2.500    1.250    1.500    0.000    2.500 
#    0.000    1.250    0.000    0.750    0.000    0.000 
#    0.000    0.000    0.000    0.000    0.000    0.000 
#
# Total GULP energy -178509.536320 kJ/mol
# GULP energy per Si atom -5578.423010 kJ/mol
# Density = 2.006603 g / cm^3
# Si number density = 20.111806 Si / 1000 Ang^3
#
#
#
# Elastic Constant Matrix: (Units=GPa)
#
#
# Indices 1 2 3 4 5 6 
#
# 1 185.5688 9.2114 51.5112 0.0000 -26.3121 0.0000
# 2 9.2114 53.2205 0.4466 0.0000 -0.9615 0.0000
# 3 51.5112 0.4466 73.9487 0.0000 -18.1721 0.0000
# 4 0.0000 0.0000 0.0000 12.2748 0.0000 2.7837
# 5 -26.3121 -0.9615 -18.1721 0.0000 19.2542 0.0000
# 6 0.0000 0.0000 0.0000 2.7837 0.0000 0.4332
#
#
#
# Elastic Compliance Matrix: (Units=1/GPa)
#
#
# Indices 1 2 3 4 5 6 
#
# 1 0.007361 -0.001123 -0.003467 0.000000 0.006732 0.000000
# 2 -0.001123 0.018979 0.000682 0.000000 0.000056 0.000000
# 3 -0.003467 0.000682 0.019240 0.000000 0.013455 0.000000
# 4 0.000000 0.000000 0.000000 -0.178075 0.000000 1.144439
# 5 0.006732 0.000056 0.013455 0.000000 0.073838 0.000000
# 6 0.000000 0.000000 0.000000 1.144439 0.000000 -5.046342
#
#
# Mechanical properties :
#
#
# Convention : Reuss Voigt Hill
#
# Bulk Modulus (GPa) = 26.48023 48.34183 37.41103
# Shear Modulus (GPa) = -0.98336 23.16369 11.09016
#
# Velocity S-wave (km/s) = -0.70001 3.39742 2.35079
# Velocity P-wave (km/s) = 3.54143 6.28321 5.10002
#
# Compressibility (1/GPa) = 0.03776403
#
# Stress axis : x y z
#
# Youngs Moduli (GPa) = 135.84290 52.68848 51.97466
#
# Poissons Ratio (x) = 0.05919 0.18018
# Poissons Ratio (y) = 0.15261 -0.03543
# Poissons Ratio (z) = 0.47094 -0.03592
#
# Static dielectric constant tensor:
#      x y z
#    x 1.742370 0.000000 -0.025230 
#    y 0.000000 1.758270 0.000000 
#    z -0.025230 0.000000 1.659620 
# 
# From -- ./inp_files/43796.got.cif
#   From: 2010.05.17/outbox.cif.g08.bks.cpg/sg11_22_cif.got.tgz:43796.got - 2010.06.03 12:22:45.
