data_PCOD9161838
_publ_section_title
;
Structure prediction by ZEFSAII (Michael W. Deem and Ramdas Pophale) SiO2 
 PCOD9161838
Probable space group: P 21/M
;
_chemical_formula_sum "Si O2"
_cell_formula_units_Z 24
_cell_length_a 14.808089
_cell_length_b 8.737120
_cell_length_c 15.483334
_cell_angle_alpha 90.000000
_cell_angle_beta 140.268542
_cell_angle_gamma 90.000000
_cell_volume 1280.447797
_symmetry_space_group_name_H-M "P 21/M"
_symmetry_group_IT_number 11
_symmetry_cell_setting 'monoclinic'
loop_
_space_group_symop_operation_xyz
x,y,z
-x,1/2+y,-z
-x,-y,-z
x,1/2-y,z
loop_
_atom_site_type_symbol
_atom_site_label
_atom_site_fract_x
_atom_site_fract_y
_atom_site_fract_z
Si Si1 0.304229 0.067079 0.924210
Si Si2 0.649626 0.565485 0.405768
Si Si3 0.798680 0.565561 0.689630
Si Si4 0.658997 0.065637 0.751175
Si Si5 0.880065 0.065090 0.059555
Si Si6 0.628234 0.067285 0.205689
O O1 0.294368 0.250000 0.917707
O O2 0.191139 0.995946 0.905689
O O3 0.294069 0.005650 0.819319
O O4 0.461995 0.023431 0.073503
O O5 0.651531 0.750000 0.398022
O O6 0.754595 0.521614 0.560298
O O7 0.492233 0.519892 0.321323
O O8 0.680294 0.491824 0.336108
O O9 0.793239 0.750000 0.690073
O O10 0.691314 0.500363 0.681089
O O11 0.957795 0.514611 0.828303
O O12 0.660312 0.250000 0.747394
O O13 0.782776 0.015173 0.907780
O O14 0.878032 0.250000 0.060202
O O15 0.637627 0.250000 0.207544
#
# Coordination Sequence:
#
# PCOD9161838 Si02
#       6
#     4   4   4   4   4   4
#     4  10  20  34  56  84 109 137 175 221 268 317
#     4  10  20  36  55  79 110 143 179 221 267 314
#     4  10  22  36  53  78 111 146 179 220 268 316
#     4  10  20  34  55  78 105 144 185 224 264 310
#     4  10  20  36  55  79 110 143 179 221 267 314
#     4  10  20  34  56  84 109 137 175 221 268 317
#
# _framework density 18.743442999999999
#
# number of rings (size 3 to 8) (size 9 to 14) (size 15 to 20)
#    0.000    2.000    1.667    2.000    0.000    4.000 
#    0.000    0.833    0.000    0.000    0.000    0.000 
#    0.000    0.000    0.000    0.000    0.000    0.000 
#
# Total GULP energy -134045.065799 kJ/mol
# GULP energy per Si atom -5585.211075 kJ/mol
# Density = 1.870078 g / cm^3
# Si number density = 18.743443 Si / 1000 Ang^3
#
#
#
# Elastic Constant Matrix: (Units=GPa)
#
#
# Indices 1 2 3 4 5 6 
#
# 1 46.8142 1.8032 -6.7539 0.0000 -23.7576 0.0000
# 2 1.8032 2.4974 7.1120 0.0000 -4.0020 0.0000
# 3 -6.7539 7.1120 64.6072 0.0000 -13.2659 0.0000
# 4 0.0000 0.0000 0.0000 14.7036 0.0000 -11.6305
# 5 -23.7576 -4.0020 -13.2659 0.0000 30.7245 0.0000
# 6 0.0000 0.0000 0.0000 -11.6305 0.0000 31.5280
#
#
#
# Elastic Compliance Matrix: (Units=1/GPa)
#
#
# Indices 1 2 3 4 5 6 
#
# 1 0.042587 -0.007584 0.012998 0.000000 0.037554 0.000000
# 2 -0.007584 0.675309 -0.063944 0.000000 0.054488 0.000000
# 3 0.012998 -0.063944 0.026586 0.000000 0.013201 0.000000
# 4 0.000000 0.000000 0.000000 0.096032 0.000000 0.035426
# 5 0.037554 0.054488 0.013201 0.000000 0.074383 0.000000
# 6 0.000000 0.000000 0.000000 0.035426 0.000000 0.044786
#
#
# Mechanical properties :
#
#
# Convention : Reuss Voigt Hill
#
# Bulk Modulus (GPa) = 1.59382 13.13794 7.36588
# Shear Modulus (GPa) = 3.88837 22.84172 13.36505
#
# Velocity S-wave (km/s) = 1.44188 3.49471 2.67320
# Velocity P-wave (km/s) = 1.90374 4.82789 3.66966
#
# Compressibility (1/GPa) = 0.62742192
#
# Stress axis : x y z
#
# Youngs Moduli (GPa) = 23.48158 1.48080 37.61313
#
# Poissons Ratio (x) = 0.01123 -0.48889
# Poissons Ratio (y) = 0.17809 2.40512
# Poissons Ratio (z) = -0.30521 0.09469
#
# Static dielectric constant tensor:
#      x y z
#    x 1.606570 0.000000 0.009320 
#    y 0.000000 1.623720 0.000000 
#    z 0.009320 0.000000 1.661090 
# 
# From -- ./inp_files/43171.got.cif
#   From: 2010.05.17/outbox.cif.g08.bks.cpg/sg11_22_cif.got.tgz:43171.got - 2010.06.03 12:22:45.
