data_PCOD9161999
_publ_section_title
;
Structure prediction by ZEFSAII (Michael W. Deem and Ramdas Pophale) SiO2 
 PCOD9161999
Probable space group: P 21/M
;
_chemical_formula_sum "Si O2"
_cell_formula_units_Z 32
_cell_length_a 14.989289
_cell_length_b 14.038014
_cell_length_c 22.771539
_cell_angle_alpha 90.000000
_cell_angle_beta 158.597221
_cell_angle_gamma 90.000000
_cell_volume 1748.554066
_symmetry_space_group_name_H-M "P 21/M"
_symmetry_group_IT_number 11
_symmetry_cell_setting 'monoclinic'
loop_
_space_group_symop_operation_xyz
x,y,z
-x,1/2+y,-z
-x,-y,-z
x,1/2-y,z
loop_
_atom_site_type_symbol
_atom_site_label
_atom_site_fract_x
_atom_site_fract_y
_atom_site_fract_z
Si Si1 0.074170 0.016190 0.386126
Si Si2 0.051073 0.362579 0.979781
Si Si3 0.804128 0.135994 0.129916
Si Si4 0.787745 0.009080 0.323642
Si Si5 0.712200 0.636348 0.124219
Si Si6 0.343637 0.361339 0.045960
Si Si7 0.579562 0.136787 0.872670
Si Si8 0.383479 0.971945 0.229440
O O1 0.349936 0.015822 0.578493
O O2 0.016875 0.082463 0.295231
O O3 0.903364 0.049800 0.335345
O O4 0.950775 0.914681 0.296101
O O5 0.061932 0.250000 0.000803
O O6 0.119626 0.373575 0.953176
O O7 0.250188 0.426834 0.136521
O O8 0.791870 0.408203 0.837104
O O9 0.828426 0.250000 0.151091
O O10 0.544756 0.108657 0.002187
O O11 0.782322 0.114883 0.046965
O O12 0.570518 0.078766 0.208901
O O13 0.664589 0.904971 0.246614
O O14 0.000000 0.000000 0.500000
O O15 0.731734 0.750000 0.141024
O O16 0.700562 0.609377 0.048203
O O17 0.407295 0.250000 0.084450
O O18 0.568631 0.250000 0.857853
O O19 0.606691 0.084053 0.827097
#
# Coordination Sequence:
#
# PCOD9161999 Si02
#       8
#     4   4   4   4   4   4   4   4
#     4  12  22  35  60  90 127 155 187 250 296 353
#     4  10  22  43  66  84 112 156 208 252 295 353
#     4  10  21  35  55  86 124 165 198 230 288 359
#     4  12  21  34  52  88 125 152 192 242 296 356
#     4  10  20  34  56  86 119 160 198 231 289 355
#     4  10  20  37  60  82 111 157 202 242 287 349
#     4  11  22  37  57  84 121 163 198 235 290 355
#     4  11  24  41  63  91 117 155 202 249 304 352
#
# _framework density 18.300836
#
# number of rings (size 3 to 8) (size 9 to 14) (size 15 to 20)
#    0.000    1.250    5.000    1.500    0.000    2.000 
#    0.000    0.625    0.000    0.000    0.000    0.000 
#    0.000    0.000    0.000    0.000    0.000    0.000 
#
# Total GULP energy -178516.284086 kJ/mol
# GULP energy per Si atom -5578.633878 kJ/mol
# Density = 1.825918 g / cm^3
# Si number density = 18.300836 Si / 1000 Ang^3
#
#
#
# Elastic Constant Matrix: (Units=GPa)
#
#
# Indices 1 2 3 4 5 6 
#
# 1 80.8573 27.0890 48.0742 0.0000 1.3310 0.0000
# 2 27.0890 80.2410 36.9534 0.0000 1.9494 0.0000
# 3 48.0742 36.9534 104.6839 0.0000 -2.2836 0.0000
# 4 0.0000 0.0000 0.0000 5.4954 0.0000 -5.8998
# 5 1.3310 1.9494 -2.2836 0.0000 28.6188 0.0000
# 6 0.0000 0.0000 0.0000 -5.8998 0.0000 26.3517
#
#
#
# Elastic Compliance Matrix: (Units=1/GPa)
#
#
# Indices 1 2 3 4 5 6 
#
# 1 0.017507 -0.002587 -0.007153 0.000000 -0.001209 0.000000
# 2 -0.002587 0.015323 -0.004249 0.000000 -0.001262 0.000000
# 3 -0.007153 -0.004249 0.014376 0.000000 0.001769 0.000000
# 4 0.000000 0.000000 0.000000 0.239549 0.000000 0.053632
# 5 -0.001209 -0.001262 0.001769 0.000000 0.035225 0.000000
# 6 0.000000 0.000000 0.000000 0.053632 0.000000 0.049956
#
#
# Mechanical properties :
#
#
# Convention : Reuss Voigt Hill
#
# Bulk Modulus (GPa) = 52.00483 54.44617 53.22550
# Shear Modulus (GPa) = 12.30552 22.33755 17.32154
#
# Velocity S-wave (km/s) = 2.59589 3.49746 3.07984
# Velocity P-wave (km/s) = 6.12072 6.79153 6.46483
#
# Compressibility (1/GPa) = 0.01922898
#
# Stress axis : x y z
#
# Youngs Moduli (GPa) = 57.12071 65.26123 69.56128
#
# Poissons Ratio (x) = 0.16881 0.49757
# Poissons Ratio (y) = 0.14775 0.29554
# Poissons Ratio (z) = 0.40858 0.27727
#
# Static dielectric constant tensor:
#      x y z
#    x 1.669370 0.000000 -0.029970 
#    y 0.000000 1.660190 0.000000 
#    z -0.029970 0.000000 1.603400 
# 
# From -- ./inp_files/65810.got.cif
#   From: 2010.05.17/outbox.cif.g08.bks.cpg/sg11_33_cif.got.tgz:65810.got - 2010.06.03 12:22:45.
