data_PCOD9161021
_publ_section_title
;
Structure prediction by ZEFSAII (Michael W. Deem and Ramdas Pophale) SiO2 
 PCOD9161021
Probable space group: P 21/M
;
_chemical_formula_sum "Si O2"
_cell_formula_units_Z 32
_cell_length_a 24.252257
_cell_length_b 8.081203
_cell_length_c 6.844732
_cell_angle_alpha 90.000000
_cell_angle_beta 113.434830
_cell_angle_gamma 90.000000
_cell_volume 1230.826583
_symmetry_space_group_name_H-M "P 21/M"
_symmetry_group_IT_number 11
_symmetry_cell_setting 'monoclinic'
loop_
_space_group_symop_operation_xyz
x,y,z
-x,1/2+y,-z
-x,-y,-z
x,1/2-y,z
loop_
_atom_site_type_symbol
_atom_site_label
_atom_site_fract_x
_atom_site_fract_y
_atom_site_fract_z
Si Si1 0.676858 0.056425 0.618233
Si Si2 0.048005 0.449045 0.796348
Si Si3 0.575835 0.938836 0.938369
Si Si4 0.795874 0.054678 0.622898
Si Si5 0.453913 0.436778 0.648423
Si Si6 0.076661 0.054718 0.278873
Si Si7 0.296862 0.439285 0.927701
Si Si8 0.824191 0.547893 0.112768
O O1 0.689243 0.250000 0.680141
O O2 0.724130 0.009697 0.510698
O O3 0.605537 0.038335 0.489835
O O4 0.692536 0.940643 0.822241
O O5 0.050842 0.250000 0.797356
O O6 0.978636 0.493874 0.666739
O O7 0.062274 0.509881 0.038796
O O8 0.106869 0.505774 0.759324
O O9 0.587170 0.750000 0.894701
O O10 0.640660 0.026103 0.042467
O O11 0.523272 0.006395 0.725460
O O12 0.552951 0.932213 0.126088
O O13 0.800843 0.250000 0.603023
O O14 0.852632 0.976626 0.590941
O O15 0.809480 0.007967 0.870022
O O16 0.447807 0.250000 0.568784
O O17 0.069854 0.250000 0.267854
O O18 0.294025 0.250000 0.848770
O O19 0.230178 0.516197 0.826742
O O20 0.821781 0.750000 0.116860
#
# Coordination Sequence:
#
# PCOD9161021 Si02
#       8
#     4   4   4   4   4   4   4   4
#     4  10  20  32  47  69  95 122 153 188 227 272
#     4   8  13  20  30  47  73 105 140 174 209 254
#     4   9  19  35  53  72  93 118 150 188 228 270
#     4   9  16  25  37  54  79 110 142 179 220 259
#     4  10  20  34  52  71  92 121 153 185 225 271
#     4   9  15  21  31  48  72 106 145 179 212 254
#     4   9  17  31  50  70  93 120 151 189 230 271
#     4   8  14  24  38  56  79 109 142 176 217 262
#
# _framework density 25.998788000000001
#
# number of rings (size 3 to 8) (size 9 to 14) (size 15 to 20)
#    0.000    3.000    0.000    2.250    0.000    6.000 
#    0.000    0.000    0.000    0.000    0.000    0.000 
#    0.000    1.000    0.000    2.000    0.000    8.125 
#
# Total GULP energy -178504.965418 kJ/mol
# GULP energy per Si atom -5578.280169 kJ/mol
# Density = 2.593961 g / cm^3
# Si number density = 25.998788 Si / 1000 Ang^3
#
#
#
# Elastic Constant Matrix: (Units=GPa)
#
#
# Indices 1 2 3 4 5 6 
#
# 1 228.0551 16.5683 28.9731 0.0000 60.3938 0.0000
# 2 16.5683 51.6261 -5.3498 0.0000 8.7863 0.0000
# 3 28.9731 -5.3498 110.2210 0.0000 48.2106 0.0000
# 4 0.0000 0.0000 0.0000 13.5110 0.0000 13.8032
# 5 60.3938 8.7863 48.2106 0.0000 56.7057 0.0000
# 6 0.0000 0.0000 0.0000 13.8032 0.0000 26.1972
#
#
#
# Elastic Compliance Matrix: (Units=1/GPa)
#
#
# Indices 1 2 3 4 5 6 
#
# 1 0.006398 -0.000410 0.001992 0.000000 -0.008443 0.000000
# 2 -0.000410 0.020907 0.003739 0.000000 -0.005982 0.000000
# 3 0.001992 0.003739 0.015780 0.000000 -0.016116 0.000000
# 4 0.000000 0.000000 0.000000 0.160305 0.000000 -0.084465
# 5 -0.008443 -0.005982 -0.016116 0.000000 0.041256 0.000000
# 6 0.000000 0.000000 0.000000 -0.084465 0.000000 0.082676
#
#
# Mechanical properties :
#
#
# Convention : Reuss Voigt Hill
#
# Bulk Modulus (GPa) = 18.61291 52.25392 35.43342
# Shear Modulus (GPa) = 14.94365 42.59682 28.77023
#
# Velocity S-wave (km/s) = 2.40006 4.05213 3.33017
# Velocity P-wave (km/s) = 3.85423 6.48346 5.33340
#
# Compressibility (1/GPa) = 0.05372615
#
# Stress axis : x y z
#
# Youngs Moduli (GPa) = 156.30683 47.83068 63.37152
#
# Poissons Ratio (x) = 0.01960 -0.12621
# Poissons Ratio (y) = 0.06405 -0.23694
# Poissons Ratio (z) = -0.31130 -0.17884
#
# Static dielectric constant tensor:
#      x y z
#    x 2.178780 0.000000 0.017150 
#    y 0.000000 1.920230 0.000000 
#    z 0.017150 0.000000 2.181650 
# 
# From -- ./inp_files/42511.got.cif
#   From: 2010.05.17/outbox.cif.g08.bks.cpg/sg11_22_cif.got.tgz:42511.got - 2010.06.03 12:22:45.
