data_PCOD9161820
_publ_section_title
;
Structure prediction by ZEFSAII (Michael W. Deem and Ramdas Pophale) SiO2 
 PCOD9161820
Probable space group: P 21/M
;
_chemical_formula_sum "Si O2"
_cell_formula_units_Z 28
_cell_length_a 15.541152
_cell_length_b 8.493522
_cell_length_c 22.410725
_cell_angle_alpha 90.000000
_cell_angle_beta 25.190401
_cell_angle_gamma 90.000000
_cell_volume 1259.090105
_symmetry_space_group_name_H-M "P 21/M"
_symmetry_group_IT_number 11
_symmetry_cell_setting 'monoclinic'
loop_
_space_group_symop_operation_xyz
x,y,z
-x,1/2+y,-z
-x,-y,-z
x,1/2-y,z
loop_
_atom_site_type_symbol
_atom_site_label
_atom_site_fract_x
_atom_site_fract_y
_atom_site_fract_z
Si Si1 0.903548 0.925020 0.502532
Si Si2 0.895339 0.935300 0.793862
Si Si3 0.719409 0.565820 0.783910
Si Si4 0.700684 0.061538 0.524055
Si Si5 0.970197 0.938850 0.951149
Si Si6 0.347472 0.058073 0.942591
Si Si7 0.370353 0.439721 0.638731
O O1 0.838794 0.750000 0.555007
O O2 0.731302 0.010516 0.572992
O O3 0.000000 0.000000 0.500000
O O4 0.101963 0.941208 0.337564
O O5 0.933419 0.750000 0.779488
O O6 0.712411 0.943391 0.860438
O O7 0.106968 0.997864 0.635645
O O8 0.817695 0.997128 0.904816
O O9 0.780812 0.750000 0.734932
O O10 0.548282 0.520712 0.843858
O O11 0.708532 0.250000 0.519306
O O12 0.501467 0.012831 0.614740
O O13 0.977161 0.750000 0.948227
O O14 0.752775 0.982594 0.057902
O O15 0.148238 0.996034 0.794406
O O16 0.000000 0.000000 0.000000
O O17 0.373529 0.250000 0.928676
O O18 0.500000 0.500000 0.500000
O O19 0.362025 0.250000 0.639794
#
# Coordination Sequence:
#
# PCOD9161820 Si02
#       7
#     4   4   4   4   4   4   4
#     4  11  22  37  57  81 111 148 190 237 289 353
#     4   8  15  31  55  83 115 147 183 228 283 347
#     4  10  20  34  54  83 116 148 184 231 287 351
#     4   9  19  37  59  85 118 155 194 243 300 355
#     4  11  25  44  64  88 123 166 214 267 321 374
#     4  10  20  36  58  82 112 155 198 238 291 355
#     4  11  23  41  68  98 128 163 208 262 318 377
#
# _framework density 22.238282000000002
#
# number of rings (size 3 to 8) (size 9 to 14) (size 15 to 20)
#    0.000    2.000    0.000    4.714    0.000    5.714 
#    0.000    4.286    0.000    0.000    0.000    0.000 
#    0.000    0.000    0.000    0.000    0.000    0.000 
#
# Total GULP energy -155958.424945 kJ/mol
# GULP energy per Si atom -5569.943748 kJ/mol
# Density = 2.218767 g / cm^3
# Si number density = 22.238282 Si / 1000 Ang^3
#
#
#
# Elastic Constant Matrix: (Units=GPa)
#
#
# Indices 1 2 3 4 5 6 
#
# 1 153.6583 26.3540 11.6249 0.0000 -9.6726 0.0000
# 2 26.3540 38.2384 6.2008 0.0000 -2.1413 0.0000
# 3 11.6249 6.2008 42.0777 0.0000 -11.0177 0.0000
# 4 0.0000 0.0000 0.0000 24.4931 0.0000 -0.1550
# 5 -9.6726 -2.1413 -11.0177 0.0000 37.8052 0.0000
# 6 0.0000 0.0000 0.0000 -0.1550 0.0000 30.8100
#
#
#
# Elastic Compliance Matrix: (Units=1/GPa)
#
#
# Indices 1 2 3 4 5 6 
#
# 1 0.007516 -0.004943 -0.000994 0.000000 0.001353 0.000000
# 2 -0.004943 0.030049 -0.003192 0.000000 -0.000493 0.000000
# 3 -0.000994 -0.003192 0.026412 0.000000 0.007262 0.000000
# 4 0.000000 0.000000 0.000000 0.040829 0.000000 0.000205
# 5 0.001353 -0.000493 0.007262 0.000000 0.028886 0.000000
# 6 0.000000 0.000000 0.000000 0.000205 0.000000 0.032458
#
#
# Mechanical properties :
#
#
# Convention : Reuss Voigt Hill
#
# Bulk Modulus (GPa) = 21.87231 35.81487 28.84359
# Shear Modulus (GPa) = 25.04421 31.27463 28.15942
#
# Velocity S-wave (km/s) = 3.35949 3.75419 3.56231
# Velocity P-wave (km/s) = 4.99050 5.91033 5.46978
#
# Compressibility (1/GPa) = 0.04571991
#
# Stress axis : x y z
#
# Youngs Moduli (GPa) = 133.04709 33.27944 37.86161
#
# Poissons Ratio (x) = 0.16451 0.03762
# Poissons Ratio (y) = 0.65768 0.12084
# Poissons Ratio (z) = 0.13220 0.10621
#
# Static dielectric constant tensor:
#      x y z
#    x 2.665280 0.000000 -1.010390 
#    y 0.000000 1.821420 0.000000 
#    z -1.010390 0.000000 3.450700 
# 
# From -- ./inp_files/49494.got.cif
#   From: 2010.05.17/outbox.cif.g08.bks.cpg/sg11_25_cif.got.tgz:49494.got - 2010.06.03 12:22:45.
