data_PCOD9161215
_publ_section_title
;
Structure prediction by ZEFSAII (Michael W. Deem and Ramdas Pophale) SiO2 
 PCOD9161215
Probable space group: P 21/M
;
_chemical_formula_sum "Si O2"
_cell_formula_units_Z 28
_cell_length_a 27.364833
_cell_length_b 7.427229
_cell_length_c 9.685599
_cell_angle_alpha 90.000000
_cell_angle_beta 37.824125
_cell_angle_gamma 90.000000
_cell_volume 1207.192047
_symmetry_space_group_name_H-M "P 21/M"
_symmetry_group_IT_number 11
_symmetry_cell_setting 'monoclinic'
loop_
_space_group_symop_operation_xyz
x,y,z
-x,1/2+y,-z
-x,-y,-z
x,1/2-y,z
loop_
_atom_site_type_symbol
_atom_site_label
_atom_site_fract_x
_atom_site_fract_y
_atom_site_fract_z
Si Si1 0.931585 0.042682 0.810069
Si Si2 0.688262 0.968388 0.616808
Si Si3 0.469519 0.034886 0.911829
Si Si4 0.870438 0.968063 0.246173
Si Si5 0.628219 0.041115 0.442076
Si Si6 0.904108 0.966806 0.471946
Si Si7 0.214898 0.963189 0.039338
O O1 0.936225 0.250000 0.755920
O O2 0.855962 0.959922 0.899819
O O3 0.020843 0.964526 0.606166
O O4 0.910791 0.038521 0.018535
O O5 0.685472 0.750000 0.618043
O O6 0.777661 0.021695 0.451359
O O7 0.664589 0.033029 0.516264
O O8 0.621516 0.029725 0.876143
O O9 0.467281 0.250000 0.896222
O O10 0.538968 0.962118 0.656860
O O11 0.500000 0.000000 0.000000
O O12 0.874036 0.750000 0.233296
O O13 0.907909 0.030122 0.306305
O O14 0.617498 0.250000 0.426703
O O15 0.697680 0.962401 0.190317
O O16 0.909477 0.750000 0.458167
O O17 0.820648 0.013431 0.729472
O O18 0.220257 0.750000 0.996709
#
# Coordination Sequence:
#
# PCOD9161215 Si02
#       7
#     4   4   4   4   4   4   4
#     4  10  20  35  53  72  94 122 161 204 242 282
#     4   9  16  27  45  70  96 122 154 189 231 281
#     4   8  14  24  41  66  94 121 148 186 232 274
#     4  10  20  33  50  73  99 126 159 196 236 286
#     4   9  16  28  46  69  96 122 153 193 234 276
#     4  10  22  36  49  69  97 129 162 197 239 284
#     4  10  20  33  50  72  96 124 160 199 239 284
#
# _framework density 23.194320999999999
#
# number of rings (size 3 to 8) (size 9 to 14) (size 15 to 20)
#    0.000    2.571    1.429    0.857    0.000    2.286 
#    0.000    0.000    0.000    0.857    0.000    0.000 
#    0.000    0.000    0.000    0.000    0.000    0.000 
#
# Total GULP energy -156253.712998 kJ/mol
# GULP energy per Si atom -5580.489750 kJ/mol
# Density = 2.314153 g / cm^3
# Si number density = 23.194321 Si / 1000 Ang^3
#
#
#
# Elastic Constant Matrix: (Units=GPa)
#
#
# Indices 1 2 3 4 5 6 
#
# 1 18.7268 1.2798 9.3915 0.0000 1.1531 0.0000
# 2 1.2798 82.2401 11.4004 0.0000 -3.9338 0.0000
# 3 9.3915 11.4004 153.7444 0.0000 -19.7363 0.0000
# 4 0.0000 0.0000 0.0000 10.6803 0.0000 9.7417
# 5 1.1531 -3.9338 -19.7363 0.0000 40.2377 0.0000
# 6 0.0000 0.0000 0.0000 9.7417 0.0000 6.7256
#
#
#
# Elastic Compliance Matrix: (Units=1/GPa)
#
#
# Indices 1 2 3 4 5 6 
#
# 1 0.055559 -0.000505 -0.003807 0.000000 -0.003509 0.000000
# 2 -0.000505 0.012315 -0.000775 0.000000 0.000838 0.000000
# 3 -0.003807 -0.000775 0.007255 0.000000 0.003592 0.000000
# 4 0.000000 0.000000 0.000000 -0.291521 0.000000 0.422257
# 5 -0.003509 0.000838 0.003592 0.000000 0.026797 0.000000
# 6 0.000000 0.000000 0.000000 0.422257 0.000000 -0.462938
#
#
# Mechanical properties :
#
#
# Convention : Reuss Voigt Hill
#
# Bulk Modulus (GPa) = 15.39483 33.20609 24.30046
# Shear Modulus (GPa) = -8.05532 27.03801 9.49134
#
# Velocity S-wave (km/s) = -1.86561 3.41796 2.02509
# Velocity P-wave (km/s) = 1.41812 5.47030 3.99595
#
# Compressibility (1/GPa) = 0.06495686
#
# Stress axis : x y z
#
# Youngs Moduli (GPa) = 17.99884 81.20264 137.82826
#
# Poissons Ratio (x) = 0.04099 0.52469
# Poissons Ratio (y) = 0.00908 0.10678
# Poissons Ratio (z) = 0.06852 0.06291
#
# Static dielectric constant tensor:
#      x y z
#    x 1.846820 0.000000 -0.043610 
#    y 0.000000 1.854860 0.000000 
#    z -0.043610 0.000000 1.921180 
# 
# From -- ./inp_files/24066.got.cif
#   From: 2010.05.17/outbox.cif.g08.bks.cpg/sg11_13_cif.got.tgz:24066.got - 2010.06.03 12:22:45.
