data_PCOD9161471
_publ_section_title
;
Structure prediction by ZEFSAII (Michael W. Deem and Ramdas Pophale) SiO2 
 PCOD9161471
Probable space group: P 21/M
;
_chemical_formula_sum "Si O2"
_cell_formula_units_Z 28
_cell_length_a 5.203777
_cell_length_b 23.576397
_cell_length_c 11.919429
_cell_angle_alpha 90.000000
_cell_angle_beta 68.932214
_cell_angle_gamma 90.000000
_cell_volume 1364.601110
_symmetry_space_group_name_H-M "P 21/M"
_symmetry_group_IT_number 11
_symmetry_cell_setting 'monoclinic'
loop_
_space_group_symop_operation_xyz
x,y,z
-x,1/2+y,-z
-x,-y,-z
x,1/2-y,z
loop_
_atom_site_type_symbol
_atom_site_label
_atom_site_fract_x
_atom_site_fract_y
_atom_site_fract_z
Si Si1 0.920533 0.183106 0.147273
Si Si2 0.571943 0.116785 0.372364
Si Si3 0.792176 0.604238 0.377513
Si Si4 0.881172 0.482143 0.398448
Si Si5 0.484957 0.628316 0.965716
Si Si6 0.559386 0.397297 0.774341
Si Si7 0.429752 0.027097 0.196638
O O1 0.957079 0.250000 0.133759
O O2 0.727202 0.165857 0.282483
O O3 0.757602 0.159438 0.064149
O O4 0.216640 0.153255 0.114559
O O5 0.316169 0.132323 0.490848
O O6 0.772127 0.081358 0.422039
O O7 0.503838 0.068419 0.289782
O O8 0.700329 0.537438 0.399930
O O9 0.638946 0.626748 0.291042
O O10 0.121166 0.604584 0.313706
O O11 0.000000 0.500000 0.500000
O O12 0.102394 0.479341 0.263133
O O13 0.481483 0.562769 0.925179
O O14 0.458563 0.632689 0.102814
O O15 0.467730 0.462925 0.810620
#
# Coordination Sequence:
#
# PCOD9161471 Si02
#       7
#     4   4   4   4   4   4   4
#     4  11  25  44  69  88 109 152 211 270 313 342
#     4  11  20  36  57  90 126 157 199 249 300 352
#     4  11  22  33  56  88 132 166 198 226 291 374
#     4  11  18  31  51  87 127 167 195 227 291 373
#     4  11  23  42  62  87 122 156 205 255 305 349
#     4  11  23  36  56  89 129 166 197 230 291 380
#     4  10  20  33  55  88 126 165 197 241 295 362
#
# _framework density 20.518816000000001
#
# number of rings (size 3 to 8) (size 9 to 14) (size 15 to 20)
#    0.000    1.143    4.286    3.857    0.000    0.000 
#    0.000    4.286    0.000    5.143    0.000    0.000 
#    0.000    0.000    0.000    0.000    0.000    0.000 
#
# Total GULP energy -156274.357655 kJ/mol
# GULP energy per Si atom -5581.227059 kJ/mol
# Density = 2.047211 g / cm^3
# Si number density = 20.518816 Si / 1000 Ang^3
#
#
#
# Elastic Constant Matrix: (Units=GPa)
#
#
# Indices 1 2 3 4 5 6 
#
# 1 62.4664 2.0348 -0.8482 0.0000 17.9940 0.0000
# 2 2.0348 35.4892 -6.8575 0.0000 -0.7867 0.0000
# 3 -0.8482 -6.8575 76.3926 0.0000 13.2814 0.0000
# 4 0.0000 0.0000 0.0000 12.1873 0.0000 1.0035
# 5 17.9940 -0.7867 13.2814 0.0000 31.3279 0.0000
# 6 0.0000 0.0000 0.0000 1.0035 0.0000 12.8106
#
#
#
# Elastic Compliance Matrix: (Units=1/GPa)
#
#
# Indices 1 2 3 4 5 6 
#
# 1 0.019595 -0.000958 0.002259 0.000000 -0.012237 0.000000
# 2 -0.000958 0.028726 0.002534 0.000000 0.000198 0.000000
# 3 0.002259 0.002534 0.014636 0.000000 -0.007439 0.000000
# 4 0.000000 0.000000 0.000000 0.082585 0.000000 -0.006469
# 5 -0.012237 0.000198 -0.007439 0.000000 0.042108 0.000000
# 6 0.000000 0.000000 0.000000 -0.006469 0.000000 0.078567
#
#
# Mechanical properties :
#
#
# Convention : Reuss Voigt Hill
#
# Bulk Modulus (GPa) = 14.15893 18.11183 16.13538
# Shear Modulus (GPa) = 17.72477 23.26645 20.49561
#
# Velocity S-wave (km/s) = 2.94229 3.37101 3.16392
# Velocity P-wave (km/s) = 4.29630 4.89874 4.60738
#
# Compressibility (1/GPa) = 0.07062680
#
# Stress axis : x y z
#
# Youngs Moduli (GPa) = 51.03232 34.81108 68.32428
#
# Poissons Ratio (x) = 0.03336 -0.15435
# Poissons Ratio (y) = 0.04890 -0.17311
# Poissons Ratio (z) = -0.11528 -0.08820
#
# Static dielectric constant tensor:
#      x y z
#    x 1.834270 0.000000 0.011730 
#    y 0.000000 1.716400 0.000000 
#    z 0.011730 0.000000 1.777060 
# 
# From -- ./inp_files/29978.got.cif
#   From: 2010.05.17/outbox.cif.g08.bks.cpg/sg11_15_cif.got.tgz:29978.got - 2010.06.03 12:22:45.
