data_PCOD9161827
_publ_section_title
;
Structure prediction by ZEFSAII (Michael W. Deem and Ramdas Pophale) SiO2 
 PCOD9161827
Probable space group: P 21/M
;
_chemical_formula_sum "Si O2"
_cell_formula_units_Z 28
_cell_length_a 15.589388
_cell_length_b 8.356298
_cell_length_c 11.367668
_cell_angle_alpha 90.000000
_cell_angle_beta 68.627308
_cell_angle_gamma 90.000000
_cell_volume 1379.021846
_symmetry_space_group_name_H-M "P 21/M"
_symmetry_group_IT_number 11
_symmetry_cell_setting 'monoclinic'
loop_
_space_group_symop_operation_xyz
x,y,z
-x,1/2+y,-z
-x,-y,-z
x,1/2-y,z
loop_
_atom_site_type_symbol
_atom_site_label
_atom_site_fract_x
_atom_site_fract_y
_atom_site_fract_z
Si Si1 0.908704 0.944203 0.425901
Si Si2 0.102418 0.442440 0.961427
Si Si3 0.443341 0.442606 0.643807
Si Si4 0.554354 0.437940 0.089565
Si Si5 0.246441 0.061932 0.079541
Si Si6 0.890973 0.065034 0.693449
Si Si7 0.763082 0.944164 0.309721
O O1 0.911492 0.750000 0.443266
O O2 0.815540 0.983800 0.403015
O O3 0.006058 0.983429 0.311789
O O4 0.905246 0.040424 0.547781
O O5 0.101134 0.250000 0.960809
O O6 0.166291 0.500156 0.824140
O O7 0.158475 0.493658 0.047814
O O8 0.000000 0.500000 0.000000
O O9 0.500000 0.500000 0.500000
O O10 0.445999 0.250000 0.642976
O O11 0.467646 0.494559 0.767069
O O12 0.339007 0.500473 0.668621
O O13 0.537862 0.250000 0.104528
O O14 0.500000 0.500000 0.000000
O O15 0.661275 0.475027 0.005997
O O16 0.263044 0.250000 0.051794
O O17 0.201742 0.031169 0.228416
O O18 0.875591 0.250000 0.730888
O O19 0.758957 0.750000 0.306513
#
# Coordination Sequence:
#
# PCOD9161827 Si02
#       7
#     4   4   4   4   4   4   4
#     4   9  18  34  56  81 116 164 212 257 312 377
#     4  10  20  35  57  88 123 161 199 245 304 369
#     4  11  23  44  69  96 131 171 221 279 339 403
#     4  12  26  46  71  98 129 169 219 278 343 408
#     4  11  22  39  62  88 123 163 205 256 317 384
#     4  10  20  34  54  83 122 162 209 262 311 375
#     4   9  18  36  60  83 116 158 201 251 310 372
#
# _framework density 20.304248999999999
#
# number of rings (size 3 to 8) (size 9 to 14) (size 15 to 20)
#    0.000    1.714    1.429    3.429    0.000    4.000 
#    0.000    6.429    0.000    0.000    0.000    0.000 
#    0.000    0.000    0.000    0.000    0.000    0.000 
#
# Total GULP energy -156023.433363 kJ/mol
# GULP energy per Si atom -5572.265477 kJ/mol
# Density = 2.025804 g / cm^3
# Si number density = 20.304249 Si / 1000 Ang^3
#
#
#
# Elastic Constant Matrix: (Units=GPa)
#
#
# Indices 1 2 3 4 5 6 
#
# 1 118.6929 29.5680 64.2874 0.0000 -9.1453 0.0000
# 2 29.5680 59.2156 29.2501 0.0000 3.5081 0.0000
# 3 64.2874 29.2501 116.5809 0.0000 -11.5472 0.0000
# 4 0.0000 0.0000 0.0000 28.2475 0.0000 -0.4343
# 5 -9.1453 3.5081 -11.5472 0.0000 27.0545 0.0000
# 6 0.0000 0.0000 0.0000 -0.4343 0.0000 27.2789
#
#
#
# Elastic Compliance Matrix: (Units=1/GPa)
#
#
# Indices 1 2 3 4 5 6 
#
# 1 0.012662 -0.003556 -0.005869 0.000000 0.002236 0.000000
# 2 -0.003556 0.020882 -0.003827 0.000000 -0.005543 0.000000
# 3 -0.005869 -0.003827 0.013184 0.000000 0.004140 0.000000
# 4 0.000000 0.000000 0.000000 0.035410 0.000000 0.000564
# 5 0.002236 -0.005543 0.004140 0.000000 0.040204 0.000000
# 6 0.000000 0.000000 0.000000 0.000564 0.000000 0.036667
#
#
# Mechanical properties :
#
#
# Convention : Reuss Voigt Hill
#
# Bulk Modulus (GPa) = 49.44593 60.07782 54.76187
# Shear Modulus (GPa) = 26.00714 27.94179 26.97447
#
# Velocity S-wave (km/s) = 3.58281 3.71368 3.64883
# Velocity P-wave (km/s) = 6.44366 6.93120 6.69187
#
# Compressibility (1/GPa) = 0.02022411
#
# Stress axis : x y z
#
# Youngs Moduli (GPa) = 78.97747 47.88798 75.84847
#
# Poissons Ratio (x) = 0.17029 0.44512
# Poissons Ratio (y) = 0.28085 0.29030
# Poissons Ratio (z) = 0.46348 0.18329
#
# Static dielectric constant tensor:
#      x y z
#    x 1.847480 0.000000 0.157080 
#    y 0.000000 1.700130 0.000000 
#    z 0.157080 0.000000 1.921360 
# 
# From -- ./inp_files/37912.got.cif
#   From: 2010.05.17/outbox.cif.g08.bks.cpg/sg11_19_cif.got.tgz:37912.got - 2010.06.03 12:22:45.
