data_PCOD9161237
_publ_section_title
;
Structure prediction by ZEFSAII (Michael W. Deem and Ramdas Pophale) SiO2 
 PCOD9161237
Probable space group: P 21/M
;
_chemical_formula_sum "Si O2"
_cell_formula_units_Z 32
_cell_length_a 16.083473
_cell_length_b 8.806741
_cell_length_c 14.988882
_cell_angle_alpha 90.000000
_cell_angle_beta 117.773093
_cell_angle_gamma 90.000000
_cell_volume 1878.492062
_symmetry_space_group_name_H-M "P 21/M"
_symmetry_group_IT_number 11
_symmetry_cell_setting 'monoclinic'
loop_
_space_group_symop_operation_xyz
x,y,z
-x,1/2+y,-z
-x,-y,-z
x,1/2-y,z
loop_
_atom_site_type_symbol
_atom_site_label
_atom_site_fract_x
_atom_site_fract_y
_atom_site_fract_z
Si Si1 0.229662 0.432492 0.077636
Si Si2 0.770338 0.067508 0.347973
Si Si3 0.157078 0.931805 0.418571
Si Si4 0.971324 0.567637 0.080996
Si Si5 0.608837 0.431447 0.957842
Si Si6 0.971324 0.067637 0.390327
Si Si7 0.608837 0.568553 0.150995
Si Si8 0.157078 0.068195 0.238507
O O1 0.239031 0.250000 0.081929
O O2 0.321303 0.507536 0.082377
O O3 0.205434 0.476892 0.168200
O O4 0.139253 0.469737 0.969618
O O5 0.760969 0.250000 0.342898
O O6 0.794565 0.023108 0.462765
O O7 0.860747 0.030264 0.330365
O O8 0.678697 0.992463 0.261074
O O9 0.156588 0.750000 0.414412
O O10 0.201223 1.000000 0.350611
O O11 0.049891 0.992265 0.368669
O O12 0.980702 0.750000 0.087796
O O13 0.049891 0.492265 0.181222
O O14 0.000000 0.500000 0.000000
O O15 0.614766 0.250000 0.965682
O O16 0.500000 0.473947 0.885683
O O17 0.634417 0.500000 0.067208
O O18 0.980703 0.250000 0.392906
O O19 0.000000 0.000000 0.500000
O O20 0.614766 0.750000 0.149083
O O21 0.156588 0.250000 0.242176
#
# Coordination Sequence:
#
# PCOD9161237 Si02
#       8
#     4   4   4   4   4   4   4   4
#     4   9  19  34  52  75 102 133 169 208 251 299
#     4   9  19  34  52  75 102 133 169 208 251 299
#     4  10  20  33  50  74 104 139 176 210 249 295
#     4   9  17  30  47  69  98 131 168 206 245 289
#     4  10  21  36  55  78 101 127 161 203 253 306
#     4   9  17  30  47  69  98 131 168 206 245 289
#     4  10  21  36  55  78 101 127 161 203 253 306
#     4  10  20  33  50  74 104 139 176 210 249 295
#
# _framework density 17.034941
#
# number of rings (size 3 to 8) (size 9 to 14) (size 15 to 20)
#    0.000    2.500    0.000    3.750    0.000    8.500 
#    0.000    0.000    0.000    0.750    0.000    0.000 
#    0.000    0.000    0.000    0.000    0.000    0.000 
#
# Total GULP energy -178241.233168 kJ/mol
# GULP energy per Si atom -5570.038536 kJ/mol
# Density = 1.699617 g / cm^3
# Si number density = 17.034941 Si / 1000 Ang^3
#
#
#
# Elastic Constant Matrix: (Units=GPa)
#
#
# Indices 1 2 3 4 5 6 
#
# 1 103.2483 38.0005 64.6091 0.0000 -8.1768 0.0000
# 2 38.0005 42.4578 38.0820 0.0000 -0.0706 0.0000
# 3 64.6091 38.0820 119.2015 0.0000 -5.6392 0.0000
# 4 0.0000 0.0000 0.0000 29.3258 0.0000 0.4290
# 5 -8.1768 -0.0706 -5.6392 0.0000 21.8428 0.0000
# 6 0.0000 0.0000 0.0000 0.4290 0.0000 29.8210
#
#
#
# Elastic Compliance Matrix: (Units=1/GPa)
#
#
# Indices 1 2 3 4 5 6 
#
# 1 0.017686 -0.010423 -0.006018 0.000000 0.005033 0.000000
# 2 -0.010423 0.039307 -0.007174 0.000000 -0.005627 0.000000
# 3 -0.006018 -0.007174 0.014007 0.000000 0.001340 0.000000
# 4 0.000000 0.000000 0.000000 0.034107 0.000000 -0.000491
# 5 0.005033 -0.005627 0.001340 0.000000 0.047994 0.000000
# 6 0.000000 0.000000 0.000000 -0.000491 0.000000 0.033540
#
#
# Mechanical properties :
#
#
# Convention : Reuss Voigt Hill
#
# Bulk Modulus (GPa) = 42.07231 60.69897 51.38564
# Shear Modulus (GPa) = 20.67864 24.47898 22.57881
#
# Velocity S-wave (km/s) = 3.48788 3.79487 3.64461
# Velocity P-wave (km/s) = 6.40091 7.41018 6.92396
#
# Compressibility (1/GPa) = 0.02376860
#
# Stress axis : x y z
#
# Youngs Moduli (GPa) = 56.54137 25.44053 71.39528
#
# Poissons Ratio (x) = 0.26517 0.42966
# Poissons Ratio (y) = 0.58934 0.51222
# Poissons Ratio (z) = 0.34027 0.18252
#
# Static dielectric constant tensor:
#      x y z
#    x 1.581500 0.000000 0.000700 
#    y 0.000000 1.572780 0.000000 
#    z 0.000700 0.000000 1.580690 
# 
# From -- ./inp_files/51775.got.cif
#   From: 2010.05.17/outbox.cif.g08.bks.cpg/sg11_26_cif.got.tgz:51775.got - 2010.06.03 12:22:45.
