data_PCOD9161970
_publ_section_title
;
Structure prediction by ZEFSAII (Michael W. Deem and Ramdas Pophale) SiO2 
 PCOD9161970
Probable space group: P 21/M
;
_chemical_formula_sum "Si O2"
_cell_formula_units_Z 28
_cell_length_a 15.301053
_cell_length_b 8.821775
_cell_length_c 12.073998
_cell_angle_alpha 90.000000
_cell_angle_beta 118.926484
_cell_angle_gamma 90.000000
_cell_volume 1426.448418
_symmetry_space_group_name_H-M "P 21/M"
_symmetry_group_IT_number 11
_symmetry_cell_setting 'monoclinic'
loop_
_space_group_symop_operation_xyz
x,y,z
-x,1/2+y,-z
-x,-y,-z
x,1/2-y,z
loop_
_atom_site_type_symbol
_atom_site_label
_atom_site_fract_x
_atom_site_fract_y
_atom_site_fract_z
Si Si1 0.796835 0.921426 0.258865
Si Si2 0.707081 0.572105 0.969274
Si Si3 0.803956 0.570241 0.632733
Si Si4 0.981638 0.073027 0.607840
Si Si5 0.112143 0.066977 0.076469
Si Si6 0.679640 0.427844 0.370488
Si Si7 0.502875 0.070120 0.877472
O O1 0.788963 0.750000 0.300907
O O2 0.906907 0.933937 0.275162
O O3 0.769881 0.036080 0.339526
O O4 0.723686 0.937816 0.111279
O O5 0.690848 0.750000 0.931587
O O6 0.808680 0.522764 0.970378
O O7 0.607876 0.477447 0.886113
O O8 0.788405 0.750000 0.620642
O O9 0.902958 0.523707 0.626363
O O10 0.830954 0.524483 0.774532
O O11 0.713879 0.491837 0.510417
O O12 0.951540 0.250000 0.584343
O O13 0.000000 0.000000 0.500000
O O14 0.101501 0.250000 0.067294
O O15 0.000000 0.000000 0.000000
O O16 0.662184 0.250000 0.366572
O O17 0.586045 0.508183 0.254349
O O18 0.494579 0.250000 0.883007
O O19 0.500000 0.000000 0.000000
#
# Coordination Sequence:
#
# PCOD9161970 Si02
#       7
#     4   4   4   4   4   4   4
#     4  10  20  34  56  84 121 160 198 251 311 368
#     4  10  21  40  64  91 123 163 211 260 313 367
#     4  11  23  40  60  87 126 167 208 258 315 371
#     4  11  21  33  53  84 120 159 202 249 308 372
#     4  10  23  43  68  95 127 168 212 260 309 368
#     4  12  24  38  60  89 122 161 206 255 312 372
#     4  12  24  40  63  94 129 165 206 257 316 378
#
# _framework density 19.629172000000001
#
# number of rings (size 3 to 8) (size 9 to 14) (size 15 to 20)
#    0.000    1.143    2.857    4.286    0.000    3.429 
#    0.000    0.714    0.000    0.000    0.000    0.000 
#    0.000    0.000    0.000    0.000    0.000    0.000 
#
# Total GULP energy -156357.505513 kJ/mol
# GULP energy per Si atom -5584.196625 kJ/mol
# Density = 1.958449 g / cm^3
# Si number density = 19.629172 Si / 1000 Ang^3
#
#
#
# Elastic Constant Matrix: (Units=GPa)
#
#
# Indices 1 2 3 4 5 6 
#
# 1 84.9959 28.9651 40.3126 0.0000 12.8085 0.0000
# 2 28.9651 99.5415 58.9199 0.0000 10.2748 0.0000
# 3 40.3126 58.9199 123.8978 0.0000 15.2674 0.0000
# 4 0.0000 0.0000 0.0000 26.6113 0.0000 8.3560
# 5 12.8085 10.2748 15.2674 0.0000 36.7113 0.0000
# 6 0.0000 0.0000 0.0000 8.3560 0.0000 29.9557
#
#
#
# Elastic Compliance Matrix: (Units=1/GPa)
#
#
# Indices 1 2 3 4 5 6 
#
# 1 0.014504 -0.001855 -0.003454 0.000000 -0.003105 0.000000
# 2 -0.001855 0.014270 -0.006082 0.000000 -0.000817 0.000000
# 3 -0.003454 -0.006082 0.012363 0.000000 -0.002234 0.000000
# 4 0.000000 0.000000 0.000000 0.041185 0.000000 -0.011488
# 5 -0.003105 -0.000817 -0.002234 0.000000 0.029480 0.000000
# 6 0.000000 0.000000 0.000000 -0.011488 0.000000 0.036587
#
#
# Mechanical properties :
#
#
# Convention : Reuss Voigt Hill
#
# Bulk Modulus (GPa) = 54.48486 62.75893 58.62190
# Shear Modulus (GPa) = 28.20232 30.67150 29.43691
#
# Velocity S-wave (km/s) = 3.79457 3.95720 3.87673
# Velocity P-wave (km/s) = 6.85680 7.27467 7.06882
#
# Compressibility (1/GPa) = 0.01835372
#
# Stress axis : x y z
#
# Youngs Moduli (GPa) = 68.94809 70.07601 80.88926
#
# Poissons Ratio (x) = 0.13001 0.27941
# Poissons Ratio (y) = 0.12792 0.49196
# Poissons Ratio (z) = 0.23816 0.42619
#
# Static dielectric constant tensor:
#      x y z
#    x 0.827430 0.000000 0.280200 
#    y 0.000000 1.670520 0.000000 
#    z 0.280200 0.000000 1.667290 
# 
# From -- ./inp_files/38490.got.cif
#   From: 2010.05.17/outbox.cif.g08.bks.cpg/sg11_20_cif.got.tgz:38490.got - 2010.06.03 12:22:45.
