data_PCOD9161295
_publ_section_title
;
Structure prediction by ZEFSAII (Michael W. Deem and Ramdas Pophale) SiO2 
 PCOD9161295
Probable space group: P 21/M
;
_chemical_formula_sum "Si O2"
_cell_formula_units_Z 32
_cell_length_a 12.772107
_cell_length_b 8.883969
_cell_length_c 17.154014
_cell_angle_alpha 90.000000
_cell_angle_beta 75.803872
_cell_angle_gamma 90.000000
_cell_volume 1886.974799
_symmetry_space_group_name_H-M "P 21/M"
_symmetry_group_IT_number 11
_symmetry_cell_setting 'monoclinic'
loop_
_space_group_symop_operation_xyz
x,y,z
-x,1/2+y,-z
-x,-y,-z
x,1/2-y,z
loop_
_atom_site_type_symbol
_atom_site_label
_atom_site_fract_x
_atom_site_fract_y
_atom_site_fract_z
Si Si1 0.880059 0.430704 0.021592
Si Si2 0.114914 0.070010 0.460466
Si Si3 0.679121 0.070202 0.499144
Si Si4 0.440215 0.068214 0.333965
Si Si5 0.323505 0.930414 0.681857
Si Si6 0.884327 0.430534 0.847707
Si Si7 0.863644 0.930333 0.184936
Si Si8 0.232614 0.070209 0.277759
O O1 0.884515 0.250000 0.027467
O O2 0.838914 0.468741 0.942290
O O3 0.827840 0.500036 0.108268
O O4 0.000000 0.500000 0.000000
O O5 0.114453 0.250000 0.470772
O O6 0.153039 0.037980 0.365043
O O7 0.204555 0.995739 0.499039
O O8 0.000000 0.000000 0.500000
O O9 0.677742 0.250000 0.508727
O O10 0.658784 0.035144 0.412609
O O11 0.597553 0.997868 0.576186
O O12 0.434051 0.250000 0.341261
O O13 0.564349 0.027909 0.295968
O O14 0.351381 0.020662 0.286087
O O15 0.307630 0.750000 0.691806
O O16 0.219676 0.012668 0.735329
O O17 0.884244 0.250000 0.841273
O O18 0.814064 0.497721 0.791330
O O19 0.011446 0.477923 0.821110
O O20 0.863294 0.750000 0.179716
O O21 0.236054 0.250000 0.266849
#
# Coordination Sequence:
#
# PCOD9161295 Si02
#       8
#     4   4   4   4   4   4   4   4
#     4   9  17  32  52  75 104 136 166 201 250 306
#     4  10  21  35  49  69 101 139 172 211 257 302
#     4  10  20  33  51  76  99 131 176 215 258 309
#     4   9  19  37  54  72 100 136 176 217 260 300
#     4  10  21  35  53  75 103 136 172 216 261 308
#     4   9  19  33  51  77 105 132 164 202 248 304
#     4  10  21  34  50  78 108 134 167 207 258 308
#     4   9  19  33  51  73  97 130 171 209 249 299
#
# _framework density 16.958361
#
# number of rings (size 3 to 8) (size 9 to 14) (size 15 to 20)
#    0.000    2.500    0.000    3.375    1.750    7.000 
#    0.000    0.000    0.000    0.750    0.000    0.000 
#    0.000    0.000    0.000    0.000    0.000    0.000 
#
# Total GULP energy -178380.580440 kJ/mol
# GULP energy per Si atom -5574.393139 kJ/mol
# Density = 1.691976 g / cm^3
# Si number density = 16.958361 Si / 1000 Ang^3
#
#
#
# Elastic Constant Matrix: (Units=GPa)
#
#
# Indices 1 2 3 4 5 6 
#
# 1 53.6753 20.1182 42.4783 0.0000 9.8113 0.0000
# 2 20.1182 24.0097 32.7384 0.0000 9.4058 0.0000
# 3 42.4783 32.7384 89.5728 0.0000 28.3384 0.0000
# 4 0.0000 0.0000 0.0000 33.8960 0.0000 0.1620
# 5 9.8113 9.4058 28.3384 0.0000 20.9833 0.0000
# 6 0.0000 0.0000 0.0000 0.1620 0.0000 20.1675
#
#
#
# Elastic Compliance Matrix: (Units=1/GPa)
#
#
# Indices 1 2 3 4 5 6 
#
# 1 0.032376 -0.011646 -0.013897 0.000000 0.008851 0.000000
# 2 -0.011646 0.087742 -0.027632 0.000000 0.003433 0.000000
# 3 -0.013897 -0.027632 0.038202 0.000000 -0.032708 0.000000
# 4 0.000000 0.000000 0.000000 0.029503 0.000000 -0.000237
# 5 0.008851 0.003433 -0.032708 0.000000 0.086153 0.000000
# 6 0.000000 0.000000 0.000000 -0.000237 0.000000 0.049587
#
#
# Mechanical properties :
#
#
# Convention : Reuss Voigt Hill
#
# Bulk Modulus (GPa) = 19.24246 39.76973 29.50610
# Shear Modulus (GPa) = 11.17976 19.80421 15.49198
#
# Velocity S-wave (km/s) = 2.57037 3.42104 3.02575
# Velocity P-wave (km/s) = 4.49228 6.25356 5.44461
#
# Compressibility (1/GPa) = 0.05196840
#
# Stress axis : x y z
#
# Youngs Moduli (GPa) = 30.88695 11.39711 26.17656
#
# Poissons Ratio (x) = 0.13273 0.36378
# Poissons Ratio (y) = 0.35972 0.72332
# Poissons Ratio (z) = 0.42924 0.31493
#
# Static dielectric constant tensor:
#      x y z
#    x 1.601280 0.000000 -0.005000 
#    y 0.000000 1.568940 0.000000 
#    z -0.005000 0.000000 1.597930 
# 
# From -- ./inp_files/49298.got.cif
#   From: 2010.05.17/outbox.cif.g08.bks.cpg/sg11_25_cif.got.tgz:49298.got - 2010.06.03 12:22:45.
