data_PCOD9161355
_publ_section_title
;
Structure prediction by ZEFSAII (Michael W. Deem and Ramdas Pophale) SiO2 
 PCOD9161355
Probable space group: P 21/M
;
_chemical_formula_sum "Si O2"
_cell_formula_units_Z 32
_cell_length_a 28.690162
_cell_length_b 8.892793
_cell_length_c 22.333307
_cell_angle_alpha 90.000000
_cell_angle_beta 161.218669
_cell_angle_gamma 90.000000
_cell_volume 1834.519772
_symmetry_space_group_name_H-M "P 21/M"
_symmetry_group_IT_number 11
_symmetry_cell_setting 'monoclinic'
loop_
_space_group_symop_operation_xyz
x,y,z
-x,1/2+y,-z
-x,-y,-z
x,1/2-y,z
loop_
_atom_site_type_symbol
_atom_site_label
_atom_site_fract_x
_atom_site_fract_y
_atom_site_fract_z
Si Si1 0.281470 0.071379 0.702852
Si Si2 0.968397 0.930028 0.302674
Si Si3 0.685277 0.070283 0.012779
Si Si4 0.171863 0.429021 0.996160
Si Si5 0.539614 0.931456 0.719710
Si Si6 0.054330 0.570481 0.973914
Si Si7 0.447214 0.428575 0.029343
Si Si8 0.214418 0.569077 0.290134
O O1 0.272623 0.250000 0.681555
O O2 0.346027 0.047799 0.847978
O O3 0.125370 0.996402 0.506706
O O4 0.397188 0.997515 0.798524
O O5 0.966359 0.750000 0.308112
O O6 0.921814 0.962174 0.177306
O O7 0.844617 0.003686 0.193288
O O8 0.690201 0.250000 0.019086
O O9 0.621749 0.007654 0.997243
O O10 0.585963 0.011000 0.837397
O O11 0.164675 0.250000 0.997885
O O12 0.114401 0.512328 0.984328
O O13 0.336796 0.468063 0.178747
O O14 0.545593 0.750000 0.736120
O O15 0.379442 0.973679 0.503951
O O16 0.044637 0.750000 0.961537
O O17 0.898266 0.502159 0.800444
O O18 0.159812 0.525413 0.157363
O O19 0.460277 0.250000 0.055421
O O20 0.204639 0.750000 0.282540
#
# Coordination Sequence:
#
# PCOD9161355 Si02
#       8
#     4   4   4   4   4   4   4   4
#     4  10  21  37  58  84 110 138 179 227 267 309
#     4  10  21  38  58  79 108 146 182 216 265 325
#     4  11  22  36  56  82 110 139 178 227 270 311
#     4   9  19  35  54  76 103 138 175 212 259 316
#     4   9  19  37  57  76 103 139 178 217 263 321
#     4  10  20  33  52  79 107 136 173 217 262 309
#     4  10  21  38  58  80 110 146 179 215 267 326
#     4   9  19  36  55  75 103 139 176 215 261 314
#
# _framework density 17.443256000000002
#
# number of rings (size 3 to 8) (size 9 to 14) (size 15 to 20)
#    0.000    2.250    0.000    3.375    0.000    7.000 
#    0.000    1.250    0.000    0.000    0.000    0.000 
#    0.000    0.000    0.000    0.000    0.000    0.000 
#
# Total GULP energy -178648.882480 kJ/mol
# GULP energy per Si atom -5582.777577 kJ/mol
# Density = 1.740355 g / cm^3
# Si number density = 17.443256 Si / 1000 Ang^3
#
#
#
# Elastic Constant Matrix: (Units=GPa)
#
#
# Indices 1 2 3 4 5 6 
#
# 1 181.4061 94.1990 108.8484 0.0000 30.9735 0.0000
# 2 94.1990 90.7252 93.6014 0.0000 16.1194 0.0000
# 3 108.8484 93.6014 199.0845 0.0000 37.3442 0.0000
# 4 0.0000 0.0000 0.0000 28.7422 0.0000 4.0874
# 5 30.9735 16.1194 37.3442 0.0000 13.2548 0.0000
# 6 0.0000 0.0000 0.0000 4.0874 0.0000 26.2794
#
#
#
# Elastic Compliance Matrix: (Units=1/GPa)
#
#
# Indices 1 2 3 4 5 6 
#
# 1 0.016799 -0.016460 0.004587 0.000000 -0.032160 0.000000
# 2 -0.016460 0.037687 -0.015561 0.000000 0.036474 0.000000
# 3 0.004587 -0.015561 0.017586 0.000000 -0.041342 0.000000
# 4 0.000000 0.000000 0.000000 0.035579 0.000000 -0.005534
# 5 -0.032160 0.036474 -0.041342 0.000000 0.222716 0.000000
# 6 0.000000 0.000000 0.000000 -0.005534 0.000000 0.038913
#
#
# Mechanical properties :
#
#
# Convention : Reuss Voigt Hill
#
# Bulk Modulus (GPa) = 58.12939 118.27927 88.20433
# Shear Modulus (GPa) = 11.63111 25.29309 18.46210
#
# Velocity S-wave (km/s) = 2.58504 3.81205 3.25685
# Velocity P-wave (km/s) = 6.50439 9.34510 8.05102
#
# Compressibility (1/GPa) = 0.01720300
#
# Stress axis : x y z
#
# Youngs Moduli (GPa) = 59.52886 26.53469 56.86321
#
# Poissons Ratio (x) = 0.43677 -0.26083
# Poissons Ratio (y) = 0.97986 0.88484
# Poissons Ratio (z) = -0.27306 0.41290
#
# Static dielectric constant tensor:
#      x y z
#    x 1.561420 0.000000 -0.006180 
#    y 0.000000 1.581400 0.000000 
#    z -0.006180 0.000000 1.577590 
# 
# From -- ./inp_files/67178.got.cif
#   From: 2010.05.17/outbox.cif.g08.bks.cpg/sg11_34_cif.got.tgz:67178.got - 2010.06.03 12:22:45.
