data_PCOD9161941
_publ_section_title
;
Structure prediction by ZEFSAII (Michael W. Deem and Ramdas Pophale) SiO2 
 PCOD9161941
Probable space group: P 21/M
;
_chemical_formula_sum "Si O2"
_cell_formula_units_Z 32
_cell_length_a 5.416535
_cell_length_b 9.637832
_cell_length_c 29.918200
_cell_angle_alpha 90.000000
_cell_angle_beta 89.229584
_cell_angle_gamma 90.000000
_cell_volume 1561.698181
_symmetry_space_group_name_H-M "P 21/M"
_symmetry_group_IT_number 11
_symmetry_cell_setting 'monoclinic'
loop_
_space_group_symop_operation_xyz
x,y,z
-x,1/2+y,-z
-x,-y,-z
x,1/2-y,z
loop_
_atom_site_type_symbol
_atom_site_label
_atom_site_fract_x
_atom_site_fract_y
_atom_site_fract_z
Si Si1 0.532674 0.919054 0.193138
Si Si2 0.008412 0.585249 0.954325
Si Si3 0.967012 0.084217 0.757963
Si Si4 0.333518 0.907636 0.533486
Si Si5 0.292964 0.404301 0.675377
Si Si6 0.011503 0.096419 0.586475
Si Si7 0.388020 0.403511 0.371864
Si Si8 0.513227 0.915500 0.898465
O O1 0.532517 0.750000 0.189330
O O2 0.798350 0.962273 0.212776
O O3 0.301893 0.963278 0.225330
O O4 0.493806 0.991788 0.145801
O O5 0.004588 0.750000 0.963969
O O6 0.263770 0.556229 0.927381
O O7 0.763723 0.554644 0.925563
O O8 0.000000 0.500000 0.000000
O O9 0.956305 0.250000 0.763114
O O10 0.059555 0.062150 0.707095
O O11 0.295123 0.750000 0.517555
O O12 0.456992 0.892158 0.582316
O O13 0.500000 0.000000 0.500000
O O14 0.093213 0.997285 0.546363
O O15 0.389457 0.250000 0.689922
O O16 0.221220 0.388764 0.623688
O O17 0.469538 0.536388 0.671423
O O18 0.943689 0.250000 0.571801
O O19 0.802831 0.020567 0.614412
O O20 0.283028 0.250000 0.363712
O O21 0.514145 0.750000 0.887890
#
# Coordination Sequence:
#
# PCOD9161941 Si02
#       8
#     4   4   4   4   4   4   4   4
#     4  10  20  35  56  83 111 148 192 235 281 334
#     4  10  21  36  56  82 111 146 188 234 284 335
#     4   9  19  34  56  83 112 142 187 240 283 328
#     4  10  21  37  55  76 106 139 175 221 268 323
#     4   9  19  35  56  79 104 139 178 224 274 326
#     4  10  20  34  56  81 104 138 180 217 270 333
#     4  10  21  36  54  78 108 139 172 218 274 327
#     4  10  21  37  55  78 113 151 184 229 285 339
#
# _framework density 20.490516
#
# number of rings (size 3 to 8) (size 9 to 14) (size 15 to 20)
#    0.000    2.250    0.000    2.250    1.750    3.500 
#    0.000    1.250    0.000    0.000    0.000    0.000 
#    0.000    0.000    0.000    0.000    0.000    0.000 
#
# Total GULP energy -178379.720418 kJ/mol
# GULP energy per Si atom -5574.366263 kJ/mol
# Density = 2.044388 g / cm^3
# Si number density = 20.490516 Si / 1000 Ang^3
#
#
#
# Elastic Constant Matrix: (Units=GPa)
#
#
# Indices 1 2 3 4 5 6 
#
# 1 86.4976 28.3418 27.6181 0.0000 -9.7971 0.0000
# 2 28.3418 104.0597 35.8670 0.0000 -9.5031 0.0000
# 3 27.6181 35.8670 102.9849 0.0000 -4.5286 0.0000
# 4 0.0000 0.0000 0.0000 22.1775 0.0000 -7.9106
# 5 -9.7971 -9.5031 -4.5286 0.0000 36.2464 0.0000
# 6 0.0000 0.0000 0.0000 -7.9106 0.0000 17.1601
#
#
#
# Elastic Compliance Matrix: (Units=1/GPa)
#
#
# Indices 1 2 3 4 5 6 
#
# 1 0.013533 -0.002537 -0.002629 0.000000 0.002664 0.000000
# 2 -0.002537 0.011608 -0.003277 0.000000 0.001948 0.000000
# 3 -0.002629 -0.003277 0.011551 0.000000 -0.000127 0.000000
# 4 0.000000 0.000000 0.000000 0.053964 0.000000 0.024877
# 5 0.002664 0.001948 -0.000127 0.000000 0.028804 0.000000
# 6 0.000000 0.000000 0.000000 0.024877 0.000000 0.069743
#
#
# Mechanical properties :
#
#
# Convention : Reuss Voigt Hill
#
# Bulk Modulus (GPa) = 50.48493 53.02178 51.75336
# Shear Modulus (GPa) = 23.50835 28.56448 26.03641
#
# Velocity S-wave (km/s) = 3.39083 3.73773 3.56849
# Velocity P-wave (km/s) = 6.32629 6.67532 6.50315
#
# Compressibility (1/GPa) = 0.01980789
#
# Stress axis : x y z
#
# Youngs Moduli (GPa) = 73.89197 86.14650 86.57400
#
# Poissons Ratio (x) = 0.21851 0.22758
# Poissons Ratio (y) = 0.18743 0.28369
# Poissons Ratio (z) = 0.19424 0.28229
#
# Static dielectric constant tensor:
#      x y z
#    x 1.825900 0.000000 0.038440 
#    y 0.000000 1.749540 0.000000 
#    z 0.038440 0.000000 1.730390 
# 
# From -- ./inp_files/9666.got.cif
#   From: 2010.05.17/outbox.cif.g08.bks.cpg/sg11_5_cif.got.tgz:9666.got - 2010.06.03 12:22:45.
