data_PCOD9161623
_publ_section_title
;
Structure prediction by ZEFSAII (Michael W. Deem and Ramdas Pophale) SiO2 
 PCOD9161623
Probable space group: P 21/M
;
_chemical_formula_sum "Si O2"
_cell_formula_units_Z 28
_cell_length_a 9.832961
_cell_length_b 7.771347
_cell_length_c 18.631655
_cell_angle_alpha 90.000000
_cell_angle_beta 90.077864
_cell_angle_gamma 90.000000
_cell_volume 1423.743160
_symmetry_space_group_name_H-M "P 21/M"
_symmetry_group_IT_number 11
_symmetry_cell_setting 'monoclinic'
loop_
_space_group_symop_operation_xyz
x,y,z
-x,1/2+y,-z
-x,-y,-z
x,1/2-y,z
loop_
_atom_site_type_symbol
_atom_site_label
_atom_site_fract_x
_atom_site_fract_y
_atom_site_fract_z
Si Si1 0.657260 0.044662 0.133955
Si Si2 0.352534 0.044109 0.703131
Si Si3 0.840743 0.542945 0.422551
Si Si4 0.661543 0.038824 0.710518
Si Si5 0.658493 0.043783 0.871587
Si Si6 0.159029 0.542317 0.996610
Si Si7 0.849155 0.457135 0.581052
O O1 0.659912 0.250000 0.132328
O O2 0.763823 0.978946 0.074960
O O3 0.690995 0.989712 0.215097
O O4 0.501695 0.991646 0.116651
O O5 0.357569 0.250000 0.694714
O O6 0.253401 0.975925 0.641535
O O7 0.507237 0.981361 0.695620
O O8 0.846274 0.750000 0.416620
O O9 0.790990 0.501638 0.502700
O O10 0.995628 0.477366 0.416333
O O11 0.662449 0.250000 0.710745
O O12 0.695904 0.981923 0.791509
O O13 0.761528 0.980127 0.648065
O O14 0.672699 0.250000 0.870626
O O15 0.755763 0.977306 0.934454
O O16 0.169101 0.750000 0.996474
O O17 0.000000 0.500000 0.000000
O O18 0.853484 0.250000 0.585570
#
# Coordination Sequence:
#
# PCOD9161623 Si02
#       7
#     4   4   4   4   4   4   4
#     4  10  20  34  52  77 105 131 165 209 254 297
#     4   9  18  33  51  70  94 127 165 201 240 292
#     4   9  18  31  47  68  93 124 163 199 235 289
#     4   8  15  29  49  70  91 119 159 200 235 283
#     4   9  18  35  56  75  98 133 172 205 245 301
#     4  10  22  36  52  77 106 135 169 208 248 294
#     4   9  17  30  47  67  93 124 156 196 246 291
#
# _framework density 19.666467999999998
#
# number of rings (size 3 to 8) (size 9 to 14) (size 15 to 20)
#    0.000    2.857    0.000    1.714    0.000    4.000 
#    0.000    5.714    0.000    0.000    0.000    0.000 
#    0.000    0.000    0.000    0.000    0.000    0.000 
#
# Total GULP energy -156162.085123 kJ/mol
# GULP energy per Si atom -5577.217326 kJ/mol
# Density = 1.962171 g / cm^3
# Si number density = 19.666468 Si / 1000 Ang^3
#
#
#
# Elastic Constant Matrix: (Units=GPa)
#
#
# Indices 1 2 3 4 5 6 
#
# 1 136.2648 4.3831 177.0513 0.0000 11.7229 0.0000
# 2 4.3831 23.1264 9.9991 0.0000 6.1878 0.0000
# 3 177.0513 9.9991 291.8199 0.0000 27.6844 0.0000
# 4 0.0000 0.0000 0.0000 17.2370 0.0000 -4.7247
# 5 11.7229 6.1878 27.6844 0.0000 49.3275 0.0000
# 6 0.0000 0.0000 0.0000 -4.7247 0.0000 15.3660
#
#
#
# Elastic Compliance Matrix: (Units=1/GPa)
#
#
# Indices 1 2 3 4 5 6 
#
# 1 0.035413 0.001778 -0.021893 0.000000 0.003648 0.000000
# 2 0.001778 0.045142 -0.002163 0.000000 -0.004871 0.000000
# 3 -0.021893 -0.002163 0.017179 0.000000 -0.004167 0.000000
# 4 0.000000 0.000000 0.000000 0.063354 0.000000 0.019480
# 5 0.003648 -0.004871 -0.004167 0.000000 0.022356 0.000000
# 6 0.000000 0.000000 0.000000 0.019480 0.000000 0.071068
#
#
# Mechanical properties :
#
#
# Convention : Reuss Voigt Hill
#
# Bulk Modulus (GPa) = 18.80473 92.67536 55.74004
# Shear Modulus (GPa) = 15.78308 33.70459 24.74384
#
# Velocity S-wave (km/s) = 2.83598 4.14431 3.55092
# Velocity P-wave (km/s) = 4.50625 8.37414 6.72431
#
# Compressibility (1/GPa) = 0.05317812
#
# Stress axis : x y z
#
# Youngs Moduli (GPa) = 28.23812 22.15210 58.21131
#
# Poissons Ratio (x) = -0.03938 1.27440
# Poissons Ratio (y) = -0.05020 0.12593
# Poissons Ratio (z) = 0.61821 0.04792
#
# Static dielectric constant tensor:
#      x y z
#    x 1.671480 0.000000 0.012180 
#    y 0.000000 1.713180 0.000000 
#    z 0.012180 0.000000 1.739020 
# 
# From -- ./inp_files/57517.got.cif
#   From: 2010.05.17/outbox.cif.g08.bks.cpg/sg11_29_cif.got.tgz:57517.got - 2010.06.03 12:22:45.
