data_PCOD9161895
_publ_section_title
;
Structure prediction by ZEFSAII (Michael W. Deem and Ramdas Pophale) SiO2 
 PCOD9161895
Probable space group: P 21/M
;
_chemical_formula_sum "Si O2"
_cell_formula_units_Z 28
_cell_length_a 14.955517
_cell_length_b 7.752252
_cell_length_c 21.017651
_cell_angle_alpha 90.000000
_cell_angle_beta 31.155643
_cell_angle_gamma 90.000000
_cell_volume 1260.695614
_symmetry_space_group_name_H-M "P 21/M"
_symmetry_group_IT_number 11
_symmetry_cell_setting 'monoclinic'
loop_
_space_group_symop_operation_xyz
x,y,z
-x,1/2+y,-z
-x,-y,-z
x,1/2-y,z
loop_
_atom_site_type_symbol
_atom_site_label
_atom_site_fract_x
_atom_site_fract_y
_atom_site_fract_z
Si Si1 0.186166 0.542326 0.359027
Si Si2 0.744569 0.959404 0.442678
Si Si3 0.620224 0.451699 0.281722
Si Si4 0.123325 0.960929 0.256615
Si Si5 0.469491 0.447730 0.795974
Si Si6 0.747365 0.448128 0.955291
Si Si7 0.119581 0.546931 0.774319
O O1 0.205368 0.750000 0.345708
O O2 0.193905 0.480682 0.281435
O O3 0.340715 0.473673 0.308674
O O4 0.000000 0.500000 0.500000
O O5 0.746108 0.750000 0.441015
O O6 0.568372 0.020529 0.582874
O O7 0.922704 0.013547 0.369017
O O8 0.759541 0.023754 0.361223
O O9 0.617018 0.250000 0.300874
O O10 0.635635 0.466046 0.196764
O O11 0.777611 0.523466 0.227357
O O12 0.125074 0.750000 0.254338
O O13 0.231188 0.018782 0.129281
O O14 0.486161 0.250000 0.766043
O O15 0.376021 0.456822 0.920665
O O16 0.689815 0.250000 0.987011
O O17 0.940646 0.455160 0.866524
O O18 0.078356 0.750000 0.807385
#
# Coordination Sequence:
#
# PCOD9161895 Si02
#       7
#     4   4   4   4   4   4   4
#     4  10  21  38  59  85 115 144 177 218 268 324
#     4   9  17  32  55  82 111 145 183 220 266 328
#     4  10  21  36  55  79 110 151 189 222 272 333
#     4   8  16  33  57  80 106 142 179 217 262 318
#     4  11  24  38  55  82 113 143 181 233 278 315
#     4  10  21  39  60  79 104 145 189 225 272 331
#     4  10  20  34  55  83 112 142 181 231 279 323
#
# _framework density 22.209961
#
# number of rings (size 3 to 8) (size 9 to 14) (size 15 to 20)
#    0.000    2.286    0.000    3.429    0.000    5.143 
#    0.000    5.000    0.000    0.000    0.000    0.000 
#    0.000    0.000    0.000    0.000    0.000    0.000 
#
# Total GULP energy -156404.832955 kJ/mol
# GULP energy per Si atom -5585.886891 kJ/mol
# Density = 2.215941 g / cm^3
# Si number density = 22.209961 Si / 1000 Ang^3
#
#
#
# Elastic Constant Matrix: (Units=GPa)
#
#
# Indices 1 2 3 4 5 6 
#
# 1 98.9744 -2.6255 -9.2008 0.0000 15.1711 0.0000
# 2 -2.6255 37.0411 -9.4264 0.0000 -3.3062 0.0000
# 3 -9.2008 -9.4264 46.9034 0.0000 11.8470 0.0000
# 4 0.0000 0.0000 0.0000 25.1937 0.0000 5.2014
# 5 15.1711 -3.3062 11.8470 0.0000 14.6326 0.0000
# 6 0.0000 0.0000 0.0000 5.2014 0.0000 8.6981
#
#
#
# Elastic Compliance Matrix: (Units=1/GPa)
#
#
# Indices 1 2 3 4 5 6 
#
# 1 0.014164 0.001245 0.008381 0.000000 -0.021188 0.000000
# 2 0.001245 0.028621 0.005895 0.000000 0.000403 0.000000
# 3 0.008381 0.005895 0.032693 0.000000 -0.033826 0.000000
# 4 0.000000 0.000000 0.000000 0.045283 0.000000 -0.027079
# 5 -0.021188 0.000403 -0.033826 0.000000 0.117786 0.000000
# 6 0.000000 0.000000 0.000000 -0.027079 0.000000 0.131161
#
#
# Mechanical properties :
#
#
# Convention : Reuss Voigt Hill
#
# Bulk Modulus (GPa) = 9.38797 15.60148 12.49472
# Shear Modulus (GPa) = 13.36281 23.31633 18.33957
#
# Velocity S-wave (km/s) = 2.45553 3.24360 2.87668
# Velocity P-wave (km/s) = 3.50366 4.58996 4.08309
#
# Compressibility (1/GPa) = 0.10651932
#
# Stress axis : x y z
#
# Youngs Moduli (GPa) = 70.60367 34.93885 30.58762
#
# Poissons Ratio (x) = -0.04351 -0.25634
# Poissons Ratio (y) = -0.08793 -0.18030
# Poissons Ratio (z) = -0.59170 -0.20595
#
# Static dielectric constant tensor:
#      x y z
#    x 1.826040 0.000000 -0.013670 
#    y 0.000000 1.787240 0.000000 
#    z -0.013670 0.000000 1.805130 
# 
# From -- ./inp_files/49454.got.cif
#   From: 2010.05.17/outbox.cif.g08.bks.cpg/sg11_25_cif.got.tgz:49454.got - 2010.06.03 12:22:45.
