data_PCOD9161497
_publ_section_title
;
Structure prediction by ZEFSAII (Michael W. Deem and Ramdas Pophale) SiO2 
 PCOD9161497
Probable space group: P 21/M
;
_chemical_formula_sum "Si O2"
_cell_formula_units_Z 30
_cell_length_a 11.671743
_cell_length_b 9.668958
_cell_length_c 25.740998
_cell_angle_alpha 90.000000
_cell_angle_beta 33.546869
_cell_angle_gamma 90.000000
_cell_volume 1605.338170
_symmetry_space_group_name_H-M "P 21/M"
_symmetry_group_IT_number 11
_symmetry_cell_setting 'monoclinic'
loop_
_space_group_symop_operation_xyz
x,y,z
-x,1/2+y,-z
-x,-y,-z
x,1/2-y,z
loop_
_atom_site_type_symbol
_atom_site_label
_atom_site_fract_x
_atom_site_fract_y
_atom_site_fract_z
Si Si1 0.696693 0.589293 0.441107
Si Si2 0.203490 0.407018 0.475933
Si Si3 0.937931 0.750000 0.036162
Si Si4 0.122671 0.994145 0.019818
Si Si5 0.292561 0.086945 0.066259
Si Si6 0.548688 0.908254 0.804030
Si Si7 0.709513 0.087677 0.651020
Si Si8 0.071236 0.408902 0.259566
O O1 0.500000 0.500000 0.500000
O O2 0.678856 0.750000 0.432779
O O3 0.719413 0.583247 0.494742
O O4 0.897657 0.518157 0.340225
O O5 0.234416 0.250000 0.444697
O O6 0.311840 0.513360 0.396231
O O7 0.955034 0.430885 0.571019
O O8 0.956649 0.873625 0.073471
O O9 0.932286 0.629316 0.992561
O O10 0.332639 0.932009 0.914542
O O11 0.178922 0.032163 0.057609
O O12 0.343855 0.250000 0.039808
O O13 0.148656 0.075688 0.171487
O O14 0.500000 0.000000 0.000000
O O15 0.556567 0.750000 0.782005
O O16 0.732616 0.927357 0.776194
O O17 0.581485 0.012993 0.744440
O O18 0.663907 0.250000 0.666695
O O19 0.996335 0.250000 0.295079
#
# Coordination Sequence:
#
# PCOD9161497 Si02
#       8
#     4   4   2   4   4   4   4   4
#     4  11  23  42  65  89 121 165 206 253 316 384
#     4   9  19  37  57  84 118 154 192 241 307 360
#     4  10  24  42  64  84 124 172 216 246 308 390
#     4  11  22  43  65  93 124 175 214 259 316 377
#     4  11  23  39  65 100 133 167 214 273 328 372
#     4  11  21  36  61  93 126 159 204 254 314 371
#     4  10  20  33  58  91 120 147 195 253 298 356
#     4  10  22  39  61  95 126 161 206 262 319 377
#
# _framework density 18.687650999999999
#
# number of rings (size 3 to 8) (size 9 to 14) (size 15 to 20)
#    0.000    1.600    4.000    0.800    1.867    2.133 
#    0.000    2.667    2.933    0.000    0.000    0.000 
#    0.000    0.000    0.000    0.000    0.000    0.000 
#
# Total GULP energy -167017.690611 kJ/mol
# GULP energy per Si atom -5567.256354 kJ/mol
# Density = 1.864512 g / cm^3
# Si number density = 18.687651 Si / 1000 Ang^3
#
#
#
# Elastic Constant Matrix: (Units=GPa)
#
#
# Indices 1 2 3 4 5 6 
#
# 1 67.4143 48.8152 10.2914 0.0000 14.1344 0.0000
# 2 48.8152 114.1067 24.8249 0.0000 11.5422 0.0000
# 3 10.2914 24.8249 50.4609 0.0000 17.0177 0.0000
# 4 0.0000 0.0000 0.0000 20.1650 0.0000 14.6368
# 5 14.1344 11.5422 17.0177 0.0000 26.0100 0.0000
# 6 0.0000 0.0000 0.0000 14.6368 0.0000 24.0156
#
#
#
# Elastic Compliance Matrix: (Units=1/GPa)
#
#
# Indices 1 2 3 4 5 6 
#
# 1 0.023675 -0.009826 0.003688 0.000000 -0.010918 0.000000
# 2 -0.009826 0.013940 -0.005862 0.000000 0.002989 0.000000
# 3 0.003688 -0.005862 0.027905 0.000000 -0.017660 0.000000
# 4 0.000000 0.000000 0.000000 0.088933 0.000000 -0.054202
# 5 -0.010918 0.002989 -0.017660 0.000000 0.054608 0.000000
# 6 0.000000 0.000000 0.000000 -0.054202 0.000000 0.074674
#
#
# Mechanical properties :
#
#
# Convention : Reuss Voigt Hill
#
# Bulk Modulus (GPa) = 24.08536 44.42721 34.25629
# Shear Modulus (GPa) = 15.54838 23.90816 19.72827
#
# Velocity S-wave (km/s) = 2.88759 3.58069 3.25266
# Velocity P-wave (km/s) = 4.90244 6.39690 5.69887
#
# Compressibility (1/GPa) = 0.04151900
#
# Stress axis : x y z
#
# Youngs Moduli (GPa) = 42.23873 71.73397 35.83582
#
# Poissons Ratio (x) = 0.70487 -0.13215
# Poissons Ratio (y) = 0.41504 0.21008
# Poissons Ratio (z) = -0.15576 0.42052
#
# Static dielectric constant tensor:
#      x y z
#    x 1.653080 0.000000 -0.028100 
#    y 0.000000 1.638690 0.000000 
#    z -0.028100 0.000000 1.635160 
# 
# From -- ./inp_files/68407.got.cif
#   From: 2010.05.17/outbox.cif.g08.bks.cpg/sg11_35_cif.got.tgz:68407.got - 2010.06.03 12:22:45.
