data_PCOD9161801
_publ_section_title
;
Structure prediction by ZEFSAII (Michael W. Deem and Ramdas Pophale) SiO2 
 PCOD9161801
Probable space group: P 21/M
;
_chemical_formula_sum "Si O2"
_cell_formula_units_Z 32
_cell_length_a 14.758496
_cell_length_b 17.771300
_cell_length_c 5.366984
_cell_angle_alpha 90.000000
_cell_angle_beta 81.068895
_cell_angle_gamma 90.000000
_cell_volume 1390.573398
_symmetry_space_group_name_H-M "P 21/M"
_symmetry_group_IT_number 11
_symmetry_cell_setting 'monoclinic'
loop_
_space_group_symop_operation_xyz
x,y,z
-x,1/2+y,-z
-x,-y,-z
x,1/2-y,z
loop_
_atom_site_type_symbol
_atom_site_label
_atom_site_fract_x
_atom_site_fract_y
_atom_site_fract_z
Si Si1 0.874264 0.159119 0.156116
Si Si2 0.435489 0.061269 0.764045
Si Si3 0.616555 0.075532 0.954570
Si Si4 0.815940 0.658612 0.392301
Si Si5 0.293635 0.834283 0.447700
Si Si6 0.513322 0.168368 0.364630
Si Si7 0.709890 0.659412 0.935060
Si Si8 0.025299 0.657964 0.383185
O O1 0.880942 0.250000 0.140499
O O2 0.770975 0.144082 0.294273
O O3 0.937066 0.134183 0.363207
O O4 0.911254 0.132338 0.874572
O O5 0.446078 0.105391 0.501568
O O6 0.377749 0.985266 0.826661
O O7 0.539914 0.042130 0.799052
O O8 0.386591 0.120113 0.969987
O O9 0.565571 0.147711 0.090960
O O10 0.704186 0.103674 0.768686
O O11 0.816629 0.750000 0.395054
O O12 0.756126 0.635337 0.656832
O O13 0.920856 0.633909 0.379883
O O14 0.772349 0.637009 0.146507
O O15 0.264182 0.750000 0.374472
O O16 0.399147 0.828471 0.486801
O O17 0.467908 0.250000 0.377507
O O18 0.701281 0.750000 0.940927
O O19 0.025669 0.750000 0.385780
#
# Coordination Sequence:
#
# PCOD9161801 Si02
#       8
#     4   4   4   4   4   4   4   4
#     4   9  17  27  47  76 109 141 177 219 272 335
#     4  10  22  37  52  78 106 141 191 228 272 329
#     4  10  21  37  55  73 107 147 183 227 276 329
#     4   9  18  32  51  78 112 142 177 226 284 332
#     4   9  19  33  49  79 110 139 180 226 273 324
#     4  10  20  34  55  78 108 141 176 227 279 327
#     4  10  20  34  54  81 110 142 183 232 276 329
#     4   9  16  28  47  75 109 143 172 218 279 332
#
# _framework density 23.012090000000001
#
# number of rings (size 3 to 8) (size 9 to 14) (size 15 to 20)
#    0.000    2.500    0.000    1.875    3.500    4.500 
#    0.000    0.000    0.000    0.000    0.000    5.250 
#    0.000    0.000    0.000    0.000    0.000    0.000 
#
# Total GULP energy -178648.055098 kJ/mol
# GULP energy per Si atom -5582.751722 kJ/mol
# Density = 2.295971 g / cm^3
# Si number density = 23.012090 Si / 1000 Ang^3
#
#
#
# Elastic Constant Matrix: (Units=GPa)
#
#
# Indices 1 2 3 4 5 6 
#
# 1 86.5920 7.0935 29.9723 0.0000 -4.3815 0.0000
# 2 7.0935 48.4294 15.5420 0.0000 -5.7259 0.0000
# 3 29.9723 15.5420 118.2141 0.0000 -10.8927 0.0000
# 4 0.0000 0.0000 0.0000 18.8544 0.0000 -2.6153
# 5 -4.3815 -5.7259 -10.8927 0.0000 36.2272 0.0000
# 6 0.0000 0.0000 0.0000 -2.6153 0.0000 6.7493
#
#
#
# Elastic Compliance Matrix: (Units=1/GPa)
#
#
# Indices 1 2 3 4 5 6 
#
# 1 0.012702 -0.000819 -0.003068 0.000000 0.000484 0.000000
# 2 -0.000819 0.021857 -0.002424 0.000000 0.002627 0.000000
# 3 -0.003068 -0.002424 0.009757 0.000000 0.002179 0.000000
# 4 0.000000 0.000000 0.000000 0.056051 0.000000 0.021720
# 5 0.000484 0.002627 0.002179 0.000000 0.028733 0.000000
# 6 0.000000 0.000000 0.000000 0.021720 0.000000 0.156581
#
#
# Mechanical properties :
#
#
# Convention : Reuss Voigt Hill
#
# Bulk Modulus (GPa) = 31.55169 39.82789 35.68979
# Shear Modulus (GPa) = 16.18824 25.74135 20.96480
#
# Velocity S-wave (km/s) = 2.65517 3.34818 3.02161
# Velocity P-wave (km/s) = 4.81047 5.68261 5.26463
#
# Compressibility (1/GPa) = 0.03169402
#
# Stress axis : x y z
#
# Youngs Moduli (GPa) = 78.72778 45.75191 102.49397
#
# Poissons Ratio (x) = 0.03745 0.31448
# Poissons Ratio (y) = 0.06444 0.24845
# Poissons Ratio (z) = 0.24156 0.11090
#
# Static dielectric constant tensor:
#      x y z
#    x 1.901590 0.000000 0.052850 
#    y 0.000000 1.878130 0.000000 
#    z 0.052850 0.000000 1.871500 
# 
# From -- ./inp_files/7052.got.cif
#   From: 2010.05.17/outbox.cif.g08.bks.cpg/sg11_4_cif.got.tgz:7052.got - 2010.06.03 12:22:45.
