data_PCOD9161676
_publ_section_title
;
Structure prediction by ZEFSAII (Michael W. Deem and Ramdas Pophale) SiO2 
 PCOD9161676
Probable space group: P 21/M
;
_chemical_formula_sum "Si O2"
_cell_formula_units_Z 32
_cell_length_a 16.219420
_cell_length_b 8.825049
_cell_length_c 14.486263
_cell_angle_alpha 90.000000
_cell_angle_beta 116.772344
_cell_angle_gamma 90.000000
_cell_volume 1851.248080
_symmetry_space_group_name_H-M "P 21/M"
_symmetry_group_IT_number 11
_symmetry_cell_setting 'monoclinic'
loop_
_space_group_symop_operation_xyz
x,y,z
-x,1/2+y,-z
-x,-y,-z
x,1/2-y,z
loop_
_atom_site_type_symbol
_atom_site_label
_atom_site_fract_x
_atom_site_fract_y
_atom_site_fract_z
Si Si1 0.008380 0.431562 0.605730
Si Si2 0.004361 0.068858 0.103776
Si Si3 0.147315 0.931502 0.820731
Si Si4 0.645609 0.432638 0.576061
Si Si5 0.857714 0.432517 0.682177
Si Si6 0.490318 0.932488 0.852239
Si Si7 0.349972 0.069049 0.923262
Si Si8 0.507686 0.567307 0.648818
O O1 0.015659 0.250000 0.604476
O O2 0.094873 0.497817 0.706226
O O3 0.000000 0.500000 0.500000
O O4 0.918467 0.470333 0.622570
O O5 0.009230 0.250000 0.100581
O O6 0.914831 0.028363 0.121018
O O7 0.091387 0.006275 0.205008
O O8 0.000000 0.000000 0.000000
O O9 0.148040 0.750000 0.812364
O O10 0.250375 0.993537 0.880936
O O11 0.643880 0.250000 0.580350
O O12 0.751574 0.480783 0.620470
O O13 0.595622 0.498936 0.640824
O O14 0.581974 0.477473 0.456782
O O15 0.860400 0.250000 0.693883
O O16 0.478048 0.750000 0.849603
O O17 0.499024 0.979642 0.750497
O O18 0.405189 0.009514 0.861774
O O19 0.582924 0.968982 0.956657
O O20 0.340219 0.250000 0.914256
O O21 0.514427 0.750000 0.649954
#
# Coordination Sequence:
#
# PCOD9161676 Si02
#       8
#     4   4   4   4   4   4   4   4
#     4  10  20  35  55  79 107 138 174 217 263 312
#     4  10  21  36  55  78 104 136 173 215 262 312
#     4  10  21  37  55  76 104 139 176 214 261 314
#     4   9  18  33  52  74 101 133 170 212 256 301
#     4   9  19  35  53  75 105 140 176 215 260 309
#     4   9  19  35  53  74 104 139 172 209 255 309
#     4  10  20  34  53  78 105 134 172 216 260 305
#     4   9  18  33  52  75 103 136 172 209 253 304
#
# _framework density 17.285634999999999
#
# number of rings (size 3 to 8) (size 9 to 14) (size 15 to 20)
#    0.000    2.500    0.000    1.500    0.000    5.500 
#    0.000    5.000    0.000    0.000    0.000    0.000 
#    0.000    0.000    0.000    0.000    0.000    0.000 
#
# Total GULP energy -178550.217883 kJ/mol
# GULP energy per Si atom -5579.694309 kJ/mol
# Density = 1.724629 g / cm^3
# Si number density = 17.285635 Si / 1000 Ang^3
#
#
#
# Elastic Constant Matrix: (Units=GPa)
#
#
# Indices 1 2 3 4 5 6 
#
# 1 134.6808 44.1813 100.5636 0.0000 13.6191 0.0000
# 2 44.1813 33.3407 44.5793 0.0000 -0.1586 0.0000
# 3 100.5636 44.5793 131.3361 0.0000 -18.7851 0.0000
# 4 0.0000 0.0000 0.0000 29.3273 0.0000 -0.4994
# 5 13.6191 -0.1586 -18.7851 0.0000 34.6461 0.0000
# 6 0.0000 0.0000 0.0000 -0.4994 0.0000 32.0456
#
#
#
# Elastic Compliance Matrix: (Units=1/GPa)
#
#
# Indices 1 2 3 4 5 6 
#
# 1 0.031349 -0.008481 -0.024818 0.000000 -0.025818 0.000000
# 2 -0.008481 0.061120 -0.014889 0.000000 -0.004459 0.000000
# 3 -0.024818 -0.014889 0.035835 0.000000 0.029118 0.000000
# 4 0.000000 0.000000 0.000000 0.034107 0.000000 0.000532
# 5 -0.025818 -0.004459 0.029118 0.000000 0.054779 0.000000
# 6 0.000000 0.000000 0.000000 0.000532 0.000000 0.031214
#
#
# Mechanical properties :
#
#
# Convention : Reuss Voigt Hill
#
# Bulk Modulus (GPa) = 31.32145 75.33401 53.32773
# Shear Modulus (GPa) = 14.06773 26.53936 20.30355
#
# Velocity S-wave (km/s) = 2.85588 3.92259 3.43095
# Velocity P-wave (km/s) = 5.38832 8.01200 6.82738
#
# Compressibility (1/GPa) = 0.03192700
#
# Stress axis : x y z
#
# Youngs Moduli (GPa) = 31.89910 16.36136 27.90530
#
# Poissons Ratio (x) = 0.13877 0.69254
# Poissons Ratio (y) = 0.27055 0.41550
# Poissons Ratio (z) = 0.79166 0.24361
#
# Static dielectric constant tensor:
#      x y z
#    x 1.564650 0.000000 0.002560 
#    y 0.000000 1.580690 0.000000 
#    z 0.002560 0.000000 1.563840 
# 
# From -- ./inp_files/51767.got.cif
#   From: 2010.05.17/outbox.cif.g08.bks.cpg/sg11_26_cif.got.tgz:51767.got - 2010.06.03 12:22:45.
