data_PCOD9161747
_publ_section_title
;
Structure prediction by ZEFSAII (Michael W. Deem and Ramdas Pophale) SiO2 
 PCOD9161747
Probable space group: P 21/M
;
_chemical_formula_sum "Si O2"
_cell_formula_units_Z 28
_cell_length_a 9.489288
_cell_length_b 9.140950
_cell_length_c 25.387516
_cell_angle_alpha 90.000000
_cell_angle_beta 40.486577
_cell_angle_gamma 90.000000
_cell_volume 1429.783995
_symmetry_space_group_name_H-M "P 21/M"
_symmetry_group_IT_number 11
_symmetry_cell_setting 'monoclinic'
loop_
_space_group_symop_operation_xyz
x,y,z
-x,1/2+y,-z
-x,-y,-z
x,1/2-y,z
loop_
_atom_site_type_symbol
_atom_site_label
_atom_site_fract_x
_atom_site_fract_y
_atom_site_fract_z
Si Si1 0.581720 0.576457 0.423456
Si Si2 0.773358 0.077715 0.075858
Si Si3 0.802751 0.417898 0.671535
Si Si4 0.117823 0.579256 0.514302
Si Si5 0.076100 0.575233 0.747666
Si Si6 0.344889 0.579349 0.164821
Si Si7 0.383416 0.579844 0.759255
O O1 0.500000 0.500000 0.500000
O O2 0.622744 0.750000 0.420067
O O3 0.375561 0.559996 0.443007
O O4 0.785297 0.498654 0.338554
O O5 0.782121 0.250000 0.060901
O O6 0.720232 0.063776 0.153262
O O7 0.576865 0.000313 0.100422
O O8 0.000000 0.000000 0.000000
O O9 0.843624 0.250000 0.645912
O O10 0.740981 0.427097 0.750303
O O11 0.596121 0.479701 0.698553
O O12 0.010234 0.512423 0.597269
O O13 0.070843 0.750000 0.525419
O O14 0.000000 0.500000 0.500000
O O15 0.060857 0.750000 0.744116
O O16 0.210638 0.547022 0.762946
O O17 0.838328 0.503735 0.816298
O O18 0.364512 0.750000 0.144716
O O19 0.450655 0.750000 0.734163
#
# Coordination Sequence:
#
# PCOD9161747 Si02
#       7
#     4   4   4   4   4   4   4
#     4  11  24  39  55  78 108 147 191 236 284 333
#     4  10  20  38  63  90 118 147 182 224 270 326
#     4  10  20  34  54  78 105 139 183 229 275 328
#     4  11  23  36  52  75 104 139 183 232 282 330
#     4  11  22  37  57  82 112 147 186 230 279 332
#     4  10  21  37  58  84 112 145 182 222 269 325
#     4   9  20  37  58  83 113 148 184 225 276 330
#
# _framework density 19.583379000000001
#
# number of rings (size 3 to 8) (size 9 to 14) (size 15 to 20)
#    0.000    1.714    0.000    4.286    0.000   10.286 
#    0.000    0.714    0.000    0.000    0.000    0.000 
#    0.000    0.000    0.000    0.000    0.000    0.000 
#
# Total GULP energy -156529.941095 kJ/mol
# GULP energy per Si atom -5590.355039 kJ/mol
# Density = 1.953881 g / cm^3
# Si number density = 19.583379 Si / 1000 Ang^3
#
#
#
# Elastic Constant Matrix: (Units=GPa)
#
#
# Indices 1 2 3 4 5 6 
#
# 1 92.7892 56.2049 12.9225 0.0000 -24.3633 0.0000
# 2 56.2049 116.9167 41.6272 0.0000 -29.6383 0.0000
# 3 12.9225 41.6272 60.9028 0.0000 -34.9879 0.0000
# 4 0.0000 0.0000 0.0000 33.1644 0.0000 -7.0425
# 5 -24.3633 -29.6383 -34.9879 0.0000 32.4936 0.0000
# 6 0.0000 0.0000 0.0000 -7.0425 0.0000 29.6152
#
#
#
# Elastic Compliance Matrix: (Units=1/GPa)
#
#
# Indices 1 2 3 4 5 6 
#
# 1 0.020547 -0.009469 0.015734 0.000000 0.023711 0.000000
# 2 -0.009469 0.016016 -0.012123 0.000000 -0.005545 0.000000
# 3 0.015734 -0.012123 0.057135 0.000000 0.062260 0.000000
# 4 0.000000 0.000000 0.000000 0.031756 0.000000 0.007552
# 5 0.023711 -0.005545 0.062260 0.000000 0.110534 0.000000
# 6 0.000000 0.000000 0.000000 0.007552 0.000000 0.035562
#
#
# Mechanical properties :
#
#
# Convention : Reuss Voigt Hill
#
# Bulk Modulus (GPa) = 12.19797 54.67977 33.43887
# Shear Modulus (GPa) = 16.09820 29.71157 22.90489
#
# Velocity S-wave (km/s) = 2.87022 3.89933 3.42366
# Velocity P-wave (km/s) = 4.15048 6.94659 5.72196
#
# Compressibility (1/GPa) = 0.08198087
#
# Stress axis : x y z
#
# Youngs Moduli (GPa) = 48.66896 62.43898 17.50248
#
# Poissons Ratio (x) = 0.59121 -0.27538
# Poissons Ratio (y) = 0.46083 0.21219
# Poissons Ratio (z) = -0.76574 0.75696
#
# Static dielectric constant tensor:
#      x y z
#    x 1.709050 0.000000 0.004180 
#    y 0.000000 1.658380 0.000000 
#    z 0.004180 0.000000 1.681880 
# 
# From -- ./inp_files/28291.got.cif
#   From: 2010.05.17/outbox.cif.g08.bks.cpg/sg11_15_cif.got.tgz:28291.got - 2010.06.03 12:22:45.
