data_PCOD9161489
_publ_section_title
;
Structure prediction by ZEFSAII (Michael W. Deem and Ramdas Pophale) SiO2 
 PCOD9161489
Probable space group: P 21/M
;
_chemical_formula_sum "Si O2"
_cell_formula_units_Z 24
_cell_length_a 22.625059
_cell_length_b 10.478147
_cell_length_c 5.179242
_cell_angle_alpha 90.000000
_cell_angle_beta 119.322227
_cell_angle_gamma 90.000000
_cell_volume 1070.524984
_symmetry_space_group_name_H-M "P 21/M"
_symmetry_group_IT_number 11
_symmetry_cell_setting 'monoclinic'
loop_
_space_group_symop_operation_xyz
x,y,z
-x,1/2+y,-z
-x,-y,-z
x,1/2-y,z
loop_
_atom_site_type_symbol
_atom_site_label
_atom_site_fract_x
_atom_site_fract_y
_atom_site_fract_z
Si Si1 0.775683 0.100083 0.828345
Si Si2 0.579908 0.007993 0.232934
Si Si3 0.098698 0.895521 0.217029
Si Si4 0.448247 0.250000 0.703125
Si Si5 0.542709 0.250000 0.411182
Si Si6 0.689869 0.098015 0.120642
Si Si7 0.964078 0.898001 0.613137
O O1 0.778359 0.250000 0.896548
O O2 0.852494 0.067707 0.916709
O O3 0.735293 0.084052 0.475485
O O4 0.733210 0.044820 0.975011
O O5 0.595812 0.876438 0.405281
O O6 0.587498 0.127235 0.439550
O O7 0.620936 0.029804 0.060309
O O8 0.500000 0.000000 0.000000
O O9 0.119235 0.750000 0.353708
O O10 0.097609 0.016845 0.405462
O O11 0.021938 0.881482 0.955597
O O12 0.506060 0.250000 0.607080
O O13 0.484165 0.250000 0.063188
O O14 0.675322 0.250000 0.060264
O O15 0.949752 0.750000 0.493215
O O16 0.000000 0.000000 0.500000
#
# Coordination Sequence:
#
# PCOD9161489 Si02
#       7
#     4   4   4   2   2   4   4
#     4   9  20  35  59  85 113 150 194 244 290 344
#     4  10  21  38  58  84 112 146 185 242 293 346
#     4   9  19  36  57  85 117 152 196 248 299 345
#     4  10  22  34  54  80 110 140 178 217 294 347
#     4  10  20  36  54  82 106 140 176 227 284 345
#     4  10  20  36  57  85 110 146 196 240 288 352
#     4  10  20  33  57  90 121 156 198 244 294 349
#
# _framework density 22.418907000000001
#
# number of rings (size 3 to 8) (size 9 to 14) (size 15 to 20)
#    0.000    2.333    0.833    1.000    2.333    6.000 
#    0.000    0.000    3.667    0.000    0.000    0.000 
#    0.000    0.000    0.000    0.000    0.000    0.000 
#
# Total GULP energy -133814.636654 kJ/mol
# GULP energy per Si atom -5575.609861 kJ/mol
# Density = 2.236788 g / cm^3
# Si number density = 22.418907 Si / 1000 Ang^3
#
#
#
# Elastic Constant Matrix: (Units=GPa)
#
#
# Indices 1 2 3 4 5 6 
#
# 1 166.3017 52.0718 32.9836 0.0000 -47.5777 0.0000
# 2 52.0718 182.9759 27.3115 0.0000 -34.0153 0.0000
# 3 32.9836 27.3115 60.2873 0.0000 -21.1173 0.0000
# 4 0.0000 0.0000 0.0000 12.5024 0.0000 -9.4334
# 5 -47.5777 -34.0153 -21.1173 0.0000 43.0392 0.0000
# 6 0.0000 0.0000 0.0000 -9.4334 0.0000 33.0976
#
#
#
# Elastic Compliance Matrix: (Units=1/GPa)
#
#
# Indices 1 2 3 4 5 6 
#
# 1 0.009022 -0.000728 -0.001587 0.000000 0.008619 0.000000
# 2 -0.000728 0.006559 -0.001255 0.000000 0.003763 0.000000
# 3 -0.001587 -0.001255 0.020603 0.000000 0.007363 0.000000
# 4 0.000000 0.000000 0.000000 0.101898 0.000000 0.029043
# 5 0.008619 0.003763 0.007363 0.000000 0.039349 0.000000
# 6 0.000000 0.000000 0.000000 0.029043 0.000000 0.038491
#
#
# Mechanical properties :
#
#
# Convention : Reuss Voigt Hill
#
# Bulk Modulus (GPa) = 34.43067 70.47762 52.45415
# Shear Modulus (GPa) = 21.48279 37.54105 29.51192
#
# Velocity S-wave (km/s) = 3.09891 4.09654 3.63214
# Velocity P-wave (km/s) = 5.30995 7.34033 6.40609
#
# Compressibility (1/GPa) = 0.02904387
#
# Stress axis : x y z
#
# Youngs Moduli (GPa) = 110.84320 152.45387 48.53658
#
# Poissons Ratio (x) = 0.11103 0.07702
# Poissons Ratio (y) = 0.08073 0.06091
# Poissons Ratio (z) = 0.17590 0.19131
#
# Static dielectric constant tensor:
#      x y z
#    x 1.929500 0.000000 0.179060 
#    y 0.000000 1.986850 0.000000 
#    z 0.179060 0.000000 2.324890 
# 
# From -- ./inp_files/8563.got.cif
#   From: 2010.05.17/outbox.cif.g08.bks.cpg/sg11_5_cif.got.tgz:8563.got - 2010.06.03 12:22:45.
