data_PCOD9161104
_publ_section_title
;
Structure prediction by ZEFSAII (Michael W. Deem and Ramdas Pophale) SiO2 
 PCOD9161104
Probable space group: P 21/M
;
_chemical_formula_sum "Si O2"
_cell_formula_units_Z 26
_cell_length_a 20.599530
_cell_length_b 8.027931
_cell_length_c 11.704308
_cell_angle_alpha 90.000000
_cell_angle_beta 42.923714
_cell_angle_gamma 90.000000
_cell_volume 1318.162955
_symmetry_space_group_name_H-M "P 21/M"
_symmetry_group_IT_number 11
_symmetry_cell_setting 'monoclinic'
loop_
_space_group_symop_operation_xyz
x,y,z
-x,1/2+y,-z
-x,-y,-z
x,1/2-y,z
loop_
_atom_site_type_symbol
_atom_site_label
_atom_site_fract_x
_atom_site_fract_y
_atom_site_fract_z
Si Si1 0.230269 0.548435 0.615599
Si Si2 0.407505 0.052244 0.251247
Si Si3 0.000000 0.500000 0.500000
Si Si4 0.056583 0.949366 0.683692
Si Si5 0.623093 0.054999 0.962791
Si Si6 0.857415 0.049810 0.031227
Si Si7 0.807843 0.560011 0.848309
O O1 0.231112 0.750000 0.613657
O O2 0.333788 0.486020 0.446142
O O3 0.152887 0.493554 0.620666
O O4 0.193616 0.493970 0.786971
O O5 0.411117 0.250000 0.225158
O O6 0.371694 0.967676 0.180558
O O7 0.516327 0.997560 0.133190
O O8 0.964942 0.525681 0.411723
O O9 0.889766 0.456184 0.680538
O O10 0.060999 0.750000 0.660047
O O11 0.965853 0.986435 0.880969
O O12 0.633243 0.250000 0.977983
O O13 0.707151 0.959354 0.917597
O O14 0.858839 0.250000 0.027856
O O15 0.804898 0.985754 0.985046
O O16 0.846076 0.750000 0.788426
#
# Coordination Sequence:
#
# PCOD9161104 Si02
#       7
#     4   4   2   4   4   4   4
#     4  10  21  37  57  81 110 147 188 230 275 323
#     4  10  21  36  58  86 112 143 183 225 273 329
#     4  10  20  32  52  82 112 140 176 220 268 326
#     4  10  21  36  54  78 111 148 184 226 275 326
#     4  10  21  38  59  84 114 144 178 226 279 326
#     4  10  21  36  55  80 110 146 187 229 277 328
#     4  11  23  38  58  82 110 147 186 225 274 329
#
# _framework density 19.724421
#
# number of rings (size 3 to 8) (size 9 to 14) (size 15 to 20)
#    0.000    1.846    0.000    4.615    0.000   11.077 
#    0.000    0.769    0.000    0.000    0.000    0.000 
#    0.000    0.000    0.000    0.000    0.000    0.000 
#
# Total GULP energy -144742.829697 kJ/mol
# GULP energy per Si atom -5567.031911 kJ/mol
# Density = 1.967953 g / cm^3
# Si number density = 19.724421 Si / 1000 Ang^3
#
#
#
# Elastic Constant Matrix: (Units=GPa)
#
#
# Indices 1 2 3 4 5 6 
#
# 1 88.4005 -2.6818 54.3681 0.0000 -16.8576 0.0000
# 2 -2.6818 26.0082 -8.1946 0.0000 -1.7355 0.0000
# 3 54.3681 -8.1946 141.0563 0.0000 8.7149 0.0000
# 4 0.0000 0.0000 0.0000 3.7167 0.0000 9.0464
# 5 -16.8576 -1.7355 8.7149 0.0000 20.6643 0.0000
# 6 0.0000 0.0000 0.0000 9.0464 0.0000 11.5192
#
#
#
# Elastic Compliance Matrix: (Units=1/GPa)
#
#
# Indices 1 2 3 4 5 6 
#
# 1 0.021225 0.000632 -0.009464 0.000000 0.021359 0.000000
# 2 0.000632 0.039301 0.001852 0.000000 0.003035 0.000000
# 3 -0.009464 0.001852 0.011615 0.000000 -0.012463 0.000000
# 4 0.000000 0.000000 0.000000 -0.295182 0.000000 0.231816
# 5 0.021359 0.003035 -0.012463 0.000000 0.071328 0.000000
# 6 0.000000 0.000000 0.000000 0.231816 0.000000 -0.095241
#
#
# Mechanical properties :
#
#
# Convention : Reuss Voigt Hill
#
# Bulk Modulus (GPa) = 17.18782 38.04984 27.61883
# Shear Modulus (GPa) = -23.40807 21.31159 -1.04824
#
# Velocity S-wave (km/s) = -3.44867 3.29061 -0.72979
# Velocity P-wave (km/s) = 2.66924 5.81121 3.65002
#
# Compressibility (1/GPa) = 0.05818074
#
# Stress axis : x y z
#
# Youngs Moduli (GPa) = 47.11477 25.44487 86.09849
#
# Poissons Ratio (x) = -0.01608 0.81481
# Poissons Ratio (y) = -0.02978 -0.15946
# Poissons Ratio (z) = 0.44588 -0.04712
#
# Static dielectric constant tensor:
#      x y z
#    x 1.656900 0.000000 -0.000470 
#    y 0.000000 1.759660 0.000000 
#    z -0.000470 0.000000 1.671430 
# 
# From -- ./inp_files/42699.got.cif
#   From: 2010.05.17/outbox.cif.g08.bks.cpg/sg11_22_cif.got.tgz:42699.got - 2010.06.03 12:22:45.
