data_PCOD9161556
_publ_section_title
;
Structure prediction by ZEFSAII (Michael W. Deem and Ramdas Pophale) SiO2 
 PCOD9161556
Probable space group: P 21/M
;
_chemical_formula_sum "Si O2"
_cell_formula_units_Z 32
_cell_length_a 7.269879
_cell_length_b 11.430936
_cell_length_c 15.913129
_cell_angle_alpha 90.000000
_cell_angle_beta 72.407435
_cell_angle_gamma 90.000000
_cell_volume 1260.556204
_symmetry_space_group_name_H-M "P 21/M"
_symmetry_group_IT_number 11
_symmetry_cell_setting 'monoclinic'
loop_
_space_group_symop_operation_xyz
x,y,z
-x,1/2+y,-z
-x,-y,-z
x,1/2-y,z
loop_
_atom_site_type_symbol
_atom_site_label
_atom_site_fract_x
_atom_site_fract_y
_atom_site_fract_z
Si Si1 0.450897 0.379620 0.627259
Si Si2 0.930911 0.126702 0.193600
Si Si3 0.552909 0.879494 0.174518
Si Si4 0.151773 0.620916 0.151067
Si Si5 0.161692 0.376177 0.393657
Si Si6 0.791737 0.440833 0.040502
Si Si7 0.610739 0.376713 0.381335
Si Si8 0.096441 0.623439 0.403998
O O1 0.377182 0.250000 0.615182
O O2 0.405723 0.400907 0.732713
O O3 0.369892 0.490102 0.587039
O O4 0.684008 0.376517 0.590322
O O5 0.048315 0.250000 0.182492
O O6 0.820547 0.133036 0.120076
O O7 0.772404 0.128516 0.288051
O O8 0.035597 0.000200 0.177940
O O9 0.625744 0.750000 0.145182
O O10 0.323804 0.880303 0.194223
O O11 0.639392 0.965009 0.093866
O O12 0.053061 0.750000 0.169371
O O13 0.246017 0.615233 0.044397
O O14 0.112737 0.250000 0.361187
O O15 0.392657 0.378480 0.373991
O O16 0.088882 0.496063 0.361424
O O17 0.054798 0.377114 0.498475
O O18 0.000000 0.500000 0.000000
O O19 0.624736 0.250000 0.425747
O O20 0.072134 0.750000 0.363748
#
# Coordination Sequence:
#
# PCOD9161556 Si02
#       8
#     4   4   4   4   4   4   4   4
#     4   9  16  27  45  68  93 123 156 192 232 278
#     4  10  20  34  51  73  98 126 161 201 242 286
#     4  10  20  35  53  74 100 129 160 197 240 285
#     4  10  22  37  53  73  96 126 163 200 242 289
#     4   8  13  21  35  57  89 123 150 184 228 273
#     4  10  20  34  52  73  94 122 153 193 238 288
#     4   9  16  27  43  66  95 125 157 193 235 280
#     4   8  13  21  35  59  89 119 152 185 224 273
#
# _framework density 25.385618000000001
#
# number of rings (size 3 to 8) (size 9 to 14) (size 15 to 20)
#    0.000    2.750    1.250    0.750    0.000    4.500 
#    0.000    1.875    0.000    0.000    0.000    0.875 
#    0.000    0.000    0.000    0.000    0.000    0.000 
#
# Total GULP energy -178551.505007 kJ/mol
# GULP energy per Si atom -5579.734531 kJ/mol
# Density = 2.532784 g / cm^3
# Si number density = 25.385618 Si / 1000 Ang^3
#
#
#
# Elastic Constant Matrix: (Units=GPa)
#
#
# Indices 1 2 3 4 5 6 
#
# 1 71.3731 39.6941 19.0137 0.0000 -12.2638 0.0000
# 2 39.6941 311.6797 44.7511 0.0000 -2.3677 0.0000
# 3 19.0137 44.7511 116.5043 0.0000 0.1496 0.0000
# 4 0.0000 0.0000 0.0000 14.3234 0.0000 -20.7534
# 5 -12.2638 -2.3677 0.1496 0.0000 39.4919 0.0000
# 6 0.0000 0.0000 0.0000 -20.7534 0.0000 4.8001
#
#
#
# Elastic Compliance Matrix: (Units=1/GPa)
#
#
# Indices 1 2 3 4 5 6 
#
# 1 0.016381 -0.001761 -0.002004 0.000000 0.004989 0.000000
# 2 -0.001761 0.003587 -0.001090 0.000000 -0.000328 0.000000
# 3 -0.002004 -0.001090 0.009330 0.000000 -0.000723 0.000000
# 4 0.000000 0.000000 0.000000 -0.013262 0.000000 -0.057338
# 5 0.004989 -0.000328 -0.000723 0.000000 0.026854 0.000000
# 6 0.000000 0.000000 0.000000 -0.057338 0.000000 -0.039573
#
#
# Mechanical properties :
#
#
# Convention : Reuss Voigt Hill
#
# Bulk Modulus (GPa) = 51.04795 78.49721 64.77258
# Shear Modulus (GPa) = 255.68317 38.12961 146.90639
#
# Velocity S-wave (km/s) = 10.04681 3.87979 7.61548
# Velocity P-wave (km/s) = 12.43934 7.14559 10.14388
#
# Compressibility (1/GPa) = 0.01958943
#
# Stress axis : x y z
#
# Youngs Moduli (GPa) = 61.04620 278.81134 107.18188
#
# Poissons Ratio (x) = 0.49089 0.21474
# Poissons Ratio (y) = 0.10748 0.11682
# Poissons Ratio (z) = 0.12231 0.30388
#
# Static dielectric constant tensor:
#      x y z
#    x 1.950140 0.000000 0.001590 
#    y 0.000000 2.138890 0.000000 
#    z 0.001590 0.000000 1.949020 
# 
# From -- ./inp_files/27505.got.cif
#   From: 2010.05.17/outbox.cif.g08.bks.cpg/sg11_14_cif.got.tgz:27505.got - 2010.06.03 12:22:45.
