data_PCOD9161807
_publ_section_title
;
Structure prediction by ZEFSAII (Michael W. Deem and Ramdas Pophale) SiO2 
 PCOD9161807
Probable space group: P 21/M
;
_chemical_formula_sum "Si O2"
_cell_formula_units_Z 32
_cell_length_a 22.736719
_cell_length_b 8.811268
_cell_length_c 28.924475
_cell_angle_alpha 90.000000
_cell_angle_beta 161.414281
_cell_angle_gamma 90.000000
_cell_volume 1846.907679
_symmetry_space_group_name_H-M "P 21/M"
_symmetry_group_IT_number 11
_symmetry_cell_setting 'monoclinic'
loop_
_space_group_symop_operation_xyz
x,y,z
-x,1/2+y,-z
-x,-y,-z
x,1/2-y,z
loop_
_atom_site_type_symbol
_atom_site_label
_atom_site_fract_x
_atom_site_fract_y
_atom_site_fract_z
Si Si1 0.548264 0.067875 0.607067
Si Si2 0.788861 0.431354 0.234247
Si Si3 0.816998 0.067605 0.887360
Si Si4 0.565935 0.431386 0.978812
Si Si5 0.189827 0.433357 0.015870
Si Si6 0.478349 0.067170 0.152461
Si Si7 0.221501 0.932157 0.312480
Si Si8 0.908605 0.431956 0.478169
O O1 0.535545 0.250000 0.596423
O O2 0.644426 0.022949 0.726372
O O3 0.684136 0.021479 0.666028
O O4 0.349531 0.999603 0.447749
O O5 0.800718 0.250000 0.248119
O O6 0.620140 0.492053 0.140001
O O7 0.974399 0.506479 0.391425
O O8 0.727798 0.467225 0.136216
O O9 0.831096 0.250000 0.897773
O O10 0.795080 0.006251 0.922566
O O11 0.000000 0.000000 0.000000
O O12 0.540864 0.250000 0.959958
O O13 0.595287 0.492277 0.949361
O O14 0.189084 0.250000 0.020487
O O15 0.353710 0.475731 0.103336
O O16 0.991398 0.478081 0.846720
O O17 0.469546 0.250000 0.140810
O O18 0.693049 0.025402 0.319034
O O19 0.229565 0.750000 0.320925
O O20 0.921765 0.250000 0.486201
O O21 0.000000 0.500000 0.500000
#
# Coordination Sequence:
#
# PCOD9161807 Si02
#       8
#     4   4   4   4   4   4   4   4
#     4   9  18  32  51  79 109 134 172 222 268 314
#     4  10  20  34  54  82 111 141 180 228 279 327
#     4  11  21  35  56  83 112 145 183 229 276 325
#     4  10  20  34  55  81 109 141 181 228 275 329
#     4  10  21  39  57  79 111 147 186 229 274 331
#     4  10  22  38  57  79 111 149 185 227 279 334
#     4   9  17  32  53  77 105 138 176 218 266 318
#     4  11  21  34  55  84 111 145 187 231 280 332
#
# _framework density 17.326257999999999
#
# number of rings (size 3 to 8) (size 9 to 14) (size 15 to 20)
#    0.000    2.000    2.500    1.500    0.000    4.000 
#    0.000    1.250    0.000    7.500    0.000    0.000 
#    0.000    0.000    0.000    0.000    0.000    0.000 
#
# Total GULP energy -178593.519447 kJ/mol
# GULP energy per Si atom -5581.047483 kJ/mol
# Density = 1.728682 g / cm^3
# Si number density = 17.326258 Si / 1000 Ang^3
#
#
#
# Elastic Constant Matrix: (Units=GPa)
#
#
# Indices 1 2 3 4 5 6 
#
# 1 132.9838 44.5761 90.5403 0.0000 -9.7184 0.0000
# 2 44.5761 34.4174 48.4283 0.0000 -5.6459 0.0000
# 3 90.5403 48.4283 161.6902 0.0000 -14.7242 0.0000
# 4 0.0000 0.0000 0.0000 29.4847 0.0000 -6.8687
# 5 -9.7184 -5.6459 -14.7242 0.0000 28.2476 0.0000
# 6 0.0000 0.0000 0.0000 -6.8687 0.0000 26.5205
#
#
#
# Elastic Compliance Matrix: (Units=1/GPa)
#
#
# Indices 1 2 3 4 5 6 
#
# 1 0.014931 -0.013078 -0.004424 0.000000 0.000217 0.000000
# 2 -0.013078 0.061817 -0.010999 0.000000 0.002123 0.000000
# 3 -0.004424 -0.010999 0.012197 0.000000 0.002637 0.000000
# 4 0.000000 0.000000 0.000000 0.036094 0.000000 0.009348
# 5 0.000217 0.002123 0.002637 0.000000 0.037275 0.000000
# 6 0.000000 0.000000 0.000000 0.009348 0.000000 0.040128
#
#
# Mechanical properties :
#
#
# Convention : Reuss Voigt Hill
#
# Bulk Modulus (GPa) = 31.30503 77.35342 54.32923
# Shear Modulus (GPa) = 18.51231 26.55368 22.53300
#
# Velocity S-wave (km/s) = 3.27227 3.91905 3.61017
# Velocity P-wave (km/s) = 5.69071 8.07594 6.98588
#
# Compressibility (1/GPa) = 0.03194375
#
# Stress axis : x y z
#
# Youngs Moduli (GPa) = 66.97283 16.17675 81.99033
#
# Poissons Ratio (x) = 0.21155 0.36276
# Poissons Ratio (y) = 0.87584 0.90179
# Poissons Ratio (z) = 0.29631 0.17792
#
# Static dielectric constant tensor:
#      x y z
#    x 1.567370 0.000000 -0.012450 
#    y 0.000000 1.582630 0.000000 
#    z -0.012450 0.000000 1.590060 
# 
# From -- ./inp_files/72164.got.cif
#   From: 2010.05.17/outbox.cif.g08.bks.cpg/sg11_37_cif.got.tgz:72164.got - 2010.06.03 12:22:45.
