data_PCOD9161573
_publ_section_title
;
Structure prediction by ZEFSAII (Michael W. Deem and Ramdas Pophale) SiO2 
 PCOD9161573
Probable space group: P 21/M
;
_chemical_formula_sum "Si O2"
_cell_formula_units_Z 24
_cell_length_a 10.627537
_cell_length_b 14.395848
_cell_length_c 16.660888
_cell_angle_alpha 90.000000
_cell_angle_beta 34.788248
_cell_angle_gamma 90.000000
_cell_volume 1454.313464
_symmetry_space_group_name_H-M "P 21/M"
_symmetry_group_IT_number 11
_symmetry_cell_setting 'monoclinic'
loop_
_space_group_symop_operation_xyz
x,y,z
-x,1/2+y,-z
-x,-y,-z
x,1/2-y,z
loop_
_atom_site_type_symbol
_atom_site_label
_atom_site_fract_x
_atom_site_fract_y
_atom_site_fract_z
Si Si1 0.821103 0.750000 0.756014
Si Si2 0.829933 0.750000 0.567741
Si Si3 0.547067 0.449160 0.846105
Si Si4 0.181715 0.447211 0.163783
Si Si5 0.675143 0.053763 0.460824
Si Si6 0.355400 0.750000 0.464876
Si Si7 0.359213 0.750000 0.277747
Si Si8 0.233504 0.038293 0.415300
O O1 0.744560 0.750000 0.704346
O O2 0.756904 0.844401 0.834658
O O3 0.087112 0.750000 0.607250
O O4 0.766834 0.648501 0.567977
O O5 0.094821 0.750000 0.423632
O O6 0.731526 0.479493 0.815182
O O7 0.570753 0.343113 0.804847
O O8 0.590922 0.511812 0.745154
O O9 0.316267 0.463825 0.012101
O O10 0.918682 0.448574 0.294103
O O11 0.584104 0.157199 0.520918
O O12 0.500000 0.000000 0.500000
O O13 0.715020 0.014485 0.529577
O O14 0.435384 0.750000 0.330901
O O15 0.000000 0.000000 0.500000
#
# Coordination Sequence:
#
# PCOD9161573 Si02
#       8
#     2   2   4   4   4   2   2   4
#     4   9  15  30  52  79 109 141 177 225 271 314
#     4  11  18  27  54  82 112 136 185 228 266 326
#     4  11  20  31  55  83 114 140 184 228 276 318
#     4  10  20  34  51  86 115 141 178 231 277 326
#     4  11  22  38  59  81 110 145 184 229 276 323
#     4   9  18  33  58  76 104 141 192 227 257 326
#     4  11  17  30  54  83 103 148 186 228 264 322
#     4  12  19  36  56  82 109 146 184 224 272 324
#
# _framework density 16.502631999999998
#
# number of rings (size 3 to 8) (size 9 to 14) (size 15 to 20)
#    0.000    1.333    6.667    1.500    0.000    0.667 
#    0.000    1.667    0.000    0.000    0.000    0.000 
#    0.000    0.000    0.000    0.000    0.000    0.000 
#
# Total GULP energy -133796.553890 kJ/mol
# GULP energy per Si atom -5574.856412 kJ/mol
# Density = 1.646507 g / cm^3
# Si number density = 16.502632 Si / 1000 Ang^3
#
#
#
# Elastic Constant Matrix: (Units=GPa)
#
#
# Indices 1 2 3 4 5 6 
#
# 1 74.4074 44.3624 39.3770 0.0000 1.8434 0.0000
# 2 44.3624 136.8064 28.7562 0.0000 0.7502 0.0000
# 3 39.3770 28.7562 107.6840 0.0000 15.6498 0.0000
# 4 0.0000 0.0000 0.0000 24.3522 0.0000 5.2659
# 5 1.8434 0.7502 15.6498 0.0000 16.5273 0.0000
# 6 0.0000 0.0000 0.0000 5.2659 0.0000 25.0218
#
#
#
# Elastic Compliance Matrix: (Units=1/GPa)
#
#
# Indices 1 2 3 4 5 6 
#
# 1 0.019798 -0.005079 -0.006489 0.000000 0.004167 0.000000
# 2 -0.005079 0.009097 -0.000689 0.000000 0.000806 0.000000
# 3 -0.006489 -0.000689 0.013606 0.000000 -0.012129 0.000000
# 4 0.000000 0.000000 0.000000 0.043022 0.000000 -0.009054
# 5 0.004167 0.000806 -0.012129 0.000000 0.071489 0.000000
# 6 0.000000 0.000000 0.000000 -0.009054 0.000000 0.041871
#
#
# Mechanical properties :
#
#
# Convention : Reuss Voigt Hill
#
# Bulk Modulus (GPa) = 55.59543 60.43209 58.01376
# Shear Modulus (GPa) = 21.79664 26.94040 24.36852
#
# Velocity S-wave (km/s) = 3.63822 4.04479 3.84688
# Velocity P-wave (km/s) = 7.17013 7.64938 7.41363
#
# Compressibility (1/GPa) = 0.01798709
#
# Stress axis : x y z
#
# Youngs Moduli (GPa) = 50.50904 109.92618 73.49716
#
# Poissons Ratio (x) = 0.55831 0.47692
# Poissons Ratio (y) = 0.25653 0.05066
# Poissons Ratio (z) = 0.32775 0.07576
#
# Static dielectric constant tensor:
#      x y z
#    x 1.526580 0.000000 0.010300 
#    y 0.000000 1.606000 0.000000 
#    z 0.010300 0.000000 1.562100 
# 
# From -- ./inp_files/12650.got.cif
#   From: 2010.05.17/outbox.cif.g08.bks.cpg/sg11_7_cif.got.tgz:12650.got - 2010.06.03 12:22:45.
