data_PCOD9161714
_publ_section_title
;
Structure prediction by ZEFSAII (Michael W. Deem and Ramdas Pophale) SiO2 
 PCOD9161714
Probable space group: P 21/M
;
_chemical_formula_sum "Si O2"
_cell_formula_units_Z 32
_cell_length_a 15.558828
_cell_length_b 18.975844
_cell_length_c 15.558822
_cell_angle_alpha 90.000000
_cell_angle_beta 19.865798
_cell_angle_gamma 90.000000
_cell_volume 1560.994324
_symmetry_space_group_name_H-M "P 21/M"
_symmetry_group_IT_number 11
_symmetry_cell_setting 'monoclinic'
loop_
_space_group_symop_operation_xyz
x,y,z
-x,1/2+y,-z
-x,-y,-z
x,1/2-y,z
loop_
_atom_site_type_symbol
_atom_site_label
_atom_site_fract_x
_atom_site_fract_y
_atom_site_fract_z
Si Si1 0.175103 0.663905 0.175133
Si Si2 0.534765 0.327639 0.534762
Si Si3 0.377980 0.618778 0.377984
Si Si4 0.273207 0.165166 0.273180
Si Si5 0.170864 0.336578 0.170857
Si Si6 0.002533 0.170171 0.002533
Si Si7 0.553252 0.987761 0.553248
Si Si8 0.919945 0.403073 0.919949
O O1 0.169078 0.750000 0.169103
O O2 0.953743 0.643748 0.450188
O O3 0.450154 0.643749 0.953783
O O4 0.129452 0.623016 0.129456
O O5 0.512695 0.250000 0.512694
O O6 0.585857 0.320544 0.585851
O O7 0.268308 0.364343 0.772687
O O8 0.772689 0.364344 0.268307
O O9 0.411040 0.552011 0.411043
O O10 0.098920 0.629840 0.601860
O O11 0.601855 0.629840 0.098925
O O12 0.274120 0.250000 0.274092
O O13 0.222322 0.146346 0.222315
O O14 0.165598 0.250000 0.165597
O O15 0.019809 0.250000 0.019808
O O16 0.951087 0.165522 0.951085
O O17 0.314739 0.945408 0.818114
O O18 0.500000 0.000000 0.500000
O O19 0.818121 0.945409 0.314731
#
# Coordination Sequence:
#
# PCOD9161714 Si02
#       8
#     4   4   4   4   4   4   4   4
#     4  10  20  37  64  95 125 154 191 246 307 363
#     4  10  20  34  53  80 114 146 181 237 307 362
#     4  12  23  39  59  84 118 156 204 244 285 346
#     4   9  19  36  60  94 128 154 181 230 309 378
#     4  11  22  38  65  96 123 151 189 242 303 364
#     4  10  20  34  54  82 114 144 182 242 308 357
#     4  12  27  44  61  82 118 168 212 250 290 341
#     4  12  23  40  62  85 114 155 210 249 288 349
#
# _framework density 20.499752999999998
#
# number of rings (size 3 to 8) (size 9 to 14) (size 15 to 20)
#    0.000    1.250    0.000    7.125    0.000    3.000 
#    0.000    5.000    0.000   15.000    0.000    0.000 
#    0.000    0.000    0.000    0.000    0.000    0.000 
#
# Total GULP energy -178392.187921 kJ/mol
# GULP energy per Si atom -5574.755873 kJ/mol
# Density = 2.045309 g / cm^3
# Si number density = 20.499753 Si / 1000 Ang^3
#
#
#
# Elastic Constant Matrix: (Units=GPa)
#
#
# Indices 1 2 3 4 5 6 
#
# 1 218.9094 42.6786 126.7351 0.0000 1.0218 0.0000
# 2 42.6786 62.7010 47.7049 0.0000 -0.9141 0.0000
# 3 126.7351 47.7049 252.2877 0.0000 -7.0951 0.0000
# 4 0.0000 0.0000 0.0000 -208.2124 0.0000 42.2003
# 5 1.0218 -0.9141 -7.0951 0.0000 44.7580 0.0000
# 6 0.0000 0.0000 0.0000 42.2003 0.0000 23.6187
#
#
#
# Elastic Compliance Matrix: (Units=1/GPa)
#
#
# Indices 1 2 3 4 5 6 
#
# 1 0.006744 -0.002346 -0.002963 0.000000 -0.000672 0.000000
# 2 -0.002346 0.019446 -0.002497 0.000000 0.000055 0.000000
# 3 -0.002963 -0.002497 0.005951 0.000000 0.000960 0.000000
# 4 0.000000 0.000000 0.000000 -0.003526 0.000000 0.006300
# 5 -0.000672 0.000055 0.000960 0.000000 0.022511 0.000000
# 6 0.000000 0.000000 0.000000 0.006300 0.000000 0.031083
#
#
# Mechanical properties :
#
#
# Convention : Reuss Voigt Hill
#
# Bulk Modulus (GPa) = 60.49808 107.57061 84.03435
# Shear Modulus (GPa) = 48.38786 -6.84850 20.76968
#
# Velocity S-wave (km/s) = 4.86368 -1.82976 3.18648
# Velocity P-wave (km/s) = 7.81768 6.93715 7.39054
#
# Compressibility (1/GPa) = 0.01652945
#
# Stress axis : x y z
#
# Youngs Moduli (GPa) = 148.27875 51.42423 168.02686
#
# Poissons Ratio (x) = 0.12063 0.49789
# Poissons Ratio (y) = 0.34783 0.41958
# Poissons Ratio (z) = 0.43937 0.12841
#
# Static dielectric constant tensor:
#      x y z
#    x 1.694580 0.000000 -0.011400 
#    y 0.000000 1.814790 0.000000 
#    z -0.011400 0.000000 1.757200 
# 
# From -- ./inp_files/52681.got.cif
#   From: 2010.05.17/outbox.cif.g08.bks.cpg/sg11_27_cif.got.tgz:52681.got - 2010.06.03 12:22:45.
