data_PCOD9161646
_publ_section_title
;
Structure prediction by ZEFSAII (Michael W. Deem and Ramdas Pophale) SiO2 
 PCOD9161646
Probable space group: P 21/M
;
_chemical_formula_sum "Si O2"
_cell_formula_units_Z 32
_cell_length_a 11.829255
_cell_length_b 9.132185
_cell_length_c 22.163033
_cell_angle_alpha 90.000000
_cell_angle_beta 124.546734
_cell_angle_gamma 90.000000
_cell_volume 1972.020065
_symmetry_space_group_name_H-M "P 21/M"
_symmetry_group_IT_number 11
_symmetry_cell_setting 'monoclinic'
loop_
_space_group_symop_operation_xyz
x,y,z
-x,1/2+y,-z
-x,-y,-z
x,1/2-y,z
loop_
_atom_site_type_symbol
_atom_site_label
_atom_site_fract_x
_atom_site_fract_y
_atom_site_fract_z
Si Si1 0.334230 0.926585 0.238248
Si Si2 0.631483 0.423822 0.510788
Si Si3 0.923498 0.582602 0.065732
Si Si4 0.211075 0.917501 0.078170
Si Si5 0.077388 0.424963 0.579241
Si Si6 0.368778 0.075477 0.617536
Si Si7 0.073044 0.574945 0.343299
Si Si8 0.932189 0.575168 0.784482
O O1 0.311345 0.750000 0.236313
O O2 0.317287 0.964195 0.162268
O O3 0.484225 0.960532 0.309041
O O4 0.214382 0.007989 0.238489
O O5 0.500000 0.500000 0.500000
O O6 0.610577 0.250000 0.501409
O O7 0.652169 0.488448 0.450544
O O8 0.767835 0.450768 0.591254
O O9 0.895065 0.750000 0.074235
O O10 0.065511 0.582594 0.070041
O O11 0.957155 0.484313 0.133748
O O12 0.809838 0.517545 0.986356
O O13 0.239224 0.750000 0.068623
O O14 0.055868 0.250000 0.567657
O O15 0.239243 0.454254 0.621315
O O16 0.000000 0.500000 0.500000
O O17 0.015115 0.469305 0.624751
O O18 0.369240 0.250000 0.604525
O O19 0.055646 0.750000 0.328093
O O20 0.037792 0.487214 0.272605
O O21 0.926342 0.750000 0.783652
#
# Coordination Sequence:
#
# PCOD9161646 Si02
#       8
#     4   4   4   4   4   4   4   4
#     4   9  18  32  48  70 102 134 159 194 244 291
#     4  11  22  34  49  70  98 130 162 197 242 293
#     4   9  16  27  44  66  96 131 161 193 236 284
#     4   8  14  25  42  65  95 129 162 191 226 282
#     4  10  20  36  56  74  93 122 163 209 250 293
#     4  10  20  34  53  74  96 125 163 203 245 292
#     4  10  21  36  50  67  95 129 161 199 249 293
#     4  11  21  31  47  72  99 129 165 202 239 286
#
# _framework density 16.227014
#
# number of rings (size 3 to 8) (size 9 to 14) (size 15 to 20)
#    0.000    2.250    1.250    3.375    0.000    8.000 
#    0.000    0.000    0.000    0.000    0.000    0.875 
#    0.000    0.000    0.000    0.000    0.000    0.000 
#
# Total GULP energy -178472.417702 kJ/mol
# GULP energy per Si atom -5577.263053 kJ/mol
# Density = 1.619008 g / cm^3
# Si number density = 16.227014 Si / 1000 Ang^3
#
#
#
# Elastic Constant Matrix: (Units=GPa)
#
#
# Indices 1 2 3 4 5 6 
#
# 1 60.6722 29.3956 25.2239 0.0000 -23.4841 0.0000
# 2 29.3956 59.9629 53.5325 0.0000 -16.2709 0.0000
# 3 25.2239 53.5325 108.1448 0.0000 -23.5122 0.0000
# 4 0.0000 0.0000 0.0000 29.7259 0.0000 -4.2960
# 5 -23.4841 -16.2709 -23.5122 0.0000 13.6427 0.0000
# 6 0.0000 0.0000 0.0000 -4.2960 0.0000 16.1486
#
#
#
# Elastic Compliance Matrix: (Units=1/GPa)
#
#
# Indices 1 2 3 4 5 6 
#
# 1 0.065948 -0.015205 0.020603 0.000000 0.130893 0.000000
# 2 -0.015205 0.035817 -0.016930 0.000000 -0.012634 0.000000
# 3 0.020603 -0.016930 0.025816 0.000000 0.059765 0.000000
# 4 0.000000 0.000000 0.000000 0.034986 0.000000 0.009307
# 5 0.130893 -0.012634 0.059765 0.000000 0.386547 0.000000
# 6 0.000000 0.000000 0.000000 0.009307 0.000000 0.064401
#
#
# Mechanical properties :
#
#
# Convention : Reuss Voigt Hill
#
# Bulk Modulus (GPa) = 9.56794 49.45378 29.51086
# Shear Modulus (GPa) = 7.44693 19.94530 13.69611
#
# Velocity S-wave (km/s) = 2.14457 3.50972 2.90837
# Velocity P-wave (km/s) = 3.47006 6.85321 5.43175
#
# Compressibility (1/GPa) = 0.10451571
#
# Stress axis : x y z
#
# Youngs Moduli (GPa) = 15.16358 27.91946 38.73601
#
# Poissons Ratio (x) = 0.42452 -0.79808
# Poissons Ratio (y) = 0.23056 0.65581
# Poissons Ratio (z) = -0.31241 0.47268
#
# Static dielectric constant tensor:
#      x y z
#    x 1.528610 0.000000 0.000350 
#    y 0.000000 1.547570 0.000000 
#    z 0.000350 0.000000 1.545730 
# 
# From -- ./inp_files/40631.got.cif
#   From: 2010.05.17/outbox.cif.g08.bks.cpg/sg11_21_cif.got.tgz:40631.got - 2010.06.03 12:22:45.
