data_PCOD9161876
_publ_section_title
;
Structure prediction by ZEFSAII (Michael W. Deem and Ramdas Pophale) SiO2 
 PCOD9161876
Probable space group: P 21/M
;
_chemical_formula_sum "Si O2"
_cell_formula_units_Z 28
_cell_length_a 14.540248
_cell_length_b 14.045546
_cell_length_c 14.674785
_cell_angle_alpha 90.000000
_cell_angle_beta 30.379686
_cell_angle_gamma 90.000000
_cell_volume 1515.650712
_symmetry_space_group_name_H-M "P 21/M"
_symmetry_group_IT_number 11
_symmetry_cell_setting 'monoclinic'
loop_
_space_group_symop_operation_xyz
x,y,z
-x,1/2+y,-z
-x,-y,-z
x,1/2-y,z
loop_
_atom_site_type_symbol
_atom_site_label
_atom_site_fract_x
_atom_site_fract_y
_atom_site_fract_z
Si Si1 0.051106 0.136818 0.496294
Si Si2 0.865913 0.636569 0.061226
Si Si3 0.182303 0.512948 0.047573
Si Si4 0.719400 0.997639 0.829235
Si Si5 0.244725 0.636640 0.833021
Si Si6 0.160883 0.362761 0.604686
Si Si7 0.415174 0.364528 0.551565
O O1 0.027423 0.250000 0.503316
O O2 0.166077 0.121588 0.491861
O O3 0.852231 0.086080 0.681930
O O4 0.172049 0.088714 0.313469
O O5 0.858951 0.750000 0.052606
O O6 0.694837 0.601947 0.267235
O O7 0.869146 0.580949 0.964368
O O8 0.040809 0.617018 0.974632
O O9 0.265815 0.492113 0.074086
O O10 0.006504 0.576219 0.217624
O O11 0.293060 0.578501 0.882018
O O12 0.500000 0.000000 0.000000
O O13 0.262038 0.750000 0.835755
O O14 0.375526 0.610758 0.637277
O O15 0.125673 0.250000 0.647987
O O16 0.324126 0.388979 0.532501
O O17 0.403125 0.250000 0.568222
#
# Coordination Sequence:
#
# PCOD9161876 Si02
#       7
#     4   4   4   4   4   4   4
#     4   9  20  40  62  82 114 156 193 238 299 351
#     4  10  21  38  52  74 115 150 183 225 267 329
#     4  11  21  35  57  82 109 149 186 226 286 337
#     4  10  23  40  58  89 121 147 195 252 290 343
#     4  10  20  34  55  82 109 140 182 229 279 333
#     4   9  17  33  57  83 110 140 179 231 281 332
#     4   9  18  32  51  78 111 140 174 222 269 325
#
# _framework density 18.473914000000001
#
# number of rings (size 3 to 8) (size 9 to 14) (size 15 to 20)
#    0.000    2.286    1.429    0.857    2.000    2.286 
#    0.000    0.000    0.000    1.714    0.000    0.000 
#    0.000    0.000    0.000    0.000    0.000    0.000 
#
# Total GULP energy -155967.679792 kJ/mol
# GULP energy per Si atom -5570.274278 kJ/mol
# Density = 1.843187 g / cm^3
# Si number density = 18.473914 Si / 1000 Ang^3
#
#
#
# Elastic Constant Matrix: (Units=GPa)
#
#
# Indices 1 2 3 4 5 6 
#
# 1 95.5950 55.7725 44.8403 0.0000 27.5451 0.0000
# 2 55.7725 9.8851 24.2470 0.0000 -8.0544 0.0000
# 3 44.8403 24.2470 96.3309 0.0000 20.5645 0.0000
# 4 0.0000 0.0000 0.0000 8.6572 0.0000 15.3738
# 5 27.5451 -8.0544 20.5645 0.0000 12.2669 0.0000
# 6 0.0000 0.0000 0.0000 15.3738 0.0000 22.5647
#
#
#
# Elastic Compliance Matrix: (Units=1/GPa)
#
#
# Indices 1 2 3 4 5 6 
#
# 1 0.002975 0.012048 -0.007288 0.000000 0.013448 0.000000
# 2 0.012048 -0.005440 0.003580 0.000000 -0.036627 0.000000
# 3 -0.007288 0.003580 0.013824 0.000000 -0.004458 0.000000
# 4 0.000000 0.000000 0.000000 -0.550292 0.000000 0.374924
# 5 0.013448 -0.036627 -0.004458 0.000000 0.034748 0.000000
# 6 0.000000 0.000000 0.000000 0.374924 0.000000 -0.211126
#
#
# Mechanical properties :
#
#
# Convention : Reuss Voigt Hill
#
# Bulk Modulus (GPa) = 35.66402 50.17008 42.91705
# Shear Modulus (GPa) = -6.91904 13.82786 3.45441
#
# Velocity S-wave (km/s) = -1.93738 2.73885 1.36892
# Velocity P-wave (km/s) = 3.78714 6.10065 5.07742
#
# Compressibility (1/GPa) = 0.02803947
#
# Stress axis : x y z
#
# Youngs Moduli (GPa) = 336.09233 -183.83934 72.33692
#
# Poissons Ratio (x) = 2.21492 0.52722
# Poissons Ratio (y) = -4.04928 -0.25897
# Poissons Ratio (z) = 2.44959 0.65815
#
# Static dielectric constant tensor:
#      x y z
#    x 1.634090 0.000000 -0.010830 
#    y 0.000000 1.673280 0.000000 
#    z -0.010830 0.000000 1.669150 
# 
# From -- ./inp_files/52451.got.cif
#   From: 2010.05.17/outbox.cif.g08.bks.cpg/sg11_27_cif.got.tgz:52451.got - 2010.06.03 12:22:45.
