data_PCOD9161174
_publ_section_title
;
Structure prediction by ZEFSAII (Michael W. Deem and Ramdas Pophale) SiO2 
 PCOD9161174
Probable space group: P 21/M
;
_chemical_formula_sum "Si O2"
_cell_formula_units_Z 28
_cell_length_a 26.636640
_cell_length_b 8.459111
_cell_length_c 9.810370
_cell_angle_alpha 90.000000
_cell_angle_beta 139.719046
_cell_angle_gamma 90.000000
_cell_volume 1429.165134
_symmetry_space_group_name_H-M "P 21/M"
_symmetry_group_IT_number 11
_symmetry_cell_setting 'monoclinic'
loop_
_space_group_symop_operation_xyz
x,y,z
-x,1/2+y,-z
-x,-y,-z
x,1/2-y,z
loop_
_atom_site_type_symbol
_atom_site_label
_atom_site_fract_x
_atom_site_fract_y
_atom_site_fract_z
Si Si1 0.491930 0.560087 0.135331
Si Si2 0.176361 0.940356 0.667192
Si Si3 0.425619 0.441101 0.429945
Si Si4 0.679148 0.059492 0.217643
Si Si5 0.228994 0.060446 0.345581
Si Si6 0.252067 0.059414 0.081719
Si Si7 0.916608 0.439680 0.781501
O O1 0.493509 0.750000 0.135692
O O2 0.556263 0.509581 0.376488
O O3 0.500000 0.500000 0.000000
O O4 0.406009 0.508772 0.005010
O O5 0.175992 0.750000 0.673604
O O6 0.253518 0.993394 0.744845
O O7 0.106799 0.989119 0.421736
O O8 0.186898 0.005093 0.840258
O O9 0.500000 0.500000 0.500000
O O10 0.425887 0.250000 0.422932
O O11 0.338523 0.496590 0.214947
O O12 0.681361 0.250000 0.226418
O O13 0.701165 0.997771 0.412963
O O14 0.229161 0.250000 0.346629
O O15 0.150628 0.000447 0.256365
O O16 0.236728 0.006708 0.205265
O O17 0.253630 0.250000 0.085587
O O18 0.915007 0.250000 0.781353
O O19 0.000000 0.500000 0.000000
#
# Coordination Sequence:
#
# PCOD9161174 Si02
#       7
#     4   4   4   4   4   4   4
#     4  10  20  33  49  70 100 135 176 227 278 321
#     4   9  19  35  56  79 104 135 172 212 257 309
#     4  10  21  36  51  72 104 142 183 229 274 317
#     4   9  18  33  51  73 100 135 180 226 269 319
#     4  10  20  35  56  81 109 143 178 218 266 315
#     4  10  21  35  52  77 109 142 181 223 265 316
#     4  10  21  39  62  88 113 138 171 211 256 313
#
# _framework density 19.591857999999998
#
# number of rings (size 3 to 8) (size 9 to 14) (size 15 to 20)
#    0.000    2.286    0.000    3.429    0.000    8.000 
#    0.000    0.714    0.000    0.000    0.000    0.000 
#    0.000    0.000    0.000    0.000    0.000    0.000 
#
# Total GULP energy -156230.446052 kJ/mol
# GULP energy per Si atom -5579.658788 kJ/mol
# Density = 1.954727 g / cm^3
# Si number density = 19.591858 Si / 1000 Ang^3
#
#
#
# Elastic Constant Matrix: (Units=GPa)
#
#
# Indices 1 2 3 4 5 6 
#
# 1 40.0868 2.0201 27.4823 0.0000 -10.3505 0.0000
# 2 2.0201 7.2564 11.5850 0.0000 2.3877 0.0000
# 3 27.4823 11.5850 138.1299 0.0000 -6.3252 0.0000
# 4 0.0000 0.0000 0.0000 26.5903 0.0000 -3.7610
# 5 -10.3505 2.3877 -6.3252 0.0000 36.3482 0.0000
# 6 0.0000 0.0000 0.0000 -3.7610 0.0000 26.8887
#
#
#
# Elastic Compliance Matrix: (Units=1/GPa)
#
#
# Indices 1 2 3 4 5 6 
#
# 1 0.030967 -0.002309 -0.005601 0.000000 0.007995 0.000000
# 2 -0.002309 0.165500 -0.014061 0.000000 -0.013976 0.000000
# 3 -0.005601 -0.014061 0.009579 0.000000 0.000995 0.000000
# 4 0.000000 0.000000 0.000000 0.038367 0.000000 0.005367
# 5 0.007995 -0.013976 0.000995 0.000000 0.030880 0.000000
# 6 0.000000 0.000000 0.000000 0.005367 0.000000 0.037941
#
#
# Mechanical properties :
#
#
# Convention : Reuss Voigt Hill
#
# Bulk Modulus (GPa) = 6.16893 29.73867 17.95380
# Shear Modulus (GPa) = 12.15924 27.59116 19.87520
#
# Velocity S-wave (km/s) = 2.49394 3.75680 3.18852
# Velocity P-wave (km/s) = 3.38357 5.83353 4.76858
#
# Compressibility (1/GPa) = 0.16210269
#
# Stress axis : x y z
#
# Youngs Moduli (GPa) = 32.29281 6.04230 104.39596
#
# Poissons Ratio (x) = 0.01395 0.58476
# Poissons Ratio (y) = 0.07456 1.46793
# Poissons Ratio (z) = 0.18088 0.08496
#
# Static dielectric constant tensor:
#      x y z
#    x 1.697830 0.000000 -0.008380 
#    y 0.000000 1.673240 0.000000 
#    z -0.008380 0.000000 1.705540 
# 
# From -- ./inp_files/28246.got.cif
#   From: 2010.05.17/outbox.cif.g08.bks.cpg/sg11_15_cif.got.tgz:28246.got - 2010.06.03 12:22:45.
