data_PCOD9161611
_publ_section_title
;
Structure prediction by ZEFSAII (Michael W. Deem and Ramdas Pophale) SiO2 
 PCOD9161611
Probable space group: P 21/M
;
_chemical_formula_sum "Si O2"
_cell_formula_units_Z 32
_cell_length_a 15.981896
_cell_length_b 8.956105
_cell_length_c 15.981900
_cell_angle_alpha 90.000000
_cell_angle_beta 124.606283
_cell_angle_gamma 90.000000
_cell_volume 1882.846080
_symmetry_space_group_name_H-M "P 21/M"
_symmetry_group_IT_number 11
_symmetry_cell_setting 'monoclinic'
loop_
_space_group_symop_operation_xyz
x,y,z
-x,1/2+y,-z
-x,-y,-z
x,1/2-y,z
loop_
_atom_site_type_symbol
_atom_site_label
_atom_site_fract_x
_atom_site_fract_y
_atom_site_fract_z
Si Si1 0.153119 0.072542 0.041870
Si Si2 0.577936 0.927061 0.240934
Si Si3 0.654393 0.070384 0.929150
Si Si4 0.388954 0.072111 0.928265
Si Si5 0.929150 0.070385 0.654394
Si Si6 0.041869 0.072542 0.153118
Si Si7 0.928265 0.072112 0.388954
Si Si8 0.240934 0.572939 0.577935
O O1 0.158682 0.250000 0.029506
O O2 0.116763 0.049543 0.116763
O O3 0.259474 0.995124 0.081541
O O4 0.065327 0.000000 0.934673
O O5 0.575554 0.750000 0.252643
O O6 0.459921 0.976024 0.164939
O O7 0.631253 0.953700 0.180900
O O8 0.648904 1.000000 0.351096
O O9 0.656951 0.250000 0.933535
O O10 0.673649 0.006031 0.033621
O O11 0.391370 0.250000 0.943723
O O12 0.500000 0.000000 0.000000
O O13 0.933536 0.250000 0.656952
O O14 0.835061 0.023977 0.540080
O O15 0.918460 0.004875 0.740526
O O16 0.033622 0.006032 0.673649
O O17 0.029505 0.250000 0.158681
O O18 0.943723 0.250000 0.391370
O O19 0.819100 0.046302 0.368748
O O20 0.000000 0.000000 0.500000
O O21 0.252644 0.750000 0.575553
#
# Coordination Sequence:
#
# PCOD9161611 Si02
#       8
#     4   4   4   4   4   4   4   4
#     4  10  21  37  57  80 103 129 163 205 256 311
#     4   9  19  32  48  72 102 137 174 210 249 294
#     4  10  20  34  52  76 104 135 172 212 256 305
#     4   9  17  30  46  68  98 132 171 211 251 294
#     4  10  20  34  52  76 104 135 172 212 256 305
#     4  10  21  37  57  80 103 129 163 205 256 311
#     4   9  17  30  46  68  98 132 171 211 251 294
#     4   9  19  32  48  72 102 137 174 210 249 294
#
# _framework density 16.995547999999999
#
# number of rings (size 3 to 8) (size 9 to 14) (size 15 to 20)
#    0.000    2.500    0.000    3.750    0.000    8.500 
#    0.000    2.500    0.000    0.750    0.000    0.000 
#    0.000    0.000    0.000    0.000    0.000    0.000 
#
# Total GULP energy -178249.375468 kJ/mol
# GULP energy per Si atom -5570.292983 kJ/mol
# Density = 1.695686 g / cm^3
# Si number density = 16.995548 Si / 1000 Ang^3
#
#
#
# Elastic Constant Matrix: (Units=GPa)
#
#
# Indices 1 2 3 4 5 6 
#
# 1 88.5126 53.9645 54.5939 0.0000 5.4603 0.0000
# 2 53.9645 65.3301 58.6890 0.0000 4.0918 0.0000
# 3 54.5939 58.6890 97.7833 0.0000 2.5656 0.0000
# 4 0.0000 0.0000 0.0000 27.4519 0.0000 -1.7929
# 5 5.4603 4.0918 2.5656 0.0000 17.6052 0.0000
# 6 0.0000 0.0000 0.0000 -1.7929 0.0000 29.5222
#
#
#
# Elastic Compliance Matrix: (Units=1/GPa)
#
#
# Indices 1 2 3 4 5 6 
#
# 1 0.023354 -0.016189 -0.003244 0.000000 -0.003008 0.000000
# 2 -0.016189 0.044854 -0.017809 0.000000 -0.002809 0.000000
# 3 -0.003244 -0.017809 0.022678 0.000000 0.001840 0.000000
# 4 0.000000 0.000000 0.000000 0.036572 0.000000 0.002221
# 5 -0.003008 -0.002809 0.001840 0.000000 0.058119 0.000000
# 6 0.000000 0.000000 0.000000 0.002221 0.000000 0.034008
#
#
# Mechanical properties :
#
#
# Convention : Reuss Voigt Hill
#
# Bulk Modulus (GPa) = 60.96278 65.12453 63.04366
# Shear Modulus (GPa) = 16.69256 20.54110 18.61683
#
# Velocity S-wave (km/s) = 3.13736 3.48029 3.31327
# Velocity P-wave (km/s) = 7.00513 7.38591 7.19804
#
# Compressibility (1/GPa) = 0.01640345
#
# Stress axis : x y z
#
# Youngs Moduli (GPa) = 42.81921 22.29477 44.09557
#
# Poissons Ratio (x) = 0.36093 0.14302
# Poissons Ratio (y) = 0.69319 0.78529
# Poissons Ratio (z) = 0.13888 0.39704
#
# Static dielectric constant tensor:
#      x y z
#    x 1.588580 0.000000 -0.005210 
#    y 0.000000 1.564840 0.000000 
#    z -0.005210 0.000000 1.582560 
# 
# From -- ./inp_files/51750.got.cif
#   From: 2010.05.17/outbox.cif.g08.bks.cpg/sg11_26_cif.got.tgz:51750.got - 2010.06.03 12:22:45.
