data_PCOD9161533
_publ_section_title
;
Structure prediction by ZEFSAII (Michael W. Deem and Ramdas Pophale) SiO2 
 PCOD9161533
Probable space group: P 21/M
;
_chemical_formula_sum "Si O2"
_cell_formula_units_Z 26
_cell_length_a 14.230436
_cell_length_b 7.620834
_cell_length_c 9.477171
_cell_angle_alpha 90.000000
_cell_angle_beta 71.128640
_cell_angle_gamma 90.000000
_cell_volume 972.532250
_symmetry_space_group_name_H-M "P 21/M"
_symmetry_group_IT_number 11
_symmetry_cell_setting 'monoclinic'
loop_
_space_group_symop_operation_xyz
x,y,z
-x,1/2+y,-z
-x,-y,-z
x,1/2-y,z
loop_
_atom_site_type_symbol
_atom_site_label
_atom_site_fract_x
_atom_site_fract_y
_atom_site_fract_z
Si Si1 0.575538 0.044052 0.154618
Si Si2 0.890343 0.554948 0.101987
Si Si3 0.166553 0.945272 0.164514
Si Si4 0.820026 0.450328 0.432548
Si Si5 0.636554 0.461447 0.814836
Si Si6 0.384198 0.960639 0.573020
Si Si7 0.973126 0.750000 0.362580
O O1 0.596038 0.250000 0.142050
O O2 0.632931 0.967343 0.260148
O O3 0.456492 0.026484 0.230180
O O4 0.605878 0.975192 0.987799
O O5 0.900528 0.750000 0.165286
O O6 0.846314 0.442944 0.249985
O O7 0.834924 0.552836 0.979708
O O8 0.000000 0.500000 0.000000
O O9 0.202169 0.750000 0.100659
O O10 0.246817 0.006766 0.240368
O O11 0.057790 0.903500 0.276159
O O12 0.830519 0.250000 0.483603
O O13 0.705116 0.514118 0.485885
O O14 0.895934 0.593588 0.449905
O O15 0.629547 0.250000 0.802748
O O16 0.375794 0.750000 0.575131
O O17 0.500000 0.000000 0.500000
#
# Coordination Sequence:
#
# PCOD9161533 Si02
#       7
#     4   4   4   4   4   4   2
#     4   9  18  34  53  79 111 149 188 229 289 335
#     4  12  19  27  43  70 105 144 187 224 273 338
#     4   9  18  30  44  69 107 142 185 222 275 330
#     4  11  21  35  52  74 111 147 183 235 288 341
#     4   9  17  32  53  77 112 151 185 227 276 339
#     4  10  23  39  58  82 112 148 189 243 295 341
#     4  10  20  34  50  78 106 152 188 228 284 350
#
# _framework density 26.734328999999999
#
# number of rings (size 3 to 8) (size 9 to 14) (size 15 to 20)
#    0.462    1.538    2.308    2.308    1.077    3.692 
#    0.000    1.538    0.000    0.000    0.000    1.077 
#    0.000    0.000    0.000    0.000    0.000    0.000 
#
# Total GULP energy -144832.604892 kJ/mol
# GULP energy per Si atom -5570.484804 kJ/mol
# Density = 2.667348 g / cm^3
# Si number density = 26.734329 Si / 1000 Ang^3
#
#
#
# Elastic Constant Matrix: (Units=GPa)
#
#
# Indices 1 2 3 4 5 6 
#
# 1 124.9645 15.0446 35.0945 0.0000 -29.7541 0.0000
# 2 15.0446 95.9394 11.4632 0.0000 -13.4722 0.0000
# 3 35.0945 11.4632 81.6381 0.0000 -26.8105 0.0000
# 4 0.0000 0.0000 0.0000 15.8230 0.0000 -15.1033
# 5 -29.7541 -13.4722 -26.8105 0.0000 55.1744 0.0000
# 6 0.0000 0.0000 0.0000 -15.1033 0.0000 11.9906
#
#
#
# Elastic Compliance Matrix: (Units=1/GPa)
#
#
# Indices 1 2 3 4 5 6 
#
# 1 0.009777 -0.000667 -0.002893 0.000000 0.003704 0.000000
# 2 -0.000667 0.010880 -0.000579 0.000000 0.002015 0.000000
# 3 -0.002893 -0.000579 0.015487 0.000000 0.005824 0.000000
# 4 0.000000 0.000000 0.000000 -0.312387 0.000000 -0.393482
# 5 0.003704 0.002015 0.005824 0.000000 0.023444 0.000000
# 6 0.000000 0.000000 0.000000 -0.393482 0.000000 -0.412231
#
#
# Mechanical properties :
#
#
# Convention : Reuss Voigt Hill
#
# Bulk Modulus (GPa) = 35.88695 47.30518 41.59606
# Shear Modulus (GPa) = -7.72245 32.66023 12.46889
#
# Velocity S-wave (km/s) = -1.70143 3.49902 2.16197
# Velocity P-wave (km/s) = 3.09724 5.83585 4.67172
#
# Compressibility (1/GPa) = 0.02786528
#
# Stress axis : x y z
#
# Youngs Moduli (GPa) = 102.28194 91.91096 64.57176
#
# Poissons Ratio (x) = 0.06134 0.18680
# Poissons Ratio (y) = 0.06826 0.03738
# Poissons Ratio (z) = 0.29588 0.05321
#
# Static dielectric constant tensor:
#      x y z
#    x 2.402470 0.000000 0.169580 
#    y 0.000000 2.095920 0.000000 
#    z 0.169580 0.000000 2.230810 
# 
# From -- ./inp_files/37296.got.cif
#   From: 2010.05.17/outbox.cif.g08.bks.cpg/sg11_19_cif.got.tgz:37296.got - 2010.06.03 12:22:45.
