data_PCOD9161505
_publ_section_title
;
Structure prediction by ZEFSAII (Michael W. Deem and Ramdas Pophale) SiO2 
 PCOD9161505
Probable space group: P 21/M
;
_chemical_formula_sum "Si O2"
_cell_formula_units_Z 32
_cell_length_a 21.569238
_cell_length_b 7.538340
_cell_length_c 17.004935
_cell_angle_alpha 90.000000
_cell_angle_beta 151.810407
_cell_angle_gamma 90.000000
_cell_volume 1306.131252
_symmetry_space_group_name_H-M "P 21/M"
_symmetry_group_IT_number 11
_symmetry_cell_setting 'monoclinic'
loop_
_space_group_symop_operation_xyz
x,y,z
-x,1/2+y,-z
-x,-y,-z
x,1/2-y,z
loop_
_atom_site_type_symbol
_atom_site_label
_atom_site_fract_x
_atom_site_fract_y
_atom_site_fract_z
Si Si1 0.076044 0.034980 0.488110
Si Si2 0.208799 0.537139 0.852225
Si Si3 0.183552 0.534090 0.004452
Si Si4 0.106492 0.038244 0.336336
Si Si5 0.653029 0.461821 0.665546
Si Si6 0.504294 0.461492 0.184198
Si Si7 0.647082 0.451917 0.487864
Si Si8 0.355910 0.049620 0.810281
O O1 0.075301 0.250000 0.496554
O O2 0.090033 0.999363 0.410242
O O3 0.216562 0.960545 0.675709
O O4 0.927335 0.970563 0.341003
O O5 0.197182 0.750000 0.839692
O O6 0.209532 0.472337 0.944149
O O7 0.356429 0.497090 0.989427
O O8 0.192455 0.750000 0.009911
O O9 0.276105 0.467488 0.177383
O O10 0.033518 0.490095 0.857147
O O11 0.124855 0.250000 0.350420
O O12 0.226297 0.950563 0.425999
O O13 0.500000 0.500000 0.500000
O O14 0.679419 0.250000 0.696347
O O15 0.686364 0.532110 0.615545
O O16 0.522135 0.250000 0.203201
O O17 0.532384 0.530514 0.304053
O O18 0.615184 0.539666 0.250887
O O19 0.604572 0.250000 0.457255
O O20 0.338948 0.250000 0.816463
O O21 0.500000 0.000000 0.000000
#
# Coordination Sequence:
#
# PCOD9161505 Si02
#       8
#     4   4   4   4   4   4   4   4
#     4   8  16  33  57  82 108 137 177 222 266 315
#     4   9  17  33  58  83 105 140 186 231 270 311
#     4   8  16  31  52  75 103 137 181 229 272 316
#     4   9  16  31  54  77  98 133 181 223 263 319
#     4  10  20  34  48  68 101 141 179 223 275 321
#     4  11  22  36  53  81 115 146 182 223 265 322
#     4  10  21  33  48  73 109 142 174 222 274 315
#     4  11  22  39  62  87 112 142 175 218 270 324
#
# _framework density 24.499835000000001
#
# number of rings (size 3 to 8) (size 9 to 14) (size 15 to 20)
#    0.000    2.500    1.250    3.000    0.000    1.500 
#    0.000    5.000    0.000    0.000    0.000    0.000 
#    0.000    0.000    0.000    0.000    0.000    0.000 
#
# Total GULP energy -178601.082495 kJ/mol
# GULP energy per Si atom -5581.283828 kJ/mol
# Density = 2.444407 g / cm^3
# Si number density = 24.499835 Si / 1000 Ang^3
#
#
#
# Elastic Constant Matrix: (Units=GPa)
#
#
# Indices 1 2 3 4 5 6 
#
# 1 94.9262 -1.0503 44.9596 0.0000 16.9573 0.0000
# 2 -1.0503 59.5826 8.5430 0.0000 -3.5611 0.0000
# 3 44.9596 8.5430 206.0805 0.0000 15.5128 0.0000
# 4 0.0000 0.0000 0.0000 13.5938 0.0000 4.1949
# 5 16.9573 -3.5611 15.5128 0.0000 43.2009 0.0000
# 6 0.0000 0.0000 0.0000 4.1949 0.0000 11.4110
#
#
#
# Elastic Compliance Matrix: (Units=1/GPa)
#
#
# Indices 1 2 3 4 5 6 
#
# 1 0.012393 0.000328 -0.002418 0.000000 -0.003969 0.000000
# 2 0.000328 0.017013 -0.000897 0.000000 0.001596 0.000000
# 3 -0.002418 -0.000897 0.005500 0.000000 -0.001100 0.000000
# 4 0.000000 0.000000 0.000000 0.082976 0.000000 -0.030504
# 5 -0.003969 0.001596 -0.001100 0.000000 0.025232 0.000000
# 6 0.000000 0.000000 0.000000 -0.030504 0.000000 0.098848
#
#
# Mechanical properties :
#
#
# Convention : Reuss Voigt Hill
#
# Bulk Modulus (GPa) = 34.56502 51.72154 43.14328
# Shear Modulus (GPa) = 19.41142 34.18363 26.79752
#
# Velocity S-wave (km/s) = 2.81785 3.73937 3.31083
# Velocity P-wave (km/s) = 4.97252 6.30878 5.68008
#
# Compressibility (1/GPa) = 0.02893098
#
# Stress axis : x y z
#
# Youngs Moduli (GPa) = 80.69350 58.77795 181.81639
#
# Poissons Ratio (x) = -0.01928 0.43972
# Poissons Ratio (y) = -0.02647 0.16308
# Poissons Ratio (z) = 0.19515 0.05272
#
# Static dielectric constant tensor:
#      x y z
#    x 1.994200 0.000000 -0.043530 
#    y 0.000000 1.912960 0.000000 
#    z -0.043530 0.000000 2.028770 
# 
# From -- ./inp_files/67261.got.cif
#   From: 2010.05.17/outbox.cif.g08.bks.cpg/sg11_34_cif.got.tgz:67261.got - 2010.06.03 12:22:45.
