data_PCOD9161369
_publ_section_title
;
Structure prediction by ZEFSAII (Michael W. Deem and Ramdas Pophale) SiO2 
 PCOD9161369
Probable space group: P 21/M
;
_chemical_formula_sum "Si O2"
_cell_formula_units_Z 28
_cell_length_a 12.996111
_cell_length_b 9.060581
_cell_length_c 16.409759
_cell_angle_alpha 90.000000
_cell_angle_beta 125.015815
_cell_angle_gamma 90.000000
_cell_volume 1582.530974
_symmetry_space_group_name_H-M "P 21/M"
_symmetry_group_IT_number 11
_symmetry_cell_setting 'monoclinic'
loop_
_space_group_symop_operation_xyz
x,y,z
-x,1/2+y,-z
-x,-y,-z
x,1/2-y,z
loop_
_atom_site_type_symbol
_atom_site_label
_atom_site_fract_x
_atom_site_fract_y
_atom_site_fract_z
Si Si1 0.037408 0.076388 0.269019
Si Si2 0.765446 0.072096 0.199711
Si Si3 0.489173 0.073852 0.623547
Si Si4 0.697418 0.425980 0.589146
Si Si5 0.318780 0.425886 0.004575
Si Si6 0.076632 0.575861 0.963031
Si Si7 0.444838 0.925834 0.775577
O O1 0.061886 0.250000 0.294859
O O2 0.912591 0.032101 0.262736
O O3 0.996939 0.059857 0.156122
O O4 0.161497 0.984911 0.343316
O O5 0.758465 0.250000 0.185349
O O6 0.690001 0.034333 0.247046
O O7 0.698226 0.997673 0.091778
O O8 0.475242 0.250000 0.617866
O O9 0.620617 0.038730 0.637447
O O10 0.380894 0.002118 0.518632
O O11 0.479525 0.010354 0.709510
O O12 0.695168 0.250000 0.577373
O O13 0.301222 0.250000 0.990843
O O14 0.209805 0.496893 0.010407
O O15 0.451671 0.454826 0.107593
O O16 0.093855 0.750000 0.986009
O O17 0.000000 0.500000 0.000000
O O18 0.446095 0.750000 0.759664
#
# Coordination Sequence:
#
# PCOD9161369 Si02
#       7
#     4   4   4   4   4   4   4
#     4   9  19  35  56  78 105 143 180 220 271 321
#     4   9  19  37  56  79 111 149 187 226 270 318
#     4  10  22  38  57  83 109 138 178 225 276 328
#     4  10  21  38  59  82 108 139 176 222 276 331
#     4  10  20  33  52  80 111 148 186 224 272 322
#     4  10  21  35  51  76 111 147 184 227 269 320
#     4  10  21  36  56  81 112 146 185 229 273 322
#
# _framework density 17.693176999999999
#
# number of rings (size 3 to 8) (size 9 to 14) (size 15 to 20)
#    0.000    2.286    0.000    3.000    2.000    6.286 
#    0.000    0.714    0.000    0.000    0.000    0.000 
#    0.000    0.000    0.000    0.000    0.000    0.000 
#
# Total GULP energy -156283.670841 kJ/mol
# GULP energy per Si atom -5581.559673 kJ/mol
# Density = 1.765291 g / cm^3
# Si number density = 17.693177 Si / 1000 Ang^3
#
#
#
# Elastic Constant Matrix: (Units=GPa)
#
#
# Indices 1 2 3 4 5 6 
#
# 1 112.7989 53.8777 59.3975 0.0000 9.3665 0.0000
# 2 53.8777 52.4739 40.6698 0.0000 8.1502 0.0000
# 3 59.3975 40.6698 52.1790 0.0000 8.0428 0.0000
# 4 0.0000 0.0000 0.0000 34.9434 0.0000 1.2245
# 5 9.3665 8.1502 8.0428 0.0000 24.5127 0.0000
# 6 0.0000 0.0000 0.0000 1.2245 0.0000 26.3257
#
#
#
# Elastic Compliance Matrix: (Units=1/GPa)
#
#
# Indices 1 2 3 4 5 6 
#
# 1 0.023581 -0.008650 -0.020176 0.000000 0.000485 0.000000
# 2 -0.008650 0.051663 -0.029790 0.000000 -0.004098 0.000000
# 3 -0.020176 -0.029790 0.065972 0.000000 -0.004032 0.000000
# 4 0.000000 0.000000 0.000000 0.028664 0.000000 -0.001333
# 5 0.000485 -0.004098 -0.004032 0.000000 0.043295 0.000000
# 6 0.000000 0.000000 0.000000 -0.001333 0.000000 0.038048
#
#
# Mechanical properties :
#
#
# Convention : Reuss Voigt Hill
#
# Bulk Modulus (GPa) = 41.69189 58.37130 50.03159
# Shear Modulus (GPa) = 13.28201 21.39014 17.33608
#
# Velocity S-wave (km/s) = 2.74284 3.48077 3.13360
# Velocity P-wave (km/s) = 5.80050 7.01547 6.43672
#
# Compressibility (1/GPa) = 0.02398548
#
# Stress axis : x y z
#
# Youngs Moduli (GPa) = 42.40764 19.35619 15.15786
#
# Poissons Ratio (x) = 0.16742 0.30582
# Poissons Ratio (y) = 0.36681 0.45155
# Poissons Ratio (z) = 0.85561 0.57662
#
# Static dielectric constant tensor:
#      x y z
#    x 1.610500 0.000000 0.002180 
#    y 0.000000 1.591720 0.000000 
#    z 0.002180 0.000000 1.570560 
# 
# From -- ./inp_files/38485.got.cif
#   From: 2010.05.17/outbox.cif.g08.bks.cpg/sg11_20_cif.got.tgz:38485.got - 2010.06.03 12:22:45.
