data_PCOD9161113
_publ_section_title
;
Structure prediction by ZEFSAII (Michael W. Deem and Ramdas Pophale) SiO2 
 PCOD9161113
Probable space group: P 21/M
;
_chemical_formula_sum "Si O2"
_cell_formula_units_Z 30
_cell_length_a 11.496759
_cell_length_b 27.301972
_cell_length_c 13.709515
_cell_angle_alpha 90.000000
_cell_angle_beta 158.512059
_cell_angle_gamma 90.000000
_cell_volume 1576.285388
_symmetry_space_group_name_H-M "P 21/M"
_symmetry_group_IT_number 11
_symmetry_cell_setting 'monoclinic'
loop_
_space_group_symop_operation_xyz
x,y,z
-x,1/2+y,-z
-x,-y,-z
x,1/2-y,z
loop_
_atom_site_type_symbol
_atom_site_label
_atom_site_fract_x
_atom_site_fract_y
_atom_site_fract_z
Si Si1 0.791659 0.191196 0.425341
Si Si2 0.087321 0.556323 0.177174
Si Si3 0.205927 0.077103 0.571635
Si Si4 0.187529 0.750000 0.889426
Si Si5 0.850708 0.866887 0.124808
Si Si6 0.474539 0.058290 0.990747
Si Si7 0.511199 0.995565 0.356319
Si Si8 0.244320 0.317183 0.586713
O O1 0.762172 0.250000 0.416639
O O2 0.949550 0.164512 0.641446
O O3 0.018212 0.183988 0.507434
O O4 0.452576 0.165738 0.141400
O O5 0.232577 0.521369 0.374621
O O6 0.324537 0.545934 0.272441
O O7 0.048301 0.611036 0.188288
O O8 0.746668 0.535560 0.877948
O O9 0.326432 0.076482 0.775147
O O10 0.316897 0.127639 0.611935
O O11 0.328306 0.029769 0.610428
O O12 0.829103 0.077214 0.277988
O O13 0.963442 0.791528 0.659141
O O14 0.430434 0.791538 0.126299
O O15 0.724934 0.916554 0.079256
O O16 0.500000 0.000000 0.000000
#
# Coordination Sequence:
#
# PCOD9161113 Si02
#       8
#     4   4   4   2   4   4   4   4
#     4  12  23  35  56  80 115 152 196 232 283 337
#     4  10  22  40  62  81 114 147 195 232 274 331
#     4  12  22  35  54  83 114 146 187 225 276 336
#     4  10  20  32  54  72 106 144 184 226 274 318
#     4  12  22  38  54  87 115 152 189 236 285 342
#     4  12  23  34  52  82 125 156 176 220 289 352
#     4  10  21  40  61  86 108 152 192 231 269 336
#     4  11  20  34  52  79 110 145 183 232 272 340
#
# _framework density 19.032086
#
# number of rings (size 3 to 8) (size 9 to 14) (size 15 to 20)
#    0.000    0.800    4.000    5.600    0.000    0.000 
#    0.000    0.000    0.000    0.000   10.400    0.000 
#    0.000    0.000    0.000    0.000    0.000    0.000 
#
# Total GULP energy -167018.511069 kJ/mol
# GULP energy per Si atom -5567.283702 kJ/mol
# Density = 1.898877 g / cm^3
# Si number density = 19.032086 Si / 1000 Ang^3
#
#
#
# Elastic Constant Matrix: (Units=GPa)
#
#
# Indices 1 2 3 4 5 6 
#
# 1 32.8675 -2.8157 19.7957 0.0000 -1.3109 0.0000
# 2 -2.8157 92.5804 13.1471 0.0000 -11.1343 0.0000
# 3 19.7957 13.1471 117.3553 0.0000 -40.0701 0.0000
# 4 0.0000 0.0000 0.0000 23.9337 0.0000 -8.8711
# 5 -1.3109 -11.1343 -40.0701 0.0000 20.8357 0.0000
# 6 0.0000 0.0000 0.0000 -8.8711 0.0000 9.5195
#
#
#
# Elastic Compliance Matrix: (Units=1/GPa)
#
#
# Indices 1 2 3 4 5 6 
#
# 1 0.039402 -0.000013 -0.016895 0.000000 -0.030019 0.000000
# 2 -0.000013 0.011774 0.002421 0.000000 0.010946 0.000000
# 3 -0.016895 0.002421 0.032557 0.000000 0.062842 0.000000
# 4 0.000000 0.000000 0.000000 0.063829 0.000000 0.059481
# 5 -0.030019 0.010946 0.062842 0.000000 0.172809 0.000000
# 6 0.000000 0.000000 0.000000 0.059481 0.000000 0.160478
#
#
# Mechanical properties :
#
#
# Convention : Reuss Voigt Hill
#
# Bulk Modulus (GPa) = 18.26179 33.67304 25.96741
# Shear Modulus (GPa) = 9.46835 25.03618 17.25227
#
# Velocity S-wave (km/s) = 2.23288 3.63088 3.01405
# Velocity P-wave (km/s) = 4.03283 5.94213 5.07802
#
# Compressibility (1/GPa) = 0.05475916
#
# Stress axis : x y z
#
# Youngs Moduli (GPa) = 25.37922 84.93471 30.71578
#
# Poissons Ratio (x) = 0.00108 0.51893
# Poissons Ratio (y) = 0.00032 -0.07435
# Poissons Ratio (z) = 0.42877 -0.20560
#
# Static dielectric constant tensor:
#      x y z
#    x 1.650400 0.000000 0.002940 
#    y 0.000000 1.618700 0.000000 
#    z 0.002940 0.000000 1.635020 
# 
# From -- ./inp_files/50865.got.cif
#   From: 2010.05.17/outbox.cif.g08.bks.cpg/sg11_26_cif.got.tgz:50865.got - 2010.06.03 12:22:45.
