data_PCOD9161572
_publ_section_title
;
Structure prediction by ZEFSAII (Michael W. Deem and Ramdas Pophale) SiO2 
 PCOD9161572
Probable space group: P 21/M
;
_chemical_formula_sum "Si O2"
_cell_formula_units_Z 28
_cell_length_a 9.517613
_cell_length_b 13.269070
_cell_length_c 12.326760
_cell_angle_alpha 90.000000
_cell_angle_beta 65.535187
_cell_angle_gamma 90.000000
_cell_volume 1416.973816
_symmetry_space_group_name_H-M "P 21/M"
_symmetry_group_IT_number 11
_symmetry_cell_setting 'monoclinic'
loop_
_space_group_symop_operation_xyz
x,y,z
-x,1/2+y,-z
-x,-y,-z
x,1/2-y,z
loop_
_atom_site_type_symbol
_atom_site_label
_atom_site_fract_x
_atom_site_fract_y
_atom_site_fract_z
Si Si1 0.048683 0.370537 0.030995
Si Si2 0.620108 0.633155 0.187962
Si Si3 0.846560 0.455092 0.494466
Si Si4 0.312939 0.537288 0.242354
Si Si5 0.779432 0.633523 0.364512
Si Si6 0.918499 0.633518 0.734961
Si Si7 0.895763 0.369252 0.866202
O O1 0.018572 0.250000 0.048359
O O2 0.045359 0.406474 0.155540
O O3 0.931189 0.409161 0.976117
O O4 0.220150 0.379308 0.927518
O O5 0.567993 0.750000 0.187378
O O6 0.494762 0.552699 0.189453
O O7 0.662231 0.622246 0.301600
O O8 0.747734 0.412763 0.625537
O O9 0.761848 0.546869 0.459615
O O10 0.000000 0.500000 0.500000
O O11 0.923998 0.380331 0.383511
O O12 0.226305 0.429332 0.266306
O O13 0.245740 0.588731 0.156466
O O14 0.770867 0.750000 0.407001
O O15 0.950211 0.619090 0.257457
O O16 0.876126 0.750000 0.752978
O O17 0.874114 0.250000 0.884084
#
# Coordination Sequence:
#
# PCOD9161572 Si02
#       7
#     4   4   4   4   4   4   4
#     4   8  17  35  56  77 104 140 181 218 264 326
#     4   9  19  35  56  81 107 134 172 227 274 313
#     4  10  20  34  51  82 109 134 180 221 258 314
#     4  11  21  33  52  87 110 137 178 225 265 313
#     4   9  17  34  56  78 105 141 177 214 268 319
#     4  10  21  36  53  75 110 150 180 215 266 316
#     4   9  16  30  54  81 104 130 175 229 267 303
#
# _framework density 19.760422999999999
#
# number of rings (size 3 to 8) (size 9 to 14) (size 15 to 20)
#    0.000    2.571    2.857    2.143    0.000    5.143 
#    0.000    0.000    0.000    0.857    0.000    0.000 
#    0.000    0.000    0.000    0.000    0.000    0.000 
#
# Total GULP energy -156077.128725 kJ/mol
# GULP energy per Si atom -5574.183169 kJ/mol
# Density = 1.971545 g / cm^3
# Si number density = 19.760423 Si / 1000 Ang^3
#
#
#
# Elastic Constant Matrix: (Units=GPa)
#
#
# Indices 1 2 3 4 5 6 
#
# 1 77.0877 24.2139 12.8171 0.0000 19.6293 0.0000
# 2 24.2139 71.6416 7.1720 0.0000 10.3441 0.0000
# 3 12.8171 7.1720 63.2775 0.0000 26.8767 0.0000
# 4 0.0000 0.0000 0.0000 16.1189 0.0000 5.4347
# 5 19.6293 10.3441 26.8767 0.0000 17.9434 0.0000
# 6 0.0000 0.0000 0.0000 5.4347 0.0000 28.8546
#
#
#
# Elastic Compliance Matrix: (Units=1/GPa)
#
#
# Indices 1 2 3 4 5 6 
#
# 1 0.023307 -0.002567 0.015864 0.000000 -0.047780 0.000000
# 2 -0.002567 0.016239 0.004021 0.000000 -0.012577 0.000000
# 3 0.015864 0.004021 0.056324 0.000000 -0.104038 0.000000
# 4 0.000000 0.000000 0.000000 0.066246 0.000000 -0.012477
# 5 -0.047780 -0.012577 -0.104038 0.000000 0.271086 0.000000
# 6 0.000000 0.000000 0.000000 -0.012477 0.000000 0.037007
#
#
# Mechanical properties :
#
#
# Convention : Reuss Voigt Hill
#
# Bulk Modulus (GPa) = 7.66240 33.37921 20.52081
# Shear Modulus (GPa) = 10.43680 23.77030 17.10355
#
# Velocity S-wave (km/s) = 2.30068 3.47208 2.94521
# Velocity P-wave (km/s) = 3.30811 5.74477 4.68754
#
# Compressibility (1/GPa) = 0.13050744
#
# Stress axis : x y z
#
# Youngs Moduli (GPa) = 42.90507 61.57881 17.75445
#
# Poissons Ratio (x) = 0.15807 -0.28166
# Poissons Ratio (y) = 0.11013 -0.07140
# Poissons Ratio (z) = -0.68065 -0.24763
#
# Static dielectric constant tensor:
#      x y z
#    x 1.668720 0.000000 0.041630 
#    y 0.000000 1.758820 0.000000 
#    z 0.041630 0.000000 1.792240 
# 
# From -- ./inp_files/31799.got.cif
#   From: 2010.05.17/outbox.cif.g08.bks.cpg/sg11_16_cif.got.tgz:31799.got - 2010.06.03 12:22:45.
