data_PCOD9161334
_publ_section_title
;
Structure prediction by ZEFSAII (Michael W. Deem and Ramdas Pophale) SiO2 
 PCOD9161334
Probable space group: P 21/M
;
_chemical_formula_sum "Si O2"
_cell_formula_units_Z 32
_cell_length_a 28.670617
_cell_length_b 8.580870
_cell_length_c 22.441675
_cell_angle_alpha 90.000000
_cell_angle_beta 17.000482
_cell_angle_gamma 90.000000
_cell_volume 1614.250465
_symmetry_space_group_name_H-M "P 21/M"
_symmetry_group_IT_number 11
_symmetry_cell_setting 'monoclinic'
loop_
_space_group_symop_operation_xyz
x,y,z
-x,1/2+y,-z
-x,-y,-z
x,1/2-y,z
loop_
_atom_site_type_symbol
_atom_site_label
_atom_site_fract_x
_atom_site_fract_y
_atom_site_fract_z
Si Si1 0.898458 0.567541 0.943501
Si Si2 0.786437 0.065950 0.752792
Si Si3 0.605806 0.563744 0.594567
Si Si4 0.051994 0.062543 0.872644
Si Si5 0.782504 0.937569 0.498958
Si Si6 0.441842 0.431520 0.131855
Si Si7 0.968059 0.567334 0.642319
Si Si8 0.742887 0.436753 0.019838
O O1 0.869007 0.750000 0.985981
O O2 0.930700 0.493311 0.968982
O O3 0.064990 0.532075 0.706931
O O4 0.773270 0.494106 0.050140
O O5 0.828134 0.250000 0.710288
O O6 0.863661 0.017559 0.594459
O O7 0.855310 0.967500 0.722894
O O8 0.597403 0.054164 0.983092
O O9 0.599954 0.750000 0.591351
O O10 0.766549 0.507141 0.364440
O O11 0.649353 0.542311 0.610552
O O12 0.430975 0.504049 0.790233
O O13 0.053601 0.250000 0.869827
O O14 0.000000 0.000000 0.000000
O O15 0.819047 0.750000 0.456358
O O16 0.711037 0.996969 0.648012
O O17 0.409430 0.250000 0.162934
O O18 0.500000 0.500000 0.000000
O O19 0.978296 0.750000 0.643014
O O20 0.884147 0.487912 0.801643
O O21 0.743015 0.250000 0.019239
#
# Coordination Sequence:
#
# PCOD9161334 Si02
#       8
#     4   4   4   4   4   4   4   4
#     4  11  23  38  57  86 120 153 191 235 281 332
#     4   9  19  36  51  68  99 139 182 229 286 344
#     4   8  17  35  61  86 111 145 188 229 272 331
#     4  10  20  40  67  94 121 152 188 224 271 331
#     4   9  18  36  57  78 105 145 194 240 288 346
#     4  10  21  34  50  72 101 139 186 237 289 341
#     4  10  20  33  52  77 104 137 180 231 282 338
#     4  11  21  36  58  83 114 151 188 231 285 335
#
# _framework density 19.823440999999999
#
# number of rings (size 3 to 8) (size 9 to 14) (size 15 to 20)
#    0.000    2.250    0.000    3.750    1.750    3.500 
#    0.000    9.375    0.000    0.000    0.000    0.000 
#    0.000    0.000    0.000    0.000    0.000    0.000 
#
# Total GULP energy -178444.565577 kJ/mol
# GULP energy per Si atom -5576.392674 kJ/mol
# Density = 1.977832 g / cm^3
# Si number density = 19.823441 Si / 1000 Ang^3
#
#
#
# Elastic Constant Matrix: (Units=GPa)
#
#
# Indices 1 2 3 4 5 6 
#
# 1 65.5906 -4.6461 20.2274 0.0000 7.1756 0.0000
# 2 -4.6461 22.7259 3.9963 0.0000 -3.4304 0.0000
# 3 20.2274 3.9963 47.7822 0.0000 14.0416 0.0000
# 4 0.0000 0.0000 0.0000 17.7409 0.0000 6.5047
# 5 7.1756 -3.4304 14.0416 0.0000 33.3173 0.0000
# 6 0.0000 0.0000 0.0000 6.5047 0.0000 32.6153
#
#
#
# Elastic Compliance Matrix: (Units=1/GPa)
#
#
# Indices 1 2 3 4 5 6 
#
# 1 0.018105 0.005134 -0.008107 0.000000 0.000046 0.000000
# 2 0.005134 0.047613 -0.008299 0.000000 0.007294 0.000000
# 3 -0.008107 -0.008299 0.028297 0.000000 -0.011034 0.000000
# 4 0.000000 0.000000 0.000000 0.060814 0.000000 -0.012129
# 5 0.000046 0.007294 -0.011034 0.000000 0.035406 0.000000
# 6 0.000000 0.000000 0.000000 -0.012129 0.000000 0.033079
#
#
# Mechanical properties :
#
#
# Convention : Reuss Voigt Hill
#
# Bulk Modulus (GPa) = 13.99185 19.47265 16.73225
# Shear Modulus (GPa) = 18.54038 24.50278 21.52158
#
# Velocity S-wave (km/s) = 3.06155 3.51957 3.29851
# Velocity P-wave (km/s) = 4.42391 5.13428 4.79227
#
# Compressibility (1/GPa) = 0.07147020
#
# Stress axis : x y z
#
# Youngs Moduli (GPa) = 55.23376 21.00276 35.33945
#
# Poissons Ratio (x) = -0.10783 0.28650
# Poissons Ratio (y) = -0.28357 0.29328
# Poissons Ratio (z) = 0.44779 0.17430
#
# Static dielectric constant tensor:
#      x y z
#    x 1.720990 0.000000 -0.025890 
#    y 0.000000 1.686170 0.000000 
#    z -0.025890 0.000000 1.725450 
# 
# From -- ./inp_files/67075.got.cif
#   From: 2010.05.17/outbox.cif.g08.bks.cpg/sg11_34_cif.got.tgz:67075.got - 2010.06.03 12:22:45.
