data_PCOD9161321
_publ_section_title
;
Structure prediction by ZEFSAII (Michael W. Deem and Ramdas Pophale) SiO2 
 PCOD9161321
Probable space group: P 21/M
;
_chemical_formula_sum "Si O2"
_cell_formula_units_Z 32
_cell_length_a 23.319063
_cell_length_b 7.717155
_cell_length_c 14.791227
_cell_angle_alpha 90.000000
_cell_angle_beta 36.290980
_cell_angle_gamma 90.000000
_cell_volume 1575.472422
_symmetry_space_group_name_H-M "P 21/M"
_symmetry_group_IT_number 11
_symmetry_cell_setting 'monoclinic'
loop_
_space_group_symop_operation_xyz
x,y,z
-x,1/2+y,-z
-x,-y,-z
x,1/2-y,z
loop_
_atom_site_type_symbol
_atom_site_label
_atom_site_fract_x
_atom_site_fract_y
_atom_site_fract_z
Si Si1 0.135851 0.457942 0.144835
Si Si2 0.387819 0.548803 0.144500
Si Si3 0.455770 0.543597 0.654565
Si Si4 0.244528 0.050073 0.481612
Si Si5 0.258739 0.450059 0.833465
Si Si6 0.230245 0.459572 0.206691
Si Si7 0.087377 0.040735 0.547291
Si Si8 0.343957 0.463463 0.535147
O O1 0.148859 0.250000 0.124997
O O2 0.201697 0.523770 0.143936
O O3 0.023933 0.490844 0.307800
O O4 0.171551 0.528074 0.002560
O O5 0.379301 0.750000 0.176886
O O6 0.327513 0.452600 0.299231
O O7 0.331685 0.515402 0.121683
O O8 0.500000 0.500000 0.000000
O O9 0.500000 0.500000 0.500000
O O10 0.442427 0.750000 0.679959
O O11 0.351000 0.457851 0.784155
O O12 0.542351 0.485812 0.610474
O O13 0.221652 0.250000 0.531899
O O14 0.149654 0.974074 0.553774
O O15 0.286423 0.974366 0.520690
O O16 0.235776 0.250000 0.842815
O O17 0.293887 0.523905 0.692524
O O18 0.230333 0.250000 0.205299
O O19 0.145605 0.516596 0.383977
O O20 0.092690 0.250000 0.541208
O O21 0.345734 0.250000 0.534534
#
# Coordination Sequence:
#
# PCOD9161321 Si02
#       8
#     4   4   4   4   4   4   4   4
#     4  10  20  33  52  75 103 133 165 210 258 297
#     4  11  22  36  54  78 107 136 164 203 248 296
#     4   9  16  28  47  70  95 127 162 199 240 289
#     4   9  18  35  55  74  98 133 173 211 247 294
#     4   9  18  32  48  72 102 132 165 206 250 293
#     4   9  19  36  54  75 101 133 169 206 249 300
#     4   9  18  32  51  72  97 128 168 213 256 302
#     4   8  15  30  52  72  96 132 170 200 241 297
#
# _framework density 20.311368000000002
#
# number of rings (size 3 to 8) (size 9 to 14) (size 15 to 20)
#    0.000    2.750    0.000    3.375    0.000    4.000 
#    0.000    6.250    0.000    0.000    0.000    0.000 
#    0.000    0.000    0.000    0.000    0.000    0.000 
#
# Total GULP energy -178370.645082 kJ/mol
# GULP energy per Si atom -5574.082659 kJ/mol
# Density = 2.026514 g / cm^3
# Si number density = 20.311368 Si / 1000 Ang^3
#
#
#
# Elastic Constant Matrix: (Units=GPa)
#
#
# Indices 1 2 3 4 5 6 
#
# 1 124.0968 -6.8144 32.8218 0.0000 1.6034 0.0000
# 2 -6.8144 35.9594 -12.8501 0.0000 4.0943 0.0000
# 3 32.8218 -12.8501 63.7159 0.0000 -14.9805 0.0000
# 4 0.0000 0.0000 0.0000 14.3476 0.0000 -7.7785
# 5 1.6034 4.0943 -14.9805 0.0000 21.6080 0.0000
# 6 0.0000 0.0000 0.0000 -7.7785 0.0000 15.4762
#
#
#
# Elastic Compliance Matrix: (Units=1/GPa)
#
#
# Indices 1 2 3 4 5 6 
#
# 1 0.009769 0.000219 -0.006174 0.000000 -0.005047 0.000000
# 2 0.000219 0.030031 0.005498 0.000000 -0.001895 0.000000
# 3 -0.006174 0.005498 0.023712 0.000000 0.015856 0.000000
# 4 0.000000 0.000000 0.000000 0.095803 0.000000 0.048152
# 5 -0.005047 -0.001895 0.015856 0.000000 0.058005 0.000000
# 6 0.000000 0.000000 0.000000 0.048152 0.000000 0.088817
#
#
# Mechanical properties :
#
#
# Convention : Reuss Voigt Hill
#
# Bulk Modulus (GPa) = 15.97494 27.78740 21.88117
# Shear Modulus (GPa) = 15.24777 24.32734 19.78756
#
# Velocity S-wave (km/s) = 2.74287 3.46456 3.12462
# Velocity P-wave (km/s) = 4.23240 5.45112 4.87995
#
# Compressibility (1/GPa) = 0.06259804
#
# Stress axis : x y z
#
# Youngs Moduli (GPa) = 102.36951 33.29864 42.17263
#
# Poissons Ratio (x) = -0.00730 0.26039
# Poissons Ratio (y) = -0.02246 -0.23187
# Poissons Ratio (z) = 0.63207 -0.18308
#
# Static dielectric constant tensor:
#      x y z
#    x 1.740610 0.000000 0.003410 
#    y 0.000000 1.741100 0.000000 
#    z 0.003410 0.000000 1.722480 
# 
# From -- ./inp_files/51380.got.cif
#   From: 2010.05.17/outbox.cif.g08.bks.cpg/sg11_26_cif.got.tgz:51380.got - 2010.06.03 12:22:45.
