data_PCOD9161426
_publ_section_title
;
Structure prediction by ZEFSAII (Michael W. Deem and Ramdas Pophale) SiO2 
 PCOD9161426
Probable space group: P 21/M
;
_chemical_formula_sum "Si O2"
_cell_formula_units_Z 32
_cell_length_a 17.622534
_cell_length_b 14.606668
_cell_length_c 12.300261
_cell_angle_alpha 90.000000
_cell_angle_beta 148.811368
_cell_angle_gamma 90.000000
_cell_volume 1639.622744
_symmetry_space_group_name_H-M "P 21/M"
_symmetry_group_IT_number 11
_symmetry_cell_setting 'monoclinic'
loop_
_space_group_symop_operation_xyz
x,y,z
-x,1/2+y,-z
-x,-y,-z
x,1/2-y,z
loop_
_atom_site_type_symbol
_atom_site_label
_atom_site_fract_x
_atom_site_fract_y
_atom_site_fract_z
Si Si1 0.676314 0.645372 0.180776
Si Si2 0.611927 0.358527 0.552820
Si Si3 0.903799 0.994846 0.214916
Si Si4 0.577474 0.539004 0.859768
Si Si5 0.330307 0.147615 0.349796
Si Si6 0.119610 0.982410 0.054474
Si Si7 0.013000 0.857406 0.513916
Si Si8 0.571868 0.853029 0.292053
O O1 0.630053 0.750000 0.104572
O O2 0.846020 0.638933 0.354673
O O3 0.654924 0.626556 0.281667
O O4 0.583435 0.582285 0.986869
O O5 0.622604 0.250000 0.544879
O O6 0.539391 0.411467 0.361743
O O7 0.494372 0.371743 0.506774
O O8 0.767672 0.401511 0.775967
O O9 0.007264 0.916994 0.395712
O O10 0.740654 0.952416 0.012194
O O11 0.946156 0.027618 0.146777
O O12 0.899636 0.081141 0.292216
O O13 0.542846 0.432568 0.828428
O O14 0.292903 0.250000 0.266131
O O15 0.219902 0.072618 0.173671
O O16 0.328931 0.145709 0.478712
O O17 0.000000 0.000000 0.000000
O O18 0.053972 0.750000 0.553259
O O19 0.509686 0.750000 0.208427
#
# Coordination Sequence:
#
# PCOD9161426 Si02
#       8
#     4   4   4   4   4   4   4   4
#     4   9  19  34  56  86 113 150 200 247 309 367
#     4  11  23  41  64  89 121 161 209 259 303 361
#     4  10  22  37  60  89 115 156 210 246 300 370
#     4  11  19  36  62  83 119 153 208 255 302 357
#     4  10  21  39  63  86 117 162 204 248 302 359
#     4  12  25  40  61  92 132 165 203 252 312 377
#     4   9  20  39  60  83 116 154 197 255 304 357
#     4  10  20  33  53  82 114 148 190 246 304 363
#
# _framework density 19.516684999999999
#
# number of rings (size 3 to 8) (size 9 to 14) (size 15 to 20)
#    0.000    1.750    2.500    1.875    1.750    2.500 
#    0.000    0.000    0.000    0.000    0.000    0.000 
#    0.000    0.000    0.000    0.000    0.000    0.000 
#
# Total GULP energy -178545.129614 kJ/mol
# GULP energy per Si atom -5579.535300 kJ/mol
# Density = 1.947226 g / cm^3
# Si number density = 19.516685 Si / 1000 Ang^3
#
#
#
# Elastic Constant Matrix: (Units=GPa)
#
#
# Indices 1 2 3 4 5 6 
#
# 1 84.1291 31.8039 42.1409 0.0000 -20.1107 0.0000
# 2 31.8039 111.5599 48.1713 0.0000 -9.3789 0.0000
# 3 42.1409 48.1713 76.2732 0.0000 -22.9474 0.0000
# 4 0.0000 0.0000 0.0000 2.4262 0.0000 -4.2229
# 5 -20.1107 -9.3789 -22.9474 0.0000 25.8533 0.0000
# 6 0.0000 0.0000 0.0000 -4.2229 0.0000 21.9516
#
#
#
# Elastic Compliance Matrix: (Units=1/GPa)
#
#
# Indices 1 2 3 4 5 6 
#
# 1 0.017457 -0.001575 -0.006463 0.000000 0.007272 0.000000
# 2 -0.001575 0.012680 -0.008354 0.000000 -0.004040 0.000000
# 3 -0.006463 -0.008354 0.026650 0.000000 0.015597 0.000000
# 4 0.000000 0.000000 0.000000 0.619645 0.000000 0.119202
# 5 0.007272 -0.004040 0.015597 0.000000 0.056715 0.000000
# 6 0.000000 0.000000 0.000000 0.119202 0.000000 0.068486
#
#
# Mechanical properties :
#
#
# Convention : Reuss Voigt Hill
#
# Bulk Modulus (GPa) = 41.65823 57.35495 49.50659
# Shear Modulus (GPa) = 5.93531 20.03596 12.98563
#
# Velocity S-wave (km/s) = 1.74578 3.20755 2.58226
# Velocity P-wave (km/s) = 5.04529 6.57033 5.85765
#
# Compressibility (1/GPa) = 0.02400486
#
# Stress axis : x y z
#
# Youngs Moduli (GPa) = 57.28206 78.86303 37.52399
#
# Poissons Ratio (x) = 0.12420 0.24251
# Poissons Ratio (y) = 0.09021 0.31346
# Poissons Ratio (z) = 0.37020 0.65879
#
# Static dielectric constant tensor:
#      x y z
#    x 1.688390 0.000000 -0.030720 
#    y 0.000000 1.689610 0.000000 
#    z -0.030720 0.000000 1.694290 
# 
# From -- ./inp_files/41694.got.cif
#   From: 2010.05.17/outbox.cif.g08.bks.cpg/sg11_21_cif.got.tgz:41694.got - 2010.06.03 12:22:45.
