data_PCOD9161195
_publ_section_title
;
Structure prediction by ZEFSAII (Michael W. Deem and Ramdas Pophale) SiO2 
 PCOD9161195
Probable space group: P 21/M
;
_chemical_formula_sum "Si O2"
_cell_formula_units_Z 32
_cell_length_a 15.382852
_cell_length_b 15.703029
_cell_length_c 8.036119
_cell_angle_alpha 90.000000
_cell_angle_beta 58.046009
_cell_angle_gamma 90.000000
_cell_volume 1647.042709
_symmetry_space_group_name_H-M "P 21/M"
_symmetry_group_IT_number 11
_symmetry_cell_setting 'monoclinic'
loop_
_space_group_symop_operation_xyz
x,y,z
-x,1/2+y,-z
-x,-y,-z
x,1/2-y,z
loop_
_atom_site_type_symbol
_atom_site_label
_atom_site_fract_x
_atom_site_fract_y
_atom_site_fract_z
Si Si1 0.294059 0.993979 0.975394
Si Si2 0.645376 0.352054 0.343319
Si Si3 0.577230 0.116064 0.947672
Si Si4 0.747093 0.651157 0.596329
Si Si5 0.880405 0.997085 0.586438
Si Si6 0.557642 0.847889 0.592381
Si Si7 0.768730 0.343292 0.557643
Si Si8 0.387559 0.346598 0.926449
O O1 0.379090 0.974746 0.035505
O O2 0.185449 0.000627 0.175447
O O3 0.301824 0.915329 0.842274
O O4 0.332913 0.083972 0.865224
O O5 0.649126 0.250000 0.298670
O O6 0.524591 0.378287 0.460955
O O7 0.703585 0.361498 0.457666
O O8 0.683349 0.159596 0.789715
O O9 0.500526 0.127153 0.872659
O O10 0.514230 0.150256 0.168714
O O11 0.774785 0.750000 0.531118
O O12 0.840586 0.587023 0.530370
O O13 0.665585 0.614345 0.543519
O O14 0.683710 0.654096 0.834656
O O15 0.844918 0.080623 0.521435
O O16 0.000000 0.000000 0.500000
O O17 0.581309 0.750000 0.533163
O O18 0.817432 0.250000 0.493428
O O19 0.391010 0.250000 0.860897
#
# Coordination Sequence:
#
# PCOD9161195 Si02
#       8
#     4   4   4   4   4   4   4   4
#     4   9  18  31  48  70  94 125 164 202 240 291
#     4   9  18  32  50  73 102 132 158 187 234 295
#     4   9  15  26  45  70  98 124 155 196 238 284
#     4   8  15  29  49  71  96 126 161 199 239 289
#     4  10  21  35  51  73  95 123 166 214 254 281
#     4   8  13  25  47  72  96 126 158 186 226 289
#     4  10  20  33  49  73 103 130 157 196 243 287
#     4   9  15  25  44  70  98 128 160 194 234 286
#
# _framework density 19.428761999999999
#
# number of rings (size 3 to 8) (size 9 to 14) (size 15 to 20)
#    0.000    3.000    0.000    2.250    0.000    7.000 
#    0.000    3.125    0.000    2.250    0.000    0.000 
#    0.000    0.000    0.000    0.000    0.000    0.000 
#
# Total GULP energy -178221.389853 kJ/mol
# GULP energy per Si atom -5569.418433 kJ/mol
# Density = 1.938454 g / cm^3
# Si number density = 19.428762 Si / 1000 Ang^3
#
#
#
# Elastic Constant Matrix: (Units=GPa)
#
#
# Indices 1 2 3 4 5 6 
#
# 1 146.1929 72.6817 41.2368 0.0000 -18.9604 0.0000
# 2 72.6817 122.7941 27.4220 0.0000 -11.8321 0.0000
# 3 41.2368 27.4220 48.0260 0.0000 -0.7734 0.0000
# 4 0.0000 0.0000 0.0000 7.6459 0.0000 0.5674
# 5 -18.9604 -11.8321 -0.7734 0.0000 29.2678 0.0000
# 6 0.0000 0.0000 0.0000 0.5674 0.0000 19.0581
#
#
#
# Elastic Compliance Matrix: (Units=1/GPa)
#
#
# Indices 1 2 3 4 5 6 
#
# 1 0.012172 -0.004979 -0.007517 0.000000 0.005674 0.000000
# 2 -0.004979 0.011774 -0.002424 0.000000 0.001470 0.000000
# 3 -0.007517 -0.002424 0.028578 0.000000 -0.005094 0.000000
# 4 0.000000 0.000000 0.000000 0.131078 0.000000 -0.003903
# 5 0.005674 0.001470 -0.005094 0.000000 0.038302 0.000000
# 6 0.000000 0.000000 0.000000 -0.003903 0.000000 0.052587
#
#
# Mechanical properties :
#
#
# Convention : Reuss Voigt Hill
#
# Bulk Modulus (GPa) = 44.08303 66.63267 55.35785
# Shear Modulus (GPa) = 16.03118 22.90587 19.46852
#
# Velocity S-wave (km/s) = 2.87562 3.43733 3.16895
# Velocity P-wave (km/s) = 5.81071 7.07983 6.47644
#
# Compressibility (1/GPa) = 0.02268447
#
# Stress axis : x y z
#
# Youngs Moduli (GPa) = 82.15668 84.93446 34.99186
#
# Poissons Ratio (x) = 0.42290 0.26303
# Poissons Ratio (y) = 0.40907 0.08481
# Poissons Ratio (z) = 0.61755 0.20585
#
# Static dielectric constant tensor:
#      x y z
#    x 1.678290 0.000000 0.053410 
#    y 0.000000 1.775210 0.000000 
#    z 0.053410 0.000000 1.723800 
# 
# From -- ./inp_files/22151.got.cif
#   From: 2010.05.17/outbox.cif.g08.bks.cpg/sg11_12_cif.got.tgz:22151.got - 2010.06.03 12:22:45.
