data_PCOD9161632
_publ_section_title
;
Structure prediction by ZEFSAII (Michael W. Deem and Ramdas Pophale) SiO2 
 PCOD9161632
Probable space group: P 21/M
;
_chemical_formula_sum "Si O2"
_cell_formula_units_Z 32
_cell_length_a 13.533535
_cell_length_b 7.803557
_cell_length_c 30.811508
_cell_angle_alpha 90.000000
_cell_angle_beta 27.809051
_cell_angle_gamma 90.000000
_cell_volume 1518.074238
_symmetry_space_group_name_H-M "P 21/M"
_symmetry_group_IT_number 11
_symmetry_cell_setting 'monoclinic'
loop_
_space_group_symop_operation_xyz
x,y,z
-x,1/2+y,-z
-x,-y,-z
x,1/2-y,z
loop_
_atom_site_type_symbol
_atom_site_label
_atom_site_fract_x
_atom_site_fract_y
_atom_site_fract_z
Si Si1 0.109693 0.042753 0.893223
Si Si2 0.330689 0.546924 0.891223
Si Si3 0.560526 0.949695 0.608189
Si Si4 0.284718 0.542778 0.108433
Si Si5 0.775697 0.454258 0.609473
Si Si6 0.255269 0.548618 0.217565
Si Si7 0.003234 0.460655 0.604290
Si Si8 0.895474 0.951191 0.202883
O O1 0.114064 0.250000 0.890980
O O2 0.117037 0.977120 0.841182
O O3 0.295980 0.990046 0.853757
O O4 0.886761 0.986285 0.001091
O O5 0.345518 0.750000 0.891373
O O6 0.530756 0.467698 0.837546
O O7 0.544764 0.750000 0.604369
O O8 0.767523 0.018275 0.502318
O O9 0.607682 0.970401 0.641356
O O10 0.335110 0.031778 0.686294
O O11 0.272463 0.750000 0.115108
O O12 0.282066 0.476219 0.158947
O O13 0.083901 0.477111 0.158983
O O14 0.500000 0.500000 0.000000
O O15 0.742563 0.250000 0.622751
O O16 0.000000 0.500000 0.500000
O O17 0.819700 0.513663 0.641340
O O18 0.210483 0.750000 0.229867
O O19 0.067005 0.479143 0.321128
O O20 0.006200 0.250000 0.601855
O O21 0.941687 0.750000 0.179624
#
# Coordination Sequence:
#
# PCOD9161632 Si02
#       8
#     4   4   4   4   4   4   4   4
#     4   9  19  35  53  73 107 148 178 213 275 343
#     4  10  20  34  53  81 112 139 175 227 276 326
#     4  10  20  34  52  78 110 146 188 234 276 325
#     4  10  22  40  63  86 110 142 185 233 280 333
#     4   9  16  29  49  74 106 147 185 224 270 323
#     4  10  20  36  58  81 107 146 187 220 271 339
#     4   8  17  33  52  75 108 147 185 221 267 326
#     4  10  21  37  56  79 108 146 187 228 278 334
#
# _framework density 21.079339000000001
#
# number of rings (size 3 to 8) (size 9 to 14) (size 15 to 20)
#    0.000    2.500    0.000    2.625    1.750    3.000 
#    0.000    3.750    0.000    0.000    0.000    0.000 
#    0.000    0.000    0.000    0.000    0.000    0.000 
#
# Total GULP energy -178570.538369 kJ/mol
# GULP energy per Si atom -5580.329324 kJ/mol
# Density = 2.103136 g / cm^3
# Si number density = 21.079339 Si / 1000 Ang^3
#
#
#
# Elastic Constant Matrix: (Units=GPa)
#
#
# Indices 1 2 3 4 5 6 
#
# 1 156.7901 -1.2457 94.6278 0.0000 11.6446 0.0000
# 2 -1.2457 23.4936 -8.4404 0.0000 5.3899 0.0000
# 3 94.6278 -8.4404 127.8698 0.0000 4.4847 0.0000
# 4 0.0000 0.0000 0.0000 19.7258 0.0000 -1.6653
# 5 11.6446 5.3899 4.4847 0.0000 39.6441 0.0000
# 6 0.0000 0.0000 0.0000 -1.6653 0.0000 7.6356
#
#
#
# Elastic Compliance Matrix: (Units=1/GPa)
#
#
# Indices 1 2 3 4 5 6 
#
# 1 0.011855 -0.002038 -0.008830 0.000000 -0.002206 0.000000
# 2 -0.002038 0.045563 0.004730 0.000000 -0.006131 0.000000
# 3 -0.008830 0.004730 0.014657 0.000000 0.000292 0.000000
# 4 0.000000 0.000000 0.000000 0.051646 0.000000 0.011264
# 5 -0.002206 -0.006131 0.000292 0.000000 0.026673 0.000000
# 6 0.000000 0.000000 0.000000 0.011264 0.000000 0.133423
#
#
# Mechanical properties :
#
#
# Convention : Reuss Voigt Hill
#
# Bulk Modulus (GPa) = 16.72238 53.11521 34.91879
# Shear Modulus (GPa) = 15.82156 28.28187 22.05171
#
# Velocity S-wave (km/s) = 2.74263 3.66688 3.23790
# Velocity P-wave (km/s) = 4.24024 6.57118 5.52992
#
# Compressibility (1/GPa) = 0.05980011
#
# Stress axis : x y z
#
# Youngs Moduli (GPa) = 84.35358 21.94773 68.22681
#
# Poissons Ratio (x) = 0.04472 0.60245
# Poissons Ratio (y) = 0.17188 -0.32274
# Poissons Ratio (z) = 0.74485 -0.10382
#
# Static dielectric constant tensor:
#      x y z
#    x 1.765720 0.000000 0.026140 
#    y 0.000000 1.779720 0.000000 
#    z 0.026140 0.000000 1.778020 
# 
# From -- ./inp_files/73123.got.cif
#   From: 2010.05.17/outbox.cif.g08.bks.cpg/sg11_37_cif.got.tgz:73123.got - 2010.06.03 12:22:45.
