data_PCOD9161177
_publ_section_title
;
Structure prediction by ZEFSAII (Michael W. Deem and Ramdas Pophale) SiO2 
 PCOD9161177
Probable space group: P 21/M
;
_chemical_formula_sum "Si O2"
_cell_formula_units_Z 32
_cell_length_a 12.553677
_cell_length_b 7.703685
_cell_length_c 21.119099
_cell_angle_alpha 90.000000
_cell_angle_beta 127.775639
_cell_angle_gamma 90.000000
_cell_volume 1614.359750
_symmetry_space_group_name_H-M "P 21/M"
_symmetry_group_IT_number 11
_symmetry_cell_setting 'monoclinic'
loop_
_space_group_symop_operation_xyz
x,y,z
-x,1/2+y,-z
-x,-y,-z
x,1/2-y,z
loop_
_atom_site_type_symbol
_atom_site_label
_atom_site_fract_x
_atom_site_fract_y
_atom_site_fract_z
Si Si1 0.712066 0.045901 0.049764
Si Si2 0.428494 0.545190 0.124462
Si Si3 0.287027 0.543930 0.806638
Si Si4 0.985977 0.039885 0.839690
Si Si5 0.014625 0.958474 0.306832
Si Si6 0.292815 0.536885 0.202517
Si Si7 0.295696 0.959703 0.453202
Si Si8 0.550345 0.043588 0.616975
O O1 0.680886 0.250000 0.044472
O O2 0.700989 0.971050 0.116756
O O3 0.619339 0.970186 0.960630
O O4 0.867964 0.026032 0.086548
O O5 0.397348 0.750000 0.110697
O O6 0.588620 0.525492 0.188192
O O7 0.348753 0.474440 0.155769
O O8 0.301025 0.750000 0.814372
O O9 0.136183 0.506525 0.728367
O O10 0.989894 0.250000 0.841214
O O11 0.966072 0.982982 0.759242
O O12 0.859429 0.984726 0.835674
O O13 0.020647 0.750000 0.307735
O O14 0.141102 0.019822 0.394387
O O15 0.294816 0.750000 0.202473
O O16 0.388794 0.478471 0.295206
O O17 0.296055 0.750000 0.452040
O O18 0.367349 0.023751 0.414283
O O19 0.393535 0.011951 0.545801
O O20 0.572460 0.250000 0.625334
#
# Coordination Sequence:
#
# PCOD9161177 Si02
#       8
#     4   4   4   4   4   4   4   4
#     4   9  19  33  48  70  97 122 154 202 247 280
#     4  10  20  34  51  68  91 128 167 196 232 283
#     4  10  20  33  49  70  96 121 156 206 248 277
#     4   9  16  29  49  71  95 126 159 190 231 281
#     4   9  16  29  50  72  96 125 157 192 232 282
#     4   9  17  31  50  70  96 130 163 192 225 280
#     4   9  16  27  46  73 100 124 154 189 228 277
#     4   9  16  28  46  70 100 128 154 187 228 276
#
# _framework density 19.822099000000001
#
# number of rings (size 3 to 8) (size 9 to 14) (size 15 to 20)
#    0.000    2.750    1.250    0.750    0.000    2.000 
#    0.000    1.875    0.000    0.750    0.000    0.000 
#    0.000    0.000    0.000    0.000    0.000    0.000 
#
# Total GULP energy -178441.524661 kJ/mol
# GULP energy per Si atom -5576.297646 kJ/mol
# Density = 1.977698 g / cm^3
# Si number density = 19.822099 Si / 1000 Ang^3
#
#
#
# Elastic Constant Matrix: (Units=GPa)
#
#
# Indices 1 2 3 4 5 6 
#
# 1 78.7329 -11.3582 7.8104 0.0000 19.2206 0.0000
# 2 -11.3582 27.2796 -6.7296 0.0000 -6.8620 0.0000
# 3 7.8104 -6.7296 43.3947 0.0000 22.1298 0.0000
# 4 0.0000 0.0000 0.0000 14.2863 0.0000 8.1056
# 5 19.2206 -6.8620 22.1298 0.0000 19.9270 0.0000
# 6 0.0000 0.0000 0.0000 8.1056 0.0000 14.3482
#
#
#
# Elastic Compliance Matrix: (Units=1/GPa)
#
#
# Indices 1 2 3 4 5 6 
#
# 1 0.020087 0.003310 0.014291 0.000000 -0.034106 0.000000
# 2 0.003310 0.040747 0.000451 0.000000 0.010338 0.000000
# 3 0.014291 0.000451 0.063396 0.000000 -0.084033 0.000000
# 4 0.000000 0.000000 0.000000 0.103016 0.000000 -0.058196
# 5 -0.034106 0.010338 -0.084033 0.000000 0.179962 0.000000
# 6 0.000000 0.000000 0.000000 -0.058196 0.000000 0.102571
#
#
# Mechanical properties :
#
#
# Convention : Reuss Voigt Hill
#
# Bulk Modulus (GPa) = 6.23700 14.31693 10.27696
# Shear Modulus (GPa) = 9.48550 20.35794 14.92172
#
# Velocity S-wave (km/s) = 2.18991 3.20821 2.74666
# Velocity P-wave (km/s) = 3.08992 4.57842 3.90573
#
# Compressibility (1/GPa) = 0.16033361
#
# Stress axis : x y z
#
# Youngs Moduli (GPa) = 49.78342 24.54152 15.77385
#
# Poissons Ratio (x) = -0.08123 -0.22542
# Poissons Ratio (y) = -0.16477 -0.00712
# Poissons Ratio (z) = -0.71143 -0.01107
#
# Static dielectric constant tensor:
#      x y z
#    x 1.691200 0.000000 0.010130 
#    y 0.000000 1.731620 0.000000 
#    z 0.010130 0.000000 1.713800 
# 
# From -- ./inp_files/42796.got.cif
#   From: 2010.05.17/outbox.cif.g08.bks.cpg/sg11_22_cif.got.tgz:42796.got - 2010.06.03 12:22:45.
