data_PCOD9161859
_publ_section_title
;
Structure prediction by ZEFSAII (Michael W. Deem and Ramdas Pophale) SiO2 
 PCOD9161859
Probable space group: P 21/M
;
_chemical_formula_sum "Si O2"
_cell_formula_units_Z 32
_cell_length_a 13.349880
_cell_length_b 23.075044
_cell_length_c 7.333543
_cell_angle_alpha 90.000000
_cell_angle_beta 39.330171
_cell_angle_gamma 90.000000
_cell_volume 1431.785447
_symmetry_space_group_name_H-M "P 21/M"
_symmetry_group_IT_number 11
_symmetry_cell_setting 'monoclinic'
loop_
_space_group_symop_operation_xyz
x,y,z
-x,1/2+y,-z
-x,-y,-z
x,1/2-y,z
loop_
_atom_site_type_symbol
_atom_site_label
_atom_site_fract_x
_atom_site_fract_y
_atom_site_fract_z
Si Si1 0.876527 0.053645 0.524158
Si Si2 0.878172 0.316499 0.876522
Si Si3 0.846538 0.609482 0.684418
Si Si4 0.541440 0.183489 0.150206
Si Si5 0.462194 0.946128 0.913979
Si Si6 0.214071 0.049421 0.599917
Si Si7 0.975119 0.364198 0.111819
Si Si8 0.723356 0.813650 0.162046
O O1 0.723552 0.045976 0.868145
O O2 0.870287 0.115391 0.427230
O O3 0.045116 0.057773 0.385930
O O4 0.854945 0.008713 0.389150
O O5 0.915394 0.250000 0.859450
O O6 0.021350 0.343804 0.560671
O O7 0.711055 0.319480 0.011405
O O8 0.877804 0.348710 0.070842
O O9 0.769574 0.587965 0.607385
O O10 0.731454 0.637412 0.994730
O O11 0.526827 0.250000 0.092386
O O12 0.405068 0.178580 0.497709
O O13 0.531494 0.123429 0.049971
O O14 0.609426 0.955445 0.569150
O O15 0.500000 0.000000 0.000000
O O16 0.092989 0.082670 0.896594
O O17 0.101954 0.316403 0.993658
O O18 0.696853 0.750000 0.117480
#
# Coordination Sequence:
#
# PCOD9161859 Si02
#       8
#     4   4   4   4   4   4   4   4
#     4  10  20  35  56  78 111 144 186 229 276 330
#     4  10  20  35  55  79 110 143 183 230 281 335
#     4  10  20  34  55  81 108 141 185 228 280 334
#     4  10  20  37  58  81 111 151 190 230 286 342
#     4  10  20  37  58  80 116 149 190 230 284 335
#     4  10  20  35  56  78 111 144 186 229 276 330
#     4  10  20  34  55  81 108 141 185 228 280 334
#     4  10  20  35  55  79 110 143 183 230 281 335
#
# _framework density 22.349716999999998
#
# number of rings (size 3 to 8) (size 9 to 14) (size 15 to 20)
#    0.000    2.000    2.500    1.500    0.000    1.000 
#    0.000    1.250    0.000    3.000    0.000    0.000 
#    0.000    0.000    0.000    0.000    0.000    0.000 
#
# Total GULP energy -178211.321557 kJ/mol
# GULP energy per Si atom -5569.103799 kJ/mol
# Density = 2.229885 g / cm^3
# Si number density = 22.349717 Si / 1000 Ang^3
#
#
#
# Elastic Constant Matrix: (Units=GPa)
#
#
# Indices 1 2 3 4 5 6 
#
# 1 39.6985 10.3945 24.8760 0.0000 -5.9091 0.0000
# 2 10.3945 16.7991 63.4321 0.0000 -36.8649 0.0000
# 3 24.8760 63.4321 72.6858 0.0000 -7.8817 0.0000
# 4 0.0000 0.0000 0.0000 24.4471 0.0000 -5.9186
# 5 -5.9091 -36.8649 -7.8817 0.0000 18.8568 0.0000
# 6 0.0000 0.0000 0.0000 -5.9186 0.0000 21.4526
#
#
#
# Elastic Compliance Matrix: (Units=1/GPa)
#
#
# Indices 1 2 3 4 5 6 
#
# 1 0.029630 -0.005579 -0.005707 0.000000 -0.004007 0.000000
# 2 -0.005579 -0.010248 0.008894 0.000000 -0.018066 0.000000
# 3 -0.005707 0.008894 0.010098 0.000000 0.019820 0.000000
# 4 0.000000 0.000000 0.000000 0.043832 0.000000 0.012093
# 5 -0.004007 -0.018066 0.019820 0.000000 0.024741 0.000000
# 6 0.000000 0.000000 0.000000 0.012093 0.000000 0.049951
#
#
# Mechanical properties :
#
#
# Convention : Reuss Voigt Hill
#
# Bulk Modulus (GPa) = 40.49016 36.28764 38.38890
# Shear Modulus (GPa) = 31.05201 14.98335 23.01768
#
# Velocity S-wave (km/s) = 3.73147 2.59203 3.21267
# Velocity P-wave (km/s) = 6.05979 5.02291 5.56555
#
# Compressibility (1/GPa) = 0.02469736
#
# Stress axis : x y z
#
# Youngs Moduli (GPa) = 33.74948 -97.57827 99.02461
#
# Poissons Ratio (x) = -0.54437 0.56508
# Poissons Ratio (y) = 0.18828 -0.88070
# Poissons Ratio (z) = 0.19259 0.86784
#
# Static dielectric constant tensor:
#      x y z
#    x 1.831570 0.000000 -0.024110 
#    y 0.000000 1.901860 0.000000 
#    z -0.024110 0.000000 1.827310 
# 
# From -- ./inp_files/25351.got.cif
#   From: 2010.05.17/outbox.cif.g08.bks.cpg/sg11_13_cif.got.tgz:25351.got - 2010.06.03 12:22:45.
