data_PCOD9161910
_publ_section_title
;
Structure prediction by ZEFSAII (Michael W. Deem and Ramdas Pophale) SiO2 
 PCOD9161910
Probable space group: P 21/M
;
_chemical_formula_sum "Si O2"
_cell_formula_units_Z 32
_cell_length_a 11.147873
_cell_length_b 9.750745
_cell_length_c 28.879988
_cell_angle_alpha 90.000000
_cell_angle_beta 146.817239
_cell_angle_gamma 90.000000
_cell_volume 1718.151051
_symmetry_space_group_name_H-M "P 21/M"
_symmetry_group_IT_number 11
_symmetry_cell_setting 'monoclinic'
loop_
_space_group_symop_operation_xyz
x,y,z
-x,1/2+y,-z
-x,-y,-z
x,1/2-y,z
loop_
_atom_site_type_symbol
_atom_site_label
_atom_site_fract_x
_atom_site_fract_y
_atom_site_fract_z
Si Si1 0.053199 0.094810 0.128808
Si Si2 0.234593 0.092413 0.829859
Si Si3 0.363120 0.094945 0.031374
Si Si4 0.244235 0.034328 0.094846
Si Si5 0.700345 0.908853 0.424285
Si Si6 0.212805 0.908415 0.260755
Si Si7 0.677951 0.598845 0.249382
Si Si8 0.153828 0.911774 0.615342
O O1 0.990886 0.250000 0.121564
O O2 0.200942 0.102457 0.130225
O O3 0.187697 0.015585 0.211292
O O4 0.839379 0.000190 0.050101
O O5 0.304035 0.250000 0.862589
O O6 0.231707 0.080394 0.773298
O O7 0.994654 0.071313 0.773115
O O8 0.411908 0.984999 0.906400
O O9 0.351568 0.250000 0.008948
O O10 0.345648 0.103877 0.081981
O O11 0.414312 0.912428 0.159545
O O12 0.000000 0.000000 0.000000
O O13 0.724509 0.750000 0.416082
O O14 0.451290 0.925308 0.360587
O O15 0.891858 0.930425 0.523485
O O16 0.741523 0.010389 0.394797
O O17 0.201731 0.750000 0.239911
O O18 0.738695 0.750000 0.286209
O O19 0.760675 0.483336 0.310780
O O20 0.202932 0.750000 0.630663
#
# Coordination Sequence:
#
# PCOD9161910 Si02
#       8
#     4   4   4   4   4   4   4   4
#     4  11  22  34  51  78 109 138 172 216 265 315
#     4   9  20  38  56  74 100 137 180 223 262 302
#     4  10  20  35  55  77 104 140 178 215 259 311
#     4   9  20  34  52  78 108 138 172 214 257 304
#     4   9  19  36  57  80 108 141 173 210 260 315
#     4  10  21  38  57  75 100 137 180 221 261 308
#     4  10  20  35  56  79 105 140 178 214 259 315
#     4  10  20  34  55  84 113 138 169 212 261 313
#
# _framework density 18.624672
#
# number of rings (size 3 to 8) (size 9 to 14) (size 15 to 20)
#    0.000    2.250    0.000    2.250    0.000   12.000 
#    0.000    0.625    0.000    0.000    0.000    0.000 
#    0.000    0.000    0.000    0.000    0.000    0.000 
#
# Total GULP energy -178393.772407 kJ/mol
# GULP energy per Si atom -5574.805388 kJ/mol
# Density = 1.858228 g / cm^3
# Si number density = 18.624672 Si / 1000 Ang^3
#
#
#
# Elastic Constant Matrix: (Units=GPa)
#
#
# Indices 1 2 3 4 5 6 
#
# 1 48.0044 27.5334 36.2753 0.0000 15.0865 0.0000
# 2 27.5334 113.4470 51.1670 0.0000 8.4164 0.0000
# 3 36.2753 51.1670 87.5794 0.0000 16.0569 0.0000
# 4 0.0000 0.0000 0.0000 23.6890 0.0000 3.4072
# 5 15.0865 8.4164 16.0569 0.0000 27.0990 0.0000
# 6 0.0000 0.0000 0.0000 3.4072 0.0000 12.9161
#
#
#
# Elastic Compliance Matrix: (Units=1/GPa)
#
#
# Indices 1 2 3 4 5 6 
#
# 1 0.033899 -0.002710 -0.010267 0.000000 -0.011947 0.000000
# 2 -0.002710 0.012191 -0.006262 0.000000 0.001433 0.000000
# 3 -0.010267 -0.006262 0.020110 0.000000 -0.004255 0.000000
# 4 0.000000 0.000000 0.000000 0.043878 0.000000 -0.011575
# 5 -0.011947 0.001433 -0.004255 0.000000 0.045629 0.000000
# 6 0.000000 0.000000 0.000000 -0.011575 0.000000 0.080476
#
#
# Mechanical properties :
#
#
# Convention : Reuss Voigt Hill
#
# Bulk Modulus (GPa) = 36.07548 53.22025 44.64787
# Shear Modulus (GPa) = 17.61172 21.67783 19.64478
#
# Velocity S-wave (km/s) = 3.07842 3.41534 3.25125
# Velocity P-wave (km/s) = 5.66103 6.64755 6.17403
#
# Compressibility (1/GPa) = 0.02771966
#
# Stress axis : x y z
#
# Youngs Moduli (GPa) = 29.49935 82.03046 49.72742
#
# Poissons Ratio (x) = 0.22232 0.51056
# Poissons Ratio (y) = 0.07995 0.31141
# Poissons Ratio (z) = 0.30288 0.51371
#
# Static dielectric constant tensor:
#      x y z
#    x 1.640970 0.000000 0.005780 
#    y 0.000000 1.651610 0.000000 
#    z 0.005780 0.000000 1.684320 
# 
# From -- ./inp_files/73033.got.cif
#   From: 2010.05.17/outbox.cif.g08.bks.cpg/sg11_37_cif.got.tgz:73033.got - 2010.06.03 12:22:45.
