data_PCOD9161563
_publ_section_title
;
Structure prediction by ZEFSAII (Michael W. Deem and Ramdas Pophale) SiO2 
 PCOD9161563
Probable space group: P 21/M
;
_chemical_formula_sum "Si O2"
_cell_formula_units_Z 32
_cell_length_a 22.190542
_cell_length_b 7.587526
_cell_length_c 23.038414
_cell_angle_alpha 90.000000
_cell_angle_beta 160.788242
_cell_angle_gamma 90.000000
_cell_volume 1276.428098
_symmetry_space_group_name_H-M "P 21/M"
_symmetry_group_IT_number 11
_symmetry_cell_setting 'monoclinic'
loop_
_space_group_symop_operation_xyz
x,y,z
-x,1/2+y,-z
-x,-y,-z
x,1/2-y,z
loop_
_atom_site_type_symbol
_atom_site_label
_atom_site_fract_x
_atom_site_fract_y
_atom_site_fract_z
Si Si1 0.792712 0.451595 0.795705
Si Si2 0.655823 0.535204 0.360784
Si Si3 0.746516 0.447001 0.975933
Si Si4 0.145781 0.461183 0.681423
Si Si5 0.568420 0.040935 0.482081
Si Si6 0.128256 0.461546 0.334115
Si Si7 0.422108 0.465127 0.840020
Si Si8 0.825810 0.952308 0.174910
O O1 0.807753 0.250000 0.792977
O O2 0.639227 0.469789 0.706357
O O3 0.687100 0.536354 0.644358
O O4 0.000000 0.500000 0.000000
O O5 0.648086 0.750000 0.354820
O O6 0.819646 0.480217 0.552785
O O7 0.663958 0.481457 0.300936
O O8 0.457636 0.474012 0.207265
O O9 0.729840 0.250000 0.935825
O O10 0.800441 0.439610 0.093451
O O11 0.940602 0.531423 0.132968
O O12 0.157117 0.250000 0.699511
O O13 0.323153 0.528256 0.808088
O O14 0.075010 0.532805 0.678954
O O15 0.000000 0.500000 0.500000
O O16 0.546885 0.250000 0.468400
O O17 0.692634 0.004309 0.539878
O O18 0.109662 0.250000 0.317406
O O19 0.427861 0.250000 0.845863
O O20 0.623466 0.542358 0.019363
O O21 0.869224 0.750000 0.199819
#
# Coordination Sequence:
#
# PCOD9161563 Si02
#       8
#     4   4   4   4   4   4   4   4
#     4  10  21  39  64  91 122 160 199 239 282 332
#     4   8  16  32  52  76 102 132 184 236 270 325
#     4   9  19  35  55  76 102 144 189 227 276 333
#     4  10  22  34  49  75 103 131 167 215 271 333
#     4  10  22  39  58  88 126 160 195 235 286 341
#     4  10  20  34  56  82 110 149 193 238 278 319
#     4   9  18  35  55  72  95 133 176 218 268 329
#     4  10  20  34  51  75 103 130 168 221 278 333
#
# _framework density 25.069959000000001
#
# number of rings (size 3 to 8) (size 9 to 14) (size 15 to 20)
#    0.000    2.500    0.000    2.250    1.750    4.500 
#    0.000    3.750    0.000    0.000    0.000    0.000 
#    0.000    0.000    0.000    0.000    0.000    0.000 
#
# Total GULP energy -178468.547696 kJ/mol
# GULP energy per Si atom -5577.142116 kJ/mol
# Density = 2.501290 g / cm^3
# Si number density = 25.069959 Si / 1000 Ang^3
#
#
#
# Elastic Constant Matrix: (Units=GPa)
#
#
# Indices 1 2 3 4 5 6 
#
# 1 52.7728 1.6730 -8.1332 0.0000 13.6754 0.0000
# 2 1.6730 71.4551 9.4100 0.0000 -4.1083 0.0000
# 3 -8.1332 9.4100 121.9540 0.0000 28.4629 0.0000
# 4 0.0000 0.0000 0.0000 20.0325 0.0000 4.5922
# 5 13.6754 -4.1083 28.4629 0.0000 28.3104 0.0000
# 6 0.0000 0.0000 0.0000 4.5922 0.0000 18.5577
#
#
#
# Elastic Compliance Matrix: (Units=1/GPa)
#
#
# Indices 1 2 3 4 5 6 
#
# 1 0.024777 -0.002457 0.006165 0.000000 -0.018524 0.000000
# 2 -0.002457 0.014759 -0.002717 0.000000 0.006060 0.000000
# 3 0.006165 -0.002717 0.012553 0.000000 -0.015993 0.000000
# 4 0.000000 0.000000 0.000000 0.052921 0.000000 -0.013095
# 5 -0.018524 0.006060 -0.015993 0.000000 0.061230 0.000000
# 6 0.000000 0.000000 0.000000 -0.013095 0.000000 0.057127
#
#
# Mechanical properties :
#
#
# Convention : Reuss Voigt Hill
#
# Bulk Modulus (GPa) = 18.49393 28.00904 23.25149
# Shear Modulus (GPa) = 20.88487 29.59561 25.24024
#
# Velocity S-wave (km/s) = 2.88942 3.43960 3.17644
# Velocity P-wave (km/s) = 4.30402 5.19337 4.76947
#
# Compressibility (1/GPa) = 0.05407178
#
# Stress axis : x y z
#
# Youngs Moduli (GPa) = 40.35923 67.75723 79.66018
#
# Poissons Ratio (x) = 0.16648 -0.49113
# Poissons Ratio (y) = 0.09916 0.21644
# Poissons Ratio (z) = -0.24883 0.18410
#
# Static dielectric constant tensor:
#      x y z
#    x 2.159810 0.000000 -0.009110 
#    y 0.000000 1.894010 0.000000 
#    z -0.009110 0.000000 2.206700 
# 
# From -- ./inp_files/70041.got.cif
#   From: 2010.05.17/outbox.cif.g08.bks.cpg/sg11_36_cif.got.tgz:70041.got - 2010.06.03 12:22:45.
