data_PCOD9161900
_publ_section_title
;
Structure prediction by ZEFSAII (Michael W. Deem and Ramdas Pophale) SiO2 
 PCOD9161900
Probable space group: P 21/M
;
_chemical_formula_sum "Si O2"
_cell_formula_units_Z 32
_cell_length_a 24.552596
_cell_length_b 8.195485
_cell_length_c 15.933545
_cell_angle_alpha 90.000000
_cell_angle_beta 27.899600
_cell_angle_gamma 90.000000
_cell_volume 1500.235644
_symmetry_space_group_name_H-M "P 21/M"
_symmetry_group_IT_number 11
_symmetry_cell_setting 'monoclinic'
loop_
_space_group_symop_operation_xyz
x,y,z
-x,1/2+y,-z
-x,-y,-z
x,1/2-y,z
loop_
_atom_site_type_symbol
_atom_site_label
_atom_site_fract_x
_atom_site_fract_y
_atom_site_fract_z
Si Si1 0.630453 0.559611 0.334687
Si Si2 0.662714 0.052384 0.848105
Si Si3 0.286977 0.947076 0.406852
Si Si4 0.501047 0.058450 0.781720
Si Si5 0.934482 0.555092 0.208037
Si Si6 0.169778 0.445297 0.826156
Si Si7 0.697811 0.057157 0.066116
Si Si8 0.868385 0.445199 0.688263
O O1 0.500000 0.500000 0.500000
O O2 0.621909 0.750000 0.363051
O O3 0.709942 0.486267 0.300665
O O4 0.695260 0.529274 0.158586
O O5 0.645874 0.250000 0.876693
O O6 0.661908 0.001402 0.752645
O O7 0.788409 0.012945 0.717298
O O8 0.570568 0.966616 0.034145
O O9 0.288297 0.750000 0.406187
O O10 0.370681 0.004498 0.368779
O O11 0.155890 0.006668 0.597270
O O12 0.505953 0.250000 0.754079
O O13 0.425531 0.970130 0.813609
O O14 0.944832 0.750000 0.189968
O O15 0.873911 0.491046 0.204243
O O16 0.063418 0.482567 0.034290
O O17 0.179973 0.250000 0.804179
O O18 0.712726 0.250000 0.059171
O O19 0.797637 0.994760 0.866638
O O20 0.867522 0.250000 0.695628
O O21 0.000000 0.500000 0.500000
#
# Coordination Sequence:
#
# PCOD9161900 Si02
#       8
#     4   4   4   4   4   4   4   4
#     4  11  24  41  63  91 120 155 199 246 299 353
#     4   9  19  36  53  75 110 150 186 227 284 340
#     4  10  21  35  54  82 114 147 188 235 286 342
#     4  10  20  34  55  83 113 148 190 235 285 341
#     4  10  21  37  60  87 112 149 195 236 288 347
#     4   9  21  42  61  81 115 152 188 237 294 345
#     4  10  22  40  58  82 117 155 194 239 293 350
#     4   9  19  35  56  79 107 147 188 230 283 340
#
# _framework density 21.329982999999999
#
# number of rings (size 3 to 8) (size 9 to 14) (size 15 to 20)
#    0.000    2.250    0.000    2.625    1.750    6.500 
#    0.000    3.750    0.000    0.000    0.000    0.000 
#    0.000    0.000    0.000    0.000    0.000    0.000 
#
# Total GULP energy -178697.841572 kJ/mol
# GULP energy per Si atom -5584.307549 kJ/mol
# Density = 2.128143 g / cm^3
# Si number density = 21.329983 Si / 1000 Ang^3
#
#
#
# Elastic Constant Matrix: (Units=GPa)
#
#
# Indices 1 2 3 4 5 6 
#
# 1 68.8200 0.7393 14.0844 0.0000 -17.9547 0.0000
# 2 0.7393 11.1927 -6.8139 0.0000 -5.9611 0.0000
# 3 14.0844 -6.8139 43.3709 0.0000 -19.6621 0.0000
# 4 0.0000 0.0000 0.0000 29.8262 0.0000 0.1980
# 5 -17.9547 -5.9611 -19.6621 0.0000 32.6197 0.0000
# 6 0.0000 0.0000 0.0000 0.1980 0.0000 21.3837
#
#
#
# Elastic Compliance Matrix: (Units=1/GPa)
#
#
# Indices 1 2 3 4 5 6 
#
# 1 0.017159 0.003770 -0.000531 0.000000 0.009814 0.000000
# 2 0.003770 0.150819 0.049407 0.000000 0.059418 0.000000
# 3 -0.000531 0.049407 0.048095 0.000000 0.037727 0.000000
# 4 0.000000 0.000000 0.000000 0.033530 0.000000 -0.000310
# 5 0.009814 0.059418 0.037727 0.000000 0.069657 0.000000
# 6 0.000000 0.000000 0.000000 -0.000310 0.000000 0.046767
#
#
# Mechanical properties :
#
#
# Convention : Reuss Voigt Hill
#
# Bulk Modulus (GPa) = 3.11172 15.48924 9.30048
# Shear Modulus (GPa) = 13.59229 24.45752 19.02490
#
# Velocity S-wave (km/s) = 2.52710 3.38986 2.98976
# Velocity P-wave (km/s) = 3.15864 4.75384 4.03584
#
# Compressibility (1/GPa) = 0.32136531
#
# Stress axis : x y z
#
# Youngs Moduli (GPa) = 58.27787 6.63048 20.79222
#
# Poissons Ratio (x) = -0.02500 0.01104
# Poissons Ratio (y) = -0.21971 -1.02729
# Poissons Ratio (z) = 0.03095 -0.32759
#
# Static dielectric constant tensor:
#      x y z
#    x 1.816840 0.000000 -0.012260 
#    y 0.000000 1.738570 0.000000 
#    z -0.012260 0.000000 1.789890 
# 
# From -- ./inp_files/55626.got.cif
#   From: 2010.05.17/outbox.cif.g08.bks.cpg/sg11_28_cif.got.tgz:55626.got - 2010.06.03 12:22:45.
