data_PCOD9161043
_publ_section_title
;
Structure prediction by ZEFSAII (Michael W. Deem and Ramdas Pophale) SiO2 
 PCOD9161043
Probable space group: P 21/M
;
_chemical_formula_sum "Si O2"
_cell_formula_units_Z 28
_cell_length_a 9.785492
_cell_length_b 8.589380
_cell_length_c 26.661404
_cell_angle_alpha 90.000000
_cell_angle_beta 40.285475
_cell_angle_gamma 90.000000
_cell_volume 1448.974663
_symmetry_space_group_name_H-M "P 21/M"
_symmetry_group_IT_number 11
_symmetry_cell_setting 'monoclinic'
loop_
_space_group_symop_operation_xyz
x,y,z
-x,1/2+y,-z
-x,-y,-z
x,1/2-y,z
loop_
_atom_site_type_symbol
_atom_site_label
_atom_site_fract_x
_atom_site_fract_y
_atom_site_fract_z
Si Si1 0.066060 0.938078 0.927164
Si Si2 0.717133 0.935812 0.417536
Si Si3 0.583429 0.062038 0.246509
Si Si4 0.716365 0.437272 0.816370
Si Si5 0.151710 0.434310 0.326950
Si Si6 0.833249 0.936504 0.271791
Si Si7 0.628798 0.563345 0.010361
O O1 0.072358 0.750000 0.928421
O O2 0.280677 0.992234 0.840122
O O3 0.871008 0.985809 0.945875
O O4 0.000000 0.000000 0.000000
O O5 0.712571 0.750000 0.418586
O O6 0.751755 0.986869 0.349858
O O7 0.500000 0.000000 0.500000
O O8 0.921393 0.988850 0.392203
O O9 0.581493 0.250000 0.245372
O O10 0.339606 0.009400 0.310932
O O11 0.705100 0.011035 0.262340
O O12 0.719299 0.250000 0.805903
O O13 0.758628 0.527029 0.753444
O O14 0.499357 0.482301 0.903725
O O15 0.915486 0.470681 0.797229
O O16 0.125278 0.250000 0.340467
O O17 0.810317 0.750000 0.274757
O O18 0.623891 0.750000 0.009650
O O19 0.500000 0.500000 0.000000
#
# Coordination Sequence:
#
# PCOD9161043 Si02
#       7
#     4   4   4   4   4   4   4
#     4  10  21  35  50  73 104 141 184 229 273 319
#     4  10  21  39  62  88 113 137 170 211 255 313
#     4  10  21  35  51  76 110 142 180 224 265 315
#     4   9  18  33  50  72 101 135 179 227 269 318
#     4  10  20  34  54  79 105 138 176 214 257 310
#     4   9  19  34  54  79 106 137 175 216 261 314
#     4  10  20  32  48  71 100 134 177 227 277 323
#
# _framework density 19.324010000000001
#
# number of rings (size 3 to 8) (size 9 to 14) (size 15 to 20)
#    0.000    2.286    0.000    3.429    0.000    5.714 
#    0.000    0.714    0.000    0.000    0.000    0.000 
#    0.000    0.000    0.000    0.000    0.000    0.000 
#
# Total GULP energy -156243.373551 kJ/mol
# GULP energy per Si atom -5580.120484 kJ/mol
# Density = 1.928003 g / cm^3
# Si number density = 19.324010 Si / 1000 Ang^3
#
#
#
# Elastic Constant Matrix: (Units=GPa)
#
#
# Indices 1 2 3 4 5 6 
#
# 1 95.6583 11.0475 23.9471 0.0000 -20.9218 0.0000
# 2 11.0475 9.6499 18.2877 0.0000 -7.3944 0.0000
# 3 23.9471 18.2877 93.5385 0.0000 -27.9842 0.0000
# 4 0.0000 0.0000 0.0000 25.7846 0.0000 3.6402
# 5 -20.9218 -7.3944 -27.9842 0.0000 28.8806 0.0000
# 6 0.0000 0.0000 0.0000 3.6402 0.0000 30.3716
#
#
#
# Elastic Compliance Matrix: (Units=1/GPa)
#
#
# Indices 1 2 3 4 5 6 
#
# 1 0.013170 -0.011341 0.001170 0.000000 0.007771 0.000000
# 2 -0.011341 0.179427 -0.029418 0.000000 0.009219 0.000000
# 3 0.001170 -0.029418 0.019917 0.000000 0.012614 0.000000
# 4 0.000000 0.000000 0.000000 0.039450 0.000000 -0.004728
# 5 0.007771 0.009219 0.012614 0.000000 0.054838 0.000000
# 6 0.000000 0.000000 0.000000 -0.004728 0.000000 0.033492
#
#
# Mechanical properties :
#
#
# Convention : Reuss Voigt Hill
#
# Bulk Modulus (GPa) = 7.49984 33.93457 20.71721
# Shear Modulus (GPa) = 10.77777 26.71164 18.74471
#
# Velocity S-wave (km/s) = 2.36421 3.72197 3.11790
# Velocity P-wave (km/s) = 3.36782 6.00580 4.86887
#
# Compressibility (1/GPa) = 0.13333618
#
# Stress axis : x y z
#
# Youngs Moduli (GPa) = 75.92826 5.57329 50.20958
#
# Poissons Ratio (x) = 0.06321 -0.05877
# Poissons Ratio (y) = 0.86110 1.47708
# Poissons Ratio (z) = -0.08887 0.16396
#
# Static dielectric constant tensor:
#      x y z
#    x 1.688280 0.000000 -0.017320 
#    y 0.000000 1.653790 0.000000 
#    z -0.017320 0.000000 1.673900 
# 
# From -- ./inp_files/28977.got.cif
#   From: 2010.05.17/outbox.cif.g08.bks.cpg/sg11_15_cif.got.tgz:28977.got - 2010.06.03 12:22:45.
