data_PCOD9161691
_publ_section_title
;
Structure prediction by ZEFSAII (Michael W. Deem and Ramdas Pophale) SiO2 
 PCOD9161691
Probable space group: P 21/M
;
_chemical_formula_sum "Si O2"
_cell_formula_units_Z 28
_cell_length_a 16.215725
_cell_length_b 8.899456
_cell_length_c 20.454322
_cell_angle_alpha 90.000000
_cell_angle_beta 31.411337
_cell_angle_gamma 90.000000
_cell_volume 1538.407615
_symmetry_space_group_name_H-M "P 21/M"
_symmetry_group_IT_number 11
_symmetry_cell_setting 'monoclinic'
loop_
_space_group_symop_operation_xyz
x,y,z
-x,1/2+y,-z
-x,-y,-z
x,1/2-y,z
loop_
_atom_site_type_symbol
_atom_site_label
_atom_site_fract_x
_atom_site_fract_y
_atom_site_fract_z
Si Si1 0.328167 0.926443 0.626290
Si Si2 0.173680 0.922420 0.076492
Si Si3 0.944082 0.923852 0.442026
Si Si4 0.535153 0.573936 0.046835
Si Si5 0.157363 0.078666 0.628483
Si Si6 0.041748 0.067789 0.900833
Si Si7 0.234559 0.422577 0.300028
O O1 0.340618 0.750000 0.632346
O O2 0.500000 0.000000 0.500000
O O3 0.244196 0.958802 0.613954
O O4 0.208932 0.004929 0.759318
O O5 0.227416 0.750000 0.031186
O O6 0.025518 0.922056 0.226228
O O7 0.094383 0.972620 0.061090
O O8 0.313697 0.012945 0.015764
O O9 0.998962 0.750000 0.400086
O O10 0.837773 0.953622 0.451122
O O11 0.843366 0.937565 0.575979
O O12 0.095789 0.029910 0.344246
O O13 0.551935 0.750000 0.025851
O O14 0.381242 0.531492 0.192876
O O15 0.500000 0.500000 0.000000
O O16 0.216115 0.250000 0.602003
O O17 0.049310 0.250000 0.897933
O O18 0.000000 0.000000 0.000000
O O19 0.282527 0.250000 0.257174
#
# Coordination Sequence:
#
# PCOD9161691 Si02
#       7
#     4   4   4   4   4   4   4
#     4  11  22  38  60  87 118 152 193 244 293 346
#     4   9  19  36  58  84 115 148 186 231 279 338
#     4   9  18  34  56  80 108 145 183 224 275 331
#     4  12  24  37  55  79 110 148 190 238 284 332
#     4   9  18  35  58  82 109 143 182 227 280 338
#     4  10  21  40  65  91 120 157 196 241 297 359
#     4  10  20  34  53  78 110 146 184 228 274 329
#
# _framework density 18.200638000000001
#
# number of rings (size 3 to 8) (size 9 to 14) (size 15 to 20)
#    0.000    2.000    0.000    5.143    0.000    5.143 
#    2.571    0.000    0.000    0.000    0.000    0.000 
#    0.000    0.000    0.000    0.000    0.000    0.000 
#
# Total GULP energy -156186.414221 kJ/mol
# GULP energy per Si atom -5578.086222 kJ/mol
# Density = 1.815921 g / cm^3
# Si number density = 18.200638 Si / 1000 Ang^3
#
#
#
# Elastic Constant Matrix: (Units=GPa)
#
#
# Indices 1 2 3 4 5 6 
#
# 1 101.9600 58.9731 52.9167 0.0000 6.1882 0.0000
# 2 58.9731 104.2161 51.5829 0.0000 -8.8178 0.0000
# 3 52.9167 51.5829 71.1905 0.0000 -14.4834 0.0000
# 4 0.0000 0.0000 0.0000 30.8259 0.0000 -2.7646
# 5 6.1882 -8.8178 -14.4834 0.0000 24.5484 0.0000
# 6 0.0000 0.0000 0.0000 -2.7646 0.0000 32.4040
#
#
#
# Elastic Compliance Matrix: (Units=1/GPa)
#
#
# Indices 1 2 3 4 5 6 
#
# 1 0.022869 -0.006621 -0.015748 0.000000 -0.017434 0.000000
# 2 -0.006621 0.016907 -0.006539 0.000000 0.003885 0.000000
# 3 -0.015748 -0.006539 0.035024 0.000000 0.022285 0.000000
# 4 0.000000 0.000000 0.000000 0.032690 0.000000 0.002789
# 5 -0.017434 0.003885 0.022285 0.000000 0.059674 0.000000
# 6 0.000000 0.000000 0.000000 0.002789 0.000000 0.031098
#
#
# Mechanical properties :
#
#
# Convention : Reuss Voigt Hill
#
# Bulk Modulus (GPa) = 58.87805 67.14579 63.01192
# Shear Modulus (GPa) = 19.10297 25.14859 22.12578
#
# Velocity S-wave (km/s) = 3.24323 3.72121 3.49041
# Velocity P-wave (km/s) = 6.81501 7.44549 7.13722
#
# Compressibility (1/GPa) = 0.01698426
#
# Stress axis : x y z
#
# Youngs Moduli (GPa) = 43.72793 59.14588 28.55206
#
# Poissons Ratio (x) = 0.39163 0.44963
# Poissons Ratio (y) = 0.28954 0.18669
# Poissons Ratio (z) = 0.68862 0.38673
#
# Static dielectric constant tensor:
#      x y z
#    x 1.645540 0.000000 -0.000230 
#    y 0.000000 1.631580 0.000000 
#    z -0.000230 0.000000 1.627470 
# 
# From -- ./inp_files/65349.got.cif
#   From: 2010.05.17/outbox.cif.g08.bks.cpg/sg11_33_cif.got.tgz:65349.got - 2010.06.03 12:22:45.
