data_PCOD9161719
_publ_section_title
;
Structure prediction by ZEFSAII (Michael W. Deem and Ramdas Pophale) SiO2 
 PCOD9161719
Probable space group: P 21/M
;
_chemical_formula_sum "Si O2"
_cell_formula_units_Z 32
_cell_length_a 26.283773
_cell_length_b 8.412550
_cell_length_c 15.459333
_cell_angle_alpha 90.000000
_cell_angle_beta 26.036364
_cell_angle_gamma 90.000000
_cell_volume 1500.419706
_symmetry_space_group_name_H-M "P 21/M"
_symmetry_group_IT_number 11
_symmetry_cell_setting 'monoclinic'
loop_
_space_group_symop_operation_xyz
x,y,z
-x,1/2+y,-z
-x,-y,-z
x,1/2-y,z
loop_
_atom_site_type_symbol
_atom_site_label
_atom_site_fract_x
_atom_site_fract_y
_atom_site_fract_z
Si Si1 0.514696 0.559535 0.752237
Si Si2 0.858114 0.432586 0.625767
Si Si3 0.023690 0.440409 0.866926
Si Si4 0.135310 0.437975 0.199098
Si Si5 0.186877 0.058113 0.928515
Si Si6 0.715762 0.555545 0.565191
Si Si7 0.653935 0.933420 0.844457
Si Si8 0.554779 0.941601 0.505116
O O1 0.517080 0.750000 0.743365
O O2 0.639359 0.507733 0.599682
O O3 0.495464 0.498890 0.684304
O O4 0.421642 0.515206 0.966526
O O5 0.829753 0.250000 0.648274
O O6 0.826803 0.469397 0.773274
O O7 0.786342 0.546885 0.673643
O O8 0.995722 0.454623 0.406222
O O9 0.025978 0.250000 0.864287
O O10 0.151511 0.497738 0.642777
O O11 0.000000 0.500000 0.000000
O O12 0.922718 0.495744 0.956869
O O13 0.160286 0.250000 0.173180
O O14 0.185649 0.493400 0.030874
O O15 0.179030 0.250000 0.941085
O O16 0.309572 0.012741 0.699823
O O17 0.716817 0.750000 0.566832
O O18 0.651961 0.500181 0.750261
O O19 0.620018 0.750000 0.893622
O O20 0.549682 0.750000 0.511393
O O21 0.500000 0.000000 0.500000
#
# Coordination Sequence:
#
# PCOD9161719 Si02
#       8
#     4   4   4   4   4   4   4   4
#     4  10  21  40  61  83 115 156 199 246 299 356
#     4  10  20  34  53  81 117 154 190 235 290 349
#     4  11  22  38  62  91 122 157 195 240 294 356
#     4   9  19  35  56  82 114 150 192 241 290 344
#     4  10  21  39  61  86 116 152 193 240 294 349
#     4   9  20  39  62  87 120 157 195 240 298 356
#     4  11  22  36  58  86 116 153 198 246 293 350
#     4  10  23  41  62  86 118 157 199 247 299 355
#
# _framework density 21.327366000000001
#
# number of rings (size 3 to 8) (size 9 to 14) (size 15 to 20)
#    0.000    2.000    0.000    3.000    1.750    4.000 
#    0.000    5.000    0.000    0.000    0.000    0.000 
#    0.000    0.000    0.000    0.000    0.000    0.000 
#
# Total GULP energy -178804.763533 kJ/mol
# GULP energy per Si atom -5587.648860 kJ/mol
# Density = 2.127882 g / cm^3
# Si number density = 21.327366 Si / 1000 Ang^3
#
#
#
# Elastic Constant Matrix: (Units=GPa)
#
#
# Indices 1 2 3 4 5 6 
#
# 1 110.9805 12.5587 34.7766 0.0000 25.1693 0.0000
# 2 12.5587 13.2635 14.1558 0.0000 2.2590 0.0000
# 3 34.7766 14.1558 83.2758 0.0000 22.7888 0.0000
# 4 0.0000 0.0000 0.0000 24.5957 0.0000 -0.9928
# 5 25.1693 2.2590 22.7888 0.0000 39.4140 0.0000
# 6 0.0000 0.0000 0.0000 -0.9928 0.0000 30.4936
#
#
#
# Elastic Compliance Matrix: (Units=1/GPa)
#
#
# Indices 1 2 3 4 5 6 
#
# 1 0.011908 -0.008185 -0.001935 0.000000 -0.006016 0.000000
# 2 -0.008185 0.098402 -0.015676 0.000000 0.008651 0.000000
# 3 -0.001935 -0.015676 0.017697 0.000000 -0.008098 0.000000
# 4 0.000000 0.000000 0.000000 0.040711 0.000000 0.001325
# 5 -0.006016 0.008651 -0.008098 0.000000 0.033400 0.000000
# 6 0.000000 0.000000 0.000000 0.001325 0.000000 0.032837
#
#
# Mechanical properties :
#
#
# Convention : Reuss Voigt Hill
#
# Bulk Modulus (GPa) = 13.08653 36.72243 24.90448
# Shear Modulus (GPa) = 16.02466 28.63592 22.33029
#
# Velocity S-wave (km/s) = 2.74408 3.66824 3.23929
# Velocity P-wave (km/s) = 4.02359 5.93272 5.06885
#
# Compressibility (1/GPa) = 0.07641443
#
# Stress axis : x y z
#
# Youngs Moduli (GPa) = 83.98030 10.16237 56.50593
#
# Poissons Ratio (x) = 0.08318 0.10934
# Poissons Ratio (y) = 0.68737 0.88581
# Poissons Ratio (z) = 0.16250 0.15931
#
# Static dielectric constant tensor:
#      x y z
#    x 1.763840 0.000000 0.006430 
#    y 0.000000 1.839220 0.000000 
#    z 0.006430 0.000000 1.786880 
# 
# From -- ./inp_files/55536.got.cif
#   From: 2010.05.17/outbox.cif.g08.bks.cpg/sg11_28_cif.got.tgz:55536.got - 2010.06.03 12:22:45.
