data_PCOD9161661
_publ_section_title
;
Structure prediction by ZEFSAII (Michael W. Deem and Ramdas Pophale) SiO2 
 PCOD9161661
Probable space group: P 21/M
;
_chemical_formula_sum "Si O2"
_cell_formula_units_Z 32
_cell_length_a 12.708804
_cell_length_b 8.712609
_cell_length_c 12.461714
_cell_angle_alpha 90.000000
_cell_angle_beta 84.597656
_cell_angle_gamma 90.000000
_cell_volume 1373.717094
_symmetry_space_group_name_H-M "P 21/M"
_symmetry_group_IT_number 11
_symmetry_cell_setting 'monoclinic'
loop_
_space_group_symop_operation_xyz
x,y,z
-x,1/2+y,-z
-x,-y,-z
x,1/2-y,z
loop_
_atom_site_type_symbol
_atom_site_label
_atom_site_fract_x
_atom_site_fract_y
_atom_site_fract_z
Si Si1 0.095735 0.428890 0.556436
Si Si2 0.751877 0.416944 0.962721
Si Si3 0.319607 0.570006 0.491971
Si Si4 0.021464 0.429556 0.247635
Si Si5 0.461688 0.582292 0.896361
Si Si6 0.862034 0.571130 0.131470
Si Si7 0.357489 0.068071 0.714989
Si Si8 0.747049 0.066482 0.728158
O O1 0.117381 0.250000 0.531801
O O2 0.196356 0.533725 0.526107
O O3 0.052706 0.454622 0.678564
O O4 0.000000 0.500000 0.500000
O O5 0.806369 0.250000 0.943834
O O6 0.700779 0.453584 0.851871
O O7 0.659563 0.397118 0.056213
O O8 0.823567 0.541986 0.012540
O O9 0.344634 0.750000 0.492073
O O10 0.371603 0.494137 0.592199
O O11 0.323103 0.514742 0.366876
O O12 0.010144 0.250000 0.276639
O O13 0.963447 0.462222 0.141039
O O14 0.140255 0.481384 0.265542
O O15 0.511899 0.750000 0.877769
O O16 0.447948 0.492697 0.786602
O O17 0.500000 0.500000 0.000000
O O18 0.886333 0.750000 0.141624
O O19 0.759321 0.534560 0.220484
O O20 0.363600 0.250000 0.709505
O O21 0.765552 0.250000 0.708792
#
# Coordination Sequence:
#
# PCOD9161661 Si02
#       8
#     4   4   4   4   4   4   4   4
#     4  12  22  33  48  71 103 142 190 242 283 320
#     4   9  20  39  59  80 108 144 182 223 272 334
#     4  11  21  33  53  78 108 146 186 229 276 324
#     4  12  23  33  50  74 104 145 193 239 283 327
#     4  10  20  37  64  93 117 138 171 215 272 335
#     4  10  20  34  53  76 106 143 185 237 285 325
#     4  10  20  34  55  83 115 144 178 225 276 323
#     4  10  22  38  54  74 107 149 192 232 273 323
#
# _framework density 23.294461999999999
#
# number of rings (size 3 to 8) (size 9 to 14) (size 15 to 20)
#    0.000    1.500    2.500    3.750    0.000    3.000 
#    0.000    0.000    0.000    0.750    0.000    0.000 
#    0.000    0.000    0.000    0.000    0.000    0.000 
#
# Total GULP energy -178291.117776 kJ/mol
# GULP energy per Si atom -5571.597431 kJ/mol
# Density = 2.324144 g / cm^3
# Si number density = 23.294462 Si / 1000 Ang^3
#
#
#
# Elastic Constant Matrix: (Units=GPa)
#
#
# Indices 1 2 3 4 5 6 
#
# 1 25.2017 21.8725 22.2051 0.0000 20.4012 0.0000
# 2 21.8725 85.8174 48.5367 0.0000 28.7759 0.0000
# 3 22.2051 48.5367 159.7409 0.0000 42.8139 0.0000
# 4 0.0000 0.0000 0.0000 33.2807 0.0000 14.8109
# 5 20.4012 28.7759 42.8139 0.0000 52.0054 0.0000
# 6 0.0000 0.0000 0.0000 14.8109 0.0000 18.4426
#
#
#
# Elastic Compliance Matrix: (Units=1/GPa)
#
#
# Indices 1 2 3 4 5 6 
#
# 1 0.064216 -0.009399 -0.000915 0.000000 -0.019238 0.000000
# 2 -0.009399 0.016775 -0.002940 0.000000 -0.003175 0.000000
# 3 -0.000915 -0.002940 0.008659 0.000000 -0.005143 0.000000
# 4 0.000000 0.000000 0.000000 0.046759 0.000000 -0.037551
# 5 -0.019238 -0.003175 -0.005143 0.000000 0.032767 0.000000
# 6 0.000000 0.000000 0.000000 -0.037551 0.000000 0.084379
#
#
# Mechanical properties :
#
#
# Convention : Reuss Voigt Hill
#
# Bulk Modulus (GPa) = 15.83669 50.66537 33.25103
# Shear Modulus (GPa) = 16.60521 32.62210 24.61366
#
# Velocity S-wave (km/s) = 2.67280 3.74628 3.25411
# Velocity P-wave (km/s) = 4.04208 6.36475 5.33144
#
# Compressibility (1/GPa) = 0.06314452
#
# Stress axis : x y z
#
# Youngs Moduli (GPa) = 15.57234 59.61092 115.48735
#
# Poissons Ratio (x) = 0.56028 0.10561
# Poissons Ratio (y) = 0.14636 0.33949
# Poissons Ratio (z) = 0.01424 0.17524
#
# Static dielectric constant tensor:
#      x y z
#    x 1.827860 0.000000 -0.220170 
#    y 0.000000 1.853460 0.000000 
#    z -0.220170 0.000000 1.491940 
# 
# From -- ./inp_files/38189.got.cif
#   From: 2010.05.17/outbox.cif.g08.bks.cpg/sg11_20_cif.got.tgz:38189.got - 2010.06.03 12:22:45.
