data_PCOD9161493
_publ_section_title
;
Structure prediction by ZEFSAII (Michael W. Deem and Ramdas Pophale) SiO2 
 PCOD9161493
Probable space group: P 21/M
;
_chemical_formula_sum "Si O2"
_cell_formula_units_Z 28
_cell_length_a 9.654311
_cell_length_b 14.851142
_cell_length_c 12.568100
_cell_angle_alpha 90.000000
_cell_angle_beta 58.603908
_cell_angle_gamma 90.000000
_cell_volume 1538.148320
_symmetry_space_group_name_H-M "P 21/M"
_symmetry_group_IT_number 11
_symmetry_cell_setting 'monoclinic'
loop_
_space_group_symop_operation_xyz
x,y,z
-x,1/2+y,-z
-x,-y,-z
x,1/2-y,z
loop_
_atom_site_type_symbol
_atom_site_label
_atom_site_fract_x
_atom_site_fract_y
_atom_site_fract_z
Si Si1 0.674088 0.535543 0.467005
Si Si2 0.870735 0.461306 0.880573
Si Si3 0.993892 0.539272 0.620833
Si Si4 0.695117 0.855216 0.678398
Si Si5 0.813807 0.645725 0.217441
Si Si6 0.473712 0.600507 0.966825
Si Si7 0.261796 0.151597 0.984812
O O1 0.500000 0.500000 0.500000
O O2 0.670513 0.584904 0.582771
O O3 0.729527 0.606603 0.355367
O O4 0.818598 0.460146 0.415553
O O5 0.904352 0.473891 0.741120
O O6 0.834065 0.562782 0.936933
O O7 0.029360 0.416142 0.865631
O O8 0.719266 0.395680 0.962500
O O9 0.873178 0.623918 0.657878
O O10 0.000000 0.500000 0.500000
O O11 0.681422 0.750000 0.659426
O O12 0.562354 0.882269 0.820000
O O13 0.858701 0.750000 0.215753
O O14 0.707885 0.640005 0.152786
O O15 0.572619 0.655221 0.014910
O O16 0.500000 0.500000 0.000000
O O17 0.178815 0.250000 0.032014
#
# Coordination Sequence:
#
# PCOD9161493 Si02
#       7
#     4   4   4   4   4   4   4
#     4  10  23  39  63  84 117 159 203 249 307 363
#     4  10  20  36  58  84 119 154 196 238 294 362
#     4   9  19  36  59  86 110 155 197 238 298 358
#     4  11  21  38  61  88 120 156 202 255 298 354
#     4  10  22  39  58  83 116 155 194 241 297 362
#     4  10  20  33  58  87 120 154 195 240 298 347
#     4  10  20  34  56  86 118 153 191 235 294 350
#
# _framework density 18.203706
#
# number of rings (size 3 to 8) (size 9 to 14) (size 15 to 20)
#    0.000    2.000    2.857    1.286    4.000    1.143 
#    0.000    1.429    0.000    4.286    0.000    0.000 
#    0.000    0.000    0.000    0.000    0.000    0.000 
#
# Total GULP energy -155868.482179 kJ/mol
# GULP energy per Si atom -5566.731506 kJ/mol
# Density = 1.816227 g / cm^3
# Si number density = 18.203706 Si / 1000 Ang^3
#
#
#
# Elastic Constant Matrix: (Units=GPa)
#
#
# Indices 1 2 3 4 5 6 
#
# 1 113.9426 45.5707 66.2157 0.0000 -5.1801 0.0000
# 2 45.5707 88.6957 18.8572 0.0000 -0.8260 0.0000
# 3 66.2157 18.8572 86.3100 0.0000 14.6563 0.0000
# 4 0.0000 0.0000 0.0000 21.6582 0.0000 1.6500
# 5 -5.1801 -0.8260 14.6563 0.0000 31.5195 0.0000
# 6 0.0000 0.0000 0.0000 1.6500 0.0000 21.1773
#
#
#
# Elastic Compliance Matrix: (Units=1/GPa)
#
#
# Indices 1 2 3 4 5 6 
#
# 1 0.022747 -0.007804 -0.017748 0.000000 0.011786 0.000000
# 2 -0.007804 0.014580 0.003208 0.000000 -0.002392 0.000000
# 3 -0.017748 0.003208 0.027124 0.000000 -0.015445 0.000000
# 4 0.000000 0.000000 0.000000 0.046448 0.000000 -0.003619
# 5 0.011786 -0.002392 -0.015445 0.000000 0.040783 0.000000
# 6 0.000000 0.000000 0.000000 -0.003619 0.000000 0.047502
#
#
# Mechanical properties :
#
#
# Convention : Reuss Voigt Hill
#
# Bulk Modulus (GPa) = 50.59930 61.13728 55.86829
# Shear Modulus (GPa) = 19.96338 25.42462 22.69400
#
# Velocity S-wave (km/s) = 3.31519 3.74126 3.53465
# Velocity P-wave (km/s) = 6.52000 7.23331 6.88590
#
# Compressibility (1/GPa) = 0.01976312
#
# Stress axis : x y z
#
# Youngs Moduli (GPa) = 43.96150 68.58763 36.86814
#
# Poissons Ratio (x) = 0.53527 0.65432
# Poissons Ratio (y) = 0.34308 -0.11827
# Poissons Ratio (z) = 0.78021 -0.22003
#
# Static dielectric constant tensor:
#      x y z
#    x 1.462950 0.000000 -0.031920 
#    y 0.000000 1.612380 0.000000 
#    z -0.031920 0.000000 1.622750 
# 
# From -- ./inp_files/31784.got.cif
#   From: 2010.05.17/outbox.cif.g08.bks.cpg/sg11_16_cif.got.tgz:31784.got - 2010.06.03 12:22:45.
