data_PCOD9161575
_publ_section_title
;
Structure prediction by ZEFSAII (Michael W. Deem and Ramdas Pophale) SiO2 
 PCOD9161575
Probable space group: P 21/M
;
_chemical_formula_sum "Si O2"
_cell_formula_units_Z 28
_cell_length_a 17.145359
_cell_length_b 7.532186
_cell_length_c 14.374279
_cell_angle_alpha 90.000000
_cell_angle_beta 42.479915
_cell_angle_gamma 90.000000
_cell_volume 1253.634208
_symmetry_space_group_name_H-M "P 21/M"
_symmetry_group_IT_number 11
_symmetry_cell_setting 'monoclinic'
loop_
_space_group_symop_operation_xyz
x,y,z
-x,1/2+y,-z
-x,-y,-z
x,1/2-y,z
loop_
_atom_site_type_symbol
_atom_site_label
_atom_site_fract_x
_atom_site_fract_y
_atom_site_fract_z
Si Si1 0.692365 0.533549 0.608342
Si Si2 0.063617 0.038128 0.539365
Si Si3 0.399651 0.552407 0.658906
Si Si4 0.969290 0.033451 0.819791
Si Si5 0.526630 0.462403 0.083664
Si Si6 0.785225 0.965214 0.324667
Si Si7 0.290074 0.968511 0.938179
O O1 0.689141 0.750000 0.610897
O O2 0.804473 0.474945 0.568586
O O3 0.576333 0.470183 0.759314
O O4 0.718127 0.482907 0.478916
O O5 0.069261 0.250000 0.543560
O O6 0.996350 0.975244 0.690266
O O7 0.000000 0.000000 0.500000
O O8 0.500000 0.500000 0.500000
O O9 0.433599 0.750000 0.656038
O O10 0.282013 0.543219 0.703206
O O11 0.370029 0.464536 0.783119
O O12 0.969231 0.250000 0.821590
O O13 0.081083 0.980306 0.781689
O O14 0.841762 0.972602 0.958468
O O15 0.526592 0.250000 0.092212
O O16 0.648880 0.522064 0.019079
O O17 0.500000 0.500000 0.000000
O O18 0.780481 0.750000 0.322390
O O19 0.286157 0.750000 0.939148
#
# Coordination Sequence:
#
# PCOD9161575 Si02
#       7
#     4   4   4   4   4   4   4
#     4   8  16  32  50  70 100 139 172 202 257 324
#     4   9  17  29  49  73  98 132 175 218 257 305
#     4  11  22  36  57  82 108 140 180 221 264 314
#     4   8  16  32  53  77 106 141 179 212 255 324
#     4  10  20  34  52  72 100 137 177 216 258 308
#     4   9  17  34  59  81 104 138 177 216 262 316
#     4   9  19  35  54  77 107 143 178 214 261 325
#
# _framework density 22.335063000000002
#
# number of rings (size 3 to 8) (size 9 to 14) (size 15 to 20)
#    0.000    2.857    0.000    3.000    2.000    2.857 
#    0.000    6.429    0.000    3.429    0.000    0.000 
#    0.000    0.000    0.000    0.000    0.000    0.000 
#
# Total GULP energy -156241.157317 kJ/mol
# GULP energy per Si atom -5580.041333 kJ/mol
# Density = 2.228423 g / cm^3
# Si number density = 22.335063 Si / 1000 Ang^3
#
#
#
# Elastic Constant Matrix: (Units=GPa)
#
#
# Indices 1 2 3 4 5 6 
#
# 1 111.1251 -12.5746 41.1653 0.0000 1.1309 0.0000
# 2 -12.5746 48.4327 3.7942 0.0000 -4.0970 0.0000
# 3 41.1653 3.7942 104.8181 0.0000 -23.5539 0.0000
# 4 0.0000 0.0000 0.0000 3.7819 0.0000 -0.4142
# 5 1.1309 -4.0970 -23.5539 0.0000 25.5503 0.0000
# 6 0.0000 0.0000 0.0000 -0.4142 0.0000 20.3682
#
#
#
# Elastic Compliance Matrix: (Units=1/GPa)
#
#
# Indices 1 2 3 4 5 6 
#
# 1 0.011572 0.003004 -0.005878 0.000000 -0.005449 0.000000
# 2 0.003004 0.021711 -0.001530 0.000000 0.001938 0.000000
# 3 -0.005878 -0.001530 0.015019 0.000000 0.013860 0.000000
# 4 0.000000 0.000000 0.000000 0.265011 0.000000 0.005390
# 5 -0.005449 0.001938 0.013860 0.000000 0.052467 0.000000
# 6 0.000000 0.000000 0.000000 0.005390 0.000000 0.049206
#
#
# Mechanical properties :
#
#
# Convention : Reuss Voigt Hill
#
# Bulk Modulus (GPa) = 25.32091 36.57174 30.94633
# Shear Modulus (GPa) = 11.44275 25.40613 18.42444
#
# Velocity S-wave (km/s) = 2.26591 3.37634 2.87524
# Velocity P-wave (km/s) = 4.26700 5.62221 4.99082
#
# Compressibility (1/GPa) = 0.03949304
#
# Stress axis : x y z
#
# Youngs Moduli (GPa) = 86.41865 46.05988 66.58418
#
# Poissons Ratio (x) = -0.13836 0.39136
# Poissons Ratio (y) = -0.25959 0.10188
# Poissons Ratio (z) = 0.50794 0.07048
#
# Static dielectric constant tensor:
#      x y z
#    x 1.813740 0.000000 -0.015070 
#    y 0.000000 1.856110 0.000000 
#    z -0.015070 0.000000 1.827660 
# 
# From -- ./inp_files/53230.got.cif
#   From: 2010.05.17/outbox.cif.g08.bks.cpg/sg11_27_cif.got.tgz:53230.got - 2010.06.03 12:22:45.
