data_PCOD9161156
_publ_section_title
;
Structure prediction by ZEFSAII (Michael W. Deem and Ramdas Pophale) SiO2 
 PCOD9161156
Probable space group: P 21/M
;
_chemical_formula_sum "Si O2"
_cell_formula_units_Z 32
_cell_length_a 12.813045
_cell_length_b 7.645769
_cell_length_c 24.493958
_cell_angle_alpha 90.000000
_cell_angle_beta 41.376518
_cell_angle_gamma 90.000000
_cell_volume 1586.122894
_symmetry_space_group_name_H-M "P 21/M"
_symmetry_group_IT_number 11
_symmetry_cell_setting 'monoclinic'
loop_
_space_group_symop_operation_xyz
x,y,z
-x,1/2+y,-z
-x,-y,-z
x,1/2-y,z
loop_
_atom_site_type_symbol
_atom_site_label
_atom_site_fract_x
_atom_site_fract_y
_atom_site_fract_z
Si Si1 0.479487 0.458949 0.945422
Si Si2 0.479509 0.456917 0.223260
Si Si3 0.772022 0.947649 0.757796
Si Si4 0.611226 0.959915 0.405797
Si Si5 0.227324 0.549910 0.960738
Si Si6 0.967042 0.542721 0.258544
Si Si7 0.037249 0.036085 0.861680
Si Si8 0.596581 0.539330 0.291068
O O1 0.476682 0.250000 0.937566
O O2 0.628054 0.542087 0.856808
O O3 0.325969 0.543275 0.978656
O O4 0.500000 0.500000 0.000000
O O5 0.480733 0.250000 0.208943
O O6 0.318885 0.529488 0.258896
O O7 0.643626 0.529463 0.132043
O O8 0.489664 0.477012 0.283594
O O9 0.816680 0.750000 0.726013
O O10 0.917248 0.018869 0.735882
O O11 0.619505 0.750000 0.399568
O O12 0.791458 0.025724 0.340534
O O13 0.552581 0.021059 0.369207
O O14 0.500000 0.000000 0.500000
O O15 0.198833 0.750000 0.954391
O O16 0.062183 0.471146 0.046833
O O17 0.953198 0.750000 0.255978
O O18 0.018572 0.477776 0.177556
O O19 0.027290 0.250000 0.867884
O O20 0.221399 0.986982 0.791644
O O21 0.593763 0.750000 0.291474
#
# Coordination Sequence:
#
# PCOD9161156 Si02
#       8
#     4   4   4   4   4   4   4   4
#     4  11  20  29  42  62  90 126 170 216 258 296
#     4   9  19  32  45  67 100 135 170 207 244 283
#     4  10  20  33  48  69  98 131 168 207 247 293
#     4   9  19  35  56  83 108 128 155 196 247 302
#     4   9  17  30  45  63  92 130 170 209 250 292
#     4   9  17  31  52  77 102 128 162 203 251 302
#     4   8  15  29  48  68  94 128 163 207 256 292
#     4   9  18  33  52  73  97 128 166 201 240 297
#
# _framework density 20.174980000000001
#
# number of rings (size 3 to 8) (size 9 to 14) (size 15 to 20)
#    0.000    2.750    0.000    4.500    0.000    5.000 
#    0.000    2.500    0.000    0.750    0.000    0.000 
#    0.000    0.000    0.000    0.000    0.000    0.000 
#
# Total GULP energy -178231.696800 kJ/mol
# GULP energy per Si atom -5569.740525 kJ/mol
# Density = 2.012906 g / cm^3
# Si number density = 20.174980 Si / 1000 Ang^3
#
#
#
# Elastic Constant Matrix: (Units=GPa)
#
#
# Indices 1 2 3 4 5 6 
#
# 1 113.6767 -1.1083 41.0113 0.0000 27.3207 0.0000
# 2 -1.1083 49.9882 1.2022 0.0000 0.0104 0.0000
# 3 41.0113 1.2022 71.5840 0.0000 12.8175 0.0000
# 4 0.0000 0.0000 0.0000 14.2279 0.0000 1.6585
# 5 27.3207 0.0104 12.8175 0.0000 23.0516 0.0000
# 6 0.0000 0.0000 0.0000 1.6585 0.0000 16.7652
#
#
#
# Elastic Compliance Matrix: (Units=1/GPa)
#
#
# Indices 1 2 3 4 5 6 
#
# 1 0.014104 0.000452 -0.005658 0.000000 -0.013570 0.000000
# 2 0.000452 0.020028 -0.000553 0.000000 -0.000237 0.000000
# 3 -0.005658 -0.000553 0.017791 0.000000 -0.003186 0.000000
# 4 0.000000 0.000000 0.000000 0.071104 0.000000 -0.007034
# 5 -0.013570 -0.000237 -0.003186 0.000000 0.061236 0.000000
# 6 0.000000 0.000000 0.000000 -0.007034 0.000000 0.060343
#
#
# Mechanical properties :
#
#
# Convention : Reuss Voigt Hill
#
# Bulk Modulus (GPa) = 24.74961 35.27325 30.01143
# Shear Modulus (GPa) = 18.54649 23.75187 21.14918
#
# Velocity S-wave (km/s) = 3.03526 3.43489 3.24124
# Velocity P-wave (km/s) = 4.95760 5.76654 5.37730
#
# Compressibility (1/GPa) = 0.04040468
#
# Stress axis : x y z
#
# Youngs Moduli (GPa) = 70.90223 49.92995 56.20823
#
# Poissons Ratio (x) = -0.02255 0.31803
# Poissons Ratio (y) = -0.03202 0.03106
# Poissons Ratio (z) = 0.40117 0.02759
#
# Static dielectric constant tensor:
#      x y z
#    x 1.781370 0.000000 0.011090 
#    y 0.000000 1.846790 0.000000 
#    z 0.011090 0.000000 1.716030 
# 
# From -- ./inp_files/64360.got.cif
#   From: 2010.05.17/outbox.cif.g08.bks.cpg/sg11_33_cif.got.tgz:64360.got - 2010.06.03 12:22:45.
