data_PCOD9161276
_publ_section_title
;
Structure prediction by ZEFSAII (Michael W. Deem and Ramdas Pophale) SiO2 
 PCOD9161276
Probable space group: P 21/M
;
_chemical_formula_sum "Si O2"
_cell_formula_units_Z 32
_cell_length_a 16.733640
_cell_length_b 14.551543
_cell_length_c 20.404639
_cell_angle_alpha 90.000000
_cell_angle_beta 20.229596
_cell_angle_gamma 90.000000
_cell_volume 1718.034708
_symmetry_space_group_name_H-M "P 21/M"
_symmetry_group_IT_number 11
_symmetry_cell_setting 'monoclinic'
loop_
_space_group_symop_operation_xyz
x,y,z
-x,1/2+y,-z
-x,-y,-z
x,1/2-y,z
loop_
_atom_site_type_symbol
_atom_site_label
_atom_site_fract_x
_atom_site_fract_y
_atom_site_fract_z
Si Si1 0.264255 0.503493 0.771283
Si Si2 0.106129 0.142510 0.525905
Si Si3 0.102114 0.646612 0.676985
Si Si4 0.347063 0.031283 0.963327
Si Si5 0.570605 0.358652 0.909585
Si Si6 0.385579 0.516252 0.376465
Si Si7 0.538844 0.643771 0.863840
Si Si8 0.469692 0.854917 0.512145
O O1 0.434292 0.498682 0.703062
O O2 0.325124 0.418615 0.675120
O O3 0.342531 0.593184 0.669756
O O4 0.000000 0.500000 0.000000
O O5 0.128876 0.250000 0.527531
O O6 0.239764 0.131705 0.353366
O O7 0.836773 0.121702 0.723043
O O8 0.229854 0.073211 0.480730
O O9 0.018941 0.750000 0.728241
O O10 0.225966 0.601464 0.519590
O O11 0.284871 0.649027 0.595309
O O12 0.897665 0.579051 0.853506
O O13 0.485880 0.082395 0.914121
O O14 0.477771 0.038716 0.794463
O O15 0.346041 0.924553 0.984203
O O16 0.553717 0.250000 0.907478
O O17 0.423413 0.377611 0.088712
O O18 0.466153 0.750000 0.916503
O O19 0.538599 0.750000 0.474798
#
# Coordination Sequence:
#
# PCOD9161276 Si02
#       8
#     4   4   4   4   4   4   4   4
#     4  10  20  37  60  85 115 148 188 235 281 337
#     4   9  19  36  54  75 108 143 179 227 277 324
#     4  10  21  37  55  79 113 146 178 222 273 324
#     4  11  21  34  55  81 109 143 185 227 271 326
#     4  10  20  33  51  75 103 142 189 230 270 320
#     4  10  22  36  56  83 110 143 181 224 278 331
#     4   9  19  34  51  72 101 140 183 227 273 319
#     4   9  20  38  59  84 115 150 186 226 279 340
#
# _framework density 18.625933
#
# number of rings (size 3 to 8) (size 9 to 14) (size 15 to 20)
#    0.000    2.250    0.000    2.250    0.000    5.000 
#    0.000    3.750    0.000   13.500    0.000    0.000 
#    0.000    0.000    0.000    0.000    0.000    0.000 
#
# Total GULP energy -178558.759532 kJ/mol
# GULP energy per Si atom -5579.961235 kJ/mol
# Density = 1.858354 g / cm^3
# Si number density = 18.625933 Si / 1000 Ang^3
#
#
#
# Elastic Constant Matrix: (Units=GPa)
#
#
# Indices 1 2 3 4 5 6 
#
# 1 63.6409 36.3583 23.9035 0.0000 22.0924 0.0000
# 2 36.3583 82.2703 36.9906 0.0000 21.9132 0.0000
# 3 23.9035 36.9906 77.9028 0.0000 14.0247 0.0000
# 4 0.0000 0.0000 0.0000 25.5919 0.0000 5.0321
# 5 22.0924 21.9132 14.0247 0.0000 29.1189 0.0000
# 6 0.0000 0.0000 0.0000 5.0321 0.0000 31.0373
#
#
#
# Elastic Compliance Matrix: (Units=1/GPa)
#
#
# Indices 1 2 3 4 5 6 
#
# 1 0.024697 -0.006534 -0.002176 0.000000 -0.012772 0.000000
# 2 -0.006534 0.019600 -0.006065 0.000000 -0.006871 0.000000
# 3 -0.002176 -0.006065 0.016714 0.000000 -0.001835 0.000000
# 4 0.000000 0.000000 0.000000 0.040362 0.000000 -0.006544
# 5 -0.012772 -0.006871 -0.001835 0.000000 0.050087 0.000000
# 6 0.000000 0.000000 0.000000 -0.006544 0.000000 0.033280
#
#
# Mechanical properties :
#
#
# Convention : Reuss Voigt Hill
#
# Bulk Modulus (GPa) = 31.78472 46.47985 39.13229
# Shear Modulus (GPa) = 22.24422 25.58705 23.91563
#
# Velocity S-wave (km/s) = 3.45956 3.71041 3.58718
# Velocity P-wave (km/s) = 5.74977 6.58519 6.18161
#
# Compressibility (1/GPa) = 0.03146166
#
# Stress axis : x y z
#
# Youngs Moduli (GPa) = 40.49011 51.02103 59.82910
#
# Poissons Ratio (x) = 0.33339 0.13019
# Poissons Ratio (y) = 0.26457 0.36284
# Poissons Ratio (z) = 0.08811 0.30942
#
# Static dielectric constant tensor:
#      x y z
#    x 1.622160 0.000000 0.013320 
#    y 0.000000 1.783600 0.000000 
#    z 0.013320 0.000000 1.645070 
# 
# From -- ./inp_files/66275.got.cif
#   From: 2010.05.17/outbox.cif.g08.bks.cpg/sg11_34_cif.got.tgz:66275.got - 2010.06.03 12:22:45.
