data_PCOD9161089
_publ_section_title
;
Structure prediction by ZEFSAII (Michael W. Deem and Ramdas Pophale) SiO2 
 PCOD9161089
Probable space group: P 21/M
;
_chemical_formula_sum "Si O2"
_cell_formula_units_Z 24
_cell_length_a 5.104985
_cell_length_b 18.108315
_cell_length_c 13.971353
_cell_angle_alpha 90.000000
_cell_angle_beta 68.469494
_cell_angle_gamma 90.000000
_cell_volume 1201.427928
_symmetry_space_group_name_H-M "P 21/M"
_symmetry_group_IT_number 11
_symmetry_cell_setting 'monoclinic'
loop_
_space_group_symop_operation_xyz
x,y,z
-x,1/2+y,-z
-x,-y,-z
x,1/2-y,z
loop_
_atom_site_type_symbol
_atom_site_label
_atom_site_fract_x
_atom_site_fract_y
_atom_site_fract_z
Si Si1 0.838535 0.334288 0.270834
Si Si2 0.565137 0.979682 0.124170
Si Si3 0.804540 0.570468 0.453841
Si Si4 0.115353 0.076034 0.078491
Si Si5 0.540314 0.016318 0.333580
Si Si6 0.763918 0.164397 0.497559
O O1 0.741918 0.250000 0.268384
O O2 0.609443 0.399772 0.293497
O O3 0.919947 0.339345 0.372492
O O4 0.064988 0.357789 0.160057
O O5 0.287555 0.013112 0.113107
O O6 0.508143 0.967968 0.243423
O O7 0.813485 0.042123 0.088837
O O8 0.695974 0.914363 0.042037
O O9 0.718747 0.522665 0.559019
O O10 0.794371 0.516970 0.363569
O O11 0.533069 0.623710 0.474848
O O12 0.057561 0.623435 0.446083
O O13 0.724186 0.250000 0.524745
#
# Coordination Sequence:
#
# PCOD9161089 Si02
#       6
#     4   4   4   4   4   4
#     4   9  18  32  51  75 104 133 164 209 259 305
#     4   9  17  30  49  70  95 124 160 203 241 292
#     4  10  20  32  51  74 103 135 169 215 248 294
#     4   9  17  30  48  71  95 123 158 198 246 295
#     4   9  19  32  50  76 104 134 174 208 251 298
#     4  10  20  34  51  73 100 133 169 207 258 306
#
# _framework density 19.976230000000001
#
# number of rings (size 3 to 8) (size 9 to 14) (size 15 to 20)
#    0.000    2.667    0.000    1.500    0.000    9.333 
#    0.000    6.667    0.000    2.000    0.000    0.000 
#    0.000    0.000    0.000    0.000    0.000    0.000 
#
# Total GULP energy -133758.847771 kJ/mol
# GULP energy per Si atom -5573.285324 kJ/mol
# Density = 1.993076 g / cm^3
# Si number density = 19.976230 Si / 1000 Ang^3
#
#
#
# Elastic Constant Matrix: (Units=GPa)
#
#
# Indices 1 2 3 4 5 6 
#
# 1 77.2266 25.0531 20.7654 0.0000 6.4724 0.0000
# 2 25.0531 111.2024 31.1154 0.0000 -6.6213 0.0000
# 3 20.7654 31.1154 102.4614 0.0000 4.7675 0.0000
# 4 0.0000 0.0000 0.0000 32.7379 0.0000 0.1251
# 5 6.4724 -6.6213 4.7675 0.0000 20.1939 0.0000
# 6 0.0000 0.0000 0.0000 0.1251 0.0000 13.9070
#
#
#
# Elastic Compliance Matrix: (Units=1/GPa)
#
#
# Indices 1 2 3 4 5 6 
#
# 1 0.014918 -0.003176 -0.001808 0.000000 -0.005396 0.000000
# 2 -0.003176 0.010829 -0.002889 0.000000 0.005251 0.000000
# 3 -0.001808 -0.002889 0.011143 0.000000 -0.002999 0.000000
# 4 0.000000 0.000000 0.000000 0.030547 0.000000 -0.000275
# 5 -0.005396 0.005251 -0.002999 0.000000 0.053679 0.000000
# 6 0.000000 0.000000 0.000000 -0.000275 0.000000 0.071909
#
#
# Mechanical properties :
#
#
# Convention : Reuss Voigt Hill
#
# Bulk Modulus (GPa) = 47.29564 49.41758 48.35661
# Shear Modulus (GPa) = 23.16761 27.63153 25.39957
#
# Velocity S-wave (km/s) = 3.40922 3.72320 3.56966
# Velocity P-wave (km/s) = 6.26294 6.57836 6.42259
#
# Compressibility (1/GPa) = 0.02114360
#
# Stress axis : x y z
#
# Youngs Moduli (GPa) = 67.03475 92.34208 89.74209
#
# Poissons Ratio (x) = 0.29331 0.16222
# Poissons Ratio (y) = 0.21292 0.25928
# Poissons Ratio (z) = 0.12117 0.26680
#
# Static dielectric constant tensor:
#      x y z
#    x 1.756220 0.000000 -0.016820 
#    y 0.000000 1.706130 0.000000 
#    z -0.016820 0.000000 1.795000 
# 
# From -- ./inp_files/29845.got.cif
#   From: 2010.05.17/outbox.cif.g08.bks.cpg/sg11_15_cif.got.tgz:29845.got - 2010.06.03 12:22:45.
