data_PCOD9161718
_publ_section_title
;
Structure prediction by ZEFSAII (Michael W. Deem and Ramdas Pophale) SiO2 
 PCOD9161718
Probable space group: P 21/M
;
_chemical_formula_sum "Si O2"
_cell_formula_units_Z 32
_cell_length_a 23.513958
_cell_length_b 9.145488
_cell_length_c 15.700445
_cell_angle_alpha 90.000000
_cell_angle_beta 29.904105
_cell_angle_gamma 90.000000
_cell_volume 1683.267632
_symmetry_space_group_name_H-M "P 21/M"
_symmetry_group_IT_number 11
_symmetry_cell_setting 'monoclinic'
loop_
_space_group_symop_operation_xyz
x,y,z
-x,1/2+y,-z
-x,-y,-z
x,1/2-y,z
loop_
_atom_site_type_symbol
_atom_site_label
_atom_site_fract_x
_atom_site_fract_y
_atom_site_fract_z
Si Si1 0.466723 0.078906 0.330468
Si Si2 0.664237 0.424708 0.841463
Si Si3 0.310815 0.924601 0.871175
Si Si4 0.310921 0.422615 0.695481
Si Si5 0.956653 0.423840 0.784337
Si Si6 0.437968 0.576980 0.203549
Si Si7 0.929252 0.425256 0.016834
Si Si8 0.076244 0.925582 0.473662
O O1 0.460622 0.250000 0.315840
O O2 0.599714 0.039127 0.171004
O O3 0.405625 0.058878 0.500235
O O4 0.406434 0.987798 0.335490
O O5 0.649367 0.250000 0.872469
O O6 0.648727 0.456829 0.760770
O O7 0.790068 0.464214 0.709275
O O8 0.559561 0.506063 0.021545
O O9 0.321596 0.750000 0.840628
O O10 0.344604 0.012364 0.742892
O O11 0.177589 0.952760 0.061350
O O12 0.286149 0.250000 0.735348
O O13 0.197798 0.509798 0.815825
O O14 0.975953 0.250000 0.746462
O O15 0.973555 0.456383 0.862851
O O16 0.032423 0.516450 0.621688
O O17 0.449695 0.750000 0.192994
O O18 0.927763 0.250000 0.028335
O O19 0.000000 0.500000 0.000000
O O20 0.066434 0.750000 0.481802
O O21 0.000000 0.000000 0.500000
#
# Coordination Sequence:
#
# PCOD9161718 Si02
#       8
#     4   4   4   4   4   4   4   4
#     4  10  21  35  54  82 115 151 187 227 284 341
#     4   9  21  42  60  78 113 151 181 229 295 348
#     4   9  19  36  56  77 111 154 189 229 284 337
#     4  10  20  34  53  81 114 148 190 234 279 334
#     4   9  20  38  57  82 114 150 191 236 290 344
#     4  10  21  37  60  87 109 142 193 238 282 341
#     4  10  21  38  60  84 114 153 193 236 289 345
#     4  11  24  40  61  87 117 153 194 241 294 350
#
# _framework density 19.010642000000001
#
# number of rings (size 3 to 8) (size 9 to 14) (size 15 to 20)
#    0.000    2.250    0.000    2.625    1.750    6.500 
#    0.000    2.500    0.000    0.000    0.000    0.000 
#    0.000    0.000    0.000    0.000    0.000    0.000 
#
# Total GULP energy -178644.091495 kJ/mol
# GULP energy per Si atom -5582.627859 kJ/mol
# Density = 1.896737 g / cm^3
# Si number density = 19.010642 Si / 1000 Ang^3
#
#
#
# Elastic Constant Matrix: (Units=GPa)
#
#
# Indices 1 2 3 4 5 6 
#
# 1 90.9016 32.9809 14.8705 0.0000 -16.3269 0.0000
# 2 32.9809 37.9637 19.8898 0.0000 -5.6742 0.0000
# 3 14.8705 19.8898 33.8327 0.0000 -6.3582 0.0000
# 4 0.0000 0.0000 0.0000 31.8062 0.0000 5.5133
# 5 -16.3269 -5.6742 -6.3582 0.0000 17.5493 0.0000
# 6 0.0000 0.0000 0.0000 5.5133 0.0000 32.9526
#
#
#
# Elastic Compliance Matrix: (Units=1/GPa)
#
#
# Indices 1 2 3 4 5 6 
#
# 1 0.018694 -0.016250 0.003882 0.000000 0.013545 0.000000
# 2 -0.016250 0.052526 -0.025095 0.000000 -0.007227 0.000000
# 3 0.003882 -0.025095 0.044809 0.000000 0.011732 0.000000
# 4 0.000000 0.000000 0.000000 0.032379 0.000000 -0.005417
# 5 0.013545 -0.007227 0.011732 0.000000 0.071497 0.000000
# 6 0.000000 0.000000 0.000000 -0.005417 0.000000 0.031253
#
#
# Mechanical properties :
#
#
# Convention : Reuss Voigt Hill
#
# Bulk Modulus (GPa) = 24.32940 33.13115 28.73027
# Shear Modulus (GPa) = 14.71518 22.79209 18.75364
#
# Velocity S-wave (km/s) = 2.78519 3.46629 3.14424
# Velocity P-wave (km/s) = 4.81338 5.78668 5.32233
#
# Compressibility (1/GPa) = 0.04110253
#
# Stress axis : x y z
#
# Youngs Moduli (GPa) = 53.49170 19.03834 22.31712
#
# Poissons Ratio (x) = 0.30938 -0.08663
# Poissons Ratio (y) = 0.86925 0.56004
# Poissons Ratio (z) = -0.20765 0.47776
#
# Static dielectric constant tensor:
#      x y z
#    x 1.671860 0.000000 0.003080 
#    y 0.000000 1.630270 0.000000 
#    z 0.003080 0.000000 1.656650 
# 
# From -- ./inp_files/55613.got.cif
#   From: 2010.05.17/outbox.cif.g08.bks.cpg/sg11_28_cif.got.tgz:55613.got - 2010.06.03 12:22:45.
