data_PCOD9161166
_publ_section_title
;
Structure prediction by ZEFSAII (Michael W. Deem and Ramdas Pophale) SiO2 
 PCOD9161166
Probable space group: P 21/M
;
_chemical_formula_sum "Si O2"
_cell_formula_units_Z 26
_cell_length_a 7.637556
_cell_length_b 22.939266
_cell_length_c 9.576782
_cell_angle_alpha 90.000000
_cell_angle_beta 134.287271
_cell_angle_gamma 90.000000
_cell_volume 1201.086453
_symmetry_space_group_name_H-M "P 21/M"
_symmetry_group_IT_number 11
_symmetry_cell_setting 'monoclinic'
loop_
_space_group_symop_operation_xyz
x,y,z
-x,1/2+y,-z
-x,-y,-z
x,1/2-y,z
loop_
_atom_site_type_symbol
_atom_site_label
_atom_site_fract_x
_atom_site_fract_y
_atom_site_fract_z
Si Si1 0.083355 0.250000 0.338699
Si Si2 0.802907 0.625267 0.233077
Si Si3 0.665844 0.250000 0.881741
Si Si4 0.652463 0.440910 0.063884
Si Si5 0.890430 0.750000 0.322070
Si Si6 0.393747 0.535760 0.276774
Si Si7 0.567787 0.848114 0.400729
Si Si8 0.896219 0.006037 0.632963
O O1 0.004679 0.250000 0.459769
O O2 0.253749 0.306700 0.414011
O O3 0.869974 0.250000 0.110270
O O4 0.540270 0.610837 0.011366
O O5 0.929940 0.687471 0.270423
O O6 0.722898 0.632195 0.350464
O O7 0.969455 0.568100 0.309223
O O8 0.402495 0.250000 0.812347
O O9 0.649612 0.307024 0.776751
O O10 0.697766 0.441260 0.922210
O O11 0.500000 0.500000 0.000000
O O12 0.909972 0.453516 0.281330
O O13 0.466335 0.593042 0.407399
O O14 0.198391 0.502459 0.260051
O O15 0.649390 0.501119 0.405745
#
# Coordination Sequence:
#
# PCOD9161166 Si02
#       8
#     2   4   2   4   2   4   4   4
#     4   8  14  28  49  69  91 127 159 200 252 288
#     4   8  16  32  50  72  96 123 160 203 245 288
#     4   8  14  28  47  69  95 123 161 206 252 288
#     4   9  18  32  51  74  98 129 169 208 245 290
#     4   8  16  30  46  72 100 116 154 206 246 292
#     4  10  20  33  48  73 104 135 168 204 249 297
#     4   8  17  29  45  72  98 119 164 211 240 291
#     4  10  20  33  50  71 102 138 165 200 250 300
#
# _framework density 21.647068000000001
#
# number of rings (size 3 to 8) (size 9 to 14) (size 15 to 20)
#    0.000    3.692    0.000    0.462    0.000    9.231 
#    0.000   12.308    0.000    0.000    0.000    9.692 
#    0.000    0.000    0.000    0.000    0.000    0.000 
#
# Total GULP energy -144742.290405 kJ/mol
# GULP energy per Si atom -5567.011169 kJ/mol
# Density = 2.159780 g / cm^3
# Si number density = 21.647068 Si / 1000 Ang^3
#
#
#
# Elastic Constant Matrix: (Units=GPa)
#
#
# Indices 1 2 3 4 5 6 
#
# 1 40.3962 14.3516 25.0707 0.0000 7.7051 0.0000
# 2 14.3516 120.2579 40.5268 0.0000 13.4821 0.0000
# 3 25.0707 40.5268 100.3026 0.0000 20.3607 0.0000
# 4 0.0000 0.0000 0.0000 6.3810 0.0000 -1.9771
# 5 7.7051 13.4821 20.3607 0.0000 19.1711 0.0000
# 6 0.0000 0.0000 0.0000 -1.9771 0.0000 18.6239
#
#
#
# Elastic Compliance Matrix: (Units=1/GPa)
#
#
# Indices 1 2 3 4 5 6 
#
# 1 0.029791 -0.000966 -0.006073 0.000000 -0.004845 0.000000
# 2 -0.000966 0.009831 -0.003067 0.000000 -0.003268 0.000000
# 3 -0.006073 -0.003067 0.015035 0.000000 -0.011370 0.000000
# 4 0.000000 0.000000 0.000000 0.162046 0.000000 0.017203
# 5 -0.004845 -0.003268 -0.011370 0.000000 0.068483 0.000000
# 6 0.000000 0.000000 0.000000 0.017203 0.000000 0.055521
#
#
# Mechanical properties :
#
#
# Convention : Reuss Voigt Hill
#
# Bulk Modulus (GPa) = 29.03147 46.76166 37.89657
# Shear Modulus (GPa) = 13.42645 20.90238 17.16441
#
# Velocity S-wave (km/s) = 2.49317 3.11078 2.81894
# Velocity P-wave (km/s) = 4.66136 5.87804 5.30470
#
# Compressibility (1/GPa) = 0.03444537
#
# Stress axis : x y z
#
# Youngs Moduli (GPa) = 33.56747 101.72170 66.51079
#
# Poissons Ratio (x) = 0.09822 0.40389
# Poissons Ratio (y) = 0.03241 0.20402
# Poissons Ratio (z) = 0.20384 0.31202
#
# Static dielectric constant tensor:
#      x y z
#    x 1.816230 0.000000 0.019050 
#    y 0.000000 1.905750 0.000000 
#    z 0.019050 0.000000 1.825950 
# 
# From -- ./inp_files/33100.got.cif
#   From: 2010.05.17/outbox.cif.g08.bks.cpg/sg11_17_cif.got.tgz:33100.got - 2010.06.03 12:22:45.
