data_PCOD9161609
_publ_section_title
;
Structure prediction by ZEFSAII (Michael W. Deem and Ramdas Pophale) SiO2 
 PCOD9161609
Probable space group: P 21/M
;
_chemical_formula_sum "Si O2"
_cell_formula_units_Z 28
_cell_length_a 20.775709
_cell_length_b 9.368650
_cell_length_c 23.293133
_cell_angle_alpha 90.000000
_cell_angle_beta 18.334510
_cell_angle_gamma 90.000000
_cell_volume 1426.166199
_symmetry_space_group_name_H-M "P 21/M"
_symmetry_group_IT_number 11
_symmetry_cell_setting 'monoclinic'
loop_
_space_group_symop_operation_xyz
x,y,z
-x,1/2+y,-z
-x,-y,-z
x,1/2-y,z
loop_
_atom_site_type_symbol
_atom_site_label
_atom_site_fract_x
_atom_site_fract_y
_atom_site_fract_z
Si Si1 0.319197 0.914137 0.873036
Si Si2 0.521697 0.081208 0.801091
Si Si3 0.563587 0.087988 0.502122
Si Si4 0.866458 0.912012 0.067833
Si Si5 0.397224 0.420432 0.034256
Si Si6 0.053329 0.581209 0.623884
Si Si7 0.757503 0.914136 0.434729
O O1 0.256649 0.750000 0.932707
O O2 0.536439 0.914227 0.654519
O O3 0.369552 0.990764 0.890165
O O4 0.162311 0.003180 0.967023
O O5 0.473601 0.250000 0.835394
O O6 0.750375 0.059047 0.583206
O O7 0.501556 0.044241 0.884835
O O8 0.626659 0.250000 0.435004
O O9 0.359045 0.096893 0.713651
O O10 0.500000 0.000000 0.500000
O O11 0.725695 0.003182 0.403639
O O12 0.941666 0.750000 0.996670
O O13 0.000000 0.000000 0.000000
O O14 0.413713 0.250000 0.028759
O O15 0.157624 0.455756 0.228766
O O16 0.500000 0.500000 0.000000
O O17 0.046617 0.750000 0.644391
O O18 0.090396 0.490762 0.649887
O O19 0.811418 0.750000 0.377936
#
# Coordination Sequence:
#
# PCOD9161609 Si02
#       7
#     4   4   4   4   4   4   4
#     4   9  17  31  53  78 103 135 177 223 269 320
#     4   9  18  35  57  79 106 142 182 222 269 325
#     4  10  20  34  52  75 105 141 181 225 274 327
#     4  10  20  34  52  75 105 141 181 225 274 327
#     4  10  22  38  56  82 114 144 178 222 272 326
#     4   9  18  35  57  79 106 142 182 222 269 325
#     4   9  17  31  53  78 103 135 177 223 269 320
#
# _framework density 19.633054999999999
#
# number of rings (size 3 to 8) (size 9 to 14) (size 15 to 20)
#    0.000    2.571    0.000    1.714    0.000    6.857 
#    2.571    0.000    0.000    0.000    0.000    0.000 
#    0.000    0.000    0.000    0.000    0.000    0.000 
#
# Total GULP energy -156393.939128 kJ/mol
# GULP energy per Si atom -5585.497826 kJ/mol
# Density = 1.958837 g / cm^3
# Si number density = 19.633055 Si / 1000 Ang^3
#
#
#
# Elastic Constant Matrix: (Units=GPa)
#
#
# Indices 1 2 3 4 5 6 
#
# 1 219.9947 131.2826 49.9859 0.0000 -23.1225 0.0000
# 2 131.2826 160.3103 44.7615 0.0000 -17.6037 0.0000
# 3 49.9859 44.7615 72.1142 0.0000 -6.9645 0.0000
# 4 0.0000 0.0000 0.0000 12.7985 0.0000 -6.4774
# 5 -23.1225 -17.6037 -6.9645 0.0000 31.4667 0.0000
# 6 0.0000 0.0000 0.0000 -6.4774 0.0000 44.6351
#
#
#
# Elastic Compliance Matrix: (Units=1/GPa)
#
#
# Indices 1 2 3 4 5 6 
#
# 1 0.009329 -0.006796 -0.001996 0.000000 0.002612 0.000000
# 2 -0.006796 0.012837 -0.003113 0.000000 0.001499 0.000000
# 3 -0.001996 -0.003113 0.017241 0.000000 0.000608 0.000000
# 4 0.000000 0.000000 0.000000 0.084328 0.000000 0.012238
# 5 0.002612 0.001499 0.000608 0.000000 0.034672 0.000000
# 6 0.000000 0.000000 0.000000 0.012238 0.000000 0.024180
#
#
# Mechanical properties :
#
#
# Convention : Reuss Voigt Hill
#
# Bulk Modulus (GPa) = 64.11005 100.49771 82.30388
# Shear Modulus (GPa) = 23.63017 32.87268 28.25143
#
# Velocity S-wave (km/s) = 3.47304 4.09633 3.79749
# Velocity P-wave (km/s) = 6.98625 8.58326 7.82560
#
# Compressibility (1/GPa) = 0.01559818
#
# Stress axis : x y z
#
# Youngs Moduli (GPa) = 107.19439 77.90182 58.00058
#
# Poissons Ratio (x) = 0.52939 0.11577
# Poissons Ratio (y) = 0.72844 0.18054
# Poissons Ratio (z) = 0.21397 0.24248
#
# Static dielectric constant tensor:
#      x y z
#    x 1.632130 0.000000 0.020710 
#    y 0.000000 1.668800 0.000000 
#    z 0.020710 0.000000 1.733910 
# 
# From -- ./inp_files/66670.got.cif
#   From: 2010.05.17/outbox.cif.g08.bks.cpg/sg11_34_cif.got.tgz:66670.got - 2010.06.03 12:22:45.
