data_PCOD9161246
_publ_section_title
;
Structure prediction by ZEFSAII (Michael W. Deem and Ramdas Pophale) SiO2 
 PCOD9161246
Probable space group: P 21/M
;
_chemical_formula_sum "Si O2"
_cell_formula_units_Z 32
_cell_length_a 17.307007
_cell_length_b 8.407529
_cell_length_c 31.138103
_cell_angle_alpha 90.000000
_cell_angle_beta 154.103084
_cell_angle_gamma 90.000000
_cell_volume 1978.876801
_symmetry_space_group_name_H-M "P 21/M"
_symmetry_group_IT_number 11
_symmetry_cell_setting 'monoclinic'
loop_
_space_group_symop_operation_xyz
x,y,z
-x,1/2+y,-z
-x,-y,-z
x,1/2-y,z
loop_
_atom_site_type_symbol
_atom_site_label
_atom_site_fract_x
_atom_site_fract_y
_atom_site_fract_z
Si Si1 0.138856 0.440755 0.951444
Si Si2 0.499999 0.056420 0.274986
Si Si3 0.500000 0.443264 0.175870
Si Si4 0.138855 0.940755 0.687411
Si Si5 0.703569 0.940487 0.149740
Si Si6 0.105507 0.059210 0.095410
Si Si7 0.296430 0.559513 0.946170
Si Si8 0.894492 0.059210 0.489902
O O1 0.132369 0.250000 0.949436
O O2 0.158308 0.495931 0.912146
O O3 0.988782 0.505620 0.907937
O O4 0.322966 0.498458 0.064596
O O5 0.499999 0.250000 0.277338
O O6 0.499998 0.009822 0.225157
O O7 0.310245 0.003188 0.198026
O O8 0.689754 0.003188 0.387780
O O9 0.500000 0.250000 0.174432
O O10 0.677035 0.498458 0.241631
O O11 0.132369 0.750000 0.682932
O O12 0.158309 0.995930 0.746162
O O13 0.988781 0.005621 0.580844
O O14 0.704053 0.750000 0.150758
O O15 0.742726 0.999999 0.121363
O O16 0.499999 0.995200 0.057908
O O17 0.104943 0.250000 0.092532
O O18 0.000000 0.000000 0.000000
O O19 0.295946 0.750000 0.946703
O O20 0.895055 0.250000 0.487588
O O21 0.000000 0.000000 0.500000
#
# Coordination Sequence:
#
# PCOD9161246 Si02
#       8
#     4   4   4   4   4   4   4   4
#     4  11  20  33  51  73 102 138 172 210 256 304
#     4   9  18  34  50  67  98 137 172 209 256 300
#     4   9  16  28  47  69  98 135 170 201 248 299
#     4  11  20  33  51  73 102 138 172 210 256 304
#     4  10  20  33  50  75 104 135 171 210 252 302
#     4  11  21  34  51  73  99 134 175 215 255 304
#     4  10  20  33  50  75 104 135 171 210 252 302
#     4  11  21  34  51  73  99 134 175 215 255 304
#
# _framework density 16.170788999999999
#
# number of rings (size 3 to 8) (size 9 to 14) (size 15 to 20)
#    0.000    1.750    3.750    2.250    0.000    1.000 
#    0.000    3.750    0.000    0.000    0.000    0.875 
#    0.000    0.000    0.000    0.000    0.000    0.000 
#
# Total GULP energy -178454.938701 kJ/mol
# GULP energy per Si atom -5576.716834 kJ/mol
# Density = 1.613398 g / cm^3
# Si number density = 16.170789 Si / 1000 Ang^3
#
#
#
# Elastic Constant Matrix: (Units=GPa)
#
#
# Indices 1 2 3 4 5 6 
#
# 1 123.2739 21.8713 74.6460 0.0000 -2.8687 0.0000
# 2 21.8713 39.8985 23.4903 0.0000 1.1933 0.0000
# 3 74.6460 23.4903 120.7121 0.0000 0.9831 0.0000
# 4 0.0000 0.0000 0.0000 20.5109 0.0000 -3.8669
# 5 -2.8687 1.1933 0.9831 0.0000 25.2059 0.0000
# 6 0.0000 0.0000 0.0000 -3.8669 0.0000 25.7576
#
#
#
# Elastic Compliance Matrix: (Units=1/GPa)
#
#
# Indices 1 2 3 4 5 6 
#
# 1 0.013325 -0.002826 -0.007706 0.000000 0.001951 0.000000
# 2 -0.002826 0.028938 -0.003871 0.000000 -0.001541 0.000000
# 3 -0.007706 -0.003871 0.013813 0.000000 -0.001232 0.000000
# 4 0.000000 0.000000 0.000000 0.050175 0.000000 0.007533
# 5 0.001951 -0.001541 -0.001232 0.000000 0.040016 0.000000
# 6 0.000000 0.000000 0.000000 0.007533 0.000000 0.039954
#
#
# Mechanical properties :
#
#
# Convention : Reuss Voigt Hill
#
# Bulk Modulus (GPa) = 36.67085 58.21108 47.44096
# Shear Modulus (GPa) = 22.30983 25.22002 23.76492
#
# Velocity S-wave (km/s) = 3.71838 3.95347 3.83772
# Velocity P-wave (km/s) = 6.41573 7.54425 7.00276
#
# Compressibility (1/GPa) = 0.02726961
#
# Stress axis : x y z
#
# Youngs Moduli (GPa) = 75.04754 34.55667 72.39731
#
# Poissons Ratio (x) = 0.09765 0.55788
# Poissons Ratio (y) = 0.21208 0.28027
# Poissons Ratio (z) = 0.57830 0.13378
#
# Static dielectric constant tensor:
#      x y z
#    x 1.543250 0.000000 0.007100 
#    y 0.000000 1.556450 0.000000 
#    z 0.007100 0.000000 1.552890 
# 
# From -- ./inp_files/71619.got.cif
#   From: 2010.05.17/outbox.cif.g08.bks.cpg/sg11_36_cif.got.tgz:71619.got - 2010.06.03 12:22:45.
