data_PCOD9161290
_publ_section_title
;
Structure prediction by ZEFSAII (Michael W. Deem and Ramdas Pophale) SiO2 
 PCOD9161290
Probable space group: P 21/M
;
_chemical_formula_sum "Si O2"
_cell_formula_units_Z 20
_cell_length_a 18.512917
_cell_length_b 8.533184
_cell_length_c 17.162746
_cell_angle_alpha 90.000000
_cell_angle_beta 156.383141
_cell_angle_gamma 90.000000
_cell_volume 1086.185256
_symmetry_space_group_name_H-M "P 21/M"
_symmetry_group_IT_number 11
_symmetry_cell_setting 'monoclinic'
loop_
_space_group_symop_operation_xyz
x,y,z
-x,1/2+y,-z
-x,-y,-z
x,1/2-y,z
loop_
_atom_site_type_symbol
_atom_site_label
_atom_site_fract_x
_atom_site_fract_y
_atom_site_fract_z
Si Si1 0.002403 0.060218 0.381269
Si Si2 0.264396 0.563843 0.342926
Si Si3 0.663562 0.060259 0.758933
Si Si4 0.703831 0.937914 0.202373
Si Si5 0.025260 0.938377 0.822958
O O1 0.995824 0.250000 0.375580
O O2 0.179262 0.013206 0.605786
O O3 0.006588 0.004641 0.296239
O O4 0.825405 0.998618 0.250810
O O5 0.243622 0.750000 0.326608
O O6 0.242436 0.516349 0.230441
O O7 0.467554 0.515363 0.565385
O O8 0.128279 0.486408 0.268297
O O9 0.644524 0.250000 0.740476
O O10 0.786247 0.010409 0.952372
O O11 0.698509 0.750000 0.195347
O O12 0.500000 0.000000 0.000000
O O13 0.029262 0.750000 0.823650
#
# Coordination Sequence:
#
# PCOD9161290 Si02
#       5
#     4   4   4   4   4
#     4   9  20  37  55  78 104 132 171 212 250 300
#     4  10  20  33  51  76 105 136 172 214 256 300
#     4   9  19  35  53  73 100 138 178 212 251 300
#     4  10  20  36  58  79 103 135 167 205 254 306
#     4  10  20  35  55  76 102 136 172 212 255 300
#
# _framework density 18.413065
#
# number of rings (size 3 to 8) (size 9 to 14) (size 15 to 20)
#    0.000    2.400    0.000    1.800    0.000    4.800 
#    0.000    8.000    0.000    0.000    0.000    0.000 
#    0.000    0.000    0.000    0.000    0.000    0.000 
#
# Total GULP energy -111594.944976 kJ/mol
# GULP energy per Si atom -5579.747249 kJ/mol
# Density = 1.837116 g / cm^3
# Si number density = 18.413065 Si / 1000 Ang^3
#
#
#
# Elastic Constant Matrix: (Units=GPa)
#
#
# Indices 1 2 3 4 5 6 
#
# 1 65.6777 12.2411 43.8408 0.0000 -25.9787 0.0000
# 2 12.2411 1.5603 12.8598 0.0000 -6.7727 0.0000
# 3 43.8408 12.8598 102.9890 0.0000 -8.1879 0.0000
# 4 0.0000 0.0000 0.0000 28.5060 0.0000 7.8280
# 5 -25.9787 -6.7727 -8.1879 0.0000 22.2372 0.0000
# 6 0.0000 0.0000 0.0000 7.8280 0.0000 27.1893
#
#
#
# Elastic Compliance Matrix: (Units=1/GPa)
#
#
# Indices 1 2 3 4 5 6 
#
# 1 0.041740 0.020507 -0.016437 0.000000 0.048957 0.000000
# 2 0.020507 -0.623918 0.057661 0.000000 -0.144837 0.000000
# 3 -0.016437 0.057661 0.009659 0.000000 0.001916 0.000000
# 4 0.000000 0.000000 0.000000 0.038092 0.000000 -0.010967
# 5 0.048957 -0.144837 0.001916 0.000000 0.058757 0.000000
# 6 0.000000 0.000000 0.000000 -0.010967 0.000000 0.039937
#
#
# Mechanical properties :
#
#
# Convention : Reuss Voigt Hill
#
# Bulk Modulus (GPa) = -2.22690 34.23447 16.00379
# Shear Modulus (GPa) = -7.05336 22.33884 7.64274
#
# Velocity S-wave (km/s) = -1.95932 3.48689 2.03954
# Velocity P-wave (km/s) = 2.51607 5.90288 3.77581
#
# Compressibility (1/GPa) = -0.44905540
#
# Stress axis : x y z
#
# Youngs Moduli (GPa) = 23.95767 -1.60277 103.53033
#
# Poissons Ratio (x) = 0.03287 1.70169
# Poissons Ratio (y) = -0.49129 -5.96971
# Poissons Ratio (z) = 0.39378 0.09242
#
# Static dielectric constant tensor:
#      x y z
#    x 1.625000 0.000000 -0.031830 
#    y 0.000000 1.621960 0.000000 
#    z -0.031830 0.000000 1.622780 
# 
# From -- ./inp_files/56657.got.cif
#   From: 2010.05.17/outbox.cif.g08.bks.cpg/sg11_29_cif.got.tgz:56657.got - 2010.06.03 12:22:45.
