data_PCOD9161541
_publ_section_title
;
Structure prediction by ZEFSAII (Michael W. Deem and Ramdas Pophale) SiO2 
 PCOD9161541
Probable space group: P 21/M
;
_chemical_formula_sum "Si O2"
_cell_formula_units_Z 32
_cell_length_a 22.594303
_cell_length_b 7.729598
_cell_length_c 22.434300
_cell_angle_alpha 90.000000
_cell_angle_beta 24.678334
_cell_angle_gamma 90.000000
_cell_volume 1635.871935
_symmetry_space_group_name_H-M "P 21/M"
_symmetry_group_IT_number 11
_symmetry_cell_setting 'monoclinic'
loop_
_space_group_symop_operation_xyz
x,y,z
-x,1/2+y,-z
-x,-y,-z
x,1/2-y,z
loop_
_atom_site_type_symbol
_atom_site_label
_atom_site_fract_x
_atom_site_fract_y
_atom_site_fract_z
Si Si1 0.220006 0.957194 0.086509
Si Si2 0.609194 0.461015 0.823603
Si Si3 0.066615 0.041827 0.875871
Si Si4 0.618156 0.956059 0.439938
Si Si5 0.541343 0.458949 0.757816
Si Si6 0.992739 0.047967 0.817292
Si Si7 0.311506 0.546627 0.496706
Si Si8 0.286488 0.951912 0.152068
O O1 0.199187 0.750000 0.110652
O O2 0.379235 0.985390 0.916693
O O3 0.210639 0.028375 0.162977
O O4 0.107684 0.028590 0.141774
O O5 0.601829 0.250000 0.833410
O O6 0.630627 0.509847 0.735140
O O7 0.716124 0.521434 0.777781
O O8 0.453299 0.532479 0.982446
O O9 0.070260 0.250000 0.867593
O O10 0.228431 0.978577 0.722652
O O11 0.985091 0.974954 0.891538
O O12 0.000000 0.000000 0.000000
O O13 0.625350 0.750000 0.438383
O O14 0.500000 0.000000 0.500000
O O15 0.598855 0.024154 0.524698
O O16 0.539470 0.250000 0.757604
O O17 0.608651 0.522245 0.634664
O O18 0.953012 0.250000 0.857839
O O19 0.157708 0.036608 0.648109
O O20 0.285627 0.750000 0.511739
O O21 0.247325 0.750000 0.191533
#
# Coordination Sequence:
#
# PCOD9161541 Si02
#       8
#     4   4   4   4   4   4   4   4
#     4   9  17  29  47  71  95 120 157 201 240 283
#     4   8  13  23  39  60  89 121 149 186 237 282
#     4   9  19  34  51  71  94 120 152 189 229 275
#     4  10  21  37  55  76 100 126 157 193 233 278
#     4   9  18  30  45  69  98 124 156 198 239 281
#     4   9  19  35  50  67  94 126 158 192 233 281
#     4  10  20  34  51  71  95 127 164 195 229 278
#     4   8  13  22  39  63  88 116 151 190 234 282
#
# _framework density 19.561433999999998
#
# number of rings (size 3 to 8) (size 9 to 14) (size 15 to 20)
#    0.000    3.000    0.000    1.500    0.000    5.000 
#    0.000    2.500    0.000    0.750    0.000    0.000 
#    0.000    0.000    0.000    0.000    0.000    0.125 
#
# Total GULP energy -178174.806202 kJ/mol
# GULP energy per Si atom -5567.962694 kJ/mol
# Density = 1.951691 g / cm^3
# Si number density = 19.561434 Si / 1000 Ang^3
#
#
#
# Elastic Constant Matrix: (Units=GPa)
#
#
# Indices 1 2 3 4 5 6 
#
# 1 233.6527 0.2839 66.3165 0.0000 13.4085 0.0000
# 2 0.2839 32.9924 -6.9703 0.0000 -0.7309 0.0000
# 3 66.3165 -6.9703 38.9060 0.0000 16.9478 0.0000
# 4 0.0000 0.0000 0.0000 15.3623 0.0000 -3.7852
# 5 13.4085 -0.7309 16.9478 0.0000 25.6514 0.0000
# 6 0.0000 0.0000 0.0000 -3.7852 0.0000 5.3251
#
#
#
# Elastic Compliance Matrix: (Units=1/GPa)
#
#
# Indices 1 2 3 4 5 6 
#
# 1 0.009885 -0.004437 -0.021537 0.000000 0.008936 0.000000
# 2 -0.004437 0.033786 0.017111 0.000000 -0.008023 0.000000
# 3 -0.021537 0.017111 0.084757 0.000000 -0.044253 0.000000
# 4 0.000000 0.000000 0.000000 0.078916 0.000000 0.056095
# 5 0.008936 -0.008023 -0.044253 0.000000 0.063322 0.000000
# 6 0.000000 0.000000 0.000000 0.056095 0.000000 0.227662
#
#
# Mechanical properties :
#
#
# Convention : Reuss Voigt Hill
#
# Bulk Modulus (GPa) = 9.03332 47.20127 28.11729
# Shear Modulus (GPa) = 9.04233 25.66248 17.35240
#
# Velocity S-wave (km/s) = 2.15234 3.62593 2.98161
# Velocity P-wave (km/s) = 3.28705 6.45848 5.12429
#
# Compressibility (1/GPa) = 0.11070124
#
# Stress axis : x y z
#
# Youngs Moduli (GPa) = 101.16043 29.59846 11.79847
#
# Poissons Ratio (x) = 0.13134 0.25411
# Poissons Ratio (y) = 0.44888 -0.20189
# Poissons Ratio (z) = 2.17873 -0.50647
#
# Static dielectric constant tensor:
#      x y z
#    x 1.764220 0.000000 0.020680 
#    y 0.000000 1.752500 0.000000 
#    z 0.020680 0.000000 1.653090 
# 
# From -- ./inp_files/66411.got.cif
#   From: 2010.05.17/outbox.cif.g08.bks.cpg/sg11_34_cif.got.tgz:66411.got - 2010.06.03 12:22:45.
