data_PCOD9161264
_publ_section_title
;
Structure prediction by ZEFSAII (Michael W. Deem and Ramdas Pophale) SiO2 
 PCOD9161264
Probable space group: P 21/M
;
_chemical_formula_sum "Si O2"
_cell_formula_units_Z 24
_cell_length_a 10.480398
_cell_length_b 12.683769
_cell_length_c 15.431531
_cell_angle_alpha 90.000000
_cell_angle_beta 151.114132
_cell_angle_gamma 90.000000
_cell_volume 990.927721
_symmetry_space_group_name_H-M "P 21/M"
_symmetry_group_IT_number 11
_symmetry_cell_setting 'monoclinic'
loop_
_space_group_symop_operation_xyz
x,y,z
-x,1/2+y,-z
-x,-y,-z
x,1/2-y,z
loop_
_atom_site_type_symbol
_atom_site_label
_atom_site_fract_x
_atom_site_fract_y
_atom_site_fract_z
Si Si1 0.790439 0.449359 0.185670
Si Si2 0.647988 0.372442 0.652331
Si Si3 0.368954 0.579854 0.733591
Si Si4 0.565814 0.632450 0.301307
Si Si5 0.205605 0.635354 0.449124
Si Si6 0.112894 0.967449 0.940365
O O1 0.775291 0.382917 0.265355
O O2 0.987356 0.546382 0.315236
O O3 0.500000 0.500000 0.000000
O O4 0.869915 0.404100 0.139767
O O5 0.742334 0.250000 0.723589
O O6 0.412988 0.382525 0.582634
O O7 0.607103 0.377965 0.524229
O O8 0.841886 0.470346 0.788680
O O9 0.289407 0.456824 0.667691
O O10 0.337385 0.631956 0.621827
O O11 0.678322 0.565486 0.938280
O O12 0.635950 0.750000 0.317942
O O13 0.254438 0.607617 0.094702
O O14 0.078556 0.750000 0.363253
#
# Coordination Sequence:
#
# PCOD9161264 Si02
#       6
#     4   4   4   4   4   4
#     4   9  17  35  52  72  98 127 162 205 243 292
#     4   9  17  31  51  73  98 128 166 203 243 292
#     4   9  19  31  51  74 102 130 161 203 244 295
#     4   9  18  31  50  72  97 131 167 202 246 290
#     4  10  20  33  51  74 100 132 162 200 248 294
#     4   8  17  31  52  73  97 131 162 206 246 286
#
# _framework density 24.219728
#
# number of rings (size 3 to 8) (size 9 to 14) (size 15 to 20)
#    1.000    2.000    0.000    1.000    0.000    2.000 
#    0.000    3.333    0.000    5.000    0.000    0.000 
#    0.000    0.000    0.000    0.000    0.000    0.000 
#
# Total GULP energy -133643.163447 kJ/mol
# GULP energy per Si atom -5568.465144 kJ/mol
# Density = 2.416460 g / cm^3
# Si number density = 24.219728 Si / 1000 Ang^3
#
#
#
# Elastic Constant Matrix: (Units=GPa)
#
#
# Indices 1 2 3 4 5 6 
#
# 1 104.8351 19.0779 22.7381 0.0000 -43.6663 0.0000
# 2 19.0779 90.1548 19.3591 0.0000 6.7283 0.0000
# 3 22.7381 19.3591 80.4630 0.0000 -21.5981 0.0000
# 4 0.0000 0.0000 0.0000 15.0289 0.0000 -6.8462
# 5 -43.6663 6.7283 -21.5981 0.0000 49.0561 0.0000
# 6 0.0000 0.0000 0.0000 -6.8462 0.0000 14.9922
#
#
#
# Elastic Compliance Matrix: (Units=1/GPa)
#
#
# Indices 1 2 3 4 5 6 
#
# 1 0.017004 -0.004956 0.000717 0.000000 0.016132 0.000000
# 2 -0.004956 0.013609 -0.004036 0.000000 -0.008055 0.000000
# 3 0.000717 -0.004036 0.015328 0.000000 0.007940 0.000000
# 4 0.000000 0.000000 0.000000 0.084016 0.000000 0.038366
# 5 0.016132 -0.008055 0.007940 0.000000 0.039345 0.000000
# 6 0.000000 0.000000 0.000000 0.038366 0.000000 0.084221
#
#
# Mechanical properties :
#
#
# Convention : Reuss Voigt Hill
#
# Bulk Modulus (GPa) = 34.02368 44.20034 39.11201
# Shear Modulus (GPa) = 17.86550 30.10062 23.98306
#
# Velocity S-wave (km/s) = 2.71890 3.52918 3.15020
# Velocity P-wave (km/s) = 4.89234 5.90730 5.42361
#
# Compressibility (1/GPa) = 0.02939130
#
# Stress axis : x y z
#
# Youngs Moduli (GPa) = 58.80831 73.48300 65.24116
#
# Poissons Ratio (x) = 0.36420 -0.04680
# Poissons Ratio (y) = 0.29147 0.26330
# Poissons Ratio (z) = -0.04218 0.29656
#
# Static dielectric constant tensor:
#      x y z
#    x 1.986090 0.000000 -0.031220 
#    y 0.000000 1.929210 0.000000 
#    z -0.031220 0.000000 2.028580 
# 
# From -- ./inp_files/24522.got.cif
#   From: 2010.05.17/outbox.cif.g08.bks.cpg/sg11_13_cif.got.tgz:24522.got - 2010.06.03 12:22:45.
