data_PCOD9161951
_publ_section_title
;
Structure prediction by ZEFSAII (Michael W. Deem and Ramdas Pophale) SiO2 
 PCOD9161951
Probable space group: P 21/M
;
_chemical_formula_sum "Si O2"
_cell_formula_units_Z 32
_cell_length_a 10.407646
_cell_length_b 7.561893
_cell_length_c 22.957572
_cell_angle_alpha 90.000000
_cell_angle_beta 54.809196
_cell_angle_gamma 90.000000
_cell_volume 1476.580848
_symmetry_space_group_name_H-M "P 21/M"
_symmetry_group_IT_number 11
_symmetry_cell_setting 'monoclinic'
loop_
_space_group_symop_operation_xyz
x,y,z
-x,1/2+y,-z
-x,-y,-z
x,1/2-y,z
loop_
_atom_site_type_symbol
_atom_site_label
_atom_site_fract_x
_atom_site_fract_y
_atom_site_fract_z
Si Si1 0.175299 0.037989 0.474525
Si Si2 0.523600 0.037950 0.061934
Si Si3 0.745200 0.966737 0.777442
Si Si4 0.256673 0.966631 0.791453
Si Si5 0.613808 0.965895 0.686517
Si Si6 0.684176 0.960308 0.442131
Si Si7 0.910385 0.458522 0.278098
Si Si8 0.818393 0.462034 0.059099
O O1 0.194274 0.250000 0.472113
O O2 0.290626 0.970654 0.394178
O O3 0.220863 0.969500 0.526386
O O4 0.000000 0.000000 0.500000
O O5 0.524627 0.250000 0.066846
O O6 0.378722 0.976197 0.140517
O O7 0.689208 0.972387 0.046085
O O8 0.500000 0.000000 0.000000
O O9 0.744221 0.750000 0.777341
O O10 0.686889 0.022728 0.728898
O O11 0.922908 0.028875 0.742714
O O12 0.251673 0.750000 0.793237
O O13 0.433349 0.018408 0.729779
O O14 0.140903 0.030425 0.771228
O O15 0.220505 0.027586 0.865942
O O16 0.618657 0.750000 0.685185
O O17 0.699281 0.750000 0.436424
O O18 0.500000 0.000000 0.500000
O O19 0.768563 0.024402 0.361366
O O20 0.935939 0.250000 0.263270
O O21 0.801453 0.250000 0.064550
O O22 0.000000 0.500000 0.000000
#
# Coordination Sequence:
#
# PCOD9161951 Si02
#       8
#     4   4   4   4   4   4   4   4
#     4  10  21  35  56  84 111 142 182 230 282 334
#     4  10  21  37  57  85 116 150 189 232 282 338
#     4   9  17  31  53  80 107 138 185 233 276 331
#     4   9  17  32  54  79 105 139 188 235 274 323
#     4   9  15  29  52  75 100 132 175 226 270 315
#     4  11  23  39  57  83 118 154 191 233 283 341
#     4  10  20  34  56  83 108 143 190 239 286 335
#     4  10  21  37  58  85 116 149 189 237 282 333
#
# _framework density 21.671690000000002
#
# number of rings (size 3 to 8) (size 9 to 14) (size 15 to 20)
#    0.000    2.250    1.250    1.875    1.750    4.500 
#    0.000    1.250    0.000    1.500    0.000    0.000 
#    0.000    0.000    0.000    0.000    0.000    0.000 
#
# Total GULP energy -178758.565477 kJ/mol
# GULP energy per Si atom -5586.205171 kJ/mol
# Density = 2.162236 g / cm^3
# Si number density = 21.671690 Si / 1000 Ang^3
#
#
#
# Elastic Constant Matrix: (Units=GPa)
#
#
# Indices 1 2 3 4 5 6 
#
# 1 136.9294 1.8675 27.1454 0.0000 9.7547 0.0000
# 2 1.8675 49.4198 -4.3646 0.0000 4.2873 0.0000
# 3 27.1454 -4.3646 95.0010 0.0000 6.5856 0.0000
# 4 0.0000 0.0000 0.0000 19.3110 0.0000 -2.6861
# 5 9.7547 4.2873 6.5856 0.0000 45.1796 0.0000
# 6 0.0000 0.0000 0.0000 -2.6861 0.0000 10.3692
#
#
#
# Elastic Compliance Matrix: (Units=1/GPa)
#
#
# Indices 1 2 3 4 5 6 
#
# 1 0.007832 -0.000371 -0.002162 0.000000 -0.001341 0.000000
# 2 -0.000371 0.020531 0.001191 0.000000 -0.002042 0.000000
# 3 -0.002162 0.001191 0.011288 0.000000 -0.001292 0.000000
# 4 0.000000 0.000000 0.000000 0.053720 0.000000 0.013916
# 5 -0.001341 -0.002042 -0.001292 0.000000 0.022805 0.000000
# 6 0.000000 0.000000 0.000000 0.013916 0.000000 0.100044
#
#
# Mechanical properties :
#
#
# Convention : Reuss Voigt Hill
#
# Bulk Modulus (GPa) = 27.05068 36.73853 31.89460
# Shear Modulus (GPa) = 21.62378 32.08544 26.85461
#
# Velocity S-wave (km/s) = 3.16221 3.85193 3.52398
# Velocity P-wave (km/s) = 5.08349 6.06401 5.59527
#
# Compressibility (1/GPa) = 0.03696764
#
# Stress axis : x y z
#
# Youngs Moduli (GPa) = 127.67788 48.70659 88.58792
#
# Poissons Ratio (x) = 0.01805 0.19153
# Poissons Ratio (y) = 0.04732 -0.10548
# Poissons Ratio (z) = 0.27605 -0.05799
#
# Static dielectric constant tensor:
#      x y z
#    x 1.775740 0.000000 -0.004710 
#    y 0.000000 1.835940 0.000000 
#    z -0.004710 0.000000 1.773050 
# 
# From -- ./inp_files/63546.got.cif
#   From: 2010.05.17/outbox.cif.g08.bks.cpg/sg11_32_cif.got.tgz:63546.got - 2010.06.03 12:22:45.
