data_PCOD9161642
_publ_section_title
;
Structure prediction by ZEFSAII (Michael W. Deem and Ramdas Pophale) SiO2 
 PCOD9161642
Probable space group: P 21/M
;
_chemical_formula_sum "Si O2"
_cell_formula_units_Z 32
_cell_length_a 30.342194
_cell_length_b 9.303091
_cell_length_c 11.580444
_cell_angle_alpha 90.000000
_cell_angle_beta 149.891234
_cell_angle_gamma 90.000000
_cell_volume 1639.812905
_symmetry_space_group_name_H-M "P 21/M"
_symmetry_group_IT_number 11
_symmetry_cell_setting 'monoclinic'
loop_
_space_group_symop_operation_xyz
x,y,z
-x,1/2+y,-z
-x,-y,-z
x,1/2-y,z
loop_
_atom_site_type_symbol
_atom_site_label
_atom_site_fract_x
_atom_site_fract_y
_atom_site_fract_z
Si Si1 0.473594 0.922621 0.059525
Si Si2 0.258909 0.076665 0.956051
Si Si3 0.955572 0.089898 0.052031
Si Si4 0.354337 0.419966 0.413135
Si Si5 0.108597 0.907556 0.353454
Si Si6 0.306807 0.577126 0.831684
Si Si7 0.799832 0.413583 0.834388
Si Si8 0.092240 0.917343 0.681553
O O1 0.472356 0.750000 0.036825
O O2 0.547121 0.953724 0.324331
O O3 0.380565 0.964600 0.905976
O O4 0.500000 0.000000 0.000000
O O5 0.248340 0.250000 0.921994
O O6 0.321287 0.046133 0.208684
O O7 0.305211 0.008290 0.948759
O O8 0.163608 0.000897 0.762232
O O9 0.959775 0.250000 0.112088
O O10 0.937054 0.102821 0.874661
O O11 0.869625 0.014916 0.907219
O O12 0.046031 0.012305 0.281275
O O13 0.342000 0.250000 0.399087
O O14 0.289141 0.502423 0.350432
O O15 0.108764 0.750000 0.407924
O O16 0.208660 0.950455 0.562523
O O17 0.316445 0.750000 0.873694
O O18 0.780288 0.250000 0.752005
O O19 0.852626 0.410847 0.074142
O O20 0.076058 0.750000 0.610165
O O21 0.000000 0.000000 0.500000
#
# Coordination Sequence:
#
# PCOD9161642 Si02
#       8
#     4   4   4   4   4   4   4   4
#     4  10  23  42  64  90 120 151 190 239 296 355
#     4  10  21  38  59  83 115 154 198 243 291 346
#     4   9  18  33  52  76 107 144 188 231 275 333
#     4   9  20  39  59  84 116 150 190 239 289 342
#     4   9  19  34  51  75 108 146 185 226 282 340
#     4  10  22  39  59  86 118 152 190 242 298 350
#     4   9  19  33  54  81 108 146 191 233 282 338
#     4  10  20  34  52  81 117 153 195 240 288 340
#
# _framework density 19.514422
#
# number of rings (size 3 to 8) (size 9 to 14) (size 15 to 20)
#    0.000    2.500    0.000    0.750    3.500    3.500 
#    0.000    0.000    0.000    0.000    0.000    0.000 
#    0.000    0.000    0.000    0.000    0.000    0.000 
#
# Total GULP energy -178303.139845 kJ/mol
# GULP energy per Si atom -5571.973120 kJ/mol
# Density = 1.947001 g / cm^3
# Si number density = 19.514422 Si / 1000 Ang^3
#
#
#
# Elastic Constant Matrix: (Units=GPa)
#
#
# Indices 1 2 3 4 5 6 
#
# 1 99.5839 46.0429 25.6074 0.0000 18.3540 0.0000
# 2 46.0429 49.8574 41.0126 0.0000 12.0585 0.0000
# 3 25.6074 41.0126 93.5452 0.0000 18.9087 0.0000
# 4 0.0000 0.0000 0.0000 3.0186 0.0000 24.9921
# 5 18.3540 12.0585 18.9087 0.0000 30.7741 0.0000
# 6 0.0000 0.0000 0.0000 24.9921 0.0000 10.4351
#
#
#
# Elastic Compliance Matrix: (Units=1/GPa)
#
#
# Indices 1 2 3 4 5 6 
#
# 1 0.019437 -0.020443 0.004985 0.000000 -0.006645 0.000000
# 2 -0.020443 0.053401 -0.018327 0.000000 0.002529 0.000000
# 3 0.004985 -0.018327 0.018851 0.000000 -0.007375 0.000000
# 4 0.000000 0.000000 0.000000 -0.017594 0.000000 0.042138
# 5 -0.006645 0.002529 -0.007375 0.000000 0.039998 0.000000
# 6 0.000000 0.000000 0.000000 0.042138 0.000000 -0.005089
#
#
# Mechanical properties :
#
#
# Convention : Reuss Voigt Hill
#
# Bulk Modulus (GPa) = 41.46268 52.03469 46.74869
# Shear Modulus (GPa) = 27.08371 17.53380 22.30876
#
# Velocity S-wave (km/s) = 3.72947 3.00076 3.38478
# Velocity P-wave (km/s) = 6.31178 6.22324 6.26767
#
# Compressibility (1/GPa) = 0.02411808
#
# Stress axis : x y z
#
# Youngs Moduli (GPa) = 51.44945 18.72635 53.04727
#
# Poissons Ratio (x) = 0.38283 -0.26446
# Poissons Ratio (y) = 1.05180 0.97221
# Poissons Ratio (z) = -0.25650 0.34320
#
# Static dielectric constant tensor:
#      x y z
#    x 1.709470 0.000000 -0.016610 
#    y 0.000000 1.697100 0.000000 
#    z -0.016610 0.000000 1.692400 
# 
# From -- ./inp_files/45358.got.cif
#   From: 2010.05.17/outbox.cif.g08.bks.cpg/sg11_23_cif.got.tgz:45358.got - 2010.06.03 12:22:45.
