data_PCOD9161449
_publ_section_title
;
Structure prediction by ZEFSAII (Michael W. Deem and Ramdas Pophale) SiO2 
 PCOD9161449
Probable space group: P 21/M
;
_chemical_formula_sum "Si O2"
_cell_formula_units_Z 28
_cell_length_a 15.314982
_cell_length_b 8.778310
_cell_length_c 17.188227
_cell_angle_alpha 90.000000
_cell_angle_beta 134.056992
_cell_angle_gamma 90.000000
_cell_volume 1660.638070
_symmetry_space_group_name_H-M "P 21/M"
_symmetry_group_IT_number 11
_symmetry_cell_setting 'monoclinic'
loop_
_space_group_symop_operation_xyz
x,y,z
-x,1/2+y,-z
-x,-y,-z
x,1/2-y,z
loop_
_atom_site_type_symbol
_atom_site_label
_atom_site_fract_x
_atom_site_fract_y
_atom_site_fract_z
Si Si1 0.260289 0.567486 0.370340
Si Si2 0.110503 0.433541 0.018497
Si Si3 0.954283 0.068942 0.354497
Si Si4 0.610251 0.568627 0.397032
Si Si5 0.027826 0.432631 0.798291
Si Si6 0.348862 0.066855 0.262347
Si Si7 0.189885 0.568948 0.582289
O O1 0.275627 0.750000 0.380727
O O2 0.322889 0.496827 0.484873
O O3 0.116103 0.533908 0.281776
O O4 0.318871 0.498980 0.328938
O O5 0.101181 0.250000 0.014814
O O6 0.237649 0.476629 0.136704
O O7 0.000000 0.500000 0.000000
O O8 0.094283 0.480453 0.918769
O O9 0.976875 0.250000 0.369877
O O10 0.851008 0.035779 0.354681
O O11 0.925712 0.013717 0.250422
O O12 0.076061 0.984404 0.459014
O O13 0.605337 0.750000 0.398659
O O14 0.475947 0.499455 0.312138
O O15 0.691590 0.515936 0.374671
O O16 0.039636 0.250000 0.796543
O O17 0.355473 0.250000 0.270658
O O18 0.205639 0.750000 0.582850
#
# Coordination Sequence:
#
# PCOD9161449 Si02
#       7
#     4   4   4   4   4   4   4
#     4  11  21  35  55  80 113 147 180 220 268 322
#     4  10  21  37  57  80 106 142 183 225 268 314
#     4  10  20  33  54  83 111 141 178 219 269 324
#     4  12  24  37  55  79 110 146 185 224 269 325
#     4  10  20  34  55  81 113 145 177 220 271 317
#     4  11  23  38  56  78 109 147 186 225 269 320
#     4  10  20  35  54  79 111 143 177 221 270 322
#
# _framework density 16.860990999999999
#
# number of rings (size 3 to 8) (size 9 to 14) (size 15 to 20)
#    0.000    1.429    2.857    3.429    0.000    3.429 
#    0.000    0.000    0.000    0.857    0.000    0.000 
#    0.000    0.000    0.000    0.000    0.000    0.000 
#
# Total GULP energy -156450.760912 kJ/mol
# GULP energy per Si atom -5587.527175 kJ/mol
# Density = 1.682261 g / cm^3
# Si number density = 16.860991 Si / 1000 Ang^3
#
#
#
# Elastic Constant Matrix: (Units=GPa)
#
#
# Indices 1 2 3 4 5 6 
#
# 1 127.0455 54.7404 64.5973 0.0000 -4.8760 0.0000
# 2 54.7404 64.6963 38.2234 0.0000 4.2299 0.0000
# 3 64.5973 38.2234 82.0284 0.0000 -3.6987 0.0000
# 4 0.0000 0.0000 0.0000 19.5311 0.0000 -5.4068
# 5 -4.8760 4.2299 -3.6987 0.0000 30.0924 0.0000
# 6 0.0000 0.0000 0.0000 -5.4068 0.0000 31.5423
#
#
#
# Elastic Compliance Matrix: (Units=1/GPa)
#
#
# Indices 1 2 3 4 5 6 
#
# 1 0.016042 -0.008786 -0.008412 0.000000 0.002800 0.000000
# 2 -0.008786 0.026694 -0.005785 0.000000 -0.005887 0.000000
# 3 -0.008412 -0.005785 0.021606 0.000000 0.002106 0.000000
# 4 0.000000 0.000000 0.000000 0.053751 0.000000 0.009214
# 5 0.002800 -0.005887 0.002106 0.000000 0.034771 0.000000
# 6 0.000000 0.000000 0.000000 0.009214 0.000000 0.033283
#
#
# Mechanical properties :
#
#
# Convention : Reuss Voigt Hill
#
# Bulk Modulus (GPa) = 54.42311 65.43247 59.92779
# Shear Modulus (GPa) = 20.98737 23.98044 22.48391
#
# Velocity S-wave (km/s) = 3.53190 3.77536 3.65566
# Velocity P-wave (km/s) = 6.99857 7.60892 7.31012
#
# Compressibility (1/GPa) = 0.01837455
#
# Stress axis : x y z
#
# Youngs Moduli (GPa) = 62.33754 37.46218 46.28264
#
# Poissons Ratio (x) = 0.32914 0.38935
# Poissons Ratio (y) = 0.54770 0.26775
# Poissons Ratio (z) = 0.52441 0.21672
#
# Static dielectric constant tensor:
#      x y z
#    x 1.557220 0.000000 -0.008700 
#    y 0.000000 1.563540 0.000000 
#    z -0.008700 0.000000 1.553480 
# 
# From -- ./inp_files/37488.got.cif
#   From: 2010.05.17/outbox.cif.g08.bks.cpg/sg11_19_cif.got.tgz:37488.got - 2010.06.03 12:22:45.
