data_PCOD9161713
_publ_section_title
;
Structure prediction by ZEFSAII (Michael W. Deem and Ramdas Pophale) SiO2 
 PCOD9161713
Probable space group: P 21/M
;
_chemical_formula_sum "Si O2"
_cell_formula_units_Z 28
_cell_length_a 21.634702
_cell_length_b 8.587142
_cell_length_c 16.019800
_cell_angle_alpha 90.000000
_cell_angle_beta 151.130061
_cell_angle_gamma 90.000000
_cell_volume 1436.959723
_symmetry_space_group_name_H-M "P 21/M"
_symmetry_group_IT_number 11
_symmetry_cell_setting 'monoclinic'
loop_
_space_group_symop_operation_xyz
x,y,z
-x,1/2+y,-z
-x,-y,-z
x,1/2-y,z
loop_
_atom_site_type_symbol
_atom_site_label
_atom_site_fract_x
_atom_site_fract_y
_atom_site_fract_z
Si Si1 0.852572 0.060262 0.075294
Si Si2 0.018514 0.062057 0.428284
Si Si3 0.607021 0.065839 0.563774
Si Si4 0.538126 0.930404 0.912142
Si Si5 0.432590 0.931979 0.227973
Si Si6 0.308282 0.434700 0.735825
Si Si7 0.896590 0.438470 0.943207
O O1 0.853496 0.250000 0.078893
O O2 0.918957 0.006830 0.239598
O O3 0.703739 0.013175 0.896910
O O4 0.918573 0.014256 0.066149
O O5 0.010938 0.250000 0.423664
O O6 0.160477 0.021208 0.564280
O O7 0.000000 0.000000 0.500000
O O8 0.610307 0.250000 0.579525
O O9 0.751822 0.008920 0.749113
O O10 0.500000 0.000000 0.500000
O O11 0.551332 0.022369 0.407726
O O12 0.548611 0.750000 0.899676
O O13 0.572811 0.039628 0.876675
O O14 0.396241 0.969799 0.776845
O O15 0.631499 0.957471 0.101005
O O16 0.447017 0.750000 0.264493
O O17 0.319298 0.250000 0.729507
O O18 0.899213 0.250000 0.943470
O O19 0.000000 0.500000 0.000000
#
# Coordination Sequence:
#
# PCOD9161713 Si02
#       7
#     4   4   4   4   4   4   4
#     4   9  19  37  58  81 113 152 190 235 288 350
#     4  10  20  35  57  82 112 149 190 234 286 346
#     4  11  22  39  62  87 118 151 193 243 291 348
#     4  10  20  34  53  80 113 147 189 242 291 340
#     4  11  21  36  59  85 113 148 194 239 293 354
#     4   9  19  35  53  77 112 152 192 233 286 350
#     4  10  22  41  61  87 122 157 198 244 295 358
#
# _framework density 19.485585
#
# number of rings (size 3 to 8) (size 9 to 14) (size 15 to 20)
#    0.000    2.000    1.429    2.143    0.000    3.429 
#    0.000    2.857    0.000    0.000    0.000    0.000 
#    0.000    0.000    0.000    0.000    0.000    0.000 
#
# Total GULP energy -156294.365445 kJ/mol
# GULP energy per Si atom -5581.941623 kJ/mol
# Density = 1.944123 g / cm^3
# Si number density = 19.485585 Si / 1000 Ang^3
#
#
#
# Elastic Constant Matrix: (Units=GPa)
#
#
# Indices 1 2 3 4 5 6 
#
# 1 100.1464 15.1926 47.0722 0.0000 0.1099 0.0000
# 2 15.1926 14.2115 18.4048 0.0000 1.3750 0.0000
# 3 47.0722 18.4048 108.9268 0.0000 7.0467 0.0000
# 4 0.0000 0.0000 0.0000 23.0457 0.0000 -1.6655
# 5 0.1099 1.3750 7.0467 0.0000 24.5820 0.0000
# 6 0.0000 0.0000 0.0000 -1.6655 0.0000 35.4737
#
#
#
# Elastic Compliance Matrix: (Units=1/GPa)
#
#
# Indices 1 2 3 4 5 6 
#
# 1 0.013387 -0.008758 -0.004415 0.000000 0.001696 0.000000
# 2 -0.008758 0.095817 -0.012289 0.000000 -0.001797 0.000000
# 3 -0.004415 -0.012289 0.013367 0.000000 -0.003125 0.000000
# 4 0.000000 0.000000 0.000000 0.043540 0.000000 0.002044
# 5 0.001696 -0.001797 -0.003125 0.000000 0.041669 0.000000
# 6 0.000000 0.000000 0.000000 0.002044 0.000000 0.028286
#
#
# Mechanical properties :
#
#
# Convention : Reuss Voigt Hill
#
# Bulk Modulus (GPa) = 13.95716 42.73598 28.34657
# Shear Modulus (GPa) = 16.08380 26.12795 21.10587
#
# Velocity S-wave (km/s) = 2.87613 3.66578 3.29470
# Velocity P-wave (km/s) = 4.26707 6.31641 5.39003
#
# Compressibility (1/GPa) = 0.07164780
#
# Stress axis : x y z
#
# Youngs Moduli (GPa) = 74.69699 10.43659 74.81088
#
# Poissons Ratio (x) = 0.09140 0.33031
# Poissons Ratio (y) = 0.65417 0.91933
# Poissons Ratio (z) = 0.32981 0.12825
#
# Static dielectric constant tensor:
#      x y z
#    x 1.676070 0.000000 -0.018320 
#    y 0.000000 1.669530 0.000000 
#    z -0.018320 0.000000 1.698080 
# 
# From -- ./inp_files/54576.got.cif
#   From: 2010.05.17/outbox.cif.g08.bks.cpg/sg11_28_cif.got.tgz:54576.got - 2010.06.03 12:22:45.
