data_PCOD9161154
_publ_section_title
;
Structure prediction by ZEFSAII (Michael W. Deem and Ramdas Pophale) SiO2 
 PCOD9161154
Probable space group: P 21/M
;
_chemical_formula_sum "Si O2"
_cell_formula_units_Z 32
_cell_length_a 21.394905
_cell_length_b 8.672234
_cell_length_c 15.246930
_cell_angle_alpha 90.000000
_cell_angle_beta 137.324580
_cell_angle_gamma 90.000000
_cell_volume 1917.581021
_symmetry_space_group_name_H-M "P 21/M"
_symmetry_group_IT_number 11
_symmetry_cell_setting 'monoclinic'
loop_
_space_group_symop_operation_xyz
x,y,z
-x,1/2+y,-z
-x,-y,-z
x,1/2-y,z
loop_
_atom_site_type_symbol
_atom_site_label
_atom_site_fract_x
_atom_site_fract_y
_atom_site_fract_z
Si Si1 0.966687 0.932937 0.341969
Si Si2 0.192321 0.432106 0.702269
Si Si3 0.833595 0.433052 0.057444
Si Si4 0.885113 0.933452 0.627911
Si Si5 0.488405 0.562772 0.889198
Si Si6 0.285285 0.932131 0.628474
Si Si7 0.017029 0.565600 0.921980
Si Si8 0.324909 0.069003 0.008996
O O1 0.981559 0.750000 0.364841
O O2 0.907838 0.985609 0.366030
O O3 0.058071 0.013333 0.399940
O O4 0.894448 0.969779 0.189013
O O5 0.186638 0.250000 0.672614
O O6 0.236564 0.528055 0.670372
O O7 0.262172 0.443638 0.856614
O O8 0.846839 0.250000 0.088257
O O9 0.728873 0.478649 0.970204
O O10 0.881506 0.467487 0.013794
O O11 0.886090 0.750000 0.630017
O O12 0.941986 0.989242 0.771921
O O13 0.781178 0.992424 0.512138
O O14 0.489714 0.750000 0.895922
O O15 0.390563 0.513449 0.747427
O O16 0.574137 0.515126 0.916576
O O17 0.500000 0.500000 0.000000
O O18 0.286130 0.750000 0.615434
O O19 0.008590 0.750000 0.917693
O O20 0.000000 0.500000 0.000000
O O21 0.329020 0.250000 0.036486
#
# Coordination Sequence:
#
# PCOD9161154 Si02
#       8
#     4   4   4   4   4   4   4   4
#     4   9  17  30  47  66  91 125 164 200 238 282
#     4   9  17  29  45  64  90 126 164 204 247 283
#     4   9  17  29  46  73 103 127 157 194 237 289
#     4  10  21  36  50  68  97 128 158 195 239 290
#     4  10  20  33  48  69  95 127 173 219 253 287
#     4  11  22  32  46  68  93 127 169 208 247 287
#     4   9  19  34  54  79 102 125 152 187 234 293
#     4   9  17  30  47  67  95 130 168 209 249 285
#
# _framework density 16.687691000000001
#
# number of rings (size 3 to 8) (size 9 to 14) (size 15 to 20)
#    0.000    2.500    1.250    3.000    0.000    7.000 
#    0.000    0.000    0.000    0.000    0.000    0.875 
#    0.000    0.000    0.000    0.000    0.000    0.000 
#
# Total GULP energy -178344.292818 kJ/mol
# GULP energy per Si atom -5573.259151 kJ/mol
# Density = 1.664971 g / cm^3
# Si number density = 16.687691 Si / 1000 Ang^3
#
#
#
# Elastic Constant Matrix: (Units=GPa)
#
#
# Indices 1 2 3 4 5 6 
#
# 1 123.1084 22.8679 65.1773 0.0000 15.2029 0.0000
# 2 22.8679 24.0371 21.4384 0.0000 5.9529 0.0000
# 3 65.1773 21.4384 81.1000 0.0000 21.9929 0.0000
# 4 0.0000 0.0000 0.0000 19.1047 0.0000 -0.6689
# 5 15.2029 5.9529 21.9929 0.0000 33.5043 0.0000
# 6 0.0000 0.0000 0.0000 -0.6689 0.0000 26.2271
#
#
#
# Elastic Compliance Matrix: (Units=1/GPa)
#
#
# Indices 1 2 3 4 5 6 
#
# 1 0.014542 -0.004474 -0.010864 0.000000 0.001328 0.000000
# 2 -0.004474 0.055815 -0.010974 0.000000 -0.000684 0.000000
# 3 -0.010864 -0.010974 0.026882 0.000000 -0.010767 0.000000
# 4 0.000000 0.000000 0.000000 0.052390 0.000000 0.001336
# 5 0.001328 -0.000684 -0.010767 0.000000 0.036433 0.000000
# 6 0.000000 0.000000 0.000000 0.001336 0.000000 0.038163
#
#
# Mechanical properties :
#
#
# Convention : Reuss Voigt Hill
#
# Bulk Modulus (GPa) = 22.41360 49.69033 36.05196
# Shear Modulus (GPa) = 17.13971 23.68467 20.41219
#
# Velocity S-wave (km/s) = 3.20830 3.77143 3.50121
# Velocity P-wave (km/s) = 5.21389 6.98615 6.16404
#
# Compressibility (1/GPa) = 0.04461576
#
# Stress axis : x y z
#
# Youngs Moduli (GPa) = 68.76717 17.91632 37.19921
#
# Poissons Ratio (x) = 0.08015 0.40414
# Poissons Ratio (y) = 0.30764 0.40822
# Poissons Ratio (z) = 0.74711 0.19661
#
# Static dielectric constant tensor:
#      x y z
#    x 1.578130 0.000000 0.028400 
#    y 0.000000 1.568260 0.000000 
#    z 0.028400 0.000000 1.597960 
# 
# From -- ./inp_files/51177.got.cif
#   From: 2010.05.17/outbox.cif.g08.bks.cpg/sg11_26_cif.got.tgz:51177.got - 2010.06.03 12:22:45.
