data_PCOD9161904
_publ_section_title
;
Structure prediction by ZEFSAII (Michael W. Deem and Ramdas Pophale) SiO2 
 PCOD9161904
Probable space group: P 21/M
;
_chemical_formula_sum "Si O2"
_cell_formula_units_Z 32
_cell_length_a 16.527941
_cell_length_b 8.903111
_cell_length_c 12.424635
_cell_angle_alpha 90.000000
_cell_angle_beta 90.963364
_cell_angle_gamma 90.000000
_cell_volume 1828.027772
_symmetry_space_group_name_H-M "P 21/M"
_symmetry_group_IT_number 11
_symmetry_cell_setting 'monoclinic'
loop_
_space_group_symop_operation_xyz
x,y,z
-x,1/2+y,-z
-x,-y,-z
x,1/2-y,z
loop_
_atom_site_type_symbol
_atom_site_label
_atom_site_fract_x
_atom_site_fract_y
_atom_site_fract_z
Si Si1 0.382875 0.572234 0.763258
Si Si2 0.796417 0.930343 0.641332
Si Si3 0.765091 0.427720 0.074304
Si Si4 0.472119 0.929051 0.112685
Si Si5 0.874348 0.571550 0.250044
Si Si6 0.028623 0.569736 0.387739
Si Si7 0.703087 0.570886 0.859427
Si Si8 0.272575 0.428555 0.588535
O O1 0.398665 0.750000 0.761448
O O2 0.314669 0.543510 0.853725
O O3 0.462821 0.483418 0.798137
O O4 0.342802 0.516855 0.651658
O O5 0.809423 0.750000 0.635146
O O6 0.749226 0.963807 0.749798
O O7 0.744676 0.972574 0.534456
O O8 0.882774 0.010365 0.638144
O O9 0.769663 0.250000 0.055236
O O10 0.840483 0.483737 0.146762
O O11 0.753930 0.514936 0.963127
O O12 0.471459 0.750000 0.103267
O O13 0.383291 0.989595 0.137539
O O14 0.500000 0.000000 0.000000
O O15 0.873453 0.750000 0.227242
O O16 0.809982 0.545785 0.345363
O O17 0.962218 0.528090 0.295872
O O18 0.028246 0.750000 0.397097
O O19 0.000000 0.500000 0.500000
O O20 0.690966 0.750000 0.865868
O O21 0.289603 0.250000 0.593673
#
# Coordination Sequence:
#
# PCOD9161904 Si02
#       8
#     4   4   4   4   4   4   4   4
#     4  10  20  34  55  86 116 143 186 236 283 331
#     4  10  22  40  59  84 117 154 192 232 284 342
#     4  10  20  34  55  83 115 147 187 235 281 335
#     4  12  23  37  59  86 115 147 190 236 282 334
#     4   9  18  33  55  82 113 146 186 234 283 333
#     4  11  21  35  58  87 117 150 191 239 284 335
#     4  11  23  39  60  83 116 155 189 231 285 341
#     4   9  17  34  56  80 114 149 186 230 281 333
#
# _framework density 17.505206000000001
#
# number of rings (size 3 to 8) (size 9 to 14) (size 15 to 20)
#    0.000    1.750    2.500    2.625    0.000    3.500 
#    0.000    1.250    0.000    0.000    0.000    0.000 
#    0.000    0.000    0.000    0.000    0.000    0.000 
#
# Total GULP energy -178730.474969 kJ/mol
# GULP energy per Si atom -5585.327343 kJ/mol
# Density = 1.746536 g / cm^3
# Si number density = 17.505206 Si / 1000 Ang^3
#
#
#
# Elastic Constant Matrix: (Units=GPa)
#
#
# Indices 1 2 3 4 5 6 
#
# 1 115.1640 65.1931 77.9354 0.0000 16.3832 0.0000
# 2 65.1931 79.1222 73.3285 0.0000 4.2824 0.0000
# 3 77.9354 73.3285 138.0476 0.0000 18.7223 0.0000
# 4 0.0000 0.0000 0.0000 25.2107 0.0000 5.5776
# 5 16.3832 4.2824 18.7223 0.0000 26.7060 0.0000
# 6 0.0000 0.0000 0.0000 5.5776 0.0000 32.6170
#
#
#
# Elastic Compliance Matrix: (Units=1/GPa)
#
#
# Indices 1 2 3 4 5 6 
#
# 1 0.018701 -0.012111 -0.003129 0.000000 -0.007336 0.000000
# 2 -0.012111 0.033587 -0.012466 0.000000 0.010783 0.000000
# 3 -0.003129 -0.012466 0.016687 0.000000 -0.007780 0.000000
# 4 0.000000 0.000000 0.000000 0.041225 0.000000 -0.007050
# 5 -0.007336 0.010783 -0.007780 0.000000 0.045671 0.000000
# 6 0.000000 0.000000 0.000000 -0.007050 0.000000 0.031864
#
#
# Mechanical properties :
#
#
# Convention : Reuss Voigt Hill
#
# Bulk Modulus (GPa) = 73.73379 85.02755 79.38067
# Shear Modulus (GPa) = 20.18817 24.63184 22.41000
#
# Velocity S-wave (km/s) = 3.39966 3.75522 3.58186
# Velocity P-wave (km/s) = 7.59097 8.21465 7.90896
#
# Compressibility (1/GPa) = 0.01356230
#
# Stress axis : x y z
#
# Youngs Moduli (GPa) = 53.47386 29.77305 59.92541
#
# Poissons Ratio (x) = 0.36059 0.18752
# Poissons Ratio (y) = 0.64764 0.74703
# Poissons Ratio (z) = 0.16733 0.37115
#
# Static dielectric constant tensor:
#      x y z
#    x 1.575620 0.000000 0.012880 
#    y 0.000000 1.588060 0.000000 
#    z 0.012880 0.000000 1.583270 
# 
# From -- ./inp_files/38125.got.cif
#   From: 2010.05.17/outbox.cif.g08.bks.cpg/sg11_20_cif.got.tgz:38125.got - 2010.06.03 12:22:45.
