data_PCOD9161057
_publ_section_title
;
Structure prediction by ZEFSAII (Michael W. Deem and Ramdas Pophale) SiO2 
 PCOD9161057
Probable space group: P 21/M
;
_chemical_formula_sum "Si O2"
_cell_formula_units_Z 32
_cell_length_a 29.080371
_cell_length_b 8.860699
_cell_length_c 22.970318
_cell_angle_alpha 90.000000
_cell_angle_beta 18.403021
_cell_angle_gamma 90.000000
_cell_volume 1868.565100
_symmetry_space_group_name_H-M "P 21/M"
_symmetry_group_IT_number 11
_symmetry_cell_setting 'monoclinic'
loop_
_space_group_symop_operation_xyz
x,y,z
-x,1/2+y,-z
-x,-y,-z
x,1/2-y,z
loop_
_atom_site_type_symbol
_atom_site_label
_atom_site_fract_x
_atom_site_fract_y
_atom_site_fract_z
Si Si1 0.918363 0.430441 0.511879
Si Si2 0.778456 0.569478 0.793413
Si Si3 0.523561 0.567905 0.801625
Si Si4 0.430048 0.067802 0.496911
Si Si5 0.978642 0.931967 0.197630
Si Si6 0.822920 0.568595 0.504716
Si Si7 0.716312 0.930402 0.206394
Si Si8 0.317748 0.433536 0.506391
O O1 0.905221 0.250000 0.529603
O O2 0.818953 0.501613 0.681909
O O3 0.872270 0.491142 0.504556
O O4 0.085298 0.470490 0.328181
O O5 0.771422 0.750000 0.797719
O O6 0.626943 0.505189 0.998558
O O7 0.509589 0.750000 0.819061
O O8 0.658672 0.528792 0.681854
O O9 0.574535 0.521766 0.675470
O O10 0.443577 0.250000 0.479516
O O11 0.324963 0.028570 0.677301
O O12 0.368214 0.016000 0.509185
O O13 0.586614 0.997851 0.323152
O O14 0.990863 0.750000 0.180007
O O15 0.927482 0.970172 0.324651
O O16 0.845071 0.979659 0.316278
O O17 0.129277 0.005128 0.998319
O O18 0.827516 0.750000 0.506218
O O19 0.715915 0.750000 0.202413
O O20 0.317125 0.250000 0.507333
#
# Coordination Sequence:
#
# PCOD9161057 Si02
#       8
#     4   4   4   4   4   4   4   4
#     4  10  21  36  54  76 102 133 168 206 247 292
#     4  10  21  36  53  75 103 133 166 204 247 296
#     4   9  18  34  55  77 100 128 166 209 250 294
#     4   9  18  34  53  72  98 134 172 208 250 298
#     4   9  18  34  54  74  99 132 168 205 248 299
#     4   9  19  35  54  76 101 131 167 205 247 298
#     4  10  20  32  48  74 105 133 166 209 252 297
#     4   8  16  33  55  75  96 128 171 211 245 293
#
# _framework density 17.125440999999999
#
# number of rings (size 3 to 8) (size 9 to 14) (size 15 to 20)
#    0.000    2.750    0.000    2.625    0.000    5.000 
#    0.000    6.875    0.000    0.000    0.000    0.000 
#    0.000    0.000    0.000    0.000    0.000    0.000 
#
# Total GULP energy -178465.870887 kJ/mol
# GULP energy per Si atom -5577.058465 kJ/mol
# Density = 1.708646 g / cm^3
# Si number density = 17.125441 Si / 1000 Ang^3
#
#
#
# Elastic Constant Matrix: (Units=GPa)
#
#
# Indices 1 2 3 4 5 6 
#
# 1 216.5140 62.2906 133.7828 0.0000 0.8549 0.0000
# 2 62.2906 34.4775 65.4034 0.0000 -0.7105 0.0000
# 3 133.7828 65.4034 224.1744 0.0000 -4.7071 0.0000
# 4 0.0000 0.0000 0.0000 32.0767 0.0000 0.8333
# 5 0.8549 -0.7105 -4.7071 0.0000 5.7984 0.0000
# 6 0.0000 0.0000 0.0000 0.8333 0.0000 25.6371
#
#
#
# Elastic Compliance Matrix: (Units=1/GPa)
#
#
# Indices 1 2 3 4 5 6 
#
# 1 0.009971 -0.014863 -0.001713 0.000000 -0.004682 0.000000
# 2 -0.014863 0.087432 -0.016652 0.000000 -0.000613 0.000000
# 3 -0.001713 -0.016652 0.010482 0.000000 0.006722 0.000000
# 4 0.000000 0.000000 0.000000 0.031202 0.000000 -0.001014
# 5 -0.004682 -0.000613 0.006722 0.000000 0.178533 0.000000
# 6 0.000000 0.000000 0.000000 -0.001014 0.000000 0.039039
#
#
# Mechanical properties :
#
#
# Convention : Reuss Voigt Hill
#
# Bulk Modulus (GPa) = 24.13620 110.90219 67.51919
# Shear Modulus (GPa) = 11.44364 26.94837 19.19600
#
# Velocity S-wave (km/s) = 2.58781 3.97115 3.35163
# Velocity P-wave (km/s) = 4.80139 9.26963 7.38171
#
# Compressibility (1/GPa) = 0.04143155
#
# Stress axis : x y z
#
# Youngs Moduli (GPa) = 100.28656 11.43744 95.39870
#
# Poissons Ratio (x) = 0.16999 0.16340
# Poissons Ratio (y) = 1.49052 1.58855
# Poissons Ratio (z) = 0.17178 0.19045
#
# Static dielectric constant tensor:
#      x y z
#    x 1.569760 0.000000 0.000410 
#    y 0.000000 1.575810 0.000000 
#    z 0.000410 0.000000 1.551030 
# 
# From -- ./inp_files/66965.got.cif
#   From: 2010.05.17/outbox.cif.g08.bks.cpg/sg11_34_cif.got.tgz:66965.got - 2010.06.03 12:22:45.
