data_PCOD9161761
_publ_section_title
;
Structure prediction by ZEFSAII (Michael W. Deem and Ramdas Pophale) SiO2 
 PCOD9161761
Probable space group: P 21/M
;
_chemical_formula_sum "Si O2"
_cell_formula_units_Z 32
_cell_length_a 16.313151
_cell_length_b 8.957972
_cell_length_c 26.309432
_cell_angle_alpha 90.000000
_cell_angle_beta 151.347546
_cell_angle_gamma 90.000000
_cell_volume 1843.501588
_symmetry_space_group_name_H-M "P 21/M"
_symmetry_group_IT_number 11
_symmetry_cell_setting 'monoclinic'
loop_
_space_group_symop_operation_xyz
x,y,z
-x,1/2+y,-z
-x,-y,-z
x,1/2-y,z
loop_
_atom_site_type_symbol
_atom_site_label
_atom_site_fract_x
_atom_site_fract_y
_atom_site_fract_z
Si Si1 0.281276 0.071835 0.930201
Si Si2 0.233573 0.428846 0.589445
Si Si3 0.919809 0.071846 0.906368
Si Si4 0.587747 0.927825 0.596487
Si Si5 0.155397 0.927663 0.652370
Si Si6 0.982548 0.571294 0.833378
Si Si7 0.645341 0.571996 0.146708
Si Si8 0.524829 0.428303 0.668382
O O1 0.279056 0.250000 0.936326
O O2 0.279643 0.041371 0.868741
O O3 0.123737 0.996967 0.873214
O O4 0.459467 0.004567 0.047369
O O5 0.245189 0.250000 0.604345
O O6 0.241217 0.511545 0.647431
O O7 0.382389 0.473429 0.631641
O O8 0.046988 0.459412 0.463955
O O9 0.945629 0.250000 0.920040
O O10 0.715796 0.042626 0.792980
O O11 0.996566 0.999611 0.897059
O O12 0.000000 0.000000 0.000000
O O13 0.569427 0.750000 0.584772
O O14 0.790523 0.963284 0.709367
O O15 0.500000 0.000000 0.500000
O O16 0.508749 0.990504 0.605726
O O17 0.177618 0.750000 0.668413
O O18 0.235630 0.007194 0.744617
O O19 0.000121 0.750000 0.845987
O O20 0.626668 0.750000 0.141902
O O21 0.509307 0.250000 0.651734
#
# Coordination Sequence:
#
# PCOD9161761 Si02
#       8
#     4   4   4   4   4   4   4   4
#     4  10  21  37  57  81 107 138 178 221 264 312
#     4   9  19  36  55  76 105 140 178 221 269 317
#     4  10  20  35  55  78 107 141 179 224 270 320
#     4  10  21  36  55  79 108 141 177 218 263 314
#     4  10  20  34  54  79 107 139 177 221 265 315
#     4  10  21  37  56  79 108 142 178 218 267 319
#     4  10  21  37  56  78 108 142 175 216 265 318
#     4   9  19  36  56  77 103 138 178 220 267 315
#
# _framework density 17.358271999999999
#
# number of rings (size 3 to 8) (size 9 to 14) (size 15 to 20)
#    0.000    2.250    0.000    2.250    0.000    6.500 
#    0.000    7.500    0.000    0.000    0.000    0.000 
#    0.000    0.000    0.000    0.000    0.000    0.000 
#
# Total GULP energy -178660.640246 kJ/mol
# GULP energy per Si atom -5583.145008 kJ/mol
# Density = 1.731876 g / cm^3
# Si number density = 17.358272 Si / 1000 Ang^3
#
#
#
# Elastic Constant Matrix: (Units=GPa)
#
#
# Indices 1 2 3 4 5 6 
#
# 1 151.0322 70.9850 80.5388 0.0000 8.2678 0.0000
# 2 70.9850 69.3997 61.9800 0.0000 -8.1514 0.0000
# 3 80.5388 61.9800 95.5460 0.0000 -25.3285 0.0000
# 4 0.0000 0.0000 0.0000 32.9225 0.0000 -4.1887
# 5 8.2678 -8.1514 -25.3285 0.0000 30.7805 0.0000
# 6 0.0000 0.0000 0.0000 -4.1887 0.0000 34.6834
#
#
#
# Elastic Compliance Matrix: (Units=1/GPa)
#
#
# Indices 1 2 3 4 5 6 
#
# 1 0.022770 -0.007391 -0.021154 0.000000 -0.025480 0.000000
# 2 -0.007391 0.040356 -0.021218 0.000000 -0.004787 0.000000
# 3 -0.021154 -0.021218 0.053818 0.000000 0.044348 0.000000
# 4 0.000000 0.000000 0.000000 0.030848 0.000000 0.003726
# 5 -0.025480 -0.004787 0.044348 0.000000 0.074558 0.000000
# 6 0.000000 0.000000 0.000000 0.003726 0.000000 0.029282
#
#
# Mechanical properties :
#
#
# Convention : Reuss Voigt Hill
#
# Bulk Modulus (GPa) = 57.40937 82.55395 69.98166
# Shear Modulus (GPa) = 14.00706 26.50890 20.25798
#
# Velocity S-wave (km/s) = 2.84375 3.91213 3.41992
# Velocity P-wave (km/s) = 6.62779 8.25036 7.48318
#
# Compressibility (1/GPa) = 0.01741876
#
# Stress axis : x y z
#
# Youngs Moduli (GPa) = 43.91733 24.77961 18.58121
#
# Poissons Ratio (x) = 0.18314 0.39307
# Poissons Ratio (y) = 0.32458 0.39425
# Poissons Ratio (z) = 0.92903 0.52577
#
# Static dielectric constant tensor:
#      x y z
#    x 1.561050 0.000000 0.008310 
#    y 0.000000 1.576080 0.000000 
#    z 0.008310 0.000000 1.565320 
# 
# From -- ./inp_files/69019.got.cif
#   From: 2010.05.17/outbox.cif.g08.bks.cpg/sg11_35_cif.got.tgz:69019.got - 2010.06.03 12:22:45.
