data_PCOD9161308
_publ_section_title
;
Structure prediction by ZEFSAII (Michael W. Deem and Ramdas Pophale) SiO2 
 PCOD9161308
Probable space group: P 21/M
;
_chemical_formula_sum "Si O2"
_cell_formula_units_Z 28
_cell_length_a 9.018862
_cell_length_b 13.743829
_cell_length_c 21.263750
_cell_angle_alpha 90.000000
_cell_angle_beta 31.045962
_cell_angle_gamma 90.000000
_cell_volume 1359.308284
_symmetry_space_group_name_H-M "P 21/M"
_symmetry_group_IT_number 11
_symmetry_cell_setting 'monoclinic'
loop_
_space_group_symop_operation_xyz
x,y,z
-x,1/2+y,-z
-x,-y,-z
x,1/2-y,z
loop_
_atom_site_type_symbol
_atom_site_label
_atom_site_fract_x
_atom_site_fract_y
_atom_site_fract_z
Si Si1 0.052479 0.975201 0.216977
Si Si2 0.985517 0.140702 0.651377
Si Si3 0.591869 0.139463 0.675355
Si Si4 0.701638 0.367133 0.133316
Si Si5 0.640081 0.467995 0.536575
Si Si6 0.104788 0.138609 0.295394
Si Si7 0.005321 0.960017 0.094211
O O1 0.126383 0.890057 0.239366
O O2 0.702757 0.972405 0.342474
O O3 0.150518 0.968496 0.109655
O O4 0.146223 0.071344 0.219768
O O5 0.095039 0.250000 0.612706
O O6 0.732866 0.132237 0.692256
O O7 0.224618 0.067108 0.538405
O O8 0.636494 0.250000 0.635994
O O9 0.712855 0.062832 0.581242
O O10 0.258174 0.114885 0.802711
O O11 0.759452 0.250000 0.117195
O O12 0.355509 0.380661 0.256058
O O13 0.864560 0.435830 0.124664
O O14 0.804029 0.414265 0.030083
O O15 0.796410 0.387704 0.436760
O O16 0.126302 0.250000 0.270080
#
# Coordination Sequence:
#
# PCOD9161308 Si02
#       7
#     4   4   4   4   4   4   4
#     4  10  22  35  54  81 109 145 180 221 273 324
#     4  10  20  33  51  78 111 144 180 222 270 325
#     4  10  20  35  57  81 106 143 186 226 269 316
#     4  10  22  39  60  82 106 142 183 225 274 325
#     4  10  20  35  53  79 111 146 185 223 269 320
#     4  10  20  36  56  81 115 148 180 222 274 327
#     4  10  21  39  60  81 109 140 181 231 269 321
#
# _framework density 20.598713
#
# number of rings (size 3 to 8) (size 9 to 14) (size 15 to 20)
#    0.000    2.000    0.000    4.714    0.000    7.429 
#    0.000    5.000    0.000    3.429    0.000    0.000 
#    0.000    0.000    0.000    0.000    0.000    0.000 
#
# Total GULP energy -156244.051025 kJ/mol
# GULP energy per Si atom -5580.144679 kJ/mol
# Density = 2.055183 g / cm^3
# Si number density = 20.598713 Si / 1000 Ang^3
#
#
#
# Elastic Constant Matrix: (Units=GPa)
#
#
# Indices 1 2 3 4 5 6 
#
# 1 108.3031 44.9116 12.9524 0.0000 24.6160 0.0000
# 2 44.9116 114.7484 3.1271 0.0000 6.3865 0.0000
# 3 12.9524 3.1271 24.7044 0.0000 8.7953 0.0000
# 4 0.0000 0.0000 0.0000 -7.7667 0.0000 -58.7717
# 5 24.6160 6.3865 8.7953 0.0000 31.1940 0.0000
# 6 0.0000 0.0000 0.0000 -58.7717 0.0000 -102.5093
#
#
#
# Elastic Compliance Matrix: (Units=1/GPa)
#
#
# Indices 1 2 3 4 5 6 
#
# 1 0.013609 -0.004744 -0.003398 0.000000 -0.008810 0.000000
# 2 -0.004744 0.010475 0.000658 0.000000 0.001413 0.000000
# 3 -0.003398 0.000658 0.045875 0.000000 -0.010388 0.000000
# 4 0.000000 0.000000 0.000000 0.038567 0.000000 -0.022112
# 5 -0.008810 0.001413 -0.010388 0.000000 0.041649 0.000000
# 6 0.000000 0.000000 0.000000 -0.022112 0.000000 0.002922
#
#
# Mechanical properties :
#
#
# Convention : Reuss Voigt Hill
#
# Bulk Modulus (GPa) = 18.18461 41.08201 29.63331
# Shear Modulus (GPa) = 26.82462 -3.36542 11.72960
#
# Velocity S-wave (km/s) = 3.61258 -1.27959 2.38887
# Velocity P-wave (km/s) = 5.12330 4.21949 4.69320
#
# Compressibility (1/GPa) = 0.05499156
#
# Stress axis : x y z
#
# Youngs Moduli (GPa) = 73.47925 95.46772 21.79825
#
# Poissons Ratio (x) = 0.45286 0.07408
# Poissons Ratio (y) = 0.34856 -0.01434
# Poissons Ratio (z) = 0.24970 -0.06282
#
# Static dielectric constant tensor:
#      x y z
#    x 1.778100 0.000000 -0.004150 
#    y 0.000000 1.736550 0.000000 
#    z -0.004150 0.000000 1.746310 
# 
# From -- ./inp_files/63867.got.cif
#   From: 2010.05.17/outbox.cif.g08.bks.cpg/sg11_32_cif.got.tgz:63867.got - 2010.06.03 12:22:45.
