data_PCOD9161287
_publ_section_title
;
Structure prediction by ZEFSAII (Michael W. Deem and Ramdas Pophale) SiO2 
 PCOD9161287
Probable space group: P 21/M
;
_chemical_formula_sum "Si O2"
_cell_formula_units_Z 24
_cell_length_a 10.759665
_cell_length_b 9.897588
_cell_length_c 20.185701
_cell_angle_alpha 90.000000
_cell_angle_beta 31.844404
_cell_angle_gamma 90.000000
_cell_volume 1134.197057
_symmetry_space_group_name_H-M "P 21/M"
_symmetry_group_IT_number 11
_symmetry_cell_setting 'monoclinic'
loop_
_space_group_symop_operation_xyz
x,y,z
-x,1/2+y,-z
-x,-y,-z
x,1/2-y,z
loop_
_atom_site_type_symbol
_atom_site_label
_atom_site_fract_x
_atom_site_fract_y
_atom_site_fract_z
Si Si1 0.076928 0.025794 0.568956
Si Si2 0.346175 0.100488 0.318583
Si Si3 0.223036 0.913542 0.799841
Si Si4 0.220684 0.599267 0.177153
Si Si5 0.252653 0.408473 0.038768
Si Si6 0.515883 0.593225 0.427576
O O1 0.988322 0.096262 0.675537
O O2 0.227400 0.104260 0.445783
O O3 0.837637 0.982602 0.640961
O O4 0.256089 0.909703 0.511498
O O5 0.357893 0.250000 0.284544
O O6 0.610806 0.051381 0.213054
O O7 0.260117 0.750000 0.771360
O O8 0.942902 0.936098 0.928430
O O9 0.317354 0.009469 0.698102
O O10 0.240676 0.750000 0.139821
O O11 0.190626 0.493776 0.132034
O O12 0.471390 0.566894 0.099169
O O13 0.230445 0.250000 0.064615
O O14 0.500000 0.500000 0.500000
O O15 0.585273 0.750000 0.407241
#
# Coordination Sequence:
#
# PCOD9161287 Si02
#       6
#     4   4   4   4   4   4
#     4  10  20  33  51  76 104 135 171 213 255 303
#     4   9  18  33  52  73  99 135 173 209 255 307
#     4   9  18  34  54  74 100 133 169 211 257 304
#     4  10  20  34  54  78 105 138 173 211 256 306
#     4   9  19  35  54  78 106 135 170 213 259 305
#     4  11  22  33  49  75 105 135 168 210 259 308
#
# _framework density 21.160345
#
# number of rings (size 3 to 8) (size 9 to 14) (size 15 to 20)
#    0.000    2.333    0.000    2.500    0.000    6.667 
#    0.000    1.667    0.000    0.000    0.000    0.000 
#    0.000    0.000    0.000    0.000    0.000    0.000 
#
# Total GULP energy -133693.871289 kJ/mol
# GULP energy per Si atom -5570.577970 kJ/mol
# Density = 2.111218 g / cm^3
# Si number density = 21.160345 Si / 1000 Ang^3
#
#
#
# Elastic Constant Matrix: (Units=GPa)
#
#
# Indices 1 2 3 4 5 6 
#
# 1 71.1472 20.3078 33.4613 0.0000 -41.1639 0.0000
# 2 20.3078 59.3651 17.2156 0.0000 -5.4302 0.0000
# 3 33.4613 17.2156 68.2615 0.0000 -20.2634 0.0000
# 4 0.0000 0.0000 0.0000 12.8920 0.0000 -12.1686
# 5 -41.1639 -5.4302 -20.2634 0.0000 48.9304 0.0000
# 6 0.0000 0.0000 0.0000 -12.1686 0.0000 9.7727
#
#
#
# Elastic Compliance Matrix: (Units=1/GPa)
#
#
# Indices 1 2 3 4 5 6 
#
# 1 0.033834 -0.007155 -0.007487 0.000000 0.024569 0.000000
# 2 -0.007155 0.019688 -0.002960 0.000000 -0.005061 0.000000
# 3 -0.007487 -0.002960 0.019496 0.000000 0.001446 0.000000
# 4 0.000000 0.000000 0.000000 -0.442510 0.000000 -0.550995
# 5 0.024569 -0.005061 0.001446 0.000000 0.041144 0.000000
# 6 0.000000 0.000000 0.000000 -0.550995 0.000000 -0.583752
#
#
# Mechanical properties :
#
#
# Convention : Reuss Voigt Hill
#
# Bulk Modulus (GPa) = 26.44644 37.86037 32.15340
# Shear Modulus (GPa) = -5.78510 22.83828 8.52659
#
# Velocity S-wave (km/s) = -1.65525 3.28883 2.00954
# Velocity P-wave (km/s) = 2.97860 5.68796 4.54009
#
# Compressibility (1/GPa) = 0.03781228
#
# Stress axis : x y z
#
# Youngs Moduli (GPa) = 29.55592 50.79187 51.29354
#
# Poissons Ratio (x) = 0.36344 0.38405
# Poissons Ratio (y) = 0.21149 0.15183
# Poissons Ratio (z) = 0.22129 0.15035
#
# Static dielectric constant tensor:
#      x y z
#    x 1.797090 0.000000 -0.051870 
#    y 0.000000 1.684390 0.000000 
#    z -0.051870 0.000000 1.771350 
# 
# From -- ./inp_files/68373.got.cif
#   From: 2010.05.17/outbox.cif.g08.bks.cpg/sg11_35_cif.got.tgz:68373.got - 2010.06.03 12:22:45.
