data_PCOD9161980
_publ_section_title
;
Structure prediction by ZEFSAII (Michael W. Deem and Ramdas Pophale) SiO2 
 PCOD9161980
Probable space group: P 21/M
;
_chemical_formula_sum "Si O2"
_cell_formula_units_Z 32
_cell_length_a 11.721065
_cell_length_b 14.499766
_cell_length_c 15.915803
_cell_angle_alpha 90.000000
_cell_angle_beta 37.799004
_cell_angle_gamma 90.000000
_cell_volume 1657.835783
_symmetry_space_group_name_H-M "P 21/M"
_symmetry_group_IT_number 11
_symmetry_cell_setting 'monoclinic'
loop_
_space_group_symop_operation_xyz
x,y,z
-x,1/2+y,-z
-x,-y,-z
x,1/2-y,z
loop_
_atom_site_type_symbol
_atom_site_label
_atom_site_fract_x
_atom_site_fract_y
_atom_site_fract_z
Si Si1 0.822904 0.141290 0.630430
Si Si2 0.464023 0.354722 0.266192
Si Si3 0.144116 0.036218 0.847768
Si Si4 0.441776 0.945926 0.344473
Si Si5 0.843169 0.855026 0.696211
Si Si6 0.712193 0.026879 0.401454
Si Si7 0.910751 0.464693 0.750233
Si Si8 0.167971 0.645753 0.049516
O O1 0.801079 0.250000 0.656247
O O2 0.644837 0.098130 0.687925
O O3 0.871510 0.091675 0.688743
O O4 0.991849 0.126625 0.466620
O O5 0.431227 0.250000 0.318706
O O6 0.417971 0.442424 0.350565
O O7 0.342133 0.362855 0.252235
O O8 0.677488 0.363213 0.112654
O O9 0.339023 0.068451 0.772641
O O10 0.033553 0.120010 0.869109
O O11 0.194350 0.960845 0.745250
O O12 0.000000 0.000000 0.000000
O O13 0.333150 0.909412 0.490900
O O14 0.859032 0.750000 0.717410
O O15 0.858453 0.930215 0.759682
O O16 0.500000 0.000000 0.500000
O O17 0.871637 0.961724 0.350002
O O18 0.797413 0.423523 0.893993
O O19 0.174354 0.750000 0.077483
#
# Coordination Sequence:
#
# PCOD9161980 Si02
#       8
#     4   4   4   4   4   4   4   4
#     4  11  22  35  57  89 121 157 199 248 302 363
#     4  10  20  35  57  87 118 154 200 245 297 359
#     4  10  20  37  61  86 116 158 200 242 306 360
#     4  11  19  37  61  85 121 157 199 246 306 352
#     4  10  20  34  56  85 116 154 196 240 296 358
#     4   9  20  34  59  89 113 150 200 243 289 358
#     4  11  19  36  60  80 122 159 196 243 306 348
#     4  10  22  38  58  86 119 158 203 250 296 360
#
# _framework density 19.302273
#
# number of rings (size 3 to 8) (size 9 to 14) (size 15 to 20)
#    0.000    1.750    3.750    1.500    0.000    1.000 
#    0.000    2.500    0.000   15.750    0.000    0.000 
#    0.000    0.000    0.000    0.000    0.000    0.000 
#
# Total GULP energy -178159.404874 kJ/mol
# GULP energy per Si atom -5567.481402 kJ/mol
# Density = 1.925834 g / cm^3
# Si number density = 19.302273 Si / 1000 Ang^3
#
#
#
# Elastic Constant Matrix: (Units=GPa)
#
#
# Indices 1 2 3 4 5 6 
#
# 1 115.6175 13.0447 21.1086 0.0000 -6.6277 0.0000
# 2 13.0447 66.6087 11.4303 0.0000 5.2107 0.0000
# 3 21.1086 11.4303 80.5875 0.0000 0.2005 0.0000
# 4 0.0000 0.0000 0.0000 20.7145 0.0000 0.4198
# 5 -6.6277 5.2107 0.2005 0.0000 29.2422 0.0000
# 6 0.0000 0.0000 0.0000 0.4198 0.0000 12.0134
#
#
#
# Elastic Compliance Matrix: (Units=1/GPa)
#
#
# Indices 1 2 3 4 5 6 
#
# 1 0.009382 -0.001645 -0.002230 0.000000 0.002435 0.000000
# 2 -0.001645 0.015897 -0.001816 0.000000 -0.003193 0.000000
# 3 -0.002230 -0.001816 0.013251 0.000000 -0.000273 0.000000
# 4 0.000000 0.000000 0.000000 0.048310 0.000000 -0.001688
# 5 0.002435 -0.003193 -0.000273 0.000000 0.035320 0.000000
# 6 0.000000 0.000000 0.000000 -0.001688 0.000000 0.083300
#
#
# Mechanical properties :
#
#
# Convention : Reuss Voigt Hill
#
# Bulk Modulus (GPa) = 36.83599 39.33120 38.08359
# Shear Modulus (GPa) = 22.13471 26.87602 24.50537
#
# Velocity S-wave (km/s) = 3.39003 3.73550 3.56695
# Velocity P-wave (km/s) = 5.86926 6.24708 6.06112
#
# Compressibility (1/GPa) = 0.02714737
#
# Stress axis : x y z
#
# Youngs Moduli (GPa) = 106.59235 62.90646 75.46462
#
# Poissons Ratio (x) = 0.10348 0.16829
# Poissons Ratio (y) = 0.17535 0.13703
# Poissons Ratio (z) = 0.23771 0.11423
#
# Static dielectric constant tensor:
#      x y z
#    x 1.701370 0.000000 0.009270 
#    y 0.000000 1.690640 0.000000 
#    z 0.009270 0.000000 1.698020 
# 
# From -- ./inp_files/50358.got.cif
#   From: 2010.05.17/outbox.cif.g08.bks.cpg/sg11_26_cif.got.tgz:50358.got - 2010.06.03 12:22:45.
