data_PCOD9161046
_publ_section_title
;
Structure prediction by ZEFSAII (Michael W. Deem and Ramdas Pophale) SiO2 
 PCOD9161046
Probable space group: P 21/M
;
_chemical_formula_sum "Si O2"
_cell_formula_units_Z 30
_cell_length_a 17.418697
_cell_length_b 7.334238
_cell_length_c 10.172947
_cell_angle_alpha 90.000000
_cell_angle_beta 67.604567
_cell_angle_gamma 90.000000
_cell_volume 1201.600919
_symmetry_space_group_name_H-M "P 21/M"
_symmetry_group_IT_number 11
_symmetry_cell_setting 'monoclinic'
loop_
_space_group_symop_operation_xyz
x,y,z
-x,1/2+y,-z
-x,-y,-z
x,1/2-y,z
loop_
_atom_site_type_symbol
_atom_site_label
_atom_site_fract_x
_atom_site_fract_y
_atom_site_fract_z
Si Si1 0.115434 0.029050 0.421223
Si Si2 0.020007 0.458730 0.719155
Si Si3 0.540321 0.969927 0.653043
Si Si4 0.883802 0.539448 0.015204
Si Si5 0.407953 0.466733 0.106876
Si Si6 0.786385 0.250000 0.202441
Si Si7 0.759769 0.970830 0.870312
Si Si8 0.635107 0.961684 0.325500
O O1 0.109649 0.250000 0.428042
O O2 0.202356 0.982036 0.296757
O O3 0.095517 0.962405 0.581232
O O4 0.049528 0.964645 0.353843
O O5 0.039679 0.250000 0.738817
O O6 0.970550 0.530259 0.878481
O O7 0.537182 0.750000 0.655571
O O8 0.592032 0.034333 0.744250
O O9 0.588955 0.022894 0.490087
O O10 0.444451 0.032019 0.720439
O O11 0.868021 0.750000 0.053957
O O12 0.818139 0.461830 0.948559
O O13 0.860532 0.409649 0.149519
O O14 0.394612 0.250000 0.120278
O O15 0.333899 0.537428 0.065354
O O16 0.500000 0.500000 0.000000
O O17 0.712775 0.409699 0.249535
O O18 0.764422 0.750000 0.879489
O O19 0.661457 0.750000 0.317591
#
# Coordination Sequence:
#
# PCOD9161046 Si02
#       8
#     4   4   4   4   4   2   4   4
#     4   8  14  24  42  61  91 132 176 212 244 295
#     4   9  14  24  40  65  93 133 172 204 250 296
#     4   9  19  37  54  74  99 132 174 219 256 304
#     4  10  20  32  48  71 108 140 169 208 252 308
#     4  10  21  34  50  71 103 139 175 211 253 300
#     4  12  22  34  52  78 100 132 170 212 262 316
#     4   8  16  31  46  68  98 138 177 211 249 300
#     4  10  21  36  57  76  98 130 172 219 263 298
#
# _framework density 24.966688999999999
#
# number of rings (size 3 to 8) (size 9 to 14) (size 15 to 20)
#    0.000    2.667    1.333    1.600    2.800    1.067 
#    0.000    0.000    0.000    0.000    0.000    0.000 
#    0.000    1.067    1.867    0.400    0.000    0.267 
#
# Total GULP energy -167035.570595 kJ/mol
# GULP energy per Si atom -5567.852353 kJ/mol
# Density = 2.490986 g / cm^3
# Si number density = 24.966689 Si / 1000 Ang^3
#
#
#
# Elastic Constant Matrix: (Units=GPa)
#
#
# Indices 1 2 3 4 5 6 
#
# 1 100.8220 -7.6469 34.6708 0.0000 -18.5161 0.0000
# 2 -7.6469 152.1149 10.8218 0.0000 -12.9410 0.0000
# 3 34.6708 10.8218 109.9592 0.0000 -14.9227 0.0000
# 4 0.0000 0.0000 0.0000 12.1012 0.0000 -6.0663
# 5 -18.5161 -12.9410 -14.9227 0.0000 40.8288 0.0000
# 6 0.0000 0.0000 0.0000 -6.0663 0.0000 -5.7685
#
#
#
# Elastic Compliance Matrix: (Units=1/GPa)
#
#
# Indices 1 2 3 4 5 6 
#
# 1 0.011987 0.001229 -0.003272 0.000000 0.004630 0.000000
# 2 0.001229 0.006898 -0.000730 0.000000 0.002477 0.000000
# 3 -0.003272 -0.000730 0.010485 0.000000 0.002117 0.000000
# 4 0.000000 0.000000 0.000000 0.054111 0.000000 -0.056904
# 5 0.004630 0.002477 0.002117 0.000000 0.028151 0.000000
# 6 0.000000 0.000000 0.000000 -0.056904 0.000000 -0.113513
#
#
# Mechanical properties :
#
#
# Convention : Reuss Voigt Hill
#
# Bulk Modulus (GPa) = 41.97412 48.73194 45.35303
# Shear Modulus (GPa) = 430.76300 31.10234 230.93267
#
# Velocity S-wave (km/s) = 13.14951 3.53335 9.62793
# Velocity P-wave (km/s) = 15.72879 6.01725 11.90802
#
# Compressibility (1/GPa) = 0.02382421
#
# Stress axis : x y z
#
# Youngs Moduli (GPa) = 83.42178 144.95972 95.37240
#
# Poissons Ratio (x) = -0.17820 0.31209
# Poissons Ratio (y) = -0.10255 0.06966
# Poissons Ratio (z) = 0.27298 0.10587
#
# Static dielectric constant tensor:
#      x y z
#    x 2.051860 0.000000 0.053990 
#    y 0.000000 1.973420 0.000000 
#    z 0.053990 0.000000 2.068690 
# 
# From -- ./inp_files/40932.got.cif
#   From: 2010.05.17/outbox.cif.g08.bks.cpg/sg11_21_cif.got.tgz:40932.got - 2010.06.03 12:22:45.
