data_PCOD9161365
_publ_section_title
;
Structure prediction by ZEFSAII (Michael W. Deem and Ramdas Pophale) SiO2 
 PCOD9161365
Probable space group: P 21/M
;
_chemical_formula_sum "Si O2"
_cell_formula_units_Z 28
_cell_length_a 18.827698
_cell_length_b 9.017370
_cell_length_c 15.482278
_cell_angle_alpha 90.000000
_cell_angle_beta 141.612573
_cell_angle_gamma 90.000000
_cell_volume 1632.249877
_symmetry_space_group_name_H-M "P 21/M"
_symmetry_group_IT_number 11
_symmetry_cell_setting 'monoclinic'
loop_
_space_group_symop_operation_xyz
x,y,z
-x,1/2+y,-z
-x,-y,-z
x,1/2-y,z
loop_
_atom_site_type_symbol
_atom_site_label
_atom_site_fract_x
_atom_site_fract_y
_atom_site_fract_z
Si Si1 0.226130 0.427377 0.406603
Si Si2 0.259938 0.575543 0.112686
Si Si3 0.380949 0.575703 0.410842
Si Si4 0.670686 0.072931 0.333326
Si Si5 0.623312 0.072470 0.098994
Si Si6 0.401673 0.426926 0.098880
Si Si7 0.992852 0.071309 0.087813
O O1 0.235665 0.250000 0.414219
O O2 0.321578 0.497786 0.435120
O O3 0.249104 0.488123 0.523901
O O4 0.102846 0.469425 0.249649
O O5 0.269736 0.750000 0.099295
O O6 0.300017 0.560309 0.249932
O O7 0.341268 0.483334 0.127579
O O8 0.127421 0.529450 0.982925
O O9 0.500000 0.500000 0.500000
O O10 0.397408 0.750000 0.444409
O O11 0.681229 0.250000 0.355903
O O12 0.692654 0.040589 0.252977
O O13 0.537211 0.033839 0.226118
O O14 0.612635 0.250000 0.081523
O O15 0.500000 0.000000 0.000000
O O16 0.658274 0.003127 0.041134
O O17 0.394692 0.250000 0.084206
O O18 0.991836 0.250000 0.076766
O O19 0.000000 0.000000 0.000000
#
# Coordination Sequence:
#
# PCOD9161365 Si02
#       7
#     4   4   4   4   4   4   4
#     4  11  22  34  53  78 104 135 174 219 262 307
#     4  10  21  36  53  73 101 138 175 214 261 309
#     4  11  22  35  52  74 104 139 171 210 260 312
#     4   9  19  34  52  77 109 141 172 207 257 314
#     4   9  17  31  52  77 106 140 173 210 255 309
#     4  10  20  33  52  80 109 138 172 213 260 312
#     4  10  21  38  56  75  99 134 181 224 262 307
#
# _framework density 17.154236999999998
#
# number of rings (size 3 to 8) (size 9 to 14) (size 15 to 20)
#    0.000    2.000    1.429    3.429    0.000    8.000 
#    0.000    0.000    0.000    0.857    0.000    0.000 
#    0.000    0.000    0.000    0.000    0.000    0.000 
#
# Total GULP energy -156243.096723 kJ/mol
# GULP energy per Si atom -5580.110597 kJ/mol
# Density = 1.711519 g / cm^3
# Si number density = 17.154237 Si / 1000 Ang^3
#
#
#
# Elastic Constant Matrix: (Units=GPa)
#
#
# Indices 1 2 3 4 5 6 
#
# 1 12.0811 9.8573 7.9922 0.0000 -9.3833 0.0000
# 2 9.8573 46.2019 40.7982 0.0000 -10.9887 0.0000
# 3 7.9922 40.7982 100.1082 0.0000 -9.2437 0.0000
# 4 0.0000 0.0000 0.0000 26.9757 0.0000 -7.7201
# 5 -9.3833 -10.9887 -9.2437 0.0000 30.8483 0.0000
# 6 0.0000 0.0000 0.0000 -7.7201 0.0000 29.5250
#
#
#
# Elastic Compliance Matrix: (Units=1/GPa)
#
#
# Indices 1 2 3 4 5 6 
#
# 1 0.121689 -0.019754 0.001135 0.000000 0.030318 0.000000
# 2 -0.019754 0.039131 -0.014026 0.000000 0.003728 0.000000
# 3 0.001135 -0.014026 0.015617 0.000000 0.000029 0.000000
# 4 0.000000 0.000000 0.000000 0.040069 0.000000 0.010477
# 5 0.030318 0.003728 0.000029 0.000000 0.042975 0.000000
# 6 0.000000 0.000000 0.000000 0.010477 0.000000 0.036609
#
#
# Mechanical properties :
#
#
# Convention : Reuss Voigt Hill
#
# Bulk Modulus (GPa) = 8.99712 30.63185 19.81449
# Shear Modulus (GPa) = 12.54926 24.11937 18.33431
#
# Velocity S-wave (km/s) = 2.70766 3.75377 3.27279
# Velocity P-wave (km/s) = 3.87704 6.05667 5.08501
#
# Compressibility (1/GPa) = 0.11114662
#
# Stress axis : x y z
#
# Youngs Moduli (GPa) = 8.21769 25.55516 64.03078
#
# Poissons Ratio (x) = 0.50482 -0.07267
# Poissons Ratio (y) = 0.16233 0.89811
# Poissons Ratio (z) = -0.00933 0.35844
#
# Static dielectric constant tensor:
#      x y z
#    x 1.568700 0.000000 -0.013940 
#    y 0.000000 1.572050 0.000000 
#    z -0.013940 0.000000 1.596950 
# 
# From -- ./inp_files/53219.got.cif
#   From: 2010.05.17/outbox.cif.g08.bks.cpg/sg11_27_cif.got.tgz:53219.got - 2010.06.03 12:22:45.
