data_PCOD9161242
_publ_section_title
;
Structure prediction by ZEFSAII (Michael W. Deem and Ramdas Pophale) SiO2 
 PCOD9161242
Probable space group: P 21/M
;
_chemical_formula_sum "Si O2"
_cell_formula_units_Z 32
_cell_length_a 12.622377
_cell_length_b 8.957226
_cell_length_c 33.098127
_cell_angle_alpha 90.000000
_cell_angle_beta 27.011807
_cell_angle_gamma 90.000000
_cell_volume 1699.575502
_symmetry_space_group_name_H-M "P 21/M"
_symmetry_group_IT_number 11
_symmetry_cell_setting 'monoclinic'
loop_
_space_group_symop_operation_xyz
x,y,z
-x,1/2+y,-z
-x,-y,-z
x,1/2-y,z
loop_
_atom_site_type_symbol
_atom_site_label
_atom_site_fract_x
_atom_site_fract_y
_atom_site_fract_z
Si Si1 0.143846 0.570271 0.125223
Si Si2 0.597743 0.083988 0.233622
Si Si3 0.628183 0.081778 0.807814
Si Si4 0.878996 0.918501 0.654469
Si Si5 0.512319 0.428112 0.061095
Si Si6 0.161695 0.081930 0.913496
Si Si7 0.599698 0.924899 0.313077
Si Si8 0.867218 0.927786 0.505918
O O1 0.168552 0.750000 0.121701
O O2 0.305139 0.485887 0.102480
O O3 0.872385 0.533494 0.224367
O O4 0.251295 0.534348 0.044366
O O5 0.640466 0.250000 0.236266
O O6 0.372128 0.094823 0.282072
O O7 0.807384 0.023150 0.135472
O O8 0.548272 0.960495 0.283797
O O9 0.705465 0.250000 0.791620
O O10 0.412020 0.093204 0.850245
O O11 0.827212 0.993318 0.715419
O O12 0.529476 0.002388 0.881302
O O13 0.973370 0.750000 0.626551
O O14 0.024750 0.014643 0.572860
O O15 0.503930 0.250000 0.068443
O O16 0.082190 0.250000 0.930288
O O17 0.000000 0.000000 0.000000
O O18 0.572071 0.750000 0.331500
O O19 0.402405 0.020144 0.402244
O O20 0.886358 0.750000 0.503293
O O21 0.000000 0.000000 0.500000
#
# Coordination Sequence:
#
# PCOD9161242 Si02
#       8
#     4   4   4   4   4   4   4   4
#     4   9  21  39  58  84 114 147 187 234 284 335
#     4  10  20  33  50  74 107 145 186 227 272 324
#     4  10  21  36  55  80 109 146 186 229 279 336
#     4  10  20  36  56  80 110 146 188 232 273 328
#     4  10  20  37  61  86 111 146 188 235 285 336
#     4  10  21  34  48  71 105 145 186 227 273 326
#     4  11  22  36  56  82 113 150 188 232 282 334
#     4  12  23  36  56  82 114 153 192 233 281 335
#
# _framework density 18.828232
#
# number of rings (size 3 to 8) (size 9 to 14) (size 15 to 20)
#    0.000    1.750    1.250    3.375    1.750    4.000 
#    0.000    0.000    0.000    0.750    0.000    0.000 
#    0.000    0.000    0.000    0.000    0.000    0.000 
#
# Total GULP energy -178498.081222 kJ/mol
# GULP energy per Si atom -5578.065038 kJ/mol
# Density = 1.878538 g / cm^3
# Si number density = 18.828232 Si / 1000 Ang^3
#
#
#
# Elastic Constant Matrix: (Units=GPa)
#
#
# Indices 1 2 3 4 5 6 
#
# 1 39.7405 22.9466 14.1013 0.0000 1.0988 0.0000
# 2 22.9466 114.4124 64.1192 0.0000 -1.3760 0.0000
# 3 14.1013 64.1192 118.7519 0.0000 4.2565 0.0000
# 4 0.0000 0.0000 0.0000 29.1062 0.0000 4.6216
# 5 1.0988 -1.3760 4.2565 0.0000 23.7226 0.0000
# 6 0.0000 0.0000 0.0000 4.6216 0.0000 23.8358
#
#
#
# Elastic Compliance Matrix: (Units=1/GPa)
#
#
# Indices 1 2 3 4 5 6 
#
# 1 0.028533 -0.005556 -0.000332 0.000000 -0.001584 0.000000
# 2 -0.005556 0.013705 -0.006822 0.000000 0.002276 0.000000
# 3 -0.000332 -0.006822 0.012236 0.000000 -0.002576 0.000000
# 4 0.000000 0.000000 0.000000 0.035448 0.000000 -0.006873
# 5 -0.001584 0.002276 -0.002576 0.000000 0.042822 0.000000
# 6 0.000000 0.000000 0.000000 -0.006873 0.000000 0.043286
#
#
# Mechanical properties :
#
#
# Convention : Reuss Voigt Hill
#
# Bulk Modulus (GPa) = 34.41696 52.80434 43.61065
# Shear Modulus (GPa) = 23.68173 26.78209 25.23191
#
# Velocity S-wave (km/s) = 3.55036 3.77562 3.66472
# Velocity P-wave (km/s) = 5.92671 6.86391 6.41246
#
# Compressibility (1/GPa) = 0.02905544
#
# Stress axis : x y z
#
# Youngs Moduli (GPa) = 35.04755 72.96583 81.72608
#
# Poissons Ratio (x) = 0.40538 0.02710
# Poissons Ratio (y) = 0.19472 0.55752
# Poissons Ratio (z) = 0.01162 0.49776
#
# Static dielectric constant tensor:
#      x y z
#    x 1.652500 0.000000 0.025710 
#    y 0.000000 1.666760 0.000000 
#    z 0.025710 0.000000 1.826970 
# 
# From -- ./inp_files/65195.got.cif
#   From: 2010.05.17/outbox.cif.g08.bks.cpg/sg11_33_cif.got.tgz:65195.got - 2010.06.03 12:22:45.
