data_PCOD9161779
_publ_section_title
;
Structure prediction by ZEFSAII (Michael W. Deem and Ramdas Pophale) SiO2 
 PCOD9161779
Probable space group: P 21/M
;
_chemical_formula_sum "Si O2"
_cell_formula_units_Z 28
_cell_length_a 26.345659
_cell_length_b 8.400929
_cell_length_c 9.351323
_cell_angle_alpha 90.000000
_cell_angle_beta 44.587412
_cell_angle_gamma 90.000000
_cell_volume 1452.929190
_symmetry_space_group_name_H-M "P 21/M"
_symmetry_group_IT_number 11
_symmetry_cell_setting 'monoclinic'
loop_
_space_group_symop_operation_xyz
x,y,z
-x,1/2+y,-z
-x,-y,-z
x,1/2-y,z
loop_
_atom_site_type_symbol
_atom_site_label
_atom_site_fract_x
_atom_site_fract_y
_atom_site_fract_z
Si Si1 0.858255 0.940704 0.947293
Si Si2 0.280862 0.557334 0.601943
Si Si3 0.582409 0.940455 0.171597
Si Si4 0.718780 0.441966 0.725569
Si Si5 0.858691 0.442682 0.621628
Si Si6 0.000327 0.057644 0.162010
Si Si7 0.418717 0.942501 0.504455
O O1 0.858425 0.750000 0.946840
O O2 0.785818 0.000344 0.169132
O O3 0.928106 0.996586 0.897194
O O4 0.861943 0.999391 0.777335
O O5 0.280422 0.750000 0.602533
O O6 0.273873 0.501940 0.452464
O O7 0.356460 0.504939 0.521039
O O8 0.584475 0.750000 0.162592
O O9 0.500255 0.993470 0.301261
O O10 0.597076 0.995995 0.304430
O O11 0.643120 0.007532 0.945807
O O12 0.721405 0.250000 0.718399
O O13 0.785617 0.497707 0.689111
O O14 0.858189 0.250000 0.624218
O O15 0.928705 0.494876 0.390906
O O16 0.000276 0.250000 0.161024
O O17 0.000000 0.000000 0.000000
O O18 0.418215 0.750000 0.510241
#
# Coordination Sequence:
#
# PCOD9161779 Si02
#       7
#     4   4   4   4   4   4   4
#     4  11  23  37  56  85 114 139 177 228 273 312
#     4  10  21  38  58  78 106 146 185 220 265 324
#     4  10  20  34  54  80 109 140 176 223 275 320
#     4  10  21  36  55  79 106 140 183 224 264 319
#     4  10  21  38  58  79 107 146 186 218 259 323
#     4  10  22  39  59  84 113 144 180 222 267 317
#     4   9  19  36  56  78 105 141 184 222 262 322
#
# _framework density 19.271415000000001
#
# number of rings (size 3 to 8) (size 9 to 14) (size 15 to 20)
#    0.000    2.000    0.000    3.000    0.000    9.143 
#    0.000    0.000    0.000    0.000    0.000    0.000 
#    0.000    0.000    0.000    0.000    0.000    0.000 
#
# Total GULP energy -156434.232482 kJ/mol
# GULP energy per Si atom -5586.936874 kJ/mol
# Density = 1.922755 g / cm^3
# Si number density = 19.271415 Si / 1000 Ang^3
#
#
#
# Elastic Constant Matrix: (Units=GPa)
#
#
# Indices 1 2 3 4 5 6 
#
# 1 159.6492 33.7817 157.6154 0.0000 12.3625 0.0000
# 2 33.7817 3.4262 5.8921 0.0000 -1.6335 0.0000
# 3 157.6154 5.8921 134.6753 0.0000 3.9643 0.0000
# 4 0.0000 0.0000 0.0000 25.2627 0.0000 6.6978
# 5 12.3625 -1.6335 3.9643 0.0000 27.2754 0.0000
# 6 0.0000 0.0000 0.0000 6.6978 0.0000 18.5170
#
#
#
# Elastic Compliance Matrix: (Units=1/GPa)
#
#
# Indices 1 2 3 4 5 6 
#
# 1 -0.003659 0.032890 0.002748 0.000000 0.003229 0.000000
# 2 0.032890 0.032422 -0.039699 0.000000 -0.007195 0.000000
# 3 0.002748 -0.039699 0.006078 0.000000 -0.004507 0.000000
# 4 0.000000 0.000000 0.000000 0.043783 0.000000 -0.015837
# 5 0.003229 -0.007195 -0.004507 0.000000 0.035424 0.000000
# 6 0.000000 0.000000 0.000000 -0.015837 0.000000 0.059733
#
#
# Mechanical properties :
#
#
# Convention : Reuss Voigt Hill
#
# Bulk Modulus (GPa) = 37.42562 76.92543 57.17553
# Shear Modulus (GPa) = 26.20435 20.90848 23.55641
#
# Velocity S-wave (km/s) = 3.69148 3.29743 3.50001
# Velocity P-wave (km/s) = 6.13448 7.38247 6.78722
#
# Compressibility (1/GPa) = 0.02671966
#
# Stress axis : x y z
#
# Youngs Moduli (GPa) = -273.30146 30.84356 164.51736
#
# Poissons Ratio (x) = -1.01444 -0.45213
# Poissons Ratio (y) = 8.98882 6.53113
# Poissons Ratio (z) = 0.75110 1.22445
#
# Static dielectric constant tensor:
#      x y z
#    x 1.666080 0.000000 -0.019590 
#    y 0.000000 1.670420 0.000000 
#    z -0.019590 0.000000 1.627670 
# 
# From -- ./inp_files/28262.got.cif
#   From: 2010.05.17/outbox.cif.g08.bks.cpg/sg11_15_cif.got.tgz:28262.got - 2010.06.03 12:22:45.
