data_PCOD9161915
_publ_section_title
;
Structure prediction by ZEFSAII (Michael W. Deem and Ramdas Pophale) SiO2 
 PCOD9161915
Probable space group: P 21/M
;
_chemical_formula_sum "Si O2"
_cell_formula_units_Z 28
_cell_length_a 15.818218
_cell_length_b 8.177685
_cell_length_c 21.142676
_cell_angle_alpha 90.000000
_cell_angle_beta 151.586672
_cell_angle_gamma 90.000000
_cell_volume 1301.363524
_symmetry_space_group_name_H-M "P 21/M"
_symmetry_group_IT_number 11
_symmetry_cell_setting 'monoclinic'
loop_
_space_group_symop_operation_xyz
x,y,z
-x,1/2+y,-z
-x,-y,-z
x,1/2-y,z
loop_
_atom_site_type_symbol
_atom_site_label
_atom_site_fract_x
_atom_site_fract_y
_atom_site_fract_z
Si Si1 0.373707 0.940036 0.596019
Si Si2 0.827651 0.561823 0.423414
Si Si3 0.140290 0.950394 0.330702
Si Si4 0.407370 0.557533 0.839985
Si Si5 0.918906 0.056150 0.847902
Si Si6 0.245931 0.942002 0.129403
Si Si7 0.232859 0.447719 0.852671
O O1 0.420169 0.750000 0.620675
O O2 0.302227 0.003294 0.481798
O O3 0.216018 0.960157 0.542772
O O4 0.545205 0.031134 0.735178
O O5 0.849613 0.750000 0.455427
O O6 0.665727 0.539212 0.267818
O O7 0.000000 0.500000 0.500000
O O8 0.142115 0.750000 0.331635
O O9 0.142835 0.009757 0.260258
O O10 0.954343 0.997784 0.241010
O O11 0.406435 0.750000 0.823853
O O12 0.278771 0.525303 0.815289
O O13 0.603581 0.510366 0.993023
O O14 0.886694 0.250000 0.825365
O O15 0.820231 0.991485 0.845600
O O16 0.127632 0.026744 0.997960
O O17 0.205295 0.750000 0.099390
O O18 0.234248 0.250000 0.845991
#
# Coordination Sequence:
#
# PCOD9161915 Si02
#       7
#     4   4   4   4   4   4   4
#     4  11  23  39  61  88 121 160 202 246 299 359
#     4  12  25  41  60  84 118 157 200 248 299 355
#     4   9  19  36  59  86 112 151 200 248 297 351
#     4  10  20  34  55  84 114 153 198 244 301 354
#     4   9  19  38  64  88 117 157 199 249 304 358
#     4  10  21  38  59  90 124 155 198 248 299 359
#     4   9  18  34  56  82 115 151 196 249 299 352
#
# _framework density 21.515893999999999
#
# number of rings (size 3 to 8) (size 9 to 14) (size 15 to 20)
#    0.000    2.000    0.000    3.429    2.000    2.857 
#    0.000    2.857    0.000    0.000    0.000    0.000 
#    0.000    0.000    0.000    0.000    0.000    0.000 
#
# Total GULP energy -156497.694111 kJ/mol
# GULP energy per Si atom -5589.203361 kJ/mol
# Density = 2.146692 g / cm^3
# Si number density = 21.515894 Si / 1000 Ang^3
#
#
#
# Elastic Constant Matrix: (Units=GPa)
#
#
# Indices 1 2 3 4 5 6 
#
# 1 48.7938 -8.8334 20.0283 0.0000 -15.4573 0.0000
# 2 -8.8334 20.1910 -6.4153 0.0000 -2.2460 0.0000
# 3 20.0283 -6.4153 53.9935 0.0000 -14.7200 0.0000
# 4 0.0000 0.0000 0.0000 21.2134 0.0000 0.3979
# 5 -15.4573 -2.2460 -14.7200 0.0000 35.2268 0.0000
# 6 0.0000 0.0000 0.0000 0.3979 0.0000 21.2484
#
#
#
# Elastic Compliance Matrix: (Units=1/GPa)
#
#
# Indices 1 2 3 4 5 6 
#
# 1 0.028570 0.011679 -0.006308 0.000000 0.010645 0.000000
# 2 0.011679 0.057636 0.005547 0.000000 0.011117 0.000000
# 3 -0.006308 0.005547 0.023544 0.000000 0.007424 0.000000
# 4 0.000000 0.000000 0.000000 0.047157 0.000000 -0.000883
# 5 0.010645 0.011117 0.007424 0.000000 0.036869 0.000000
# 6 0.000000 0.000000 0.000000 -0.000883 0.000000 0.047079
#
#
# Mechanical properties :
#
#
# Convention : Reuss Voigt Hill
#
# Bulk Modulus (GPa) = 7.59965 14.72637 11.16301
# Shear Modulus (GPa) = 19.02004 23.41762 21.21883
#
# Velocity S-wave (km/s) = 2.97644 3.30265 3.14378
# Velocity P-wave (km/s) = 3.91817 4.62630 4.28688
#
# Compressibility (1/GPa) = 0.13158503
#
# Stress axis : x y z
#
# Youngs Moduli (GPa) = 35.00143 17.35038 42.47447
#
# Poissons Ratio (x) = -0.20264 0.26793
# Poissons Ratio (y) = -0.40879 -0.23559
# Poissons Ratio (z) = 0.22079 -0.09624
#
# Static dielectric constant tensor:
#      x y z
#    x 1.786420 0.000000 -0.000220 
#    y 0.000000 1.758090 0.000000 
#    z -0.000220 0.000000 1.785780 
# 
# From -- ./inp_files/54606.got.cif
#   From: 2010.05.17/outbox.cif.g08.bks.cpg/sg11_28_cif.got.tgz:54606.got - 2010.06.03 12:22:45.
