data_PCOD9161253
_publ_section_title
;
Structure prediction by ZEFSAII (Michael W. Deem and Ramdas Pophale) SiO2 
 PCOD9161253
Probable space group: P 21/M
;
_chemical_formula_sum "Si O2"
_cell_formula_units_Z 32
_cell_length_a 23.190139
_cell_length_b 8.567149
_cell_length_c 14.555518
_cell_angle_alpha 90.000000
_cell_angle_beta 36.901187
_cell_angle_gamma 90.000000
_cell_volume 1736.339455
_symmetry_space_group_name_H-M "P 21/M"
_symmetry_group_IT_number 11
_symmetry_cell_setting 'monoclinic'
loop_
_space_group_symop_operation_xyz
x,y,z
-x,1/2+y,-z
-x,-y,-z
x,1/2-y,z
loop_
_atom_site_type_symbol
_atom_site_label
_atom_site_fract_x
_atom_site_fract_y
_atom_site_fract_z
Si Si1 0.131401 0.563356 0.156335
Si Si2 0.392651 0.563145 0.127792
Si Si3 0.468310 0.437806 0.639737
Si Si4 0.245321 0.561706 0.476323
Si Si5 0.265748 0.437302 0.841116
Si Si6 0.233206 0.437001 0.203984
Si Si7 0.087509 0.062044 0.550049
Si Si8 0.329742 0.560746 0.561321
O O1 0.132439 0.750000 0.160075
O O2 0.200045 0.495633 0.147609
O O3 0.022222 0.507565 0.311831
O O4 0.172172 0.509167 0.006509
O O5 0.395025 0.750000 0.121890
O O6 0.328524 0.514685 0.297958
O O7 0.333630 0.501300 0.114958
O O8 0.500000 0.500000 0.000000
O O9 0.500000 0.500000 0.500000
O O10 0.466948 0.250000 0.640998
O O11 0.357808 0.487909 0.786874
O O12 0.557056 0.485143 0.591151
O O13 0.241213 0.750000 0.480863
O O14 0.146071 0.496248 0.563689
O O15 0.272864 0.510289 0.543454
O O16 0.260039 0.250000 0.849230
O O17 0.287806 0.493540 0.709619
O O18 0.237961 0.250000 0.197768
O O19 0.150346 0.488967 0.381957
O O20 0.087057 0.250000 0.550676
O O21 0.326164 0.750000 0.571591
#
# Coordination Sequence:
#
# PCOD9161253 Si02
#       8
#     4   4   4   4   4   4   4   4
#     4  11  22  36  54  78 106 137 172 216 268 320
#     4  10  20  35  54  81 115 148 179 216 259 308
#     4   8  15  28  47  69  97 130 165 203 247 297
#     4   9  19  34  55  79 104 138 180 219 261 312
#     4  10  20  33  50  77 107 137 173 215 259 309
#     4  10  20  36  57  80 105 137 175 218 265 316
#     4   9  20  37  56  77 103 134 172 218 267 315
#     4   9  17  33  54  75 101 137 174 213 259 307
#
# _framework density 18.429576000000001
#
# number of rings (size 3 to 8) (size 9 to 14) (size 15 to 20)
#    0.000    2.500    0.000    1.875    0.000    4.000 
#    0.000    3.125    0.000    0.000    0.000    0.000 
#    0.000    0.000    0.000    0.000    0.000    0.000 
#
# Total GULP energy -178426.277665 kJ/mol
# GULP energy per Si atom -5575.821177 kJ/mol
# Density = 1.838763 g / cm^3
# Si number density = 18.429576 Si / 1000 Ang^3
#
#
#
# Elastic Constant Matrix: (Units=GPa)
#
#
# Indices 1 2 3 4 5 6 
#
# 1 124.4600 21.5555 47.3967 0.0000 -6.5908 0.0000
# 2 21.5555 25.8163 18.7829 0.0000 -5.3857 0.0000
# 3 47.3967 18.7829 82.1005 0.0000 -19.3266 0.0000
# 4 0.0000 0.0000 0.0000 21.3045 0.0000 -2.0336
# 5 -6.5908 -5.3857 -19.3266 0.0000 22.6712 0.0000
# 6 0.0000 0.0000 0.0000 -2.0336 0.0000 29.5892
#
#
#
# Elastic Compliance Matrix: (Units=1/GPa)
#
#
# Indices 1 2 3 4 5 6 
#
# 1 0.011067 -0.005648 -0.005824 0.000000 -0.003089 0.000000
# 2 -0.005648 0.049463 -0.007101 0.000000 0.004055 0.000000
# 3 -0.005824 -0.007101 0.020482 0.000000 0.014080 0.000000
# 4 0.000000 0.000000 0.000000 0.047248 0.000000 0.003247
# 5 -0.003089 0.004055 0.014080 0.000000 0.056177 0.000000
# 6 0.000000 0.000000 0.000000 0.003247 0.000000 0.034019
#
#
# Mechanical properties :
#
#
# Convention : Reuss Voigt Hill
#
# Bulk Modulus (GPa) = 22.79685 45.31634 34.05660
# Shear Modulus (GPa) = 18.50312 24.35576 21.42944
#
# Velocity S-wave (km/s) = 3.17202 3.63927 3.41365
# Velocity P-wave (km/s) = 5.08057 6.50395 5.83582
#
# Compressibility (1/GPa) = 0.04386570
#
# Stress axis : x y z
#
# Youngs Moduli (GPa) = 90.35674 20.21703 48.82435
#
# Poissons Ratio (x) = 0.11418 0.28437
# Poissons Ratio (y) = 0.51030 0.34671
# Poissons Ratio (z) = 0.52626 0.14357
#
# Static dielectric constant tensor:
#      x y z
#    x 1.628690 0.000000 -0.015440 
#    y 0.000000 1.626370 0.000000 
#    z -0.015440 0.000000 1.642800 
# 
# From -- ./inp_files/55589.got.cif
#   From: 2010.05.17/outbox.cif.g08.bks.cpg/sg11_28_cif.got.tgz:55589.got - 2010.06.03 12:22:45.
