data_PCOD9161234
_publ_section_title
;
Structure prediction by ZEFSAII (Michael W. Deem and Ramdas Pophale) SiO2 
 PCOD9161234
Probable space group: P 21/M
;
_chemical_formula_sum "Si O2"
_cell_formula_units_Z 28
_cell_length_a 19.126318
_cell_length_b 7.448747
_cell_length_c 14.809154
_cell_angle_alpha 90.000000
_cell_angle_beta 145.362738
_cell_angle_gamma 90.000000
_cell_volume 1199.175725
_symmetry_space_group_name_H-M "P 21/M"
_symmetry_group_IT_number 11
_symmetry_cell_setting 'monoclinic'
loop_
_space_group_symop_operation_xyz
x,y,z
-x,1/2+y,-z
-x,-y,-z
x,1/2-y,z
loop_
_atom_site_type_symbol
_atom_site_label
_atom_site_fract_x
_atom_site_fract_y
_atom_site_fract_z
Si Si1 0.470560 0.537320 0.684321
Si Si2 0.145170 0.034425 0.646786
Si Si3 0.092050 0.467539 0.218739
Si Si4 0.664586 0.045357 0.631307
Si Si5 0.177297 0.533065 0.048806
Si Si6 0.277350 0.038184 0.966276
Si Si7 0.227449 0.465764 0.539441
O O1 0.488157 0.750000 0.688979
O O2 0.426813 0.462649 0.540044
O O3 0.593270 0.461536 0.860039
O O4 0.357298 0.517676 0.633305
O O5 0.159232 0.250000 0.661148
O O6 0.198510 0.965619 0.608439
O O7 0.218568 0.964535 0.812210
O O8 0.000000 0.000000 0.500000
O O9 0.098435 0.250000 0.217281
O O10 0.202767 0.546477 0.278129
O O11 0.124501 0.516445 0.356622
O O12 0.953892 0.528416 0.051849
O O13 0.624265 0.250000 0.604291
O O14 0.704993 0.963098 0.769832
O O15 0.179137 0.750000 0.056923
O O16 0.186988 0.483863 0.954866
O O17 0.297690 0.250000 0.972581
O O18 0.226781 0.250000 0.542718
#
# Coordination Sequence:
#
# PCOD9161234 Si02
#       7
#     4   4   4   4   4   4   4
#     4   9  19  36  53  73 103 135 170 211 253 298
#     4  10  21  37  56  79 106 134 166 205 252 305
#     4   9  17  30  49  74 102 129 162 208 259 306
#     4   9  18  32  51  74 101 134 171 211 253 299
#     4  10  20  33  50  74 103 136 173 212 254 298
#     4  10  22  37  52  73 103 137 171 209 252 300
#     4   9  18  33  53  75 100 131 166 208 255 302
#
# _framework density 23.349368999999999
#
# number of rings (size 3 to 8) (size 9 to 14) (size 15 to 20)
#    0.000    2.571    0.000    1.286    0.000    5.143 
#    0.000    2.857    0.000    0.000    0.000    0.000 
#    0.000    0.000    0.000    0.000    0.000    0.000 
#
# Total GULP energy -156415.807843 kJ/mol
# GULP energy per Si atom -5586.278852 kJ/mol
# Density = 2.329623 g / cm^3
# Si number density = 23.349369 Si / 1000 Ang^3
#
#
#
# Elastic Constant Matrix: (Units=GPa)
#
#
# Indices 1 2 3 4 5 6 
#
# 1 65.5841 0.3681 36.6813 0.0000 -7.1089 0.0000
# 2 0.3681 77.2820 12.0784 0.0000 -6.4968 0.0000
# 3 36.6813 12.0784 159.7694 0.0000 -6.5550 0.0000
# 4 0.0000 0.0000 0.0000 3.6219 0.0000 7.2982
# 5 -7.1089 -6.4968 -6.5550 0.0000 49.4776 0.0000
# 6 0.0000 0.0000 0.0000 7.2982 0.0000 15.9386
#
#
#
# Elastic Compliance Matrix: (Units=1/GPa)
#
#
# Indices 1 2 3 4 5 6 
#
# 1 0.017731 0.000724 -0.004039 0.000000 0.002108 0.000000
# 2 0.000724 0.013251 -0.001098 0.000000 0.001698 0.000000
# 3 -0.004039 -0.001098 0.007279 0.000000 0.000240 0.000000
# 4 0.000000 0.000000 0.000000 3.570251 0.000000 -1.634804
# 5 0.002108 0.001698 0.000240 0.000000 0.020769 0.000000
# 6 0.000000 0.000000 0.000000 -1.634804 0.000000 0.811312
#
#
# Mechanical properties :
#
#
# Convention : Reuss Voigt Hill
#
# Bulk Modulus (GPa) = 33.97420 44.54345 39.25883
# Shear Modulus (GPa) = 1.12127 30.70814 15.91470
#
# Velocity S-wave (km/s) = 0.69373 3.63045 2.61356
# Velocity P-wave (km/s) = 3.90175 6.05738 5.09488
#
# Compressibility (1/GPa) = 0.02943410
#
# Stress axis : x y z
#
# Youngs Moduli (GPa) = 56.39818 75.46825 137.37724
#
# Poissons Ratio (x) = -0.05464 0.55488
# Poissons Ratio (y) = -0.04083 0.15088
# Poissons Ratio (z) = 0.22780 0.08288
#
# Static dielectric constant tensor:
#      x y z
#    x 1.860040 0.000000 -0.021330 
#    y 0.000000 1.883460 0.000000 
#    z -0.021330 0.000000 1.903940 
# 
# From -- ./inp_files/37446.got.cif
#   From: 2010.05.17/outbox.cif.g08.bks.cpg/sg11_19_cif.got.tgz:37446.got - 2010.06.03 12:22:45.
