data_PCOD9161437
_publ_section_title
;
Structure prediction by ZEFSAII (Michael W. Deem and Ramdas Pophale) SiO2 
 PCOD9161437
Probable space group: P 21/M
;
_chemical_formula_sum "Si O2"
_cell_formula_units_Z 28
_cell_length_a 14.575131
_cell_length_b 7.597351
_cell_length_c 11.574349
_cell_angle_alpha 90.000000
_cell_angle_beta 58.143006
_cell_angle_gamma 90.000000
_cell_volume 1088.597102
_symmetry_space_group_name_H-M "P 21/M"
_symmetry_group_IT_number 11
_symmetry_cell_setting 'monoclinic'
loop_
_space_group_symop_operation_xyz
x,y,z
-x,1/2+y,-z
-x,-y,-z
x,1/2-y,z
loop_
_atom_site_type_symbol
_atom_site_label
_atom_site_fract_x
_atom_site_fract_y
_atom_site_fract_z
Si Si1 0.447749 0.541494 0.182572
Si Si2 0.937687 0.461163 0.161244
Si Si3 0.704663 0.454372 0.245452
Si Si4 0.364052 0.460620 0.474074
Si Si5 0.323020 0.048168 0.992684
Si Si6 0.786808 0.953956 0.613566
Si Si7 0.099355 0.033254 0.247470
O O1 0.443006 0.750000 0.168600
O O2 0.451598 0.508478 0.319225
O O3 0.559539 0.465531 0.057729
O O4 0.327968 0.465075 0.238564
O O5 0.933283 0.250000 0.175565
O O6 0.816821 0.527016 0.223192
O O7 0.000433 0.526692 0.233718
O O8 0.000000 0.500000 0.000000
O O9 0.717647 0.250000 0.205253
O O10 0.624521 0.465631 0.406701
O O11 0.681728 0.550127 0.142657
O O12 0.359011 0.250000 0.483698
O O13 0.253764 0.530184 0.481525
O O14 0.327392 0.250000 0.028110
O O15 0.208993 0.974014 0.109599
O O16 0.811565 0.750000 0.577706
O O17 0.879755 0.027816 0.634411
O O18 0.097258 0.250000 0.250798
#
# Coordination Sequence:
#
# PCOD9161437 Si02
#       7
#     4   4   4   4   4   4   4
#     4   9  18  33  52  79 109 136 174 220 264 307
#     4  10  20  35  56  80 108 140 171 214 264 311
#     4  11  22  34  53  81 110 137 174 224 267 303
#     4   9  19  36  56  75 102 144 182 213 258 316
#     4  10  20  33  54  80 106 144 178 209 264 323
#     4   8  17  34  55  76 102 141 181 211 254 313
#     4   9  17  34  57  78 106 141 176 212 256 319
#
# _framework density 25.721177000000001
#
# number of rings (size 3 to 8) (size 9 to 14) (size 15 to 20)
#    0.857    1.714    1.429    0.857    0.000    2.857 
#    0.000    2.143    0.000    0.000    0.000    0.000 
#    0.000    0.000    0.000    0.000    0.000    0.000 
#
# Total GULP energy -156269.293602 kJ/mol
# GULP energy per Si atom -5581.046200 kJ/mol
# Density = 2.566263 g / cm^3
# Si number density = 25.721177 Si / 1000 Ang^3
#
#
#
# Elastic Constant Matrix: (Units=GPa)
#
#
# Indices 1 2 3 4 5 6 
#
# 1 132.7699 3.0806 6.0371 0.0000 6.4099 0.0000
# 2 3.0806 87.8021 4.4847 0.0000 11.6812 0.0000
# 3 6.0371 4.4847 41.2230 0.0000 -8.1953 0.0000
# 4 0.0000 0.0000 0.0000 19.5535 0.0000 6.3906
# 5 6.4099 11.6812 -8.1953 0.0000 41.2021 0.0000
# 6 0.0000 0.0000 0.0000 6.3906 0.0000 3.9625
#
#
#
# Elastic Compliance Matrix: (Units=1/GPa)
#
#
# Indices 1 2 3 4 5 6 
#
# 1 0.007667 -0.000001 -0.001416 0.000000 -0.001474 0.000000
# 2 -0.000001 0.012002 -0.002064 0.000000 -0.003813 0.000000
# 3 -0.001416 -0.002064 0.025873 0.000000 0.005952 0.000000
# 4 0.000000 0.000000 0.000000 0.108144 0.000000 -0.174411
# 5 -0.001474 -0.003813 0.005952 0.000000 0.026765 0.000000
# 6 0.000000 0.000000 0.000000 -0.174411 0.000000 0.533653
#
#
# Mechanical properties :
#
#
# Convention : Reuss Voigt Hill
#
# Bulk Modulus (GPa) = 25.91851 32.11108 29.01480
# Shear Modulus (GPa) = 6.81268 29.48977 18.15122
#
# Velocity S-wave (km/s) = 1.62924 3.38970 2.65937
# Velocity P-wave (km/s) = 3.69294 5.27556 4.55353
#
# Compressibility (1/GPa) = 0.03858246
#
# Stress axis : x y z
#
# Youngs Moduli (GPa) = 130.42224 83.31966 38.64970
#
# Poissons Ratio (x) = 0.00005 0.05473
# Poissons Ratio (y) = 0.00007 0.07976
# Poissons Ratio (z) = 0.18467 0.17194
#
# Static dielectric constant tensor:
#      x y z
#    x 2.102520 0.000000 0.010050 
#    y 0.000000 1.914750 0.000000 
#    z 0.010050 0.000000 2.105600 
# 
# From -- ./inp_files/51091.got.cif
#   From: 2010.05.17/outbox.cif.g08.bks.cpg/sg11_26_cif.got.tgz:51091.got - 2010.06.03 12:22:45.
