data_PCOD9161038
_publ_section_title
;
Structure prediction by ZEFSAII (Michael W. Deem and Ramdas Pophale) SiO2 
 PCOD9161038
Probable space group: P 21/M
;
_chemical_formula_sum "Si O2"
_cell_formula_units_Z 28
_cell_length_a 14.323434
_cell_length_b 8.682165
_cell_length_c 16.913987
_cell_angle_alpha 90.000000
_cell_angle_beta 47.891218
_cell_angle_gamma 90.000000
_cell_volume 1560.453339
_symmetry_space_group_name_H-M "P 21/M"
_symmetry_group_IT_number 11
_symmetry_cell_setting 'monoclinic'
loop_
_space_group_symop_operation_xyz
x,y,z
-x,1/2+y,-z
-x,-y,-z
x,1/2-y,z
loop_
_atom_site_type_symbol
_atom_site_label
_atom_site_fract_x
_atom_site_fract_y
_atom_site_fract_z
Si Si1 0.006723 0.436085 0.120833
Si Si2 0.200790 0.566031 0.890905
Si Si3 0.740980 0.064746 0.562353
Si Si4 0.467599 0.065556 0.770078
Si Si5 0.172085 0.433520 0.324074
Si Si6 0.046930 0.561925 0.670460
Si Si7 0.545231 0.567319 0.891667
O O1 0.017103 0.250000 0.114510
O O2 0.888842 0.478753 0.131714
O O3 0.983828 0.488869 0.223388
O O4 0.130361 0.503653 0.009016
O O5 0.205971 0.750000 0.891322
O O6 0.340409 0.500125 0.805787
O O7 0.737445 0.250000 0.563435
O O8 0.597116 0.010473 0.654567
O O9 0.818648 0.013047 0.441541
O O10 0.816840 0.013974 0.597495
O O11 0.464548 0.250000 0.769377
O O12 0.478191 0.011057 0.854910
O O13 0.158290 0.250000 0.344744
O O14 0.305664 0.459234 0.205068
O O15 0.059895 0.486677 0.331265
O O16 0.045471 0.750000 0.672846
O O17 0.522722 0.750000 0.901671
O O18 0.500000 0.500000 0.000000
#
# Coordination Sequence:
#
# PCOD9161038 Si02
#       7
#     4   4   4   4   4   4   4
#     4   9  19  35  56  78 103 134 168 211 263 316
#     4  10  20  35  54  78 104 132 170 216 263 311
#     4   9  18  33  52  75 102 134 175 211 246 300
#     4  10  20  34  53  73  99 140 175 209 259 307
#     4   9  18  31  49  73 103 137 170 203 252 305
#     4   9  17  32  54  77 101 133 171 210 253 307
#     4  10  20  32  47  74 107 137 172 214 254 305
#
# _framework density 17.943504000000001
#
# number of rings (size 3 to 8) (size 9 to 14) (size 15 to 20)
#    0.000    2.571    0.000    1.714    2.000    1.714 
#    0.000    2.143    0.000    0.000    0.000    0.000 
#    0.000    0.000    0.000    0.000    0.000    0.000 
#
# Total GULP energy -156193.776713 kJ/mol
# GULP energy per Si atom -5578.349168 kJ/mol
# Density = 1.790266 g / cm^3
# Si number density = 17.943504 Si / 1000 Ang^3
#
#
#
# Elastic Constant Matrix: (Units=GPa)
#
#
# Indices 1 2 3 4 5 6 
#
# 1 88.3741 16.9683 48.1679 0.0000 -16.5301 0.0000
# 2 16.9683 14.8857 19.2026 0.0000 -4.8026 0.0000
# 3 48.1679 19.2026 102.3551 0.0000 4.3986 0.0000
# 4 0.0000 0.0000 0.0000 16.6770 0.0000 1.3544
# 5 -16.5301 -4.8026 4.3986 0.0000 14.3489 0.0000
# 6 0.0000 0.0000 0.0000 1.3544 0.0000 25.0045
#
#
#
# Elastic Compliance Matrix: (Units=1/GPa)
#
#
# Indices 1 2 3 4 5 6 
#
# 1 0.024247 -0.001445 -0.012484 0.000000 0.031276 0.000000
# 2 -0.001445 0.110628 -0.021883 0.000000 0.042071 0.000000
# 3 -0.012484 -0.021883 0.020959 0.000000 -0.028130 0.000000
# 4 0.000000 0.000000 0.000000 0.060228 0.000000 -0.003262
# 5 0.031276 0.042071 -0.028130 0.000000 0.128427 0.000000
# 6 0.000000 0.000000 0.000000 -0.003262 0.000000 0.040170
#
#
# Mechanical properties :
#
#
# Convention : Reuss Voigt Hill
#
# Bulk Modulus (GPa) = 11.87486 41.58805 26.73146
# Shear Modulus (GPa) = 10.32310 19.29116 14.80713
#
# Velocity S-wave (km/s) = 2.40117 3.28244 2.87576
# Velocity P-wave (km/s) = 3.78415 6.13134 5.09476
#
# Compressibility (1/GPa) = 0.08421150
#
# Stress axis : x y z
#
# Youngs Moduli (GPa) = 41.24175 9.03934 47.71258
#
# Poissons Ratio (x) = 0.01306 0.59563
# Poissons Ratio (y) = 0.05959 1.04407
# Poissons Ratio (z) = 0.51485 0.19780
#
# Static dielectric constant tensor:
#      x y z
#    x 1.604500 0.000000 -0.019320 
#    y 0.000000 1.605960 0.000000 
#    z -0.019320 0.000000 1.613340 
# 
# From -- ./inp_files/37197.got.cif
#   From: 2010.05.17/outbox.cif.g08.bks.cpg/sg11_19_cif.got.tgz:37197.got - 2010.06.03 12:22:45.
