data_PCOD9161011
_publ_section_title
;
Structure prediction by ZEFSAII (Michael W. Deem and Ramdas Pophale) SiO2 
 PCOD9161011
Probable space group: P 21/M
;
_chemical_formula_sum "Si O2"
_cell_formula_units_Z 28
_cell_length_a 14.203685
_cell_length_b 7.971153
_cell_length_c 13.117260
_cell_angle_alpha 90.000000
_cell_angle_beta 74.050304
_cell_angle_gamma 90.000000
_cell_volume 1427.960175
_symmetry_space_group_name_H-M "P 21/M"
_symmetry_group_IT_number 11
_symmetry_cell_setting 'monoclinic'
loop_
_space_group_symop_operation_xyz
x,y,z
-x,1/2+y,-z
-x,-y,-z
x,1/2-y,z
loop_
_atom_site_type_symbol
_atom_site_label
_atom_site_fract_x
_atom_site_fract_y
_atom_site_fract_z
Si Si1 0.558796 0.949850 0.382554
Si Si2 0.084571 0.950390 0.615013
Si Si3 0.287424 0.952985 0.166744
Si Si4 0.714706 0.449409 0.054754
Si Si5 0.501233 0.047145 0.823021
Si Si6 0.772574 0.050023 0.256729
Si Si7 0.130357 0.450257 0.381399
O O1 0.569158 0.750000 0.377822
O O2 0.502725 0.999840 0.295401
O O3 0.500000 0.000000 0.500000
O O4 0.667565 0.024201 0.341667
O O5 0.077152 0.750000 0.630048
O O6 0.142788 0.019117 0.695130
O O7 0.974453 0.015879 0.629748
O O8 0.142085 0.982708 0.492560
O O9 0.290081 0.750000 0.162932
O O10 0.398080 0.011109 0.156702
O O11 0.215693 0.003469 0.278594
O O12 0.253925 0.015284 0.065164
O O13 0.732806 0.250000 0.049898
O O14 0.597895 0.476583 0.098944
O O15 0.762212 0.519893 0.144637
O O16 0.496782 0.250000 0.831418
O O17 0.787664 0.250000 0.243225
O O18 0.124205 0.250000 0.390720
#
# Coordination Sequence:
#
# PCOD9161011 Si02
#       7
#     4   4   4   4   4   4   4
#     4  10  20  32  46  71 104 135 170 210 248 297
#     4   9  19  37  57  74 101 134 165 208 265 313
#     4  10  20  34  52  75 105 138 169 206 253 301
#     4   9  18  33  53  77 102 132 173 210 244 297
#     4   9  19  33  49  70 101 139 171 202 251 299
#     4   9  18  34  55  74  97 134 169 205 257 306
#     4  10  21  35  53  79 102 128 170 215 254 303
#
# _framework density 19.608391000000001
#
# number of rings (size 3 to 8) (size 9 to 14) (size 15 to 20)
#    0.000    2.571    0.000    1.286    2.000    2.857 
#    0.000    0.714    0.000    0.000    0.000    0.000 
#    0.000    0.000    0.000    0.000    0.000    0.000 
#
# Total GULP energy -156192.177248 kJ/mol
# GULP energy per Si atom -5578.292045 kJ/mol
# Density = 1.956376 g / cm^3
# Si number density = 19.608391 Si / 1000 Ang^3
#
#
#
# Elastic Constant Matrix: (Units=GPa)
#
#
# Indices 1 2 3 4 5 6 
#
# 1 75.9840 2.3777 28.4383 0.0000 31.6639 0.0000
# 2 2.3777 13.3746 -5.4517 0.0000 6.5314 0.0000
# 3 28.4383 -5.4517 61.8494 0.0000 13.4109 0.0000
# 4 0.0000 0.0000 0.0000 8.6617 0.0000 -1.8037
# 5 31.6639 6.5314 13.4109 0.0000 21.2756 0.0000
# 6 0.0000 0.0000 0.0000 -1.8037 0.0000 18.3118
#
#
#
# Elastic Compliance Matrix: (Units=1/GPa)
#
#
# Indices 1 2 3 4 5 6 
#
# 1 0.041665 0.025130 -0.002113 0.000000 -0.068391 0.000000
# 2 0.025130 0.118733 0.017287 0.000000 -0.084746 0.000000
# 3 -0.002113 0.017287 0.022161 0.000000 -0.016131 0.000000
# 4 0.000000 0.000000 0.000000 0.117868 0.000000 0.011610
# 5 -0.068391 -0.084746 -0.016131 0.000000 0.184971 0.000000
# 6 0.000000 0.000000 0.000000 0.011610 0.000000 0.055753
#
#
# Mechanical properties :
#
#
# Convention : Reuss Voigt Hill
#
# Bulk Modulus (GPa) = 3.79988 22.43740 13.11864
# Shear Modulus (GPa) = 9.11964 18.03939 13.57952
#
# Velocity S-wave (km/s) = 2.15893 3.03641 2.63446
# Velocity P-wave (km/s) = 2.85600 4.87449 3.99483
#
# Compressibility (1/GPa) = 0.26316645
#
# Stress axis : x y z
#
# Youngs Moduli (GPa) = 24.00093 8.42227 45.12353
#
# Poissons Ratio (x) = -0.21165 0.09535
# Poissons Ratio (y) = -0.60314 -0.78003
# Poissons Ratio (z) = 0.05071 -0.14559
#
# Static dielectric constant tensor:
#      x y z
#    x 1.748090 0.000000 -0.026280 
#    y 0.000000 1.697010 0.000000 
#    z -0.026280 0.000000 1.779480 
# 
# From -- ./inp_files/37398.got.cif
#   From: 2010.05.17/outbox.cif.g08.bks.cpg/sg11_19_cif.got.tgz:37398.got - 2010.06.03 12:22:45.
