data_PCOD9161077
_publ_section_title
;
Structure prediction by ZEFSAII (Michael W. Deem and Ramdas Pophale) SiO2 
 PCOD9161077
Probable space group: P 21/M
;
_chemical_formula_sum "Si O2"
_cell_formula_units_Z 28
_cell_length_a 13.053442
_cell_length_b 9.284447
_cell_length_c 15.338016
_cell_angle_alpha 90.000000
_cell_angle_beta 54.039218
_cell_angle_gamma 90.000000
_cell_volume 1504.609287
_symmetry_space_group_name_H-M "P 21/M"
_symmetry_group_IT_number 11
_symmetry_cell_setting 'monoclinic'
loop_
_space_group_symop_operation_xyz
x,y,z
-x,1/2+y,-z
-x,-y,-z
x,1/2-y,z
loop_
_atom_site_type_symbol
_atom_site_label
_atom_site_fract_x
_atom_site_fract_y
_atom_site_fract_z
Si Si1 0.193739 0.083204 0.884912
Si Si2 0.181538 0.080704 0.517991
Si Si3 0.012112 0.916230 0.857098
Si Si4 0.522133 0.918312 0.224504
Si Si5 0.710902 0.579400 0.729200
Si Si6 0.412151 0.917690 0.475564
Si Si7 0.082469 0.921464 0.265800
O O1 0.204386 0.250000 0.849546
O O2 0.331516 0.037408 0.849133
O O3 0.094058 0.079894 0.013872
O O4 0.137613 0.985072 0.836570
O O5 0.204193 0.250000 0.524529
O O6 0.219702 0.054061 0.398812
O O7 0.035261 0.050656 0.609981
O O8 0.274310 0.988727 0.532818
O O9 0.031366 0.750000 0.821841
O O10 0.962051 0.010957 0.802781
O O11 0.512476 0.750000 0.203654
O O12 0.475666 0.928795 0.347996
O O13 0.428429 0.013518 0.213589
O O14 0.706936 0.750000 0.747009
O O15 0.792961 0.498487 0.760411
O O16 0.401937 0.750000 0.503824
O O17 0.500000 0.000000 0.500000
O O18 0.100612 0.750000 0.250104
#
# Coordination Sequence:
#
# PCOD9161077 Si02
#       7
#     4   4   4   4   4   4   4
#     4   9  19  38  60  80 108 143 178 220 273 327
#     4   9  20  36  53  75 106 145 182 219 265 316
#     4  10  21  36  56  84 111 137 178 228 272 318
#     4   9  19  36  57  77 103 144 181 213 266 326
#     4  10  20  36  56  81 110 139 179 227 268 314
#     4  10  20  32  49  76 110 142 177 219 261 316
#     4  11  22  36  56  79 109 146 183 221 268 324
#
# _framework density 18.609482
#
# number of rings (size 3 to 8) (size 9 to 14) (size 15 to 20)
#    0.000    2.286    0.000    2.143    2.000    3.429 
#    0.000    0.714    0.000    0.000    0.000    0.000 
#    0.000    0.000    0.000    0.000    0.000    0.000 
#
# Total GULP energy -156341.847311 kJ/mol
# GULP energy per Si atom -5583.637404 kJ/mol
# Density = 1.856713 g / cm^3
# Si number density = 18.609482 Si / 1000 Ang^3
#
#
#
# Elastic Constant Matrix: (Units=GPa)
#
#
# Indices 1 2 3 4 5 6 
#
# 1 135.4357 69.1682 22.7615 0.0000 -15.7695 0.0000
# 2 69.1682 75.8008 20.0734 0.0000 -2.5138 0.0000
# 3 22.7615 20.0734 9.9521 0.0000 -5.4565 0.0000
# 4 0.0000 0.0000 0.0000 21.6642 0.0000 3.0656
# 5 -15.7695 -2.5138 -5.4565 0.0000 21.5411 0.0000
# 6 0.0000 0.0000 0.0000 3.0656 0.0000 41.7941
#
#
#
# Elastic Compliance Matrix: (Units=1/GPa)
#
#
# Indices 1 2 3 4 5 6 
#
# 1 0.015803 -0.012454 -0.006362 0.000000 0.008504 0.000000
# 2 -0.012454 0.041636 -0.067159 0.000000 -0.021270 0.000000
# 3 -0.006362 -0.067159 0.282934 0.000000 0.059175 0.000000
# 4 0.000000 0.000000 0.000000 0.046643 0.000000 -0.003421
# 5 0.008504 -0.021270 0.059175 0.000000 0.065156 0.000000
# 6 0.000000 0.000000 0.000000 -0.003421 0.000000 0.024178
#
#
# Mechanical properties :
#
#
# Convention : Reuss Voigt Hill
#
# Bulk Modulus (GPa) = 5.93736 49.46610 27.70173
# Shear Modulus (GPa) = 7.09785 24.27890 15.68837
#
# Velocity S-wave (km/s) = 1.95509 3.61592 2.90665
# Velocity P-wave (km/s) = 2.87992 6.63867 5.11693
#
# Compressibility (1/GPa) = 0.16842500
#
# Stress axis : x y z
#
# Youngs Moduli (GPa) = 63.27882 24.01778 3.53439
#
# Poissons Ratio (x) = 0.29911 0.02248
# Poissons Ratio (y) = 0.78805 0.23736
# Poissons Ratio (z) = 0.40256 1.61300
#
# Static dielectric constant tensor:
#      x y z
#    x 1.611980 0.000000 -0.013210 
#    y 0.000000 1.627890 0.000000 
#    z -0.013210 0.000000 1.649290 
# 
# From -- ./inp_files/37210.got.cif
#   From: 2010.05.17/outbox.cif.g08.bks.cpg/sg11_19_cif.got.tgz:37210.got - 2010.06.03 12:22:45.
