data_PCOD9161182
_publ_section_title
;
Structure prediction by ZEFSAII (Michael W. Deem and Ramdas Pophale) SiO2 
 PCOD9161182
Probable space group: P 21/M
;
_chemical_formula_sum "Si O2"
_cell_formula_units_Z 32
_cell_length_a 26.003546
_cell_length_b 8.031250
_cell_length_c 20.780467
_cell_angle_alpha 90.000000
_cell_angle_beta 159.100389
_cell_angle_gamma 90.000000
_cell_volume 1548.148706
_symmetry_space_group_name_H-M "P 21/M"
_symmetry_group_IT_number 11
_symmetry_cell_setting 'monoclinic'
loop_
_space_group_symop_operation_xyz
x,y,z
-x,1/2+y,-z
-x,-y,-z
x,1/2-y,z
loop_
_atom_site_type_symbol
_atom_site_label
_atom_site_fract_x
_atom_site_fract_y
_atom_site_fract_z
Si Si1 0.689955 0.545604 0.906204
Si Si2 0.405099 0.050033 0.061822
Si Si3 0.722723 0.045877 0.457638
Si Si4 0.415878 0.434601 0.341697
Si Si5 0.833268 0.446230 0.873389
Si Si6 0.999738 0.948644 0.296894
Si Si7 0.835452 0.451460 0.729747
Si Si8 0.093000 0.554366 0.669658
O O1 0.691903 0.750000 0.904303
O O2 0.631973 0.505239 0.908039
O O3 0.588172 0.477989 0.731439
O O4 0.854095 0.485837 0.093187
O O5 0.404843 0.250000 0.054772
O O6 0.570190 0.991684 0.248145
O O7 0.262696 0.988631 0.858389
O O8 0.719342 0.250000 0.454291
O O9 0.855898 0.988559 0.568690
O O10 0.750746 0.997497 0.565577
O O11 0.500000 0.500000 0.500000
O O12 0.470206 0.250000 0.394177
O O13 0.251929 0.444217 0.174858
O O14 0.802490 0.250000 0.846927
O O15 0.784481 0.492946 0.743139
O O16 0.002473 0.477167 0.080841
O O17 0.002495 0.750000 0.290950
O O18 0.971780 0.977114 0.340159
O O19 0.843939 0.250000 0.738149
O O20 0.082251 0.750000 0.665435
O O21 0.000000 0.500000 0.500000
#
# Coordination Sequence:
#
# PCOD9161182 Si02
#       8
#     4   4   4   4   4   4   4   4
#     4   8  16  31  53  73 101 143 186 227 271 327
#     4   9  18  35  59  86 112 143 184 228 272 325
#     4   9  17  31  58  86 109 142 186 228 271 328
#     4  11  22  34  49  70 100 139 184 234 284 333
#     4  10  20  33  49  71 100 135 182 234 284 333
#     4   9  17  34  59  87 110 138 181 225 268 321
#     4   9  18  33  54  74  99 139 183 225 272 331
#     4  11  22  39  62  87 115 149 182 216 260 317
#
# _framework density 20.66985
#
# number of rings (size 3 to 8) (size 9 to 14) (size 15 to 20)
#    0.000    2.500    0.000    3.375    1.750    2.500 
#    0.000   10.000    0.000    0.000    0.000    0.000 
#    0.000    0.000    0.000    0.000    0.000    0.000 
#
# Total GULP energy -178347.545704 kJ/mol
# GULP energy per Si atom -5573.360803 kJ/mol
# Density = 2.062280 g / cm^3
# Si number density = 20.669850 Si / 1000 Ang^3
#
#
#
# Elastic Constant Matrix: (Units=GPa)
#
#
# Indices 1 2 3 4 5 6 
#
# 1 36.2215 -8.1695 33.3602 0.0000 -7.4224 0.0000
# 2 -8.1695 10.7257 -0.2207 0.0000 1.8984 0.0000
# 3 33.3602 -0.2207 119.3397 0.0000 -13.2898 0.0000
# 4 0.0000 0.0000 0.0000 21.3376 0.0000 -0.5805
# 5 -7.4224 1.8984 -13.2898 0.0000 38.1769 0.0000
# 6 0.0000 0.0000 0.0000 -0.5805 0.0000 12.8786
#
#
#
# Elastic Compliance Matrix: (Units=1/GPa)
#
#
# Indices 1 2 3 4 5 6 
#
# 1 0.048490 0.036123 -0.013148 0.000000 0.003054 0.000000
# 2 0.036123 0.120986 -0.010156 0.000000 -0.002529 0.000000
# 3 -0.013148 -0.010156 0.012284 0.000000 0.002225 0.000000
# 4 0.000000 0.000000 0.000000 0.046923 0.000000 0.002115
# 5 0.003054 -0.002529 0.002225 0.000000 0.027688 0.000000
# 6 0.000000 0.000000 0.000000 0.002115 0.000000 0.077743
#
#
# Mechanical properties :
#
#
# Convention : Reuss Voigt Hill
#
# Bulk Modulus (GPa) = 4.82165 24.02523 14.42344
# Shear Modulus (GPa) = 13.24121 23.89976 18.57048
#
# Velocity S-wave (km/s) = 2.53376 3.40407 3.00064
# Velocity P-wave (km/s) = 3.30117 5.20566 4.35870
#
# Compressibility (1/GPa) = 0.20739772
#
# Stress axis : x y z
#
# Youngs Moduli (GPa) = 20.62264 8.26544 81.40776
#
# Poissons Ratio (x) = -0.29857 1.07036
# Poissons Ratio (y) = -0.74494 0.82674
# Poissons Ratio (z) = 0.27115 0.08394
#
# Static dielectric constant tensor:
#      x y z
#    x 1.732910 0.000000 0.019090 
#    y 0.000000 1.513470 0.000000 
#    z 0.019090 0.000000 1.794030 
# 
# From -- ./inp_files/67185.got.cif
#   From: 2010.05.17/outbox.cif.g08.bks.cpg/sg11_34_cif.got.tgz:67185.got - 2010.06.03 12:22:45.
