data_PCOD9161472
_publ_section_title
;
Structure prediction by ZEFSAII (Michael W. Deem and Ramdas Pophale) SiO2 
 PCOD9161472
Probable space group: P 21/M
;
_chemical_formula_sum "Si O2"
_cell_formula_units_Z 32
_cell_length_a 31.826187
_cell_length_b 7.725490
_cell_length_c 12.384985
_cell_angle_alpha 90.000000
_cell_angle_beta 151.397520
_cell_angle_gamma 90.000000
_cell_volume 1457.795639
_symmetry_space_group_name_H-M "P 21/M"
_symmetry_group_IT_number 11
_symmetry_cell_setting 'monoclinic'
loop_
_space_group_symop_operation_xyz
x,y,z
-x,1/2+y,-z
-x,-y,-z
x,1/2-y,z
loop_
_atom_site_type_symbol
_atom_site_label
_atom_site_fract_x
_atom_site_fract_y
_atom_site_fract_z
Si Si1 0.238873 0.549035 0.017646
Si Si2 0.439454 0.958435 0.465390
Si Si3 0.358592 0.452600 0.679208
Si Si4 0.914417 0.455940 0.735459
Si Si5 0.899875 0.950629 0.455666
Si Si6 0.490138 0.040057 0.147638
Si Si7 0.170149 0.947715 0.250051
Si Si8 0.908861 0.036433 0.147854
O O1 0.249360 0.750000 0.071809
O O2 0.186768 0.538470 0.787136
O O3 0.167587 0.477338 0.943139
O O4 0.337956 0.476352 0.234924
O O5 0.434484 0.750000 0.459389
O O6 0.488824 0.019750 0.684932
O O7 0.500000 0.000000 0.500000
O O8 0.337462 0.250000 0.640132
O O9 0.432139 0.478299 0.754785
O O10 0.271384 0.548900 0.448889
O O11 0.400626 0.515601 0.886806
O O12 0.909942 0.250000 0.706609
O O13 0.909935 0.536930 0.607399
O O14 0.840159 0.518603 0.652353
O O15 0.000000 0.500000 0.000000
O O16 0.892194 0.750000 0.409087
O O17 0.990587 0.020060 0.607710
O O18 0.489901 0.250000 0.145030
O O19 0.138451 0.750000 0.186132
O O20 0.116693 0.025702 0.030364
O O21 0.909448 0.250000 0.150305
#
# Coordination Sequence:
#
# PCOD9161472 Si02
#       8
#     4   4   4   4   4   4   4   4
#     4  10  21  38  60  86 113 148 196 242 290 350
#     4  10  22  40  62  83 111 152 196 241 292 351
#     4  10  20  33  55  89 117 141 185 239 284 336
#     4  11  22  38  59  82 114 154 194 234 279 336
#     4  11  22  38  59  85 119 155 195 241 289 341
#     4   9  19  38  59  79 111 152 186 227 292 351
#     4  10  20  36  57  81 114 156 192 226 282 344
#     4   9  18  36  60  83 113 153 195 235 282 346
#
# _framework density 21.950949000000001
#
# number of rings (size 3 to 8) (size 9 to 14) (size 15 to 20)
#    0.000    2.000    1.250    2.250    0.000    5.500 
#    0.000    5.000    0.000    0.000    0.000    0.000 
#    0.000    0.000    0.000    0.000    0.000    0.000 
#
# Total GULP energy -178579.879442 kJ/mol
# GULP energy per Si atom -5580.621233 kJ/mol
# Density = 2.190099 g / cm^3
# Si number density = 21.950949 Si / 1000 Ang^3
#
#
#
# Elastic Constant Matrix: (Units=GPa)
#
#
# Indices 1 2 3 4 5 6 
#
# 1 81.2482 -3.2805 14.6947 0.0000 -26.3427 0.0000
# 2 -3.2805 39.2982 -1.2780 0.0000 0.4274 0.0000
# 3 14.6947 -1.2780 75.0934 0.0000 -17.9573 0.0000
# 4 0.0000 0.0000 0.0000 17.5481 0.0000 2.9416
# 5 -26.3427 0.4274 -17.9573 0.0000 31.2343 0.0000
# 6 0.0000 0.0000 0.0000 2.9416 0.0000 18.1540
#
#
#
# Elastic Compliance Matrix: (Units=1/GPa)
#
#
# Indices 1 2 3 4 5 6 
#
# 1 0.017004 0.001267 0.000138 0.000000 0.014403 0.000000
# 2 0.001267 0.025555 0.000416 0.000000 0.000958 0.000000
# 3 0.000138 0.000416 0.015447 0.000000 0.008992 0.000000
# 4 0.000000 0.000000 0.000000 0.058577 0.000000 -0.009492
# 5 0.014403 0.000958 0.008992 0.000000 0.049320 0.000000
# 6 0.000000 0.000000 0.000000 -0.009492 0.000000 0.056622
#
#
# Mechanical properties :
#
#
# Convention : Reuss Voigt Hill
#
# Bulk Modulus (GPa) = 16.22058 23.99023 20.10540
# Shear Modulus (GPa) = 20.88273 25.75420 23.31847
#
# Velocity S-wave (km/s) = 3.08772 3.42901 3.26283
# Velocity P-wave (km/s) = 4.48526 5.16044 4.83465
#
# Compressibility (1/GPa) = 0.06165009
#
# Stress axis : x y z
#
# Youngs Moduli (GPa) = 58.80970 39.13069 64.73751
#
# Poissons Ratio (x) = -0.04959 -0.00896
# Poissons Ratio (y) = -0.07453 -0.02694
# Poissons Ratio (z) = -0.00814 -0.01628
#
# Static dielectric constant tensor:
#      x y z
#    x 1.846740 0.000000 0.002310 
#    y 0.000000 1.831770 0.000000 
#    z 0.002310 0.000000 1.815490 
# 
# From -- ./inp_files/45370.got.cif
#   From: 2010.05.17/outbox.cif.g08.bks.cpg/sg11_23_cif.got.tgz:45370.got - 2010.06.03 12:22:45.
