data_PCOD9161523
_publ_section_title
;
Structure prediction by ZEFSAII (Michael W. Deem and Ramdas Pophale) SiO2 
 PCOD9161523
Probable space group: P 21/M
;
_chemical_formula_sum "Si O2"
_cell_formula_units_Z 32
_cell_length_a 22.881830
_cell_length_b 7.466657
_cell_length_c 22.164450
_cell_angle_alpha 90.000000
_cell_angle_beta 19.198413
_cell_angle_gamma 90.000000
_cell_volume 1245.257598
_symmetry_space_group_name_H-M "P 21/M"
_symmetry_group_IT_number 11
_symmetry_cell_setting 'monoclinic'
loop_
_space_group_symop_operation_xyz
x,y,z
-x,1/2+y,-z
-x,-y,-z
x,1/2-y,z
loop_
_atom_site_type_symbol
_atom_site_label
_atom_site_fract_x
_atom_site_fract_y
_atom_site_fract_z
Si Si1 0.318882 0.531553 0.885884
Si Si2 0.834320 0.531743 0.584330
Si Si3 0.957487 0.550983 0.270751
Si Si4 0.374074 0.032066 0.329731
Si Si5 0.315874 0.035730 0.147542
Si Si6 0.205593 0.542744 0.787083
Si Si7 0.488974 0.465811 0.421425
Si Si8 0.168252 0.044331 0.179715
O O1 0.308564 0.750000 0.894567
O O2 0.430509 0.480502 0.837172
O O3 0.445431 0.475291 0.707842
O O4 0.114405 0.467206 0.076887
O O5 0.165214 0.250000 0.415568
O O6 0.690567 0.474492 0.673275
O O7 0.808631 0.465819 0.677206
O O8 0.015545 0.460927 0.380099
O O9 0.913603 0.750000 0.290081
O O10 0.080217 0.562645 0.211427
O O11 0.776066 0.471136 0.474483
O O12 0.365800 0.250000 0.339327
O O13 0.296340 0.250000 0.159961
O O14 0.317834 0.962714 0.077199
O O15 0.500000 0.000000 0.000000
O O16 0.215055 0.750000 0.791060
O O17 0.292137 0.515317 0.636546
O O18 0.357493 0.461204 0.682848
O O19 0.000000 0.500000 0.000000
O O20 0.489619 0.250000 0.420628
O O21 0.190691 0.250000 0.138912
#
# Coordination Sequence:
#
# PCOD9161523 Si02
#       8
#     4   4   4   4   4   4   4   4
#     4   9  17  30  53  80 104 135 175 222 266 302
#     4   9  18  34  53  71  92 125 167 208 252 308
#     4   9  18  32  52  75  99 134 175 212 257 311
#     4   8  15  28  48  75 100 123 167 220 257 304
#     4  10  22  34  48  73 100 125 160 206 257 314
#     4  10  20  35  57  83 114 152 187 223 270 321
#     4   9  19  35  55  84 116 144 183 231 274 315
#     4  10  20  34  50  71  99 129 162 206 260 313
#
# _framework density 25.697493000000001
#
# number of rings (size 3 to 8) (size 9 to 14) (size 15 to 20)
#    0.000    2.750    0.000    1.875    1.750    3.000 
#    0.000    4.375    0.000    6.000    0.000    0.000 
#    0.000    0.000    0.000    0.000    0.000    0.000 
#
# Total GULP energy -178471.360716 kJ/mol
# GULP energy per Si atom -5577.230022 kJ/mol
# Density = 2.563900 g / cm^3
# Si number density = 25.697493 Si / 1000 Ang^3
#
#
#
# Elastic Constant Matrix: (Units=GPa)
#
#
# Indices 1 2 3 4 5 6 
#
# 1 29.9868 2.4402 -4.8329 0.0000 9.8788 0.0000
# 2 2.4402 89.7770 8.3510 0.0000 -2.6852 0.0000
# 3 -4.8329 8.3510 133.3137 0.0000 7.2017 0.0000
# 4 0.0000 0.0000 0.0000 20.0113 0.0000 2.1920
# 5 9.8788 -2.6852 7.2017 0.0000 30.7038 0.0000
# 6 0.0000 0.0000 0.0000 2.1920 0.0000 10.0745
#
#
#
# Elastic Compliance Matrix: (Units=1/GPa)
#
#
# Indices 1 2 3 4 5 6 
#
# 1 0.038083 -0.001624 0.002180 0.000000 -0.012906 0.000000
# 2 -0.001624 0.011314 -0.000860 0.000000 0.001714 0.000000
# 3 0.002180 -0.000860 0.007774 0.000000 -0.002600 0.000000
# 4 0.000000 0.000000 0.000000 0.051192 0.000000 -0.011139
# 5 -0.012906 0.001714 -0.002600 0.000000 0.037481 0.000000
# 6 0.000000 0.000000 0.000000 -0.011139 0.000000 0.101685
#
#
# Mechanical properties :
#
#
# Convention : Reuss Voigt Hill
#
# Bulk Modulus (GPa) = 17.67950 29.44381 23.56165
# Shear Modulus (GPa) = 18.72708 28.63253 23.67981
#
# Velocity S-wave (km/s) = 2.70247 3.34161 3.03889
# Velocity P-wave (km/s) = 4.07830 5.13529 4.63701
#
# Compressibility (1/GPa) = 0.05656269
#
# Stress axis : x y z
#
# Youngs Moduli (GPa) = 26.25828 88.38510 128.62642
#
# Poissons Ratio (x) = 0.14353 -0.28034
# Poissons Ratio (y) = 0.04264 0.11064
# Poissons Ratio (z) = -0.05723 0.07603
#
# Static dielectric constant tensor:
#      x y z
#    x 2.222170 0.000000 -0.008530 
#    y 0.000000 1.967400 0.000000 
#    z -0.008530 0.000000 2.242840 
# 
# From -- ./inp_files/69939.got.cif
#   From: 2010.05.17/outbox.cif.g08.bks.cpg/sg11_35_cif.got.tgz:69939.got - 2010.06.03 12:22:45.
