data_PCOD9161120
_publ_section_title
;
Structure prediction by ZEFSAII (Michael W. Deem and Ramdas Pophale) SiO2 
 PCOD9161120
Probable space group: P 21/M
;
_chemical_formula_sum "Si O2"
_cell_formula_units_Z 24
_cell_length_a 5.580436
_cell_length_b 23.190982
_cell_length_c 9.285392
_cell_angle_alpha 90.000000
_cell_angle_beta 76.550222
_cell_angle_gamma 90.000000
_cell_volume 1168.719379
_symmetry_space_group_name_H-M "P 21/M"
_symmetry_group_IT_number 11
_symmetry_cell_setting 'monoclinic'
loop_
_space_group_symop_operation_xyz
x,y,z
-x,1/2+y,-z
-x,-y,-z
x,1/2-y,z
loop_
_atom_site_type_symbol
_atom_site_label
_atom_site_fract_x
_atom_site_fract_y
_atom_site_fract_z
Si Si1 0.645059 0.012941 0.626873
Si Si2 0.899725 0.907276 0.534733
Si Si3 0.624584 0.618752 0.275970
Si Si4 0.432276 0.819556 0.816685
Si Si5 0.281363 0.818166 0.528844
Si Si6 0.869894 0.679768 0.973903
O O1 0.484926 0.055565 0.748457
O O2 0.260891 0.050247 0.341529
O O3 0.500000 0.000000 0.500000
O O4 0.128700 0.947782 0.455772
O O5 0.023537 0.850771 0.582987
O O6 0.777184 0.891940 0.400049
O O7 0.406615 0.660499 0.364048
O O8 0.780002 0.649795 0.132827
O O9 0.433050 0.750000 0.821409
O O10 0.659954 0.837121 0.885634
O O11 0.154708 0.837215 0.903316
O O12 0.445484 0.834959 0.645349
O O13 0.247531 0.750000 0.533234
O O14 0.865951 0.750000 0.985717
#
# Coordination Sequence:
#
# PCOD9161120 Si02
#       6
#     4   4   4   4   4   4
#     4   8  16  33  52  80 108 142 182 229 287 340
#     4   9  18  32  55  82 109 143 182 237 282 335
#     4  10  20  32  56  85 108 140 188 247 281 327
#     4   9  21  38  54  74 113 162 192 220 282 358
#     4  10  21  34  53  83 113 146 189 234 280 334
#     4  10  21  37  55  79 115 155 190 229 287 349
#
# _framework density 20.535295000000001
#
# number of rings (size 3 to 8) (size 9 to 14) (size 15 to 20)
#    0.000    2.667    0.000    0.500    7.000    1.333 
#    0.000    0.000    0.000    2.000    0.000    0.000 
#    0.000    0.000    0.000    0.000    0.000    0.000 
#
# Total GULP energy -133719.468150 kJ/mol
# GULP energy per Si atom -5571.644506 kJ/mol
# Density = 2.048856 g / cm^3
# Si number density = 20.535295 Si / 1000 Ang^3
#
#
#
# Elastic Constant Matrix: (Units=GPa)
#
#
# Indices 1 2 3 4 5 6 
#
# 1 92.1991 21.7294 24.9358 0.0000 3.1507 0.0000
# 2 21.7294 82.1869 11.2293 0.0000 6.8908 0.0000
# 3 24.9358 11.2293 63.5724 0.0000 -12.4852 0.0000
# 4 0.0000 0.0000 0.0000 16.1806 0.0000 8.3334
# 5 3.1507 6.8908 -12.4852 0.0000 28.9470 0.0000
# 6 0.0000 0.0000 0.0000 8.3334 0.0000 30.5029
#
#
#
# Elastic Compliance Matrix: (Units=1/GPa)
#
#
# Indices 1 2 3 4 5 6 
#
# 1 0.012950 -0.002446 -0.005255 0.000000 -0.003094 0.000000
# 2 -0.002446 0.013436 -0.002174 0.000000 -0.003870 0.000000
# 3 -0.005255 -0.002174 0.020091 0.000000 0.009755 0.000000
# 4 0.000000 0.000000 0.000000 0.071922 0.000000 -0.019649
# 5 -0.003094 -0.003870 0.009755 0.000000 0.040011 0.000000
# 6 0.000000 0.000000 0.000000 -0.019649 0.000000 0.038152
#
#
# Mechanical properties :
#
#
# Convention : Reuss Voigt Hill
#
# Bulk Modulus (GPa) = 37.41596 39.30525 38.36061
# Shear Modulus (GPa) = 22.20053 27.13035 24.66544
#
# Velocity S-wave (km/s) = 3.29156 3.63872 3.46948
# Velocity P-wave (km/s) = 5.71889 6.06923 5.89666
#
# Compressibility (1/GPa) = 0.02672656
#
# Stress axis : x y z
#
# Youngs Moduli (GPa) = 77.22262 74.42905 49.77352
#
# Poissons Ratio (x) = 0.18208 0.26155
# Poissons Ratio (y) = 0.18892 0.10819
# Poissons Ratio (z) = 0.40579 0.16178
#
# Static dielectric constant tensor:
#      x y z
#    x 1.843870 0.000000 -0.026250 
#    y 0.000000 1.762110 0.000000 
#    z -0.026250 0.000000 1.716530 
# 
# From -- ./inp_files/10439.got.cif
#   From: 2010.05.17/outbox.cif.g08.bks.cpg/sg11_6_cif.got.tgz:10439.got - 2010.06.03 12:22:45.
