data_PCOD9161304
_publ_section_title
;
Structure prediction by ZEFSAII (Michael W. Deem and Ramdas Pophale) SiO2 
 PCOD9161304
Probable space group: P 21/M
;
_chemical_formula_sum "Si O2"
_cell_formula_units_Z 24
_cell_length_a 26.657417
_cell_length_b 10.054600
_cell_length_c 18.580395
_cell_angle_alpha 90.000000
_cell_angle_beta 167.020121
_cell_angle_gamma 90.000000
_cell_volume 1118.573938
_symmetry_space_group_name_H-M "P 21/M"
_symmetry_group_IT_number 11
_symmetry_cell_setting 'monoclinic'
loop_
_space_group_symop_operation_xyz
x,y,z
-x,1/2+y,-z
-x,-y,-z
x,1/2-y,z
loop_
_atom_site_type_symbol
_atom_site_label
_atom_site_fract_x
_atom_site_fract_y
_atom_site_fract_z
Si Si1 0.039581 0.605279 0.617679
Si Si2 0.020031 0.402539 0.794233
Si Si3 0.693385 0.467796 0.214793
Si Si4 0.202896 0.401788 0.270636
Si Si5 0.303138 0.104292 0.573825
Si Si6 0.365597 0.592949 0.207758
O O1 0.066702 0.750000 0.623412
O O2 0.816233 0.595189 0.354000
O O3 0.000000 0.500000 0.500000
O O4 0.234942 0.581361 0.948490
O O5 0.062001 0.250000 0.876087
O O6 0.883319 0.396262 0.527094
O O7 0.856899 0.487970 0.618739
O O8 0.239737 0.491167 0.084747
O O9 0.500000 0.500000 0.000000
O O10 0.551350 0.401479 0.953301
O O11 0.127762 0.250000 0.152482
O O12 0.321937 0.403219 0.514697
O O13 0.377584 0.438794 0.452418
O O14 0.000000 0.500000 0.000000
O O15 0.205587 0.250000 0.457059
O O16 0.348908 0.750000 0.205562
#
# Coordination Sequence:
#
# PCOD9161304 Si02
#       6
#     4   4   4   4   4   4
#     4  10  20  33  51  77 110 146 183 220 263 320
#     4  10  20  33  54  87 118 144 179 222 263 311
#     4   9  19  33  52  79 114 150 183 216 257 314
#     4  10  22  40  61  82 104 137 184 233 280 326
#     4  10  20  36  57  80 111 151 185 217 268 331
#     4   9  19  37  56  75 106 146 180 216 270 332
#
# _framework density 21.455891999999999
#
# number of rings (size 3 to 8) (size 9 to 14) (size 15 to 20)
#    0.000    2.333    0.000    2.000    0.000   12.667 
#    0.000    2.500    0.000    0.000    0.000    0.000 
#    0.000    0.000    0.000    0.000    0.000    0.000 
#
# Total GULP energy -133851.293830 kJ/mol
# GULP energy per Si atom -5577.137243 kJ/mol
# Density = 2.140706 g / cm^3
# Si number density = 21.455892 Si / 1000 Ang^3
#
#
#
# Elastic Constant Matrix: (Units=GPa)
#
#
# Indices 1 2 3 4 5 6 
#
# 1 64.0989 42.7755 29.2491 0.0000 12.3711 0.0000
# 2 42.7755 135.2675 39.5942 0.0000 33.1034 0.0000
# 3 29.2491 39.5942 84.6745 0.0000 37.9188 0.0000
# 4 0.0000 0.0000 0.0000 20.4310 0.0000 6.1206
# 5 12.3711 33.1034 37.9188 0.0000 43.9382 0.0000
# 6 0.0000 0.0000 0.0000 6.1206 0.0000 27.9117
#
#
#
# Elastic Compliance Matrix: (Units=1/GPa)
#
#
# Indices 1 2 3 4 5 6 
#
# 1 0.021782 -0.005953 -0.006524 0.000000 0.003982 0.000000
# 2 -0.005953 0.010887 -0.000182 0.000000 -0.006369 0.000000
# 3 -0.006524 -0.000182 0.021620 0.000000 -0.016684 0.000000
# 4 0.000000 0.000000 0.000000 0.052387 0.000000 -0.011488
# 5 0.003982 -0.006369 -0.016684 0.000000 0.040835 0.000000
# 6 0.000000 0.000000 0.000000 -0.011488 0.000000 0.038346
#
#
# Mechanical properties :
#
#
# Convention : Reuss Voigt Hill
#
# Bulk Modulus (GPa) = 34.51744 56.36428 45.44086
# Shear Modulus (GPa) = 22.64159 29.95099 26.29629
#
# Velocity S-wave (km/s) = 3.25200 3.74027 3.50465
# Velocity P-wave (km/s) = 5.49757 6.70669 6.13201
#
# Compressibility (1/GPa) = 0.02897087
#
# Stress axis : x y z
#
# Youngs Moduli (GPa) = 45.90982 91.84971 46.25314
#
# Poissons Ratio (x) = 0.54678 0.30174
# Poissons Ratio (y) = 0.27330 0.00844
# Poissons Ratio (z) = 0.29950 0.01676
#
# Static dielectric constant tensor:
#      x y z
#    x 1.788690 0.000000 -0.040070 
#    y 0.000000 1.773070 0.000000 
#    z -0.040070 0.000000 1.825320 
# 
# From -- ./inp_files/67469.got.cif
#   From: 2010.05.17/outbox.cif.g08.bks.cpg/sg11_34_cif.got.tgz:67469.got - 2010.06.03 12:22:45.
