data_PCOD9161845
_publ_section_title
;
Structure prediction by ZEFSAII (Michael W. Deem and Ramdas Pophale) SiO2 
 PCOD9161845
Probable space group: P 21/M
;
_chemical_formula_sum "Si O2"
_cell_formula_units_Z 32
_cell_length_a 16.855245
_cell_length_b 8.166054
_cell_length_c 11.806614
_cell_angle_alpha 90.000000
_cell_angle_beta 92.062907
_cell_angle_gamma 90.000000
_cell_volume 1624.019081
_symmetry_space_group_name_H-M "P 21/M"
_symmetry_group_IT_number 11
_symmetry_cell_setting 'monoclinic'
loop_
_space_group_symop_operation_xyz
x,y,z
-x,1/2+y,-z
-x,-y,-z
x,1/2-y,z
loop_
_atom_site_type_symbol
_atom_site_label
_atom_site_fract_x
_atom_site_fract_y
_atom_site_fract_z
Si Si1 0.580954 0.554563 0.061525
Si Si2 0.175433 0.446199 0.843322
Si Si3 0.956508 0.551518 0.328910
Si Si4 0.590820 0.555645 0.509516
Si Si5 0.331343 0.558191 0.719171
Si Si6 0.115925 0.446424 0.436283
Si Si7 0.739333 0.949020 0.933660
Si Si8 0.273836 0.451130 0.323363
O O1 0.581545 0.750000 0.077243
O O2 0.600935 0.474373 0.183017
O O3 0.500000 0.500000 0.000000
O O4 0.653808 0.511124 0.982498
O O5 0.168621 0.250000 0.851454
O O6 0.095461 0.507316 0.779716
O O7 0.250852 0.479641 0.765309
O O8 0.197425 0.509402 0.969660
O O9 0.956906 0.750000 0.329291
O O10 0.911913 0.494073 0.441660
O O11 0.046526 0.492771 0.345034
O O12 0.500000 0.500000 0.500000
O O13 0.589128 0.750000 0.517999
O O14 0.638539 0.510238 0.398261
O O15 0.642820 0.493583 0.618721
O O16 0.317481 0.750000 0.707406
O O17 0.119689 0.250000 0.443159
O O18 0.201454 0.504791 0.399871
O O19 0.745265 0.750000 0.930979
O O20 0.742874 0.007183 0.805265
O O21 0.274291 0.250000 0.321787
#
# Coordination Sequence:
#
# PCOD9161845 Si02
#       8
#     4   4   4   4   4   4   4   4
#     4  10  20  34  55  80 106 137 178 227 275 323
#     4   9  17  33  56  79 105 137 177 222 270 321
#     4   9  17  30  50  76 106 137 172 219 271 319
#     4  11  23  38  56  79 108 141 180 225 275 331
#     4  11  22  36  54  77 107 140 180 224 271 324
#     4   9  17  30  50  76 102 136 177 215 260 317
#     4   8  16  31  52  77 101 135 177 216 263 321
#     4   9  18  34  55  76 105 141 176 217 267 326
#
# _framework density 19.704201000000001
#
# number of rings (size 3 to 8) (size 9 to 14) (size 15 to 20)
#    0.000    2.500    0.000    3.375    1.750    2.500 
#    0.000    4.375    0.000    4.500    0.000    0.000 
#    0.000    0.000    0.000    0.000    0.000    0.000 
#
# Total GULP energy -178537.574603 kJ/mol
# GULP energy per Si atom -5579.299206 kJ/mol
# Density = 1.965935 g / cm^3
# Si number density = 19.704201 Si / 1000 Ang^3
#
#
#
# Elastic Constant Matrix: (Units=GPa)
#
#
# Indices 1 2 3 4 5 6 
#
# 1 90.0055 2.0863 45.4673 0.0000 30.2942 0.0000
# 2 2.0863 10.4216 5.7912 0.0000 0.7196 0.0000
# 3 45.4673 5.7912 85.9114 0.0000 16.7656 0.0000
# 4 0.0000 0.0000 0.0000 12.2478 0.0000 5.4540
# 5 30.2942 0.7196 16.7656 0.0000 30.1419 0.0000
# 6 0.0000 0.0000 0.0000 5.4540 0.0000 23.2018
#
#
#
# Elastic Compliance Matrix: (Units=1/GPa)
#
#
# Indices 1 2 3 4 5 6 
#
# 1 0.020482 0.001331 -0.007747 0.000000 -0.016308 0.000000
# 2 0.001331 0.099837 -0.007525 0.000000 0.000465 0.000000
# 3 -0.007747 -0.007525 0.016482 0.000000 -0.001202 0.000000
# 4 0.000000 0.000000 0.000000 0.091193 0.000000 -0.021436
# 5 -0.016308 0.000465 -0.001202 0.000000 0.050225 0.000000
# 6 0.000000 0.000000 0.000000 -0.021436 0.000000 0.048139
#
#
# Mechanical properties :
#
#
# Convention : Reuss Voigt Hill
#
# Bulk Modulus (GPa) = 9.18114 32.55868 20.86991
# Shear Modulus (GPa) = 12.80256 21.98454 17.39355
#
# Velocity S-wave (km/s) = 2.55176 3.34388 2.97431
# Velocity P-wave (km/s) = 3.65398 5.60966 4.73391
#
# Compressibility (1/GPa) = 0.10891890
#
# Stress axis : x y z
#
# Youngs Moduli (GPa) = 48.82289 10.01628 60.67365
#
# Poissons Ratio (x) = -0.01333 0.47004
# Poissons Ratio (y) = -0.06497 0.45656
# Poissons Ratio (z) = 0.37823 0.07537
#
# Static dielectric constant tensor:
#      x y z
#    x 1.667680 0.000000 0.031760 
#    y 0.000000 1.689230 0.000000 
#    z 0.031760 0.000000 1.704800 
# 
# From -- ./inp_files/38222.got.cif
#   From: 2010.05.17/outbox.cif.g08.bks.cpg/sg11_20_cif.got.tgz:38222.got - 2010.06.03 12:22:45.
