data_PCOD9161298
_publ_section_title
;
Structure prediction by ZEFSAII (Michael W. Deem and Ramdas Pophale) SiO2 
 PCOD9161298
Probable space group: P 21/M
;
_chemical_formula_sum "Si O2"
_cell_formula_units_Z 28
_cell_length_a 18.173616
_cell_length_b 14.080851
_cell_length_c 15.854545
_cell_angle_alpha 90.000000
_cell_angle_beta 22.327836
_cell_angle_gamma 90.000000
_cell_volume 1541.344578
_symmetry_space_group_name_H-M "P 21/M"
_symmetry_group_IT_number 11
_symmetry_cell_setting 'monoclinic'
loop_
_space_group_symop_operation_xyz
x,y,z
-x,1/2+y,-z
-x,-y,-z
x,1/2-y,z
loop_
_atom_site_type_symbol
_atom_site_label
_atom_site_fract_x
_atom_site_fract_y
_atom_site_fract_z
Si Si1 0.465995 0.642315 0.375829
Si Si2 0.639998 0.517079 0.046447
Si Si3 0.598223 0.639897 0.778453
Si Si4 0.786378 0.473519 0.251607
Si Si5 0.061948 0.499293 0.532510
Si Si6 0.405535 0.640113 0.164682
Si Si7 0.517297 0.858390 0.512691
O O1 0.444795 0.750000 0.367558
O O2 0.580602 0.576031 0.191179
O O3 0.259205 0.595321 0.620860
O O4 0.571072 0.645359 0.355671
O O5 0.515352 0.420642 0.171206
O O6 0.563663 0.581256 0.049272
O O7 0.866979 0.500374 0.793749
O O8 0.624995 0.750000 0.728979
O O9 0.799340 0.588732 0.589954
O O10 0.463637 0.633324 0.004944
O O11 0.684994 0.415696 0.281493
O O12 0.667652 0.570270 0.394994
O O13 0.000000 0.500000 0.000000
O O14 0.199825 0.590676 0.399057
O O15 0.000000 0.500000 0.500000
O O16 0.405765 0.750000 0.188532
O O17 0.504233 0.750000 0.557056
#
# Coordination Sequence:
#
# PCOD9161298 Si02
#       7
#     4   4   4   4   4   4   4
#     4   9  19  36  56  83 114 140 168 217 276 319
#     4  11  20  36  54  75 113 143 175 223 277 319
#     4  10  21  36  53  72 102 143 190 233 268 314
#     4   9  17  34  59  80 107 143 180 210 256 317
#     4  11  19  34  53  77 102 139 189 229 267 319
#     4  10  20  33  51  77 105 139 183 228 270 318
#     4   8  17  34  54  82 113 138 173 212 256 314
#
# _framework density 18.165958
#
# number of rings (size 3 to 8) (size 9 to 14) (size 15 to 20)
#    0.857    1.429    2.857    1.286    0.000    3.429 
#    5.143    0.714    0.000    1.714    0.000    0.000 
#    0.000    0.000    0.000    0.000    0.000    0.000 
#
# Total GULP energy -155878.287337 kJ/mol
# GULP energy per Si atom -5567.081691 kJ/mol
# Density = 1.812461 g / cm^3
# Si number density = 18.165958 Si / 1000 Ang^3
#
#
#
# Elastic Constant Matrix: (Units=GPa)
#
#
# Indices 1 2 3 4 5 6 
#
# 1 15.4346 20.1491 24.8989 0.0000 -2.6889 0.0000
# 2 20.1491 170.4115 62.2922 0.0000 -16.4557 0.0000
# 3 24.8989 62.2922 138.1526 0.0000 -16.8918 0.0000
# 4 0.0000 0.0000 0.0000 15.8808 0.0000 11.8808
# 5 -2.6889 -16.4557 -16.8918 0.0000 25.3927 0.0000
# 6 0.0000 0.0000 0.0000 11.8808 0.0000 20.1176
#
#
#
# Elastic Compliance Matrix: (Units=1/GPa)
#
#
# Indices 1 2 3 4 5 6 
#
# 1 0.096604 -0.006296 -0.015044 0.000000 -0.003857 0.000000
# 2 -0.006296 0.007606 -0.001931 0.000000 0.002978 0.000000
# 3 -0.015044 -0.001931 0.011400 0.000000 0.004739 0.000000
# 4 0.000000 0.000000 0.000000 0.112810 0.000000 -0.066622
# 5 -0.003857 0.002978 0.004739 0.000000 0.044055 0.000000
# 6 0.000000 0.000000 0.000000 -0.066622 0.000000 0.089052
#
#
# Mechanical properties :
#
#
# Convention : Reuss Voigt Hill
#
# Bulk Modulus (GPa) = 14.47813 59.85325 37.16569
# Shear Modulus (GPa) = 11.59847 26.72211 19.16029
#
# Velocity S-wave (km/s) = 2.52954 3.83952 3.25119
# Velocity P-wave (km/s) = 4.06432 7.25779 5.88193
#
# Compressibility (1/GPa) = 0.06906971
#
# Stress axis : x y z
#
# Youngs Moduli (GPa) = 10.35149 131.47801 87.72204
#
# Poissons Ratio (x) = 0.82775 1.31967
# Poissons Ratio (y) = 0.06517 0.16936
# Poissons Ratio (z) = 0.15573 0.25384
#
# Static dielectric constant tensor:
#      x y z
#    x 1.671650 0.000000 0.019420 
#    y 0.000000 1.645560 0.000000 
#    z 0.019420 0.000000 1.613160 
# 
# From -- ./inp_files/61570.got.cif
#   From: 2010.05.17/outbox.cif.g08.bks.cpg/sg11_31_cif.got.tgz:61570.got - 2010.06.03 12:22:45.
