data_PCOD9161961
_publ_section_title
;
Structure prediction by ZEFSAII (Michael W. Deem and Ramdas Pophale) SiO2 
 PCOD9161961
Probable space group: P 21/M
;
_chemical_formula_sum "Si O2"
_cell_formula_units_Z 32
_cell_length_a 11.987927
_cell_length_b 8.865186
_cell_length_c 22.007812
_cell_angle_alpha 90.000000
_cell_angle_beta 51.192650
_cell_angle_gamma 90.000000
_cell_volume 1822.593607
_symmetry_space_group_name_H-M "P 21/M"
_symmetry_group_IT_number 11
_symmetry_cell_setting 'monoclinic'
loop_
_space_group_symop_operation_xyz
x,y,z
-x,1/2+y,-z
-x,-y,-z
x,1/2-y,z
loop_
_atom_site_type_symbol
_atom_site_label
_atom_site_fract_x
_atom_site_fract_y
_atom_site_fract_z
Si Si1 0.362074 0.930685 0.765326
Si Si2 0.870716 0.431031 0.734800
Si Si3 0.845433 0.930692 0.535425
Si Si4 0.051763 0.576612 0.163268
Si Si5 0.648696 0.429644 0.706398
Si Si6 0.045891 0.571313 0.921063
Si Si7 0.169603 0.569832 0.589497
Si Si8 0.725699 0.924893 0.326626
O O1 0.375752 0.750000 0.759825
O O2 0.208648 0.970903 0.847086
O O3 0.489290 0.006985 0.758893
O O4 0.362825 0.992674 0.695894
O O5 0.903752 0.250000 0.721691
O O6 0.853975 0.472817 0.811287
O O7 0.733574 0.457352 0.739978
O O8 0.006981 0.518664 0.661227
O O9 0.855710 0.750000 0.529973
O O10 0.735948 0.986034 0.623855
O O11 0.798664 0.994772 0.486050
O O12 0.000000 0.000000 0.500000
O O13 0.084248 0.750000 0.137161
O O14 0.051219 0.481593 0.102343
O O15 0.890017 0.571515 0.245810
O O16 0.649869 0.250000 0.694736
O O17 0.039941 0.750000 0.928114
O O18 0.000000 0.500000 0.000000
O O19 0.178238 0.750000 0.583286
O O20 0.267722 0.506768 0.610711
O O21 0.683528 0.750000 0.347097
#
# Coordination Sequence:
#
# PCOD9161961 Si02
#       8
#     4   4   4   4   4   4   4   4
#     4  10  21  37  55  80 111 141 177 218 265 322
#     4   9  18  32  51  75 105 140 180 222 264 313
#     4  12  23  36  52  75 106 141 183 231 276 318
#     4   8  15  29  50  77 106 135 169 214 261 308
#     4  11  22  36  55  78 107 145 183 220 268 323
#     4  10  20  34  56  84 111 139 171 214 261 313
#     4  11  20  31  51  77 104 137 178 228 278 318
#     4   9  17  32  53  75 102 138 177 220 268 319
#
# _framework density 17.557397999999999
#
# number of rings (size 3 to 8) (size 9 to 14) (size 15 to 20)
#    0.000    2.000    1.250    4.500    0.000    5.000 
#    0.000    0.625    0.000    0.750    0.000    0.000 
#    0.000    0.000    0.000    0.000    0.000    0.000 
#
# Total GULP energy -178597.301044 kJ/mol
# GULP energy per Si atom -5581.165658 kJ/mol
# Density = 1.751744 g / cm^3
# Si number density = 17.557398 Si / 1000 Ang^3
#
#
#
# Elastic Constant Matrix: (Units=GPa)
#
#
# Indices 1 2 3 4 5 6 
#
# 1 106.9356 53.2890 51.1787 0.0000 25.3358 0.0000
# 2 53.2890 99.9187 47.7377 0.0000 14.8752 0.0000
# 3 51.1787 47.7377 77.5107 0.0000 30.3554 0.0000
# 4 0.0000 0.0000 0.0000 25.6809 0.0000 4.6565
# 5 25.3358 14.8752 30.3554 0.0000 26.8288 0.0000
# 6 0.0000 0.0000 0.0000 4.6565 0.0000 30.2873
#
#
#
# Elastic Compliance Matrix: (Units=1/GPa)
#
#
# Indices 1 2 3 4 5 6 
#
# 1 0.015728 -0.005230 -0.004458 0.000000 -0.006909 0.000000
# 2 -0.005230 0.016119 -0.008814 0.000000 0.005974 0.000000
# 3 -0.004458 -0.008814 0.031803 0.000000 -0.026887 0.000000
# 4 0.000000 0.000000 0.000000 0.040056 0.000000 -0.006158
# 5 -0.006909 0.005974 -0.026887 0.000000 0.070906 0.000000
# 6 0.000000 0.000000 0.000000 -0.006158 0.000000 0.033964
#
#
# Mechanical properties :
#
#
# Convention : Reuss Voigt Hill
#
# Bulk Modulus (GPa) = 37.52880 65.41952 51.47416
# Shear Modulus (GPa) = 19.64923 25.37003 22.50963
#
# Velocity S-wave (km/s) = 3.34899 3.80541 3.58447
# Velocity P-wave (km/s) = 6.03122 7.52658 6.82001
#
# Compressibility (1/GPa) = 0.02664620
#
# Stress axis : x y z
#
# Youngs Moduli (GPa) = 63.58034 62.03914 31.44329
#
# Poissons Ratio (x) = 0.32444 0.14019
# Poissons Ratio (y) = 0.33250 0.27714
# Poissons Ratio (z) = 0.28347 0.54682
#
# Static dielectric constant tensor:
#      x y z
#    x 1.617920 0.000000 0.006640 
#    y 0.000000 1.589630 0.000000 
#    z 0.006640 0.000000 1.583420 
# 
# From -- ./inp_files/64374.got.cif
#   From: 2010.05.17/outbox.cif.g08.bks.cpg/sg11_33_cif.got.tgz:64374.got - 2010.06.03 12:22:45.
