data_PCOD9161373
_publ_section_title
;
Structure prediction by ZEFSAII (Michael W. Deem and Ramdas Pophale) SiO2 
 PCOD9161373
Probable space group: P 21/M
;
_chemical_formula_sum "Si O2"
_cell_formula_units_Z 32
_cell_length_a 14.806582
_cell_length_b 8.232943
_cell_length_c 19.620174
_cell_angle_alpha 90.000000
_cell_angle_beta 139.403937
_cell_angle_gamma 90.000000
_cell_volume 1556.353685
_symmetry_space_group_name_H-M "P 21/M"
_symmetry_group_IT_number 11
_symmetry_cell_setting 'monoclinic'
loop_
_space_group_symop_operation_xyz
x,y,z
-x,1/2+y,-z
-x,-y,-z
x,1/2-y,z
loop_
_atom_site_type_symbol
_atom_site_label
_atom_site_fract_x
_atom_site_fract_y
_atom_site_fract_z
Si Si1 0.145616 0.445135 0.112384
Si Si2 0.434460 0.944459 0.790221
Si Si3 0.084009 0.448586 0.816172
Si Si4 0.577510 0.560303 0.372192
Si Si5 0.647476 0.942523 0.115965
Si Si6 0.663153 0.556851 0.664522
Si Si7 0.221251 0.942285 0.404922
Si Si8 0.741424 0.552621 0.961039
O O1 0.147666 0.250000 0.116954
O O2 0.200812 0.504554 0.215964
O O3 0.248199 0.499719 0.110970
O O4 0.000000 0.500000 0.000000
O O5 0.428026 0.750000 0.788888
O O6 0.591103 0.997198 0.900398
O O7 0.412193 0.996488 0.699289
O O8 0.342393 0.013605 0.798370
O O9 0.079785 0.250000 0.813859
O O10 0.213776 0.501439 0.843445
O O11 0.931875 0.501926 0.705291
O O12 0.132310 0.502665 0.919365
O O13 0.544938 0.750000 0.351567
O O14 0.461803 0.476197 0.354423
O O15 0.719788 0.529059 0.494664
O O16 0.646824 0.750000 0.107232
O O17 0.500000 0.000000 0.000000
O O18 0.669653 0.750000 0.656561
O O19 0.671960 0.472966 0.596483
O O20 0.215031 0.750000 0.414265
O O21 0.744847 0.750000 0.963405
#
# Coordination Sequence:
#
# PCOD9161373 Si02
#       8
#     4   4   4   4   4   4   4   4
#     4  10  20  33  52  80 118 159 197 241 294 355
#     4  11  21  39  64  90 121 156 198 249 303 358
#     4   9  19  36  61  89 122 160 200 247 302 359
#     4  12  25  42  63  89 121 158 205 257 301 357
#     4  11  21  37  62  95 127 161 202 247 301 362
#     4  11  22  39  61  88 121 160 204 252 300 354
#     4  11  23  41  64  88 117 161 208 251 302 358
#     4   9  16  32  56  82 115 154 189 234 294 351
#
# _framework density 20.560879
#
# number of rings (size 3 to 8) (size 9 to 14) (size 15 to 20)
#    0.000    1.500    2.500    3.750    0.000    2.000 
#    0.000    3.125    0.000    0.000    0.000    0.000 
#    0.000    0.000    0.000    0.000    0.000    0.000 
#
# Total GULP energy -178632.856503 kJ/mol
# GULP energy per Si atom -5582.276766 kJ/mol
# Density = 2.051408 g / cm^3
# Si number density = 20.560879 Si / 1000 Ang^3
#
#
#
# Elastic Constant Matrix: (Units=GPa)
#
#
# Indices 1 2 3 4 5 6 
#
# 1 83.4195 -2.1435 29.2729 0.0000 -13.1797 0.0000
# 2 -2.1435 26.5751 -4.8215 0.0000 -0.0087 0.0000
# 3 29.2729 -4.8215 113.2705 0.0000 -12.8937 0.0000
# 4 0.0000 0.0000 0.0000 26.0597 0.0000 -3.3711
# 5 -13.1797 -0.0087 -12.8937 0.0000 27.0247 0.0000
# 6 0.0000 0.0000 0.0000 -3.3711 0.0000 23.4359
#
#
#
# Elastic Compliance Matrix: (Units=1/GPa)
#
#
# Indices 1 2 3 4 5 6 
#
# 1 0.013886 0.000586 -0.002953 0.000000 0.005363 0.000000
# 2 0.000586 0.037964 0.001585 0.000000 0.001054 0.000000
# 3 -0.002953 0.001585 0.010040 0.000000 0.003351 0.000000
# 4 0.000000 0.000000 0.000000 0.039101 0.000000 0.005624
# 5 0.005363 0.001054 0.003351 0.000000 0.041218 0.000000
# 6 0.000000 0.000000 0.000000 0.005624 0.000000 0.043479
#
#
# Mechanical properties :
#
#
# Convention : Reuss Voigt Hill
#
# Bulk Modulus (GPa) = 16.57670 29.76456 23.17063
# Shear Modulus (GPa) = 24.11234 28.70120 26.40677
#
# Velocity S-wave (km/s) = 3.42823 3.74025 3.58763
# Velocity P-wave (km/s) = 4.87341 5.75850 5.33434
#
# Compressibility (1/GPa) = 0.06032565
#
# Stress axis : x y z
#
# Youngs Moduli (GPa) = 72.01308 26.34057 99.59672
#
# Poissons Ratio (x) = -0.01544 0.29413
# Poissons Ratio (y) = -0.04220 -0.15781
# Poissons Ratio (z) = 0.21267 -0.04174
#
# Static dielectric constant tensor:
#      x y z
#    x 1.776100 0.000000 0.003190 
#    y 0.000000 1.703630 0.000000 
#    z 0.003190 0.000000 1.811070 
# 
# From -- ./inp_files/65246.got.cif
#   From: 2010.05.17/outbox.cif.g08.bks.cpg/sg11_33_cif.got.tgz:65246.got - 2010.06.03 12:22:45.
