data_PCOD9161637
_publ_section_title
;
Structure prediction by ZEFSAII (Michael W. Deem and Ramdas Pophale) SiO2 
 PCOD9161637
Probable space group: P 21/M
;
_chemical_formula_sum "Si O2"
_cell_formula_units_Z 24
_cell_length_a 13.044024
_cell_length_b 8.551589
_cell_length_c 12.123921
_cell_angle_alpha 90.000000
_cell_angle_beta 89.586222
_cell_angle_gamma 90.000000
_cell_volume 1352.353352
_symmetry_space_group_name_H-M "P 21/M"
_symmetry_group_IT_number 11
_symmetry_cell_setting 'monoclinic'
loop_
_space_group_symop_operation_xyz
x,y,z
-x,1/2+y,-z
-x,-y,-z
x,1/2-y,z
loop_
_atom_site_type_symbol
_atom_site_label
_atom_site_fract_x
_atom_site_fract_y
_atom_site_fract_z
Si Si1 0.617392 0.936850 0.372180
Si Si2 0.803087 0.559409 0.766268
Si Si3 0.609784 0.560864 0.626487
Si Si4 0.999777 0.438723 0.376391
Si Si5 0.883458 0.562362 0.002157
Si Si6 0.194950 0.937194 0.767357
O O1 0.623679 0.750000 0.365198
O O2 0.638601 0.982615 0.499998
O O3 0.501817 0.991546 0.348628
O O4 0.699797 0.010237 0.289659
O O5 0.801957 0.750000 0.765773
O O6 0.697245 0.508529 0.710801
O O7 0.898982 0.509853 0.690206
O O8 0.825531 0.509858 0.891115
O O9 0.602844 0.750000 0.629861
O O10 0.000204 0.250000 0.378685
O O11 0.898879 0.489538 0.310666
O O12 0.000000 0.500000 0.500000
O O13 0.888013 0.750000 0.001167
O O14 0.826024 0.505727 0.111890
O O15 0.000000 0.500000 0.000000
O O16 0.191723 0.750000 0.774695
#
# Coordination Sequence:
#
# PCOD9161637 Si02
#       6
#     4   4   4   4   4   4
#     4  10  20  35  57  84 113 144 183 227 276 331
#     4   9  18  35  56  78 108 144 181 223 273 327
#     4   9  18  35  59  82 110 146 182 223 277 333
#     4  10  20  34  52  79 112 142 175 222 275 329
#     4  11  21  37  58  80 110 148 189 229 276 328
#     4  11  22  37  56  80 112 147 187 228 274 329
#
# _framework density 17.746842000000001
#
# number of rings (size 3 to 8) (size 9 to 14) (size 15 to 20)
#    0.000    2.000    1.667    2.500    0.000    3.333 
#    0.000    3.333    0.000    0.000    0.000    0.000 
#    0.000    0.000    0.000    0.000    0.000    0.000 
#
# Total GULP energy -134004.998581 kJ/mol
# GULP energy per Si atom -5583.541608 kJ/mol
# Density = 1.770645 g / cm^3
# Si number density = 17.746842 Si / 1000 Ang^3
#
#
#
# Elastic Constant Matrix: (Units=GPa)
#
#
# Indices 1 2 3 4 5 6 
#
# 1 138.3443 31.5425 109.3923 0.0000 6.9036 0.0000
# 2 31.5425 29.1148 36.2505 0.0000 -0.8455 0.0000
# 3 109.3923 36.2505 186.8881 0.0000 7.1795 0.0000
# 4 0.0000 0.0000 0.0000 27.4781 0.0000 -1.2682
# 5 6.9036 -0.8455 7.1795 0.0000 21.1096 0.0000
# 6 0.0000 0.0000 0.0000 -1.2682 0.0000 15.7727
#
#
#
# Elastic Compliance Matrix: (Units=1/GPa)
#
#
# Indices 1 2 3 4 5 6 
#
# 1 0.014534 -0.007062 -0.007036 0.000000 -0.002643 0.000000
# 2 -0.007062 0.049213 -0.005650 0.000000 0.006203 0.000000
# 3 -0.007036 -0.005650 0.010624 0.000000 -0.001539 0.000000
# 4 0.000000 0.000000 0.000000 0.036528 0.000000 0.002937
# 5 -0.002643 0.006203 -0.001539 0.000000 0.049008 0.000000
# 6 0.000000 0.000000 0.000000 0.002937 0.000000 0.063637
#
#
# Mechanical properties :
#
#
# Convention : Reuss Voigt Hill
#
# Bulk Modulus (GPa) = 28.67423 78.74643 53.71033
# Shear Modulus (GPa) = 18.20393 24.68286 21.44340
#
# Velocity S-wave (km/s) = 3.20622 3.73343 3.47982
# Velocity P-wave (km/s) = 5.46799 7.94060 6.81733
#
# Compressibility (1/GPa) = 0.03487452
#
# Stress axis : x y z
#
# Youngs Moduli (GPa) = 68.80522 20.31971 94.12510
#
# Poissons Ratio (x) = 0.14350 0.66224
# Poissons Ratio (y) = 0.48593 0.53183
# Poissons Ratio (z) = 0.48410 0.11481
#
# Static dielectric constant tensor:
#      x y z
#    x 1.580350 0.000000 0.016140 
#    y 0.000000 1.614950 0.000000 
#    z 0.016140 0.000000 1.588050 
# 
# From -- ./inp_files/33761.got.cif
#   From: 2010.05.17/outbox.cif.g08.bks.cpg/sg11_17_cif.got.tgz:33761.got - 2010.06.03 12:22:45.
