data_PCOD9161370
_publ_section_title
;
Structure prediction by ZEFSAII (Michael W. Deem and Ramdas Pophale) SiO2 
 PCOD9161370
Probable space group: P 21/M
;
_chemical_formula_sum "Si O2"
_cell_formula_units_Z 32
_cell_length_a 28.591790
_cell_length_b 8.300503
_cell_length_c 10.949866
_cell_angle_alpha 90.000000
_cell_angle_beta 144.175089
_cell_angle_gamma 90.000000
_cell_volume 1521.040201
_symmetry_space_group_name_H-M "P 21/M"
_symmetry_group_IT_number 11
_symmetry_cell_setting 'monoclinic'
loop_
_space_group_symop_operation_xyz
x,y,z
-x,1/2+y,-z
-x,-y,-z
x,1/2-y,z
loop_
_atom_site_type_symbol
_atom_site_label
_atom_site_fract_x
_atom_site_fract_y
_atom_site_fract_z
Si Si1 0.456270 0.056716 0.284209
Si Si2 0.121788 0.442448 0.956187
Si Si3 0.459590 0.443487 0.787608
Si Si4 0.185445 0.443273 0.457326
Si Si5 0.879327 0.440325 0.307247
Si Si6 0.727692 0.945047 0.108958
Si Si7 0.965906 0.055666 0.741184
Si Si8 0.723499 0.552952 0.593690
O O1 0.457308 0.250000 0.284081
O O2 0.363748 0.003742 0.094006
O O3 0.500000 0.000000 0.500000
O O4 0.495555 0.997858 0.240709
O O5 0.123789 0.250000 0.973786
O O6 0.093427 0.480894 0.760408
O O7 0.056933 0.501495 0.917769
O O8 0.211873 0.501010 0.169034
O O9 0.459225 0.250000 0.788641
O O10 0.367379 0.502431 0.587373
O O11 0.500000 0.500000 0.000000
O O12 0.185338 0.250000 0.453430
O O13 0.093647 0.494792 0.280880
O O14 0.234012 0.498104 0.442192
O O15 0.234880 0.495167 0.681666
O O16 0.890036 0.250000 0.320682
O O17 0.924441 0.495825 0.525099
O O18 0.786684 0.483856 0.133110
O O19 0.731103 0.750000 0.108685
O O20 0.965658 0.250000 0.746660
O O21 0.719976 0.750000 0.587745
#
# Coordination Sequence:
#
# PCOD9161370 Si02
#       8
#     4   4   4   4   4   4   4   4
#     4  11  24  41  62  91 125 160 201 251 309 369
#     4  10  20  35  54  76 109 152 188 223 278 346
#     4  11  23  42  66  91 121 160 206 255 306 368
#     4   9  17  34  58  80 103 140 189 233 273 332
#     4  10  20  33  52  80 112 143 184 238 283 328
#     4   9  19  36  58  79 106 147 189 226 279 352
#     4   9  19  34  52  78 111 145 183 230 284 336
#     4   9  20  37  58  82 110 146 189 232 280 344
#
# _framework density 21.038233000000002
#
# number of rings (size 3 to 8) (size 9 to 14) (size 15 to 20)
#    0.000    2.250    0.000    2.250    1.750    4.500 
#    0.000    5.000    0.000    0.000    0.000    0.000 
#    0.000    0.000    0.000    0.000    0.000    0.000 
#
# Total GULP energy -178645.731941 kJ/mol
# GULP energy per Si atom -5582.679123 kJ/mol
# Density = 2.099035 g / cm^3
# Si number density = 21.038233 Si / 1000 Ang^3
#
#
#
# Elastic Constant Matrix: (Units=GPa)
#
#
# Indices 1 2 3 4 5 6 
#
# 1 115.4153 9.3122 50.0387 0.0000 10.1299 0.0000
# 2 9.3122 9.8650 17.8003 0.0000 4.3797 0.0000
# 3 50.0387 17.8003 95.9607 0.0000 15.4631 0.0000
# 4 0.0000 0.0000 0.0000 18.3432 0.0000 4.5290
# 5 10.1299 4.3797 15.4631 0.0000 41.3785 0.0000
# 6 0.0000 0.0000 0.0000 4.5290 0.0000 30.4550
#
#
#
# Elastic Compliance Matrix: (Units=1/GPa)
#
#
# Indices 1 2 3 4 5 6 
#
# 1 0.011209 0.000086 -0.005765 0.000000 -0.000599 0.000000
# 2 0.000086 0.153744 -0.027600 0.000000 -0.005980 0.000000
# 3 -0.005765 -0.027600 0.018992 0.000000 -0.002765 0.000000
# 4 0.000000 0.000000 0.000000 0.056594 0.000000 -0.008416
# 5 -0.000599 -0.005980 -0.002765 0.000000 0.025980 0.000000
# 6 0.000000 0.000000 0.000000 -0.008416 0.000000 0.034087
#
#
# Mechanical properties :
#
#
# Convention : Reuss Voigt Hill
#
# Bulk Modulus (GPa) = 8.51873 41.72707 25.12290
# Shear Modulus (GPa) = 12.30638 27.64131 19.97385
#
# Velocity S-wave (km/s) = 2.42120 3.62865 3.08459
# Velocity P-wave (km/s) = 3.44591 6.11826 4.96525
#
# Compressibility (1/GPa) = 0.11738837
#
# Stress axis : x y z
#
# Youngs Moduli (GPa) = 89.21235 6.50431 52.65344
#
# Poissons Ratio (x) = -0.00056 0.30352
# Poissons Ratio (y) = -0.00770 1.45325
# Poissons Ratio (z) = 0.51427 0.17952
#
# Static dielectric constant tensor:
#      x y z
#    x 1.753380 0.000000 0.003900 
#    y 0.000000 1.733290 0.000000 
#    z 0.003900 0.000000 1.792120 
# 
# From -- ./inp_files/45379.got.cif
#   From: 2010.05.17/outbox.cif.g08.bks.cpg/sg11_23_cif.got.tgz:45379.got - 2010.06.03 12:22:45.
