data_PCOD9161087
_publ_section_title
;
Structure prediction by ZEFSAII (Michael W. Deem and Ramdas Pophale) SiO2 
 PCOD9161087
Probable space group: P 21/M
;
_chemical_formula_sum "Si O2"
_cell_formula_units_Z 32
_cell_length_a 14.996475
_cell_length_b 21.191069
_cell_length_c 7.783351
_cell_angle_alpha 90.000000
_cell_angle_beta 35.261728
_cell_angle_gamma 90.000000
_cell_volume 1427.971398
_symmetry_space_group_name_H-M "P 21/M"
_symmetry_group_IT_number 11
_symmetry_cell_setting 'monoclinic'
loop_
_space_group_symop_operation_xyz
x,y,z
-x,1/2+y,-z
-x,-y,-z
x,1/2-y,z
loop_
_atom_site_type_symbol
_atom_site_label
_atom_site_fract_x
_atom_site_fract_y
_atom_site_fract_z
Si Si1 0.193836 0.045878 0.037013
Si Si2 0.136427 0.821108 0.255518
Si Si3 0.325724 0.067689 0.379584
Si Si4 0.502699 0.455386 0.745585
Si Si5 0.823689 0.681587 0.958912
Si Si6 0.985399 0.930581 0.314943
Si Si7 0.533930 0.321698 0.186732
Si Si8 0.498206 0.681087 0.349405
O O1 0.189140 0.112024 0.940393
O O2 0.102376 0.059031 0.362582
O O3 0.369922 0.031484 0.813019
O O4 0.098357 0.989134 0.107381
O O5 0.170605 0.750000 0.139636
O O6 0.990723 0.816762 0.610277
O O7 0.088041 0.868345 0.181921
O O8 0.289035 0.843929 0.115264
O O9 0.146386 0.074947 0.619356
O O10 0.412054 0.131395 0.298250
O O11 0.372995 0.010634 0.431699
O O12 0.405983 0.048142 0.073608
O O13 0.567216 0.384404 0.617181
O O14 0.801617 0.750000 0.084932
O O15 0.685618 0.679402 0.033770
O O16 0.517073 0.250000 0.149595
O O17 0.516527 0.321147 0.420805
O O18 0.442295 0.750000 0.376235
#
# Coordination Sequence:
#
# PCOD9161087 Si02
#       8
#     4   4   4   4   4   4   4   4
#     4   8  14  26  46  70  95 128 167 206 246 296
#     4   9  17  30  50  75  99 131 175 214 251 307
#     4  10  20  32  50  81 111 136 172 222 274 310
#     4   9  18  32  52  76 105 139 177 219 260 312
#     4   8  14  26  48  74  94 119 167 218 248 285
#     4   9  16  27  46  70  98 130 165 207 252 301
#     4  10  21  35  53  79 110 138 170 219 273 317
#     4   9  18  34  55  78 104 140 181 215 256 318
#
# _framework density 22.409412
#
# number of rings (size 3 to 8) (size 9 to 14) (size 15 to 20)
#    0.000    3.000    0.000    1.500    0.000    4.500 
#    0.000    1.250    0.000    9.000    0.000   10.500 
#    0.000    0.000    0.000    0.000    0.000    0.000 
#
# Total GULP energy -178542.172892 kJ/mol
# GULP energy per Si atom -5579.442903 kJ/mol
# Density = 2.235841 g / cm^3
# Si number density = 22.409412 Si / 1000 Ang^3
#
#
#
# Elastic Constant Matrix: (Units=GPa)
#
#
# Indices 1 2 3 4 5 6 
#
# 1 102.3228 81.5862 25.6624 0.0000 -25.1508 0.0000
# 2 81.5862 166.1486 12.5640 0.0000 -49.8634 0.0000
# 3 25.6624 12.5640 69.0150 0.0000 -17.1341 0.0000
# 4 0.0000 0.0000 0.0000 14.2154 0.0000 2.0952
# 5 -25.1508 -49.8634 -17.1341 0.0000 33.3490 0.0000
# 6 0.0000 0.0000 0.0000 2.0952 0.0000 13.5503
#
#
#
# Elastic Compliance Matrix: (Units=1/GPa)
#
#
# Indices 1 2 3 4 5 6 
#
# 1 0.017843 -0.009396 -0.005813 0.000000 -0.003579 0.000000
# 2 -0.009396 0.016214 0.005504 0.000000 0.019985 0.000000
# 3 -0.005813 0.005504 0.019031 0.000000 0.013623 0.000000
# 4 0.000000 0.000000 0.000000 0.071987 0.000000 -0.011131
# 5 -0.003579 0.019985 0.013623 0.000000 0.064167 0.000000
# 6 0.000000 0.000000 0.000000 -0.011131 0.000000 0.075520
#
#
# Mechanical properties :
#
#
# Convention : Reuss Voigt Hill
#
# Bulk Modulus (GPa) = 29.69313 64.12350 46.90832
# Shear Modulus (GPa) = 16.92623 26.73453 21.83038
#
# Velocity S-wave (km/s) = 2.75129 3.45774 3.12454
# Velocity P-wave (km/s) = 4.83444 6.67966 5.83051
#
# Compressibility (1/GPa) = 0.03367782
#
# Stress axis : x y z
#
# Youngs Moduli (GPa) = 56.04384 61.67433 52.54518
#
# Poissons Ratio (x) = 0.57951 0.30543
# Poissons Ratio (y) = 0.52661 -0.28919
# Poissons Ratio (z) = 0.32577 -0.33944
#
# Static dielectric constant tensor:
#      x y z
#    x 1.802450 0.000000 0.032600 
#    y 0.000000 1.881910 0.000000 
#    z 0.032600 0.000000 1.880350 
# 
# From -- ./inp_files/23082.got.cif
#   From: 2010.05.17/outbox.cif.g08.bks.cpg/sg11_12_cif.got.tgz:23082.got - 2010.06.03 12:22:45.
