data_PCOD9161554
_publ_section_title
;
Structure prediction by ZEFSAII (Michael W. Deem and Ramdas Pophale) SiO2 
 PCOD9161554
Probable space group: P 21/M
;
_chemical_formula_sum "Si O2"
_cell_formula_units_Z 28
_cell_length_a 13.657183
_cell_length_b 7.522460
_cell_length_c 16.622873
_cell_angle_alpha 90.000000
_cell_angle_beta 139.449134
_cell_angle_gamma 90.000000
_cell_volume 1110.254503
_symmetry_space_group_name_H-M "P 21/M"
_symmetry_group_IT_number 11
_symmetry_cell_setting 'monoclinic'
loop_
_space_group_symop_operation_xyz
x,y,z
-x,1/2+y,-z
-x,-y,-z
x,1/2-y,z
loop_
_atom_site_type_symbol
_atom_site_label
_atom_site_fract_x
_atom_site_fract_y
_atom_site_fract_z
Si Si1 0.257203 0.452641 0.684705
Si Si2 0.435217 0.460384 0.370267
Si Si3 0.254313 0.458449 0.510444
Si Si4 0.678743 0.962402 0.105261
Si Si5 0.598862 0.956983 0.888629
Si Si6 0.140457 0.468849 0.267374
Si Si7 0.114708 0.540035 0.000469
O O1 0.200164 0.250000 0.652178
O O2 0.207748 0.535472 0.568470
O O3 0.239400 0.533710 0.763257
O O4 0.439679 0.446867 0.787586
O O5 0.500000 0.500000 0.500000
O O6 0.430506 0.250000 0.354405
O O7 0.565037 0.529869 0.392157
O O8 0.265892 0.527575 0.280139
O O9 0.217255 0.250000 0.490767
O O10 0.179624 0.530462 0.382038
O O11 0.703029 0.750000 0.122091
O O12 0.697800 0.027105 0.026153
O O13 0.500000 0.000000 0.000000
O O14 0.560603 0.750000 0.877457
O O15 0.716557 0.965774 0.889388
O O16 0.145783 0.250000 0.271387
O O17 0.980195 0.528731 0.135399
O O18 0.132350 0.750000 0.005961
O O19 0.000000 0.500000 0.000000
#
# Coordination Sequence:
#
# PCOD9161554 Si02
#       7
#     4   4   4   4   4   4   4
#     4   9  17  30  52  81 105 126 160 205 250 300
#     4   9  16  28  45  66  91 123 158 195 240 289
#     4   9  17  30  49  74  98 123 156 199 251 298
#     4   8  15  29  49  73 101 130 160 199 247 295
#     4  10  20  34  51  73 103 137 168 201 247 296
#     4   8  17  33  49  65  92 127 162 200 243 291
#     4  11  23  38  53  71  96 132 173 211 245 288
#
# _framework density 25.219443999999999
#
# number of rings (size 3 to 8) (size 9 to 14) (size 15 to 20)
#    0.000    2.857    0.000    2.143    2.000    1.143 
#    0.000    6.429    0.000    0.857    0.000    0.000 
#    0.000    0.000    0.000    0.000    0.000    0.857 
#
# Total GULP energy -156104.615555 kJ/mol
# GULP energy per Si atom -5575.164841 kJ/mol
# Density = 2.516204 g / cm^3
# Si number density = 25.219444 Si / 1000 Ang^3
#
#
#
# Elastic Constant Matrix: (Units=GPa)
#
#
# Indices 1 2 3 4 5 6 
#
# 1 30.8235 -10.3806 -1.1370 0.0000 -19.6705 0.0000
# 2 -10.3806 88.4635 -4.4714 0.0000 -6.0529 0.0000
# 3 -1.1370 -4.4714 76.1734 0.0000 -20.8631 0.0000
# 4 0.0000 0.0000 0.0000 6.3345 0.0000 -1.4829
# 5 -19.6705 -6.0529 -20.8631 0.0000 52.4608 0.0000
# 6 0.0000 0.0000 0.0000 -1.4829 0.0000 8.1648
#
#
#
# Elastic Compliance Matrix: (Units=1/GPa)
#
#
# Indices 1 2 3 4 5 6 
#
# 1 0.049618 0.007726 0.007333 0.000000 0.022412 0.000000
# 2 0.007726 0.012688 0.002306 0.000000 0.005278 0.000000
# 3 0.007333 0.002306 0.015934 0.000000 0.009352 0.000000
# 4 0.000000 0.000000 0.000000 0.164876 0.000000 0.029944
# 5 0.022412 0.005278 0.009352 0.000000 0.031794 0.000000
# 6 0.000000 0.000000 0.000000 0.029944 0.000000 0.127915
#
#
# Mechanical properties :
#
#
# Convention : Reuss Voigt Hill
#
# Bulk Modulus (GPa) = 8.85188 18.16471 13.50829
# Shear Modulus (GPa) = 12.32277 27.48864 19.90570
#
# Velocity S-wave (km/s) = 2.21288 3.30506 2.81250
# Velocity P-wave (km/s) = 3.16965 4.66721 3.98933
#
# Compressibility (1/GPa) = 0.11297039
#
# Stress axis : x y z
#
# Youngs Moduli (GPa) = 20.15394 78.81197 62.75795
#
# Poissons Ratio (x) = -0.60894 -0.46018
# Poissons Ratio (y) = -0.15572 -0.14470
# Poissons Ratio (z) = -0.14778 -0.18172
#
# Static dielectric constant tensor:
#      x y z
#    x 2.057710 0.000000 -0.098150 
#    y 0.000000 1.968710 0.000000 
#    z -0.098150 0.000000 2.093260 
# 
# From -- ./inp_files/60125.got.cif
#   From: 2010.05.17/outbox.cif.g08.bks.cpg/sg11_31_cif.got.tgz:60125.got - 2010.06.03 12:22:45.
