data_PCOD9161019
_publ_section_title
;
Structure prediction by ZEFSAII (Michael W. Deem and Ramdas Pophale) SiO2 
 PCOD9161019
Probable space group: P 21/M
;
_chemical_formula_sum "Si O2"
_cell_formula_units_Z 32
_cell_length_a 8.032461
_cell_length_b 9.298195
_cell_length_c 23.468991
_cell_angle_alpha 90.000000
_cell_angle_beta 126.074279
_cell_angle_gamma 90.000000
_cell_volume 1416.738574
_symmetry_space_group_name_H-M "P 21/M"
_symmetry_group_IT_number 11
_symmetry_cell_setting 'monoclinic'
loop_
_space_group_symop_operation_xyz
x,y,z
-x,1/2+y,-z
-x,-y,-z
x,1/2-y,z
loop_
_atom_site_type_symbol
_atom_site_label
_atom_site_fract_x
_atom_site_fract_y
_atom_site_fract_z
Si Si1 0.325428 0.578042 0.857598
Si Si2 0.695780 0.082427 0.970987
Si Si3 0.197752 0.416715 0.364725
Si Si4 0.272684 0.084819 0.605231
Si Si5 0.865910 0.579847 0.896045
Si Si6 0.303161 0.585007 0.723733
Si Si7 0.771595 0.415192 0.516547
Si Si8 0.853783 0.575148 0.768409
O O1 0.328451 0.750000 0.865350
O O2 0.486870 0.507384 0.932622
O O3 0.383711 0.548122 0.803024
O O4 0.091759 0.526733 0.815967
O O5 0.645419 0.250000 0.957022
O O6 0.883916 0.067965 0.053193
O O7 0.791244 0.022433 0.931092
O O8 0.259472 0.250000 0.381297
O O9 0.946818 0.416883 0.319192
O O10 0.244418 0.474983 0.310670
O O11 0.276399 0.505162 0.434190
O O12 0.338098 0.250000 0.612605
O O13 0.021794 0.083469 0.560729
O O14 0.351716 0.013234 0.679486
O O15 0.314066 0.994217 0.556568
O O16 0.821686 0.750000 0.899368
O O17 0.777886 0.541398 0.816319
O O18 0.362119 0.750000 0.722370
O O19 0.708388 0.250000 0.505576
O O20 0.855379 0.750000 0.765005
#
# Coordination Sequence:
#
# PCOD9161019 Si02
#       8
#     4   4   4   4   4   4   4   4
#     4   9  17  30  48  68  91 120 151 184 227 277
#     4  10  20  32  47  69  94 119 150 188 227 268
#     4   8  13  23  38  55  77 105 139 179 219 259
#     4   9  15  21  31  48  72 106 145 180 213 251
#     4   9  18  34  52  67  88 120 154 187 226 271
#     4   8  14  24  37  54  78 108 140 175 217 263
#     4   9  15  21  30  47  74 108 143 176 212 257
#     4   8  15  29  49  69  88 116 154 190 225 271
#
# _framework density 22.587088999999999
#
# number of rings (size 3 to 8) (size 9 to 14) (size 15 to 20)
#    0.000    3.250    0.000    2.625    0.000    4.500 
#    0.000    3.125    0.000    0.000    0.000    0.000 
#    0.000    1.000    0.000    3.000    0.000    6.250 
#
# Total GULP energy -178780.023515 kJ/mol
# GULP energy per Si atom -5586.875735 kJ/mol
# Density = 2.253568 g / cm^3
# Si number density = 22.587089 Si / 1000 Ang^3
#
#
#
# Elastic Constant Matrix: (Units=GPa)
#
#
# Indices 1 2 3 4 5 6 
#
# 1 62.0203 2.1302 25.0367 0.0000 -1.5294 0.0000
# 2 2.1302 71.5560 63.9506 0.0000 -19.2022 0.0000
# 3 25.0367 63.9506 164.0366 0.0000 -17.8622 0.0000
# 4 0.0000 0.0000 0.0000 28.3427 0.0000 -2.0567
# 5 -1.5294 -19.2022 -17.8622 0.0000 50.5934 0.0000
# 6 0.0000 0.0000 0.0000 -2.0567 0.0000 -0.0385
#
#
#
# Elastic Compliance Matrix: (Units=1/GPa)
#
#
# Indices 1 2 3 4 5 6 
#
# 1 0.017564 0.002956 -0.003799 0.000000 0.000312 0.000000
# 2 0.002956 0.023462 -0.008963 0.000000 0.005830 0.000000
# 3 -0.003799 -0.008963 0.010179 0.000000 0.000077 0.000000
# 4 0.000000 0.000000 0.000000 0.007234 0.000000 -0.386529
# 5 0.000312 0.005830 0.000077 0.000000 0.022015 0.000000
# 6 0.000000 0.000000 0.000000 -0.386529 0.000000 -5.326705
#
#
# Mechanical properties :
#
#
# Convention : Reuss Voigt Hill
#
# Bulk Modulus (GPa) = 31.65367 53.31642 42.48505
# Shear Modulus (GPa) = -0.95857 29.54589 14.29366
#
# Velocity S-wave (km/s) = -0.65216 3.62067 2.51833
# Velocity P-wave (km/s) = 3.67116 6.41367 5.22554
#
# Compressibility (1/GPa) = 0.03159192
#
# Stress axis : x y z
#
# Youngs Moduli (GPa) = 56.93584 42.62212 98.24324
#
# Poissons Ratio (x) = -0.12600 0.37325
# Poissons Ratio (y) = -0.16832 0.88057
# Poissons Ratio (z) = 0.21632 0.38203
#
# Static dielectric constant tensor:
#      x y z
#    x 1.926550 0.000000 0.027870 
#    y 0.000000 1.743940 0.000000 
#    z 0.027870 0.000000 1.828940 
# 
# From -- ./inp_files/68342.got.cif
#   From: 2010.05.17/outbox.cif.g08.bks.cpg/sg11_35_cif.got.tgz:68342.got - 2010.06.03 12:22:45.
