data_PCOD9161134
_publ_section_title
;
Structure prediction by ZEFSAII (Michael W. Deem and Ramdas Pophale) SiO2 
 PCOD9161134
Probable space group: P 21/M
;
_chemical_formula_sum "Si O2"
_cell_formula_units_Z 28
_cell_length_a 22.945170
_cell_length_b 9.479304
_cell_length_c 12.388577
_cell_angle_alpha 90.000000
_cell_angle_beta 135.763017
_cell_angle_gamma 90.000000
_cell_volume 1879.805324
_symmetry_space_group_name_H-M "P 21/M"
_symmetry_group_IT_number 11
_symmetry_cell_setting 'monoclinic'
loop_
_space_group_symop_operation_xyz
x,y,z
-x,1/2+y,-z
-x,-y,-z
x,1/2-y,z
loop_
_atom_site_type_symbol
_atom_site_label
_atom_site_fract_x
_atom_site_fract_y
_atom_site_fract_z
Si Si1 0.518334 0.081786 0.359743
Si Si2 0.457552 0.419350 0.041684
Si Si3 0.793404 0.916813 0.009555
Si Si4 0.370427 0.418309 0.333275
Si Si5 0.263194 0.084107 0.817386
Si Si6 0.951339 0.412687 0.278897
Si Si7 0.106961 0.587466 0.546498
O O1 0.532416 0.250000 0.383238
O O2 0.499754 0.042059 0.212029
O O3 0.435580 0.052616 0.321949
O O4 0.593892 0.000139 0.516675
O O5 0.465459 0.250000 0.039533
O O6 0.500000 0.500000 0.000000
O O7 0.358773 0.450981 0.918545
O O8 0.812520 0.750000 0.023135
O O9 0.721985 0.956975 0.829422
O O10 0.753749 0.933593 0.076876
O O11 0.876961 0.008794 0.117589
O O12 0.372124 0.250000 0.353986
O O13 0.248914 0.250000 0.774944
O O14 0.196087 0.989514 0.665965
O O15 0.961599 0.250000 0.260241
O O16 0.923097 0.413095 0.367768
O O17 0.037280 0.499613 0.389743
O O18 0.111477 0.750000 0.517888
#
# Coordination Sequence:
#
# PCOD9161134 Si02
#       7
#     4   4   4   4   4   4   4
#     4   9  17  30  44  61  85 113 144 180 223 262
#     4  10  20  33  47  63  86 116 150 187 225 261
#     4   9  15  25  41  59  83 113 143 174 211 256
#     4   9  16  27  44  64  85 112 145 179 216 262
#     4   9  16  28  43  57  79 112 145 177 217 259
#     4   9  16  24  35  55  82 111 141 171 207 251
#     4   9  16  25  37  55  79 108 142 176 209 250
#
# _framework density 14.895159
#
# number of rings (size 3 to 8) (size 9 to 14) (size 15 to 20)
#    0.000    2.857    1.429    0.857    0.000    5.143 
#    0.000    0.000    0.000    0.000    0.000    0.000 
#    0.000    1.143    0.000    3.714    0.000    5.429 
#
# Total GULP energy -155959.607235 kJ/mol
# GULP energy per Si atom -5569.985973 kJ/mol
# Density = 1.486126 g / cm^3
# Si number density = 14.895159 Si / 1000 Ang^3
#
#
#
# Elastic Constant Matrix: (Units=GPa)
#
#
# Indices 1 2 3 4 5 6 
#
# 1 45.4747 40.3037 52.8595 0.0000 4.4003 0.0000
# 2 40.3037 81.2743 85.6655 0.0000 18.5372 0.0000
# 3 52.8595 85.6655 154.9504 0.0000 27.1418 0.0000
# 4 0.0000 0.0000 0.0000 29.8574 0.0000 4.6130
# 5 4.4003 18.5372 27.1418 0.0000 20.1550 0.0000
# 6 0.0000 0.0000 0.0000 4.6130 0.0000 19.0977
#
#
#
# Elastic Compliance Matrix: (Units=1/GPa)
#
#
# Indices 1 2 3 4 5 6 
#
# 1 0.046691 -0.017199 -0.009690 0.000000 0.018675 0.000000
# 2 -0.017199 0.036544 -0.011918 0.000000 -0.013806 0.000000
# 3 -0.009690 -0.011918 0.018397 0.000000 -0.011698 0.000000
# 4 0.000000 0.000000 0.000000 0.034791 0.000000 -0.008404
# 5 0.018675 -0.013806 -0.011698 0.000000 0.073990 0.000000
# 6 0.000000 0.000000 0.000000 -0.008404 0.000000 0.054392
#
#
# Mechanical properties :
#
#
# Convention : Reuss Voigt Hill
#
# Bulk Modulus (GPa) = 41.63707 71.03964 56.33835
# Shear Modulus (GPa) = 14.26836 20.68006 17.47421
#
# Velocity S-wave (km/s) = 3.09838 3.73013 3.42884
# Velocity P-wave (km/s) = 6.38859 8.14546 7.31992
#
# Compressibility (1/GPa) = 0.02401706
#
# Stress axis : x y z
#
# Youngs Moduli (GPa) = 21.41748 27.36442 54.35546
#
# Poissons Ratio (x) = 0.47065 0.52673
# Poissons Ratio (y) = 0.36836 0.64780
# Poissons Ratio (z) = 0.20754 0.32612
#
# Static dielectric constant tensor:
#      x y z
#    x 1.460380 0.000000 0.012220 
#    y 0.000000 1.495850 0.000000 
#    z 0.012220 0.000000 1.488230 
# 
# From -- ./inp_files/42593.got.cif
#   From: 2010.05.17/outbox.cif.g08.bks.cpg/sg11_22_cif.got.tgz:42593.got - 2010.06.03 12:22:45.
