data_PCOD9161191
_publ_section_title
;
Structure prediction by ZEFSAII (Michael W. Deem and Ramdas Pophale) SiO2 
 PCOD9161191
Probable space group: P 21/M
;
_chemical_formula_sum "Si O2"
_cell_formula_units_Z 32
_cell_length_a 34.680052
_cell_length_b 8.834483
_cell_length_c 12.505200
_cell_angle_alpha 90.000000
_cell_angle_beta 152.814379
_cell_angle_gamma 90.000000
_cell_volume 1750.445664
_symmetry_space_group_name_H-M "P 21/M"
_symmetry_group_IT_number 11
_symmetry_cell_setting 'monoclinic'
loop_
_space_group_symop_operation_xyz
x,y,z
-x,1/2+y,-z
-x,-y,-z
x,1/2-y,z
loop_
_atom_site_type_symbol
_atom_site_label
_atom_site_fract_x
_atom_site_fract_y
_atom_site_fract_z
Si Si1 0.269644 0.926668 0.289384
Si Si2 0.228114 0.569247 0.743559
Si Si3 0.745774 0.932563 0.963780
Si Si4 0.288121 0.430783 0.676033
Si Si5 0.146313 0.565500 0.170337
Si Si6 0.930379 0.582258 0.392665
Si Si7 0.586480 0.072824 0.174094
Si Si8 0.044726 0.421761 0.294516
O O1 0.257926 0.750000 0.232013
O O2 0.185371 0.976580 0.149271
O O3 0.344048 0.937071 0.560172
O O4 0.298733 0.016565 0.255130
O O5 0.229851 0.750000 0.750357
O O6 0.266260 0.503059 0.948671
O O7 0.279744 0.502117 0.772184
O O8 0.130277 0.514756 0.484109
O O9 0.745207 0.750000 0.973478
O O10 0.839666 0.992042 0.166517
O O11 0.283467 0.250000 0.668580
O O12 0.210356 0.496527 0.414198
O O13 0.372428 0.485259 0.824069
O O14 0.148844 0.750000 0.180551
O O15 0.050023 0.519441 0.961736
O O16 0.920516 0.750000 0.323955
O O17 0.955951 0.591020 0.578786
O O18 0.000000 0.500000 0.500000
O O19 0.575513 0.250000 0.121219
O O20 0.500000 0.000000 0.000000
O O21 0.054089 0.250000 0.273609
#
# Coordination Sequence:
#
# PCOD9161191 Si02
#       8
#     4   4   4   4   4   4   4   4
#     4   9  18  33  54  81 111 141 174 216 265 315
#     4  11  22  36  53  73 102 143 189 230 270 317
#     4  10  20  33  49  72 103 139 180 222 264 315
#     4  11  22  37  57  80 108 141 178 220 268 322
#     4   9  18  33  52  75 106 142 182 230 278 321
#     4   9  17  27  40  61  91 129 173 221 267 308
#     4  10  21  39  63  91 118 141 170 209 258 316
#     4   9  18  32  47  67  99 138 182 230 274 316
#
# _framework density 18.28106
#
# number of rings (size 3 to 8) (size 9 to 14) (size 15 to 20)
#    0.000    2.250    0.000    5.250    0.000    7.000 
#    0.000    0.000    0.000    0.750    0.000    0.000 
#    0.000    0.000    0.000    0.000    0.000    0.000 
#
# Total GULP energy -178294.156036 kJ/mol
# GULP energy per Si atom -5571.692376 kJ/mol
# Density = 1.823945 g / cm^3
# Si number density = 18.281060 Si / 1000 Ang^3
#
#
#
# Elastic Constant Matrix: (Units=GPa)
#
#
# Indices 1 2 3 4 5 6 
#
# 1 135.7442 63.0978 25.6124 0.0000 -0.6681 0.0000
# 2 63.0978 89.3083 20.3356 0.0000 -0.4041 0.0000
# 3 25.6124 20.3356 18.2995 0.0000 7.9154 0.0000
# 4 0.0000 0.0000 0.0000 24.3181 0.0000 -2.1104
# 5 -0.6681 -0.4041 7.9154 0.0000 23.1592 0.0000
# 6 0.0000 0.0000 0.0000 -2.1104 0.0000 18.6117
#
#
#
# Elastic Compliance Matrix: (Units=1/GPa)
#
#
# Indices 1 2 3 4 5 6 
#
# 1 0.012613 -0.005892 -0.013165 0.000000 0.004761 0.000000
# 2 -0.005892 0.018773 -0.014883 0.000000 0.005244 0.000000
# 3 -0.013165 -0.014883 0.105482 0.000000 -0.036691 0.000000
# 4 0.000000 0.000000 0.000000 0.041530 0.000000 0.004709
# 5 0.004761 0.005244 -0.036691 0.000000 0.055948 0.000000
# 6 0.000000 0.000000 0.000000 0.004709 0.000000 0.054264
#
#
# Mechanical properties :
#
#
# Convention : Reuss Voigt Hill
#
# Bulk Modulus (GPa) = 14.49541 51.27152 32.88347
# Shear Modulus (GPa) = 13.17570 22.17156 17.67363
#
# Velocity S-wave (km/s) = 2.68755 3.48633 3.11267
# Velocity P-wave (km/s) = 4.19249 6.65681 5.56283
#
# Compressibility (1/GPa) = 0.06898734
#
# Stress axis : x y z
#
# Youngs Moduli (GPa) = 79.28319 53.26898 9.48028
#
# Poissons Ratio (x) = 0.31386 0.12481
# Poissons Ratio (y) = 0.46714 0.14110
# Poissons Ratio (z) = 1.04376 0.79281
#
# Static dielectric constant tensor:
#      x y z
#    x 1.640000 0.000000 0.006360 
#    y 0.000000 1.641680 0.000000 
#    z 0.006360 0.000000 1.645700 
# 
# From -- ./inp_files/45344.got.cif
#   From: 2010.05.17/outbox.cif.g08.bks.cpg/sg11_23_cif.got.tgz:45344.got - 2010.06.03 12:22:45.
