data_PCOD9161444
_publ_section_title
;
Structure prediction by ZEFSAII (Michael W. Deem and Ramdas Pophale) SiO2 
 PCOD9161444
Probable space group: P 21/M
;
_chemical_formula_sum "Si O2"
_cell_formula_units_Z 28
_cell_length_a 15.371095
_cell_length_b 8.849791
_cell_length_c 12.712738
_cell_angle_alpha 90.000000
_cell_angle_beta 74.006826
_cell_angle_gamma 90.000000
_cell_volume 1662.391799
_symmetry_space_group_name_H-M "P 21/M"
_symmetry_group_IT_number 11
_symmetry_cell_setting 'monoclinic'
loop_
_space_group_symop_operation_xyz
x,y,z
-x,1/2+y,-z
-x,-y,-z
x,1/2-y,z
loop_
_atom_site_type_symbol
_atom_site_label
_atom_site_fract_x
_atom_site_fract_y
_atom_site_fract_z
Si Si1 0.592417 0.930676 0.515269
Si Si2 0.279090 0.570034 0.696147
Si Si3 0.896886 0.429387 0.922926
Si Si4 0.895228 0.570371 0.154484
Si Si5 0.275114 0.430747 0.108808
Si Si6 0.385174 0.430144 0.858624
Si Si7 0.420311 0.431323 0.234052
O O1 0.590362 0.750000 0.502352
O O2 0.597419 0.964136 0.637589
O O3 0.500000 0.000000 0.500000
O O4 0.674705 0.999714 0.421998
O O5 0.283041 0.750000 0.690955
O O6 0.177427 0.512776 0.749236
O O7 0.336934 0.511479 0.776925
O O8 0.889036 0.250000 0.943425
O O9 0.820291 0.485972 0.869475
O O10 0.999912 0.460736 0.853496
O O11 0.882277 0.513703 0.038961
O O12 0.879526 0.750000 0.163342
O O13 0.260052 0.250000 0.116872
O O14 0.336669 0.473700 0.187503
O O15 0.331932 0.464368 0.983850
O O16 0.382151 0.250000 0.842570
O O17 0.488046 0.486068 0.830791
O O18 0.434018 0.250000 0.218906
#
# Coordination Sequence:
#
# PCOD9161444 Si02
#       7
#     4   4   4   4   4   4   4
#     4  11  22  37  57  79 108 144 185 231 274 316
#     4  12  23  35  55  81 111 144 182 226 273 324
#     4  10  20  33  54  82 111 143 178 219 270 326
#     4  10  20  35  54  80 111 142 179 223 272 324
#     4  10  21  36  54  79 113 149 182 219 269 325
#     4  11  21  33  53  80 111 147 180 219 270 324
#     4  10  22  38  55  77 108 148 188 225 267 322
#
# _framework density 16.843202999999999
#
# number of rings (size 3 to 8) (size 9 to 14) (size 15 to 20)
#    0.000    1.429    2.857    3.429    0.000    3.429 
#    0.000    0.000    0.000    0.857    0.000    0.000 
#    0.000    0.000    0.000    0.000    0.000    0.000 
#
# Total GULP energy -156453.641070 kJ/mol
# GULP energy per Si atom -5587.630038 kJ/mol
# Density = 1.680487 g / cm^3
# Si number density = 16.843203 Si / 1000 Ang^3
#
#
#
# Elastic Constant Matrix: (Units=GPa)
#
#
# Indices 1 2 3 4 5 6 
#
# 1 134.7369 56.7457 57.1254 0.0000 -2.2337 0.0000
# 2 56.7457 63.8950 41.0493 0.0000 -0.6633 0.0000
# 3 57.1254 41.0493 62.2814 0.0000 -2.5699 0.0000
# 4 0.0000 0.0000 0.0000 20.8682 0.0000 -3.8074
# 5 -2.2337 -0.6633 -2.5699 0.0000 26.5789 0.0000
# 6 0.0000 0.0000 0.0000 -3.8074 0.0000 32.7234
#
#
#
# Elastic Compliance Matrix: (Units=1/GPa)
#
#
# Indices 1 2 3 4 5 6 
#
# 1 0.013805 -0.007161 -0.007933 0.000000 0.000214 0.000000
# 2 -0.007161 0.030889 -0.013839 0.000000 -0.001169 0.000000
# 3 -0.007933 -0.013839 0.032542 0.000000 0.002134 0.000000
# 4 0.000000 0.000000 0.000000 0.048959 0.000000 0.005696
# 5 0.000214 -0.001169 0.002134 0.000000 0.037819 0.000000
# 6 0.000000 0.000000 0.000000 0.005696 0.000000 0.031222
#
#
# Mechanical properties :
#
#
# Convention : Reuss Voigt Hill
#
# Bulk Modulus (GPa) = 51.62790 63.41710 57.52250
# Shear Modulus (GPa) = 19.26343 23.10031 21.18187
#
# Velocity S-wave (km/s) = 3.38552 3.70738 3.55010
# Velocity P-wave (km/s) = 6.78240 7.48729 7.14354
#
# Compressibility (1/GPa) = 0.01936937
#
# Stress axis : x y z
#
# Youngs Moduli (GPa) = 72.43721 32.37373 30.72981
#
# Poissons Ratio (x) = 0.23184 0.24379
# Poissons Ratio (y) = 0.51875 0.42526
# Poissons Ratio (z) = 0.57467 0.44801
#
# Static dielectric constant tensor:
#      x y z
#    x 1.566520 0.000000 -0.005480 
#    y 0.000000 1.563780 0.000000 
#    z -0.005480 0.000000 1.545960 
# 
# From -- ./inp_files/37482.got.cif
#   From: 2010.05.17/outbox.cif.g08.bks.cpg/sg11_19_cif.got.tgz:37482.got - 2010.06.03 12:22:45.
