data_PCOD9161406
_publ_section_title
;
Structure prediction by ZEFSAII (Michael W. Deem and Ramdas Pophale) SiO2 
 PCOD9161406
Probable space group: P 21/M
;
_chemical_formula_sum "Si O2"
_cell_formula_units_Z 32
_cell_length_a 13.444298
_cell_length_b 7.808569
_cell_length_c 30.768582
_cell_angle_alpha 90.000000
_cell_angle_beta 28.247661
_cell_angle_gamma 90.000000
_cell_volume 1528.757559
_symmetry_space_group_name_H-M "P 21/M"
_symmetry_group_IT_number 11
_symmetry_cell_setting 'monoclinic'
loop_
_space_group_symop_operation_xyz
x,y,z
-x,1/2+y,-z
-x,-y,-z
x,1/2-y,z
loop_
_atom_site_type_symbol
_atom_site_label
_atom_site_fract_x
_atom_site_fract_y
_atom_site_fract_z
Si Si1 0.927464 0.959655 0.392984
Si Si2 0.753474 0.452140 0.218471
Si Si3 0.591373 0.041489 0.899758
Si Si4 0.615912 0.456504 0.790534
Si Si5 0.206079 0.951835 0.893828
Si Si6 0.521472 0.951834 0.601099
Si Si7 0.839125 0.451627 0.885677
Si Si8 0.710228 0.953855 0.392161
O O1 0.916921 0.750000 0.397277
O O2 0.735339 0.022632 0.497037
O O3 0.887864 0.009919 0.357773
O O4 0.161396 0.013130 0.315352
O O5 0.707672 0.250000 0.231526
O O6 0.781895 0.527893 0.159482
O O7 0.566234 0.526663 0.320327
O O8 0.967805 0.466611 0.163352
O O9 0.591129 0.250000 0.900454
O O10 0.604718 0.984128 0.844913
O O11 0.778138 0.986388 0.860598
O O12 0.373019 0.980307 0.004855
O O13 0.619497 0.250000 0.790651
O O14 0.414252 0.507864 0.840847
O O15 0.191681 0.750000 0.893939
O O16 0.000000 0.000000 0.000000
O O17 0.559327 0.750000 0.592509
O O18 0.334303 0.969550 0.637682
O O19 0.884670 0.250000 0.865155
O O20 0.728269 0.750000 0.379574
O O21 0.500000 0.000000 0.500000
#
# Coordination Sequence:
#
# PCOD9161406 Si02
#       8
#     4   4   4   4   4   4   4   4
#     4   8  16  31  53  78 108 145 183 217 261 320
#     4  10  22  38  56  77 109 147 182 223 282 337
#     4   9  19  34  52  76 110 144 172 213 276 335
#     4  10  20  36  58  81 107 143 183 223 272 327
#     4  11  24  42  61  82 107 140 183 234 284 333
#     4   9  18  34  53  77 109 148 188 224 268 327
#     4  10  20  33  53  80 109 139 177 223 270 329
#     4   9  16  28  49  76 110 149 186 224 265 315
#
# _framework density 20.932030999999998
#
# number of rings (size 3 to 8) (size 9 to 14) (size 15 to 20)
#    0.000    2.500    0.000    2.625    1.750    5.500 
#    0.000    3.750    0.000    0.000    0.000    0.000 
#    0.000    0.000    0.000    0.000    0.000    0.000 
#
# Total GULP energy -178527.212567 kJ/mol
# GULP energy per Si atom -5578.975393 kJ/mol
# Density = 2.088439 g / cm^3
# Si number density = 20.932031 Si / 1000 Ang^3
#
#
#
# Elastic Constant Matrix: (Units=GPa)
#
#
# Indices 1 2 3 4 5 6 
#
# 1 144.3132 2.9668 97.8468 0.0000 16.4929 0.0000
# 2 2.9668 26.7958 3.7840 0.0000 6.1375 0.0000
# 3 97.8468 3.7840 145.5796 0.0000 7.3361 0.0000
# 4 0.0000 0.0000 0.0000 11.9826 0.0000 -3.7937
# 5 16.4929 6.1375 7.3361 0.0000 36.9497 0.0000
# 6 0.0000 0.0000 0.0000 -3.7937 0.0000 20.9816
#
#
#
# Elastic Compliance Matrix: (Units=1/GPa)
#
#
# Indices 1 2 3 4 5 6 
#
# 1 0.013367 0.000756 -0.008785 0.000000 -0.004348 0.000000
# 2 0.000756 0.038907 -0.001189 0.000000 -0.006564 0.000000
# 3 -0.008785 -0.001189 0.012724 0.000000 0.001592 0.000000
# 4 0.000000 0.000000 0.000000 0.088522 0.000000 0.016006
# 5 -0.004348 -0.006564 0.001592 0.000000 0.029779 0.000000
# 6 0.000000 0.000000 0.000000 0.016006 0.000000 0.050555
#
#
# Mechanical properties :
#
#
# Convention : Reuss Voigt Hill
#
# Bulk Modulus (GPa) = 21.47603 58.43154 39.95379
# Shear Modulus (GPa) = 18.67005 28.12220 23.39613
#
# Velocity S-wave (km/s) = 2.98977 3.66936 3.34686
# Velocity P-wave (km/s) = 4.71174 6.77700 5.83645
#
# Compressibility (1/GPa) = 0.04656353
#
# Stress axis : x y z
#
# Youngs Moduli (GPa) = 74.81152 25.70239 78.59082
#
# Poissons Ratio (x) = -0.01944 0.69040
# Poissons Ratio (y) = -0.05659 0.09344
# Poissons Ratio (z) = 0.65720 0.03056
#
# Static dielectric constant tensor:
#      x y z
#    x 1.759000 0.000000 0.033770 
#    y 0.000000 1.769820 0.000000 
#    z 0.033770 0.000000 1.755270 
# 
# From -- ./inp_files/73125.got.cif
#   From: 2010.05.17/outbox.cif.g08.bks.cpg/sg11_37_cif.got.tgz:73125.got - 2010.06.03 12:22:45.
