data_PCOD9161363
_publ_section_title
;
Structure prediction by ZEFSAII (Michael W. Deem and Ramdas Pophale) SiO2 
 PCOD9161363
Probable space group: P 21/M
;
_chemical_formula_sum "Si O2"
_cell_formula_units_Z 28
_cell_length_a 14.445632
_cell_length_b 8.040048
_cell_length_c 15.752483
_cell_angle_alpha 90.000000
_cell_angle_beta 138.812194
_cell_angle_gamma 90.000000
_cell_volume 1204.812096
_symmetry_space_group_name_H-M "P 21/M"
_symmetry_group_IT_number 11
_symmetry_cell_setting 'monoclinic'
loop_
_space_group_symop_operation_xyz
x,y,z
-x,1/2+y,-z
-x,-y,-z
x,1/2-y,z
loop_
_atom_site_type_symbol
_atom_site_label
_atom_site_fract_x
_atom_site_fract_y
_atom_site_fract_z
Si Si1 0.529082 0.051724 0.750653
Si Si2 0.788751 0.054261 0.481279
Si Si3 0.055377 0.048096 0.766160
Si Si4 0.361680 0.951274 0.350248
Si Si5 0.958680 0.049247 0.875407
Si Si6 0.785177 0.056441 0.292689
Si Si7 0.491351 0.931263 0.087232
O O1 0.552492 0.250000 0.772997
O O2 0.611928 0.987003 0.727542
O O3 0.567338 0.978266 0.869821
O O4 0.363900 0.025820 0.618317
O O5 0.764923 0.250000 0.478875
O O6 0.858889 0.038239 0.435824
O O7 0.900592 0.997070 0.626760
O O8 0.067751 0.250000 0.771054
O O9 0.061863 0.994327 0.869176
O O10 0.152175 0.979991 0.756655
O O11 0.360855 0.750000 0.350922
O O12 0.201565 0.004657 0.259041
O O13 0.500000 0.000000 0.500000
O O14 0.958799 0.250000 0.873492
O O15 0.000000 0.000000 0.000000
O O16 0.737395 0.250000 0.259631
O O17 0.657154 0.931406 0.219717
O O18 0.426836 0.750000 0.037448
O O19 0.500000 0.000000 0.000000
#
# Coordination Sequence:
#
# PCOD9161363 Si02
#       7
#     4   4   4   4   4   4   4
#     4   9  19  34  54  80 110 142 178 224 279 331
#     4   9  18  33  54  81 113 143 175 219 275 336
#     4  10  20  35  54  77 108 147 185 226 277 331
#     4  10  21  39  62  88 115 147 190 240 290 344
#     4  10  23  41  59  82 116 155 196 241 291 343
#     4  10  20  33  52  80 108 139 179 221 270 332
#     4  10  20  35  53  76 108 143 178 221 270 327
#
# _framework density 23.240138000000002
#
# number of rings (size 3 to 8) (size 9 to 14) (size 15 to 20)
#    0.000    2.286    0.000    2.143    0.000    5.714 
#    0.000    1.429    0.000    0.000    0.000    0.000 
#    0.000    0.000    0.000    0.000    0.000    0.000 
#
# Total GULP energy -155905.761648 kJ/mol
# GULP energy per Si atom -5568.062916 kJ/mol
# Density = 2.318724 g / cm^3
# Si number density = 23.240138 Si / 1000 Ang^3
#
#
#
# Elastic Constant Matrix: (Units=GPa)
#
#
# Indices 1 2 3 4 5 6 
#
# 1 121.9891 7.3143 23.4322 0.0000 -28.4377 0.0000
# 2 7.3143 25.1580 4.9644 0.0000 -7.3060 0.0000
# 3 23.4322 4.9644 77.1843 0.0000 -30.6662 0.0000
# 4 0.0000 0.0000 0.0000 24.3053 0.0000 -3.5306
# 5 -28.4377 -7.3060 -30.6662 0.0000 43.0208 0.0000
# 6 0.0000 0.0000 0.0000 -3.5306 0.0000 17.3051
#
#
#
# Elastic Compliance Matrix: (Units=1/GPa)
#
#
# Indices 1 2 3 4 5 6 
#
# 1 0.009732 -0.001017 -0.000561 0.000000 0.005861 0.000000
# 2 -0.001017 0.041919 0.000243 0.000000 0.006620 0.000000
# 3 -0.000561 0.000243 0.018108 0.000000 0.012579 0.000000
# 4 0.000000 0.000000 0.000000 0.042400 0.000000 0.008651
# 5 0.005861 0.006620 0.012579 0.000000 0.037209 0.000000
# 6 0.000000 0.000000 0.000000 0.008651 0.000000 0.059551
#
#
# Mechanical properties :
#
#
# Convention : Reuss Voigt Hill
#
# Bulk Modulus (GPa) = 14.90534 32.86147 23.88341
# Shear Modulus (GPa) = 21.37179 29.50093 25.43636
#
# Velocity S-wave (km/s) = 3.03579 3.56672 3.31191
# Velocity P-wave (km/s) = 4.32615 5.57967 4.99241
#
# Compressibility (1/GPa) = 0.06709003
#
# Stress axis : x y z
#
# Youngs Moduli (GPa) = 102.74943 23.85552 55.22358
#
# Poissons Ratio (x) = 0.02426 0.03096
# Poissons Ratio (y) = 0.10448 -0.01340
# Poissons Ratio (z) = 0.05760 -0.00579
#
# Static dielectric constant tensor:
#      x y z
#    x 1.927950 0.000000 -0.043540 
#    y 0.000000 1.818350 0.000000 
#    z -0.043540 0.000000 2.041980 
# 
# From -- ./inp_files/51790.got.cif
#   From: 2010.05.17/outbox.cif.g08.bks.cpg/sg11_26_cif.got.tgz:51790.got - 2010.06.03 12:22:45.
