data_PCOD9161271
_publ_section_title
;
Structure prediction by ZEFSAII (Michael W. Deem and Ramdas Pophale) SiO2 
 PCOD9161271
Probable space group: P 21/M
;
_chemical_formula_sum "Si O2"
_cell_formula_units_Z 32
_cell_length_a 20.366656
_cell_length_b 8.433560
_cell_length_c 14.621981
_cell_angle_alpha 90.000000
_cell_angle_beta 45.732639
_cell_angle_gamma 90.000000
_cell_volume 1798.476551
_symmetry_space_group_name_H-M "P 21/M"
_symmetry_group_IT_number 11
_symmetry_cell_setting 'monoclinic'
loop_
_space_group_symop_operation_xyz
x,y,z
-x,1/2+y,-z
-x,-y,-z
x,1/2-y,z
loop_
_atom_site_type_symbol
_atom_site_label
_atom_site_fract_x
_atom_site_fract_y
_atom_site_fract_z
Si Si1 0.754573 0.443080 0.642511
Si Si2 0.896972 0.060260 0.860020
Si Si3 0.746856 0.058329 0.858489
Si Si4 0.253130 0.059882 0.641518
Si Si5 0.754975 0.558435 0.141225
Si Si6 0.604854 0.941607 0.139689
Si Si7 0.896777 0.439962 0.352781
Si Si8 0.604483 0.058228 0.642003
O O1 0.754791 0.250000 0.644498
O O2 0.753307 0.498773 0.747991
O O3 0.843000 0.492316 0.497136
O O4 0.665669 0.491538 0.669932
O O5 0.897982 0.250000 0.859560
O O6 0.833183 0.006630 0.836831
O O7 0.999798 0.998870 0.752130
O O8 0.845181 0.000988 0.001155
O O9 0.746318 0.250000 0.858274
O O10 0.656289 0.000894 0.999074
O O11 0.253292 0.250000 0.640967
O O12 0.251718 0.004135 0.747774
O O13 0.164555 0.000839 0.671834
O O14 0.341492 0.000351 0.499721
O O15 0.756502 0.750000 0.139601
O O16 0.668228 0.507255 0.163656
O O17 0.604465 0.750000 0.138609
O O18 0.500241 0.996505 0.249972
O O19 0.895672 0.250000 0.351961
O O20 0.604777 0.250000 0.639811
#
# Coordination Sequence:
#
# PCOD9161271 Si02
#       8
#     4   4   4   4   4   4   4   4
#     4   8  16  32  51  71  98 132 165 197 241 293
#     4  10  20  33  51  75 100 127 163 206 245 286
#     4   9  18  33  51  72 100 131 164 204 245 285
#     4  10  20  34  52  74  99 127 164 208 246 286
#     4   9  19  35  52  71  99 133 165 201 246 292
#     4   9  18  33  51  73 101 132 167 202 240 291
#     4  10  20  35  54  73  98 132 163 197 246 299
#     4   9  18  33  52  73 101 135 165 198 243 293
#
# _framework density 17.792836000000001
#
# number of rings (size 3 to 8) (size 9 to 14) (size 15 to 20)
#    0.000    2.750    0.000    1.875    0.000    4.000 
#    0.000    3.125    0.000    0.000    0.000    0.000 
#    0.000    0.000    0.000    0.000    0.000    0.000 
#
# Total GULP energy -178454.693943 kJ/mol
# GULP energy per Si atom -5576.709186 kJ/mol
# Density = 1.775234 g / cm^3
# Si number density = 17.792836 Si / 1000 Ang^3
#
#
#
# Elastic Constant Matrix: (Units=GPa)
#
#
# Indices 1 2 3 4 5 6 
#
# 1 128.1481 25.8633 148.9653 0.0000 6.6324 0.0000
# 2 25.8633 16.8996 31.0849 0.0000 0.8937 0.0000
# 3 148.9653 31.0849 205.0150 0.0000 -0.1374 0.0000
# 4 0.0000 0.0000 0.0000 25.4953 0.0000 4.5815
# 5 6.6324 0.8937 -0.1374 0.0000 45.1520 0.0000
# 6 0.0000 0.0000 0.0000 4.5815 0.0000 10.5008
#
#
#
# Elastic Compliance Matrix: (Units=1/GPa)
#
#
# Indices 1 2 3 4 5 6 
#
# 1 0.055265 -0.014263 -0.037999 0.000000 -0.007951 0.000000
# 2 -0.014263 0.085864 -0.002655 0.000000 0.000388 0.000000
# 3 -0.037999 -0.002655 0.032894 0.000000 0.005734 0.000000
# 4 0.000000 0.000000 0.000000 0.042560 0.000000 -0.018569
# 5 -0.007951 0.000388 0.005734 0.000000 0.023325 0.000000
# 6 0.000000 0.000000 0.000000 -0.018569 0.000000 0.103332
#
#
# Mechanical properties :
#
#
# Convention : Reuss Voigt Hill
#
# Bulk Modulus (GPa) = 15.57880 84.65440 50.11660
# Shear Modulus (GPa) = 10.53804 25.83957 18.18881
#
# Velocity S-wave (km/s) = 2.43629 3.81497 3.20074
# Velocity P-wave (km/s) = 4.08517 8.19063 6.47206
#
# Compressibility (1/GPa) = 0.06418980
#
# Stress axis : x y z
#
# Youngs Moduli (GPa) = 18.09456 11.64628 30.40045
#
# Poissons Ratio (x) = 0.16612 1.15518
# Poissons Ratio (y) = 0.25809 0.08071
# Poissons Ratio (z) = 0.68757 0.03092
#
# Static dielectric constant tensor:
#      x y z
#    x 1.603960 0.000000 0.006180 
#    y 0.000000 1.607170 0.000000 
#    z 0.006180 0.000000 1.582470 
# 
# From -- ./inp_files/54261.got.cif
#   From: 2010.05.17/outbox.cif.g08.bks.cpg/sg11_28_cif.got.tgz:54261.got - 2010.06.03 12:22:45.
