data_PCOD9161352
_publ_section_title
;
Structure prediction by ZEFSAII (Michael W. Deem and Ramdas Pophale) SiO2 
 PCOD9161352
Probable space group: P 21/M
;
_chemical_formula_sum "Si O2"
_cell_formula_units_Z 28
_cell_length_a 18.879405
_cell_length_b 14.516638
_cell_length_c 5.590406
_cell_angle_alpha 90.000000
_cell_angle_beta 126.429048
_cell_angle_gamma 90.000000
_cell_volume 1232.746741
_symmetry_space_group_name_H-M "P 21/M"
_symmetry_group_IT_number 11
_symmetry_cell_setting 'monoclinic'
loop_
_space_group_symop_operation_xyz
x,y,z
-x,1/2+y,-z
-x,-y,-z
x,1/2-y,z
loop_
_atom_site_type_symbol
_atom_site_label
_atom_site_fract_x
_atom_site_fract_y
_atom_site_fract_z
Si Si1 0.956520 0.854525 0.789448
Si Si2 0.669299 0.354015 0.622590
Si Si3 0.437279 0.050362 0.626797
Si Si4 0.391102 0.061714 0.029335
Si Si5 0.081677 0.057691 0.770218
Si Si6 0.148647 0.851311 0.299978
Si Si7 0.224746 0.961080 0.829257
O O1 0.936900 0.750000 0.816471
O O2 0.910107 0.873042 0.441767
O O3 0.936001 0.909556 0.994466
O O4 0.062887 0.862631 0.964308
O O5 0.629566 0.250000 0.534224
O O6 0.611484 0.447923 0.466817
O O7 0.754424 0.353212 0.620286
O O8 0.715782 0.375018 0.969935
O O9 0.411975 0.101914 0.332243
O O10 0.540305 0.025241 0.832190
O O11 0.412280 0.104516 0.816085
O O12 0.290962 0.030626 0.837052
O O13 0.175688 0.006019 0.954573
O O14 0.000000 0.000000 0.500000
O O15 0.137256 0.750000 0.388875
O O16 0.149457 0.927600 0.503367
#
# Coordination Sequence:
#
# PCOD9161352 Si02
#       7
#     4   4   4   4   4   4   4
#     4  11  25  43  59  81 116 160 197 240 298 358
#     4  10  20  33  52  81 118 154 182 226 292 356
#     4   9  17  32  50  75 105 141 179 213 265 342
#     4   9  18  31  52  75 105 140 175 226 275 323
#     4  12  24  38  63  87 117 149 204 250 295 340
#     4  10  20  33  52  78 115 153 183 227 292 355
#     4  11  21  33  55  82 117 143 194 243 289 328
#
# _framework density 22.713508000000001
#
# number of rings (size 3 to 8) (size 9 to 14) (size 15 to 20)
#    0.000    1.714    2.857    2.143    2.000    0.000 
#    0.000    0.000    0.000    1.714    0.000    0.000 
#    0.000    0.000    0.000    0.000    0.000    0.000 
#
# Total GULP energy -155918.192981 kJ/mol
# GULP energy per Si atom -5568.506892 kJ/mol
# Density = 2.266181 g / cm^3
# Si number density = 22.713508 Si / 1000 Ang^3
#
#
#
# Elastic Constant Matrix: (Units=GPa)
#
#
# Indices 1 2 3 4 5 6 
#
# 1 113.9874 16.9722 11.2682 0.0000 -12.3051 0.0000
# 2 16.9722 40.8732 13.6403 0.0000 3.5832 0.0000
# 3 11.2682 13.6403 104.8636 0.0000 -22.6661 0.0000
# 4 0.0000 0.0000 0.0000 22.4749 0.0000 -5.0142
# 5 -12.3051 3.5832 -22.6661 0.0000 46.9358 0.0000
# 6 0.0000 0.0000 0.0000 -5.0142 0.0000 14.5869
#
#
#
# Elastic Compliance Matrix: (Units=1/GPa)
#
#
# Indices 1 2 3 4 5 6 
#
# 1 0.009724 -0.004351 0.000161 0.000000 0.002959 0.000000
# 2 -0.004351 0.028205 -0.004369 0.000000 -0.005404 0.000000
# 3 0.000161 -0.004369 0.011354 0.000000 0.005859 0.000000
# 4 0.000000 0.000000 0.000000 0.048190 0.000000 0.016565
# 5 0.002959 -0.005404 0.005859 0.000000 0.025323 0.000000
# 6 0.000000 0.000000 0.000000 0.016565 0.000000 0.074249
#
#
# Mechanical properties :
#
#
# Convention : Reuss Voigt Hill
#
# Bulk Modulus (GPa) = 31.09141 38.16507 34.62824
# Shear Modulus (GPa) = 22.23360 31.32241 26.77801
#
# Velocity S-wave (km/s) = 3.13209 3.71755 3.43730
# Velocity P-wave (km/s) = 5.17670 5.93853 5.57065
#
# Compressibility (1/GPa) = 0.03216322
#
# Stress axis : x y z
#
# Youngs Moduli (GPa) = 102.83510 35.45531 88.07794
#
# Poissons Ratio (x) = 0.15427 -0.01415
# Poissons Ratio (y) = 0.44743 0.38484
# Poissons Ratio (z) = -0.01652 0.15491
#
# Static dielectric constant tensor:
#      x y z
#    x 1.883270 0.000000 -0.071470 
#    y 0.000000 1.912740 0.000000 
#    z -0.071470 0.000000 1.945040 
# 
# From -- ./inp_files/7881.got.cif
#   From: 2010.05.17/outbox.cif.g08.bks.cpg/sg11_4_cif.got.tgz:7881.got - 2010.06.03 12:22:45.
