data_PCOD9161616
_publ_section_title
;
Structure prediction by ZEFSAII (Michael W. Deem and Ramdas Pophale) SiO2 
 PCOD9161616
Probable space group: P 21/M
;
_chemical_formula_sum "Si O2"
_cell_formula_units_Z 32
_cell_length_a 16.932219
_cell_length_b 7.695932
_cell_length_c 21.861327
_cell_angle_alpha 90.000000
_cell_angle_beta 27.815354
_cell_angle_gamma 90.000000
_cell_volume 1329.285862
_symmetry_space_group_name_H-M "P 21/M"
_symmetry_group_IT_number 11
_symmetry_cell_setting 'monoclinic'
loop_
_space_group_symop_operation_xyz
x,y,z
-x,1/2+y,-z
-x,-y,-z
x,1/2-y,z
loop_
_atom_site_type_symbol
_atom_site_label
_atom_site_fract_x
_atom_site_fract_y
_atom_site_fract_z
Si Si1 0.154680 0.541242 0.105371
Si Si2 0.020599 0.541247 0.325789
Si Si3 0.697954 0.458576 0.361215
Si Si4 0.491729 0.550426 0.816249
Si Si5 0.999523 0.451420 0.081817
Si Si6 0.657390 0.949788 0.207850
Si Si7 0.681681 0.459441 0.506211
Si Si8 0.170188 0.956671 0.348021
O O1 0.125810 0.750000 0.121633
O O2 0.075573 0.460408 0.098609
O O3 0.087778 0.472648 0.215214
O O4 0.354443 0.510659 0.962389
O O5 0.035828 0.750000 0.315296
O O6 0.819583 0.502730 0.463421
O O7 0.131640 0.475683 0.306126
O O8 0.500000 0.500000 0.500000
O O9 0.715961 0.250000 0.346613
O O10 0.752122 0.521648 0.392093
O O11 0.812542 0.526815 0.226149
O O12 0.467680 0.750000 0.813633
O O13 0.437261 0.447320 0.793374
O O14 0.673953 0.528231 0.720412
O O15 0.983058 0.250000 0.076042
O O16 0.152897 0.526131 0.934393
O O17 0.682982 0.750000 0.208252
O O18 0.507798 0.030128 0.351774
O O19 0.667998 0.250000 0.512926
O O20 0.194257 0.750000 0.328328
O O21 0.000000 0.000000 0.500000
#
# Coordination Sequence:
#
# PCOD9161616 Si02
#       8
#     4   4   4   4   4   4   4   4
#     4   9  18  33  53  77 103 134 172 217 265 310
#     4  10  21  35  53  76 103 136 176 221 266 311
#     4  10  21  36  55  80 109 139 172 211 258 312
#     4  10  20  34  52  76 107 139 176 219 264 315
#     4   9  17  33  55  79 106 137 175 213 255 312
#     4   9  18  33  56  80 105 140 177 219 266 307
#     4  10  20  35  55  81 107 133 174 220 260 311
#     4  11  23  37  51  71 102 140 180 222 269 318
#
# _framework density 24.073079
#
# number of rings (size 3 to 8) (size 9 to 14) (size 15 to 20)
#    0.000    2.250    1.250    1.500    0.000    5.500 
#    0.000    0.625    0.000    0.000    0.000    0.000 
#    0.000    0.000    0.000    0.000    0.000    0.000 
#
# Total GULP energy -178697.079890 kJ/mol
# GULP energy per Si atom -5584.283747 kJ/mol
# Density = 2.401829 g / cm^3
# Si number density = 24.073079 Si / 1000 Ang^3
#
#
#
# Elastic Constant Matrix: (Units=GPa)
#
#
# Indices 1 2 3 4 5 6 
#
# 1 80.9599 19.3685 31.9124 0.0000 -4.6950 0.0000
# 2 19.3685 51.7529 15.9297 0.0000 6.1988 0.0000
# 3 31.9124 15.9297 173.6525 0.0000 -0.5125 0.0000
# 4 0.0000 0.0000 0.0000 21.3029 0.0000 -5.2557
# 5 -4.6950 6.1988 -0.5125 0.0000 49.8465 0.0000
# 6 0.0000 0.0000 0.0000 -5.2557 0.0000 26.9641
#
#
#
# Elastic Compliance Matrix: (Units=1/GPa)
#
#
# Indices 1 2 3 4 5 6 
#
# 1 0.014530 -0.004994 -0.002206 0.000000 0.001967 0.000000
# 2 -0.004994 0.021915 -0.001102 0.000000 -0.003207 0.000000
# 3 -0.002206 -0.001102 0.006265 0.000000 -0.000006 0.000000
# 4 0.000000 0.000000 0.000000 0.049313 0.000000 0.009612
# 5 0.001967 -0.003207 -0.000006 0.000000 0.020646 0.000000
# 6 0.000000 0.000000 0.000000 0.009612 0.000000 0.038960
#
#
# Mechanical properties :
#
#
# Convention : Reuss Voigt Hill
#
# Bulk Modulus (GPa) = 38.30663 48.97626 43.64144
# Shear Modulus (GPa) = 28.25868 35.56634 31.91251
#
# Velocity S-wave (km/s) = 3.42990 3.84791 3.64490
# Velocity P-wave (km/s) = 5.62430 6.33489 5.99014
#
# Compressibility (1/GPa) = 0.02610514
#
# Stress axis : x y z
#
# Youngs Moduli (GPa) = 68.82124 45.63060 159.61307
#
# Poissons Ratio (x) = 0.22790 0.35216
# Poissons Ratio (y) = 0.34373 0.17589
# Poissons Ratio (z) = 0.15184 0.05028
#
# Static dielectric constant tensor:
#      x y z
#    x 1.958940 0.000000 0.001710 
#    y 0.000000 1.890830 0.000000 
#    z 0.001710 0.000000 1.992020 
# 
# From -- ./inp_files/72063.got.cif
#   From: 2010.05.17/outbox.cif.g08.bks.cpg/sg11_37_cif.got.tgz:72063.got - 2010.06.03 12:22:45.
