data_PCOD9161473
_publ_section_title
;
Structure prediction by ZEFSAII (Michael W. Deem and Ramdas Pophale) SiO2 
 PCOD9161473
Probable space group: P 21/M
;
_chemical_formula_sum "Si O2"
_cell_formula_units_Z 32
_cell_length_a 26.727946
_cell_length_b 9.473139
_cell_length_c 10.776713
_cell_angle_alpha 90.000000
_cell_angle_beta 147.913487
_cell_angle_gamma 90.000000
_cell_volume 1449.449840
_symmetry_space_group_name_H-M "P 21/M"
_symmetry_group_IT_number 11
_symmetry_cell_setting 'monoclinic'
loop_
_space_group_symop_operation_xyz
x,y,z
-x,1/2+y,-z
-x,-y,-z
x,1/2-y,z
loop_
_atom_site_type_symbol
_atom_site_label
_atom_site_fract_x
_atom_site_fract_y
_atom_site_fract_z
Si Si1 0.078660 0.096364 0.609910
Si Si2 0.427566 0.080483 0.040892
Si Si3 0.266049 0.912363 0.580559
Si Si4 0.812843 0.591885 0.911435
Si Si5 0.627485 0.082013 0.545904
Si Si6 0.178247 0.603242 0.667700
Si Si7 0.621299 0.088078 0.812192
Si Si8 0.915531 0.581233 0.894041
O O1 0.040488 0.250000 0.509190
O O2 0.118668 0.033064 0.568324
O O3 0.157826 0.096713 0.883343
O O4 0.000000 0.000000 0.500000
O O5 0.410270 0.250000 0.000309
O O6 0.539728 0.055035 0.270654
O O7 0.401846 0.016589 0.123312
O O8 0.363860 0.995371 0.808516
O O9 0.724161 0.250000 0.448914
O O10 0.185230 0.010866 0.352450
O O11 0.224526 0.895246 0.631667
O O12 0.782085 0.750000 0.810015
O O13 0.724488 0.489271 0.710127
O O14 0.905723 0.562429 0.022882
O O15 0.640330 0.250000 0.581795
O O16 0.598767 0.035916 0.626285
O O17 0.123181 0.750000 0.569328
O O18 0.265509 0.601819 0.945118
O O19 0.584452 0.250000 0.755053
O O20 0.921847 0.750000 0.881112
O O21 0.000000 0.500000 0.000000
#
# Coordination Sequence:
#
# PCOD9161473 Si02
#       8
#     4   4   4   4   4   4   4   4
#     4  11  23  37  56  85 119 156 194 237 297 362
#     4  10  20  33  55  89 124 161 204 250 297 356
#     4  10  22  41  63  88 121 159 203 254 303 352
#     4  10  24  43  62  88 123 158 198 252 304 358
#     4  10  20  35  57  86 122 162 205 248 297 358
#     4   9  18  34  56  82 117 155 191 240 295 348
#     4   9  17  31  51  80 120 164 201 241 290 346
#     4  11  25  46  69  93 119 154 202 254 307 362
#
# _framework density 22.077342999999999
#
# number of rings (size 3 to 8) (size 9 to 14) (size 15 to 20)
#    0.000    2.000    1.250    2.625    1.750    5.500 
#    0.000    0.625    0.000    0.000    0.000    0.000 
#    0.000    0.000    0.000    0.000    0.000    0.000 
#
# Total GULP energy -178449.817565 kJ/mol
# GULP energy per Si atom -5576.556799 kJ/mol
# Density = 2.202709 g / cm^3
# Si number density = 22.077343 Si / 1000 Ang^3
#
#
#
# Elastic Constant Matrix: (Units=GPa)
#
#
# Indices 1 2 3 4 5 6 
#
# 1 64.5086 26.8261 1.1891 0.0000 5.1308 0.0000
# 2 26.8261 122.3015 32.0823 0.0000 18.0739 0.0000
# 3 1.1891 32.0823 75.5642 0.0000 7.7440 0.0000
# 4 0.0000 0.0000 0.0000 29.8421 0.0000 9.3533
# 5 5.1308 18.0739 7.7440 0.0000 24.0717 0.0000
# 6 0.0000 0.0000 0.0000 9.3533 0.0000 26.8233
#
#
#
# Elastic Compliance Matrix: (Units=1/GPa)
#
#
# Indices 1 2 3 4 5 6 
#
# 1 0.017236 -0.004017 0.001553 0.000000 -0.001157 0.000000
# 2 -0.004017 0.011008 -0.003982 0.000000 -0.006128 0.000000
# 3 0.001553 -0.003982 0.015126 0.000000 -0.002207 0.000000
# 4 0.000000 0.000000 0.000000 0.037621 0.000000 -0.013119
# 5 -0.001157 -0.006128 -0.002207 0.000000 0.047100 0.000000
# 6 0.000000 0.000000 0.000000 -0.013119 0.000000 0.041856
#
#
# Mechanical properties :
#
#
# Convention : Reuss Voigt Hill
#
# Bulk Modulus (GPa) = 32.81173 42.50772 37.65972
# Shear Modulus (GPa) = 25.90689 29.63253 27.76971
#
# Velocity S-wave (km/s) = 3.42930 3.66760 3.55045
# Velocity P-wave (km/s) = 5.52943 6.10171 5.82260
#
# Compressibility (1/GPa) = 0.03047690
#
# Stress axis : x y z
#
# Youngs Moduli (GPa) = 58.01928 90.84446 66.10989
#
# Poissons Ratio (x) = 0.36491 -0.10266
# Poissons Ratio (y) = 0.23306 0.26328
# Poissons Ratio (z) = -0.09009 0.36178
#
# Static dielectric constant tensor:
#      x y z
#    x 1.838710 0.000000 -0.031470 
#    y 0.000000 1.828580 0.000000 
#    z -0.031470 0.000000 1.876300 
# 
# From -- ./inp_files/45346.got.cif
#   From: 2010.05.17/outbox.cif.g08.bks.cpg/sg11_23_cif.got.tgz:45346.got - 2010.06.03 12:22:45.
