data_PCOD9161000
_publ_section_title
;
Structure prediction by ZEFSAII (Michael W. Deem and Ramdas Pophale) SiO2 
 PCOD9161000
Probable space group: P 21/M
;
_chemical_formula_sum "Si O2"
_cell_formula_units_Z 28
_cell_length_a 22.100482
_cell_length_b 7.509677
_cell_length_c 11.739417
_cell_angle_alpha 90.000000
_cell_angle_beta 129.673119
_cell_angle_gamma 90.000000
_cell_volume 1499.652181
_symmetry_space_group_name_H-M "P 21/M"
_symmetry_group_IT_number 11
_symmetry_cell_setting 'monoclinic'
loop_
_space_group_symop_operation_xyz
x,y,z
-x,1/2+y,-z
-x,-y,-z
x,1/2-y,z
loop_
_atom_site_type_symbol
_atom_site_label
_atom_site_fract_x
_atom_site_fract_y
_atom_site_fract_z
Si Si1 0.403496 0.037090 0.972511
Si Si2 0.076309 0.963614 0.667458
Si Si3 0.269480 0.969406 0.517596
Si Si4 0.123800 0.539194 0.199899
Si Si5 0.768185 0.463099 0.270526
Si Si6 0.438511 0.952724 0.754404
Si Si7 0.036191 0.534509 0.870900
O O1 0.413512 0.250000 0.972244
O O2 0.313163 0.001857 0.892834
O O3 0.417729 0.953502 0.864862
O O4 0.473150 0.970979 0.139211
O O5 0.084723 0.750000 0.686118
O O6 0.154661 0.032756 0.699755
O O7 0.062338 0.030550 0.778765
O O8 0.000000 0.000000 0.500000
O O9 0.271128 0.750000 0.520542
O O10 0.205004 0.029840 0.349256
O O11 0.242471 0.026962 0.611979
O O12 0.359222 0.031297 0.605396
O O13 0.134850 0.750000 0.197544
O O14 0.053164 0.514508 0.205200
O O15 0.090888 0.467980 0.040470
O O16 0.775652 0.250000 0.287244
O O17 0.444309 0.750000 0.719711
O O18 0.039273 0.750000 0.874988
#
# Coordination Sequence:
#
# PCOD9161000 Si02
#       7
#     4   4   4   4   4   4   4
#     4   9  15  23  37  57  80 105 134 167 201 239
#     4  10  20  32  45  62  85 112 141 174 209 245
#     4   8  13  23  40  59  77 102 135 163 192 239
#     4   9  16  28  46  63  81 108 138 167 205 251
#     4   9  17  28  40  55  80 112 139 164 200 245
#     4   8  14  24  37  55  81 108 132 162 201 244
#     4   9  18  30  43  62  85 106 135 175 209 239
#
# _framework density 18.670995000000001
#
# number of rings (size 3 to 8) (size 9 to 14) (size 15 to 20)
#    0.000    3.143    0.000    2.143    0.000    2.857 
#    0.000    4.286    0.000    0.000    0.000    1.000 
#    0.000    0.000    0.000    0.000    0.000    0.000 
#
# Total GULP energy -155941.738960 kJ/mol
# GULP energy per Si atom -5569.347820 kJ/mol
# Density = 1.862850 g / cm^3
# Si number density = 18.670995 Si / 1000 Ang^3
#
#
#
# Elastic Constant Matrix: (Units=GPa)
#
#
# Indices 1 2 3 4 5 6 
#
# 1 82.5337 -6.2182 58.3304 0.0000 24.2414 0.0000
# 2 -6.2182 50.5326 -4.2388 0.0000 -3.4879 0.0000
# 3 58.3304 -4.2388 138.3039 0.0000 42.1939 0.0000
# 4 0.0000 0.0000 0.0000 12.1726 0.0000 5.2829
# 5 24.2414 -3.4879 42.1939 0.0000 35.9217 0.0000
# 6 0.0000 0.0000 0.0000 5.2829 0.0000 12.2436
#
#
#
# Elastic Compliance Matrix: (Units=1/GPa)
#
#
# Indices 1 2 3 4 5 6 
#
# 1 0.017908 0.001362 -0.006023 0.000000 -0.004879 0.000000
# 2 0.001362 0.020026 -0.000426 0.000000 0.001526 0.000000
# 3 -0.006023 -0.000426 0.013294 0.000000 -0.011592 0.000000
# 4 0.000000 0.000000 0.000000 0.101080 0.000000 -0.043614
# 5 -0.004879 0.001526 -0.011592 0.000000 0.044895 0.000000
# 6 0.000000 0.000000 0.000000 -0.043614 0.000000 0.100494
#
#
# Mechanical properties :
#
#
# Convention : Reuss Voigt Hill
#
# Bulk Modulus (GPa) = 24.35789 40.79077 32.57433
# Shear Modulus (GPa) = 15.54932 26.96737 21.25835
#
# Velocity S-wave (km/s) = 2.88897 3.80458 3.37794
# Velocity P-wave (km/s) = 4.91959 6.41828 5.71825
#
# Compressibility (1/GPa) = 0.04105446
#
# Stress axis : x y z
#
# Youngs Moduli (GPa) = 55.83965 49.93414 75.22096
#
# Poissons Ratio (x) = -0.06800 0.45305
# Poissons Ratio (y) = -0.07604 0.03205
# Poissons Ratio (z) = 0.33631 0.02128
#
# Static dielectric constant tensor:
#      x y z
#    x 1.635620 0.000000 0.039480 
#    y 0.000000 1.738180 0.000000 
#    z 0.039480 0.000000 1.678440 
# 
# From -- ./inp_files/42332.got.cif
#   From: 2010.05.17/outbox.cif.g08.bks.cpg/sg11_22_cif.got.tgz:42332.got - 2010.06.03 12:22:45.
