data_PCOD9161213
_publ_section_title
;
Structure prediction by ZEFSAII (Michael W. Deem and Ramdas Pophale) SiO2 
 PCOD9161213
Probable space group: P 21/M
;
_chemical_formula_sum "Si O2"
_cell_formula_units_Z 32
_cell_length_a 21.907542
_cell_length_b 8.800706
_cell_length_c 28.945364
_cell_angle_alpha 90.000000
_cell_angle_beta 159.089602
_cell_angle_gamma 90.000000
_cell_volume 1991.800765
_symmetry_space_group_name_H-M "P 21/M"
_symmetry_group_IT_number 11
_symmetry_cell_setting 'monoclinic'
loop_
_space_group_symop_operation_xyz
x,y,z
-x,1/2+y,-z
-x,-y,-z
x,1/2-y,z
loop_
_atom_site_type_symbol
_atom_site_label
_atom_site_fract_x
_atom_site_fract_y
_atom_site_fract_z
Si Si1 0.626935 0.571626 0.279969
Si Si2 0.401007 0.933590 0.202960
Si Si3 0.155893 0.567349 0.640414
Si Si4 0.046479 0.070853 0.419917
Si Si5 0.358285 0.568665 0.462200
Si Si6 0.040892 0.431028 0.978860
Si Si7 0.745166 0.568772 0.707193
Si Si8 0.277430 0.434138 0.503496
O O1 0.607272 0.750000 0.255837
O O2 0.469363 0.520039 0.200411
O O3 0.675478 0.486221 0.267313
O O4 0.789796 0.558692 0.429934
O O5 0.383400 0.750000 0.190245
O O6 0.550252 0.969841 0.345540
O O7 0.224994 0.010013 0.092381
O O8 0.146275 0.750000 0.632705
O O9 0.000000 0.500000 0.500000
O O10 0.113602 0.513534 0.662874
O O11 0.016118 0.250000 0.391029
O O12 0.116565 0.009994 0.420860
O O13 0.337627 0.750000 0.444653
O O14 0.561424 0.534929 0.600982
O O15 0.269810 0.490277 0.355738
O O16 0.289669 0.506183 0.461980
O O17 0.040359 0.250000 0.981349
O O18 0.000000 0.500000 0.000000
O O19 0.895772 0.487981 0.841172
O O20 0.770073 0.750000 0.725470
O O21 0.269346 0.250000 0.494377
#
# Coordination Sequence:
#
# PCOD9161213 Si02
#       8
#     4   4   4   4   4   4   4   4
#     4   8  14  25  39  56  81 114 150 187 226 268
#     4   9  18  32  48  66  92 125 159 193 230 275
#     4   9  14  21  34  52  78 113 151 188 224 265
#     4   7  12  22  35  54  81 114 150 183 217 261
#     4  10  20  33  50  72  94 115 146 190 233 273
#     4  12  24  36  51  71  96 123 154 191 229 270
#     4  10  21  37  54  70  90 119 153 187 228 276
#     4   9  16  28  46  65  89 124 159 188 224 271
#
# _framework density 16.065864000000001
#
# number of rings (size 3 to 8) (size 9 to 14) (size 15 to 20)
#    0.000    2.750    0.000    5.250    0.000    4.500 
#    0.000    5.625    0.000    0.000    0.000    0.000 
#    0.000    1.000    0.000    3.000    0.000    5.625 
#
# Total GULP energy -178183.110528 kJ/mol
# GULP energy per Si atom -5568.222204 kJ/mol
# Density = 1.602930 g / cm^3
# Si number density = 16.065864 Si / 1000 Ang^3
#
#
#
# Elastic Constant Matrix: (Units=GPa)
#
#
# Indices 1 2 3 4 5 6 
#
# 1 192.3156 54.3556 50.5602 0.0000 17.8757 0.0000
# 2 54.3556 48.5637 27.5436 0.0000 6.8588 0.0000
# 3 50.5602 27.5436 45.9248 0.0000 6.5570 0.0000
# 4 0.0000 0.0000 0.0000 18.6391 0.0000 1.2899
# 5 17.8757 6.8588 6.5570 0.0000 17.0059 0.0000
# 6 0.0000 0.0000 0.0000 1.2899 0.0000 29.5644
#
#
#
# Elastic Compliance Matrix: (Units=1/GPa)
#
#
# Indices 1 2 3 4 5 6 
#
# 1 0.008764 -0.006144 -0.005294 0.000000 -0.004693 0.000000
# 2 -0.006144 0.036042 -0.014497 0.000000 -0.002488 0.000000
# 3 -0.005294 -0.014497 0.036688 0.000000 -0.002734 0.000000
# 4 0.000000 0.000000 0.000000 0.053813 0.000000 -0.002348
# 5 -0.004693 -0.002488 -0.002734 0.000000 0.065795 0.000000
# 6 0.000000 0.000000 0.000000 -0.002348 0.000000 0.033927
#
#
# Mechanical properties :
#
#
# Convention : Reuss Voigt Hill
#
# Bulk Modulus (GPa) = 33.75564 61.30254 47.52909
# Shear Modulus (GPa) = 16.84788 23.33152 20.08970
#
# Velocity S-wave (km/s) = 3.24184 3.81496 3.54002
# Velocity P-wave (km/s) = 5.92192 7.59244 6.80861
#
# Compressibility (1/GPa) = 0.02962468
#
# Stress axis : x y z
#
# Youngs Moduli (GPa) = 114.09758 27.74537 27.25711
#
# Poissons Ratio (x) = 0.17048 0.14429
# Poissons Ratio (y) = 0.70106 0.39513
# Poissons Ratio (z) = 0.60402 0.40221
#
# Static dielectric constant tensor:
#      x y z
#    x 1.581940 0.000000 0.027280 
#    y 0.000000 1.536850 0.000000 
#    z 0.027280 0.000000 1.514290 
# 
# From -- ./inp_files/72188.got.cif
#   From: 2010.05.17/outbox.cif.g08.bks.cpg/sg11_37_cif.got.tgz:72188.got - 2010.06.03 12:22:45.
