data_PCOD9161978
_publ_section_title
;
Structure prediction by ZEFSAII (Michael W. Deem and Ramdas Pophale) SiO2 
 PCOD9161978
Probable space group: P 21/M
;
_chemical_formula_sum "Si O2"
_cell_formula_units_Z 32
_cell_length_a 20.687491
_cell_length_b 9.044073
_cell_length_c 11.572132
_cell_angle_alpha 90.000000
_cell_angle_beta 53.482717
_cell_angle_gamma 90.000000
_cell_volume 1740.071185
_symmetry_space_group_name_H-M "P 21/M"
_symmetry_group_IT_number 11
_symmetry_cell_setting 'monoclinic'
loop_
_space_group_symop_operation_xyz
x,y,z
-x,1/2+y,-z
-x,-y,-z
x,1/2-y,z
loop_
_atom_site_type_symbol
_atom_site_label
_atom_site_fract_x
_atom_site_fract_y
_atom_site_fract_z
Si Si1 0.331078 0.425679 0.003640
Si Si2 0.539626 0.074269 0.284366
Si Si3 0.081215 0.926231 0.368737
Si Si4 0.385065 0.926023 0.545634
Si Si5 0.086802 0.426318 0.900921
Si Si6 0.233102 0.427453 0.597126
Si Si7 0.768293 0.573248 0.668825
Si Si8 0.160772 0.073527 0.070292
O O1 0.345749 0.250000 0.977191
O O2 0.303260 0.457498 0.164389
O O3 0.252520 0.461857 0.008496
O O4 0.407347 0.513736 0.876823
O O5 0.528599 0.250000 0.288677
O O6 0.588683 0.040431 0.350588
O O7 0.453975 0.995988 0.391309
O O8 0.075411 0.750000 0.376708
O O9 0.154648 0.983789 0.369365
O O10 0.103118 0.984697 0.217719
O O11 0.000000 0.000000 0.500000
O O12 0.383557 0.750000 0.533793
O O13 0.300086 0.995369 0.603436
O O14 0.075129 0.250000 0.906671
O O15 0.143810 0.472026 0.733729
O O16 0.137274 0.457642 0.963890
O O17 0.000000 0.500000 0.000000
O O18 0.239146 0.250000 0.606450
O O19 0.248257 0.460709 0.446676
O O20 0.785392 0.750000 0.660098
O O21 0.150773 0.250000 0.101436
#
# Coordination Sequence:
#
# PCOD9161978 Si02
#       8
#     4   4   4   4   4   4   4   4
#     4   9  17  33  57  81 109 143 181 230 278 324
#     4  10  20  34  56  85 116 145 183 230 273 327
#     4  11  22  35  55  79 105 138 182 233 281 328
#     4  10  21  36  56  85 115 146 183 226 277 329
#     4  10  22  37  55  81 111 145 184 228 277 331
#     4  10  21  39  60  80 111 150 185 224 277 335
#     4   9  20  38  57  80 110 146 187 226 276 334
#     4   9  19  36  54  77 109 142 181 226 276 329
#
# _framework density 18.390051
#
# number of rings (size 3 to 8) (size 9 to 14) (size 15 to 20)
#    0.000    2.250    0.000    3.375    1.750    6.000 
#    0.000    0.625    0.000    0.000    0.000    0.000 
#    0.000    0.000    0.000    0.000    0.000    0.000 
#
# Total GULP energy -178652.017526 kJ/mol
# GULP energy per Si atom -5582.875548 kJ/mol
# Density = 1.834819 g / cm^3
# Si number density = 18.390051 Si / 1000 Ang^3
#
#
#
# Elastic Constant Matrix: (Units=GPa)
#
#
# Indices 1 2 3 4 5 6 
#
# 1 43.9912 17.0836 33.5105 0.0000 -4.6632 0.0000
# 2 17.0836 31.6350 36.9994 0.0000 -4.1197 0.0000
# 3 33.5105 36.9994 110.1518 0.0000 -18.4631 0.0000
# 4 0.0000 0.0000 0.0000 31.5397 0.0000 -5.1144
# 5 -4.6632 -4.1197 -18.4631 0.0000 25.2733 0.0000
# 6 0.0000 0.0000 0.0000 -5.1144 0.0000 27.3248
#
#
#
# Elastic Compliance Matrix: (Units=1/GPa)
#
#
# Indices 1 2 3 4 5 6 
#
# 1 0.031227 -0.009425 -0.006411 0.000000 -0.000458 0.000000
# 2 -0.009425 0.055444 -0.016561 0.000000 -0.004799 0.000000
# 3 -0.006411 -0.016561 0.018165 0.000000 0.009388 0.000000
# 4 0.000000 0.000000 0.000000 0.032699 0.000000 0.006120
# 5 -0.000458 -0.004799 0.009388 0.000000 0.045559 0.000000
# 6 0.000000 0.000000 0.000000 0.006120 0.000000 0.037742
#
#
# Mechanical properties :
#
#
# Convention : Reuss Voigt Hill
#
# Bulk Modulus (GPa) = 24.97309 40.10721 32.54015
# Shear Modulus (GPa) = 16.72380 23.37319 20.04849
#
# Velocity S-wave (km/s) = 3.01889 3.56893 3.30537
# Velocity P-wave (km/s) = 5.07550 6.23214 5.68332
#
# Compressibility (1/GPa) = 0.04004310
#
# Stress axis : x y z
#
# Youngs Moduli (GPa) = 32.02377 18.03626 55.05142
#
# Poissons Ratio (x) = 0.16999 0.35293
# Poissons Ratio (y) = 0.30182 0.91168
# Poissons Ratio (z) = 0.20530 0.29869
#
# Static dielectric constant tensor:
#      x y z
#    x 1.614350 0.000000 0.018080 
#    y 0.000000 1.595220 0.000000 
#    z 0.018080 0.000000 1.639650 
# 
# From -- ./inp_files/42775.got.cif
#   From: 2010.05.17/outbox.cif.g08.bks.cpg/sg11_22_cif.got.tgz:42775.got - 2010.06.03 12:22:45.
