data_PCOD9161969
_publ_section_title
;
Structure prediction by ZEFSAII (Michael W. Deem and Ramdas Pophale) SiO2 
 PCOD9161969
Probable space group: P 21/M
;
_chemical_formula_sum "Si O2"
_cell_formula_units_Z 28
_cell_length_a 15.645767
_cell_length_b 9.022344
_cell_length_c 20.421462
_cell_angle_alpha 90.000000
_cell_angle_beta 30.237205
_cell_angle_gamma 90.000000
_cell_volume 1451.685222
_symmetry_space_group_name_H-M "P 21/M"
_symmetry_group_IT_number 11
_symmetry_cell_setting 'monoclinic'
loop_
_space_group_symop_operation_xyz
x,y,z
-x,1/2+y,-z
-x,-y,-z
x,1/2-y,z
loop_
_atom_site_type_symbol
_atom_site_label
_atom_site_fract_x
_atom_site_fract_y
_atom_site_fract_z
Si Si1 0.932475 0.419226 0.107821
Si Si2 0.283743 0.078769 0.948145
Si Si3 0.566768 0.571255 0.668375
Si Si4 0.689465 0.915811 0.807661
Si Si5 0.179191 0.927283 0.402385
Si Si6 0.438330 0.571307 0.608318
Si Si7 0.710882 0.415670 0.917812
O O1 0.895122 0.250000 0.113829
O O2 0.756039 0.479695 0.251620
O O3 0.000000 0.500000 0.000000
O O4 0.090051 0.421711 0.052224
O O5 0.342500 0.250000 0.913196
O O6 0.406984 0.992259 0.816131
O O7 0.275523 0.001962 0.023682
O O8 0.572791 0.750000 0.671941
O O9 0.733290 0.497966 0.591196
O O10 0.537941 0.536312 0.610394
O O11 0.755789 0.750000 0.749398
O O12 0.702904 0.021707 0.736336
O O13 0.777027 0.991611 0.812130
O O14 0.492100 0.899339 0.955697
O O15 0.168314 0.750000 0.414563
O O16 0.000000 0.000000 0.500000
O O17 0.500000 0.500000 0.500000
O O18 0.443028 0.750000 0.597992
O O19 0.784554 0.250000 0.871589
#
# Coordination Sequence:
#
# PCOD9161969 Si02
#       7
#     4   4   4   4   4   4   4
#     4  10  21  38  61  93 126 161 205 261 317 374
#     4  11  21  34  59  91 123 158 203 256 312 375
#     4  11  22  40  65  91 122 161 208 260 317 379
#     4  10  20  36  58  84 117 154 196 246 304 362
#     4  12  25  42  64  89 121 161 209 259 310 372
#     4  10  23  43  66  92 128 169 211 263 321 384
#     4  10  20  34  56  84 119 158 195 244 303 363
#
# _framework density 19.287928000000001
#
# number of rings (size 3 to 8) (size 9 to 14) (size 15 to 20)
#    0.000    1.429    2.857    3.000    0.000    3.429 
#    2.571    0.000    0.000    0.000    0.000    0.000 
#    0.000    0.000    0.000    0.000    0.000    0.000 
#
# Total GULP energy -156218.626853 kJ/mol
# GULP energy per Si atom -5579.236673 kJ/mol
# Density = 1.924403 g / cm^3
# Si number density = 19.287928 Si / 1000 Ang^3
#
#
#
# Elastic Constant Matrix: (Units=GPa)
#
#
# Indices 1 2 3 4 5 6 
#
# 1 145.5869 82.0141 48.1769 0.0000 19.4474 0.0000
# 2 82.0141 137.9524 35.3287 0.0000 5.6846 0.0000
# 3 48.1769 35.3287 75.9826 0.0000 -0.9238 0.0000
# 4 0.0000 0.0000 0.0000 28.0543 0.0000 4.1985
# 5 19.4474 5.6846 -0.9238 0.0000 31.4300 0.0000
# 6 0.0000 0.0000 0.0000 4.1985 0.0000 29.0965
#
#
#
# Elastic Compliance Matrix: (Units=1/GPa)
#
#
# Indices 1 2 3 4 5 6 
#
# 1 0.013077 -0.006055 -0.005563 0.000000 -0.007160 0.000000
# 2 -0.006055 0.011113 -0.001308 0.000000 0.001698 0.000000
# 3 -0.005563 -0.001308 0.017347 0.000000 0.004189 0.000000
# 4 0.000000 0.000000 0.000000 0.036432 0.000000 -0.005257
# 5 -0.007160 0.001698 0.004189 0.000000 0.036063 0.000000
# 6 0.000000 0.000000 0.000000 -0.005257 0.000000 0.035127
#
#
# Mechanical properties :
#
#
# Convention : Reuss Voigt Hill
#
# Bulk Modulus (GPa) = 63.74984 76.72905 70.23944
# Shear Modulus (GPa) = 27.74091 30.64964 29.19528
#
# Velocity S-wave (km/s) = 3.79654 3.99062 3.89479
# Velocity P-wave (km/s) = 7.23476 7.81669 7.53135
#
# Compressibility (1/GPa) = 0.01568631
#
# Stress axis : x y z
#
# Youngs Moduli (GPa) = 76.47075 89.98228 57.64582
#
# Poissons Ratio (x) = 0.54480 0.32070
# Poissons Ratio (y) = 0.46300 0.07538
# Poissons Ratio (z) = 0.42543 0.11767
#
# Static dielectric constant tensor:
#      x y z
#    x 4.621520 0.000000 -1.479490 
#    y 0.000000 1.698520 0.000000 
#    z -1.479490 0.000000 2.423510 
# 
# From -- ./inp_files/65381.got.cif
#   From: 2010.05.17/outbox.cif.g08.bks.cpg/sg11_33_cif.got.tgz:65381.got - 2010.06.03 12:22:45.
