data_PCOD9161404
_publ_section_title
;
Structure prediction by ZEFSAII (Michael W. Deem and Ramdas Pophale) SiO2 
 PCOD9161404
Probable space group: P 21/M
;
_chemical_formula_sum "Si O2"
_cell_formula_units_Z 28
_cell_length_a 17.693069
_cell_length_b 13.027215
_cell_length_c 6.586997
_cell_angle_alpha 90.000000
_cell_angle_beta 111.069864
_cell_angle_gamma 90.000000
_cell_volume 1416.740489
_symmetry_space_group_name_H-M "P 21/M"
_symmetry_group_IT_number 11
_symmetry_cell_setting 'monoclinic'
loop_
_space_group_symop_operation_xyz
x,y,z
-x,1/2+y,-z
-x,-y,-z
x,1/2-y,z
loop_
_atom_site_type_symbol
_atom_site_label
_atom_site_fract_x
_atom_site_fract_y
_atom_site_fract_z
Si Si1 0.350253 0.637744 0.700360
Si Si2 0.393966 0.442482 0.467888
Si Si3 0.882478 0.501749 0.007241
Si Si4 0.454208 0.946604 0.143473
Si Si5 0.780419 0.631729 0.588340
Si Si6 0.816846 0.446652 0.343607
Si Si7 0.965697 0.127943 0.744355
O O1 0.370840 0.750000 0.642052
O O2 0.379187 0.550153 0.573108
O O3 0.254567 0.623198 0.638040
O O4 0.390211 0.622148 0.961188
O O5 0.475425 0.397159 0.648862
O O6 0.410864 0.471743 0.250906
O O7 0.313052 0.378932 0.431937
O O8 0.821705 0.451186 0.107288
O O9 0.949837 0.567574 0.192059
O O10 0.835805 0.578555 0.812705
O O11 0.926817 0.415328 0.915971
O O12 0.500000 0.000000 0.000000
O O13 0.801227 0.750000 0.576218
O O14 0.796066 0.560401 0.407675
O O15 0.901961 0.406496 0.511955
O O16 0.976195 0.250000 0.756567
#
# Coordination Sequence:
#
# PCOD9161404 Si02
#       7
#     4   4   4   4   4   4   4
#     4  10  20  33  53  80 107 140 180 218 264 320
#     4   9  19  36  54  76 111 141 172 223 271 312
#     4  10  21  38  56  79 112 143 177 224 269 314
#     4   9  18  35  55  75 105 142 176 217 265 314
#     4  10  21  36  56  81 107 141 183 222 267 320
#     4  10  21  38  56  79 111 143 178 223 268 317
#     4  10  21  36  56  82 110 143 181 219 265 319
#
# _framework density 19.763677999999999
#
# number of rings (size 3 to 8) (size 9 to 14) (size 15 to 20)
#    0.000    2.286    0.000    2.143    0.000    3.429 
#    0.000    5.714    0.000    0.000    0.000    0.000 
#    0.000    0.000    0.000    0.000    0.000    0.000 
#
# Total GULP energy -156207.327459 kJ/mol
# GULP energy per Si atom -5578.833124 kJ/mol
# Density = 1.971869 g / cm^3
# Si number density = 19.763678 Si / 1000 Ang^3
#
#
#
# Elastic Constant Matrix: (Units=GPa)
#
#
# Indices 1 2 3 4 5 6 
#
# 1 42.3597 -12.1155 3.3129 0.0000 -1.5535 0.0000
# 2 -12.1155 75.2698 6.8601 0.0000 -5.4276 0.0000
# 3 3.3129 6.8601 42.2121 0.0000 -11.0389 0.0000
# 4 0.0000 0.0000 0.0000 -7.0014 0.0000 -8.8676
# 5 -1.5535 -5.4276 -11.0389 0.0000 36.2677 0.0000
# 6 0.0000 0.0000 0.0000 -8.8676 0.0000 -2.7438
#
#
#
# Elastic Compliance Matrix: (Units=1/GPa)
#
#
# Indices 1 2 3 4 5 6 
#
# 1 0.025070 0.004326 -0.002413 0.000000 0.000987 0.000000
# 2 0.004326 0.014304 -0.002234 0.000000 0.001646 0.000000
# 3 -0.002413 -0.002234 0.026214 0.000000 0.007541 0.000000
# 4 0.000000 0.000000 0.000000 0.046174 0.000000 -0.149227
# 5 0.000987 0.001646 0.007541 0.000000 0.030157 0.000000
# 6 0.000000 0.000000 0.000000 -0.149227 0.000000 0.117822
#
#
# Mechanical properties :
#
#
# Convention : Reuss Voigt Hill
#
# Bulk Modulus (GPa) = 15.39685 17.32851 16.36268
# Shear Modulus (GPa) = 17.72860 16.09009 16.90934
#
# Velocity S-wave (km/s) = 2.99829 2.85638 2.92820
# Velocity P-wave (km/s) = 4.44902 4.43457 4.44180
#
# Compressibility (1/GPa) = 0.06494834
#
# Stress axis : x y z
#
# Youngs Moduli (GPa) = 39.88896 69.90961 38.14695
#
# Poissons Ratio (x) = -0.30245 0.09203
# Poissons Ratio (y) = -0.17257 0.08521
# Poissons Ratio (z) = 0.09623 0.15616
#
# Static dielectric constant tensor:
#      x y z
#    x 1.705390 0.000000 0.029650 
#    y 0.000000 1.675920 0.000000 
#    z 0.029650 0.000000 1.697150 
# 
# From -- ./inp_files/8838.got.cif
#   From: 2010.05.17/outbox.cif.g08.bks.cpg/sg11_5_cif.got.tgz:8838.got - 2010.06.03 12:22:45.
