data_PCOD9161858
_publ_section_title
;
Structure prediction by ZEFSAII (Michael W. Deem and Ramdas Pophale) SiO2 
 PCOD9161858
Probable space group: P 21/M
;
_chemical_formula_sum "Si O2"
_cell_formula_units_Z 32
_cell_length_a 16.612651
_cell_length_b 8.981656
_cell_length_c 11.422787
_cell_angle_alpha 90.000000
_cell_angle_beta 93.791064
_cell_angle_gamma 90.000000
_cell_volume 1700.654411
_symmetry_space_group_name_H-M "P 21/M"
_symmetry_group_IT_number 11
_symmetry_cell_setting 'monoclinic'
loop_
_space_group_symop_operation_xyz
x,y,z
-x,1/2+y,-z
-x,-y,-z
x,1/2-y,z
loop_
_atom_site_type_symbol
_atom_site_label
_atom_site_fract_x
_atom_site_fract_y
_atom_site_fract_z
Si Si1 0.954476 0.573690 0.824712
Si Si2 0.411980 0.429186 0.998166
Si Si3 0.262536 0.572015 0.582216
Si Si4 0.735761 0.572037 0.169408
Si Si5 0.414044 0.075086 0.474995
Si Si6 0.830182 0.427468 0.661828
Si Si7 0.680556 0.574749 0.774622
Si Si8 0.878102 0.426534 0.047465
O O1 0.939527 0.750000 0.830181
O O2 0.912825 0.505983 0.706656
O O3 0.049900 0.550173 0.851192
O O4 0.911853 0.492405 0.930007
O O5 0.420184 0.250000 0.003336
O O6 0.354321 0.467390 0.883192
O O7 0.500000 0.500000 0.000000
O O8 0.363008 0.474425 0.110642
O O9 0.266791 0.750000 0.592247
O O10 0.243563 0.500777 0.704813
O O11 0.347769 0.506452 0.547750
O O12 0.199859 0.535389 0.471993
O O13 0.741155 0.750000 0.176452
O O14 0.798762 0.510689 0.080875
O O15 0.417079 0.250000 0.504513
O O16 0.382400 0.061416 0.338665
O O17 0.500000 0.000000 0.500000
O O18 0.837073 0.250000 0.672941
O O19 0.759749 0.485514 0.742497
O O20 0.702314 0.750000 0.788631
O O21 0.864193 0.250000 0.034722
#
# Coordination Sequence:
#
# PCOD9161858 Si02
#       8
#     4   4   4   4   4   4   4   4
#     4  10  20  35  59  89 121 151 187 235 283 336
#     4  10  23  39  55  80 109 143 184 227 278 337
#     4  10  22  39  57  80 111 151 195 238 285 344
#     4  11  23  39  59  84 116 152 190 236 290 345
#     4  10  20  34  55  81 108 141 183 234 287 339
#     4  10  20  35  58  86 112 145 190 237 286 336
#     4   9  19  36  55  77 108 143 181 226 283 341
#     4  10  21  37  59  89 119 154 192 229 281 340
#
# _framework density 18.816286999999999
#
# number of rings (size 3 to 8) (size 9 to 14) (size 15 to 20)
#    0.000    2.000    0.000    3.000    1.750    6.000 
#    0.000    0.625    0.000    0.000    0.000    0.000 
#    0.000    0.000    0.000    0.000    0.000    0.000 
#
# Total GULP energy -178755.644129 kJ/mol
# GULP energy per Si atom -5586.113879 kJ/mol
# Density = 1.877346 g / cm^3
# Si number density = 18.816287 Si / 1000 Ang^3
#
#
#
# Elastic Constant Matrix: (Units=GPa)
#
#
# Indices 1 2 3 4 5 6 
#
# 1 72.5525 34.6150 17.3429 0.0000 23.1713 0.0000
# 2 34.6150 64.1141 23.5251 0.0000 16.0957 0.0000
# 3 17.3429 23.5251 50.8739 0.0000 -0.0031 0.0000
# 4 0.0000 0.0000 0.0000 29.6322 0.0000 1.2605
# 5 23.1713 16.0957 -0.0031 0.0000 23.1209 0.0000
# 6 0.0000 0.0000 0.0000 1.2605 0.0000 34.0900
#
#
#
# Elastic Compliance Matrix: (Units=1/GPa)
#
#
# Indices 1 2 3 4 5 6 
#
# 1 0.024503 -0.006100 -0.005534 0.000000 -0.020310 0.000000
# 2 -0.006100 0.025312 -0.009626 0.000000 -0.011509 0.000000
# 3 -0.005534 -0.009626 0.025995 0.000000 0.012250 0.000000
# 4 0.000000 0.000000 0.000000 0.033800 0.000000 -0.001250
# 5 -0.020310 -0.011509 0.012250 0.000000 0.071619 0.000000
# 6 0.000000 0.000000 0.000000 -0.001250 0.000000 0.029380
#
#
# Mechanical properties :
#
#
# Convention : Reuss Voigt Hill
#
# Bulk Modulus (GPa) = 30.03829 37.61181 33.82505
# Shear Modulus (GPa) = 18.92331 24.83913 21.88122
#
# Velocity S-wave (km/s) = 3.17470 3.63724 3.41381
# Velocity P-wave (km/s) = 5.42558 6.13773 5.79261
#
# Compressibility (1/GPa) = 0.03329084
#
# Stress axis : x y z
#
# Youngs Moduli (GPa) = 40.81203 39.50739 38.46916
#
# Poissons Ratio (x) = 0.24098 0.21287
# Poissons Ratio (y) = 0.24894 0.37030
# Poissons Ratio (z) = 0.22584 0.38030
#
# Static dielectric constant tensor:
#      x y z
#    x 1.638760 0.000000 0.022480 
#    y 0.000000 1.622820 0.000000 
#    z 0.022480 0.000000 1.669610 
# 
# From -- ./inp_files/38068.got.cif
#   From: 2010.05.17/outbox.cif.g08.bks.cpg/sg11_20_cif.got.tgz:38068.got - 2010.06.03 12:22:45.
