data_PCOD9161669
_publ_section_title
;
Structure prediction by ZEFSAII (Michael W. Deem and Ramdas Pophale) SiO2 
 PCOD9161669
Probable space group: P 21/M
;
_chemical_formula_sum "Si O2"
_cell_formula_units_Z 32
_cell_length_a 26.798526
_cell_length_b 7.478120
_cell_length_c 10.025595
_cell_angle_alpha 90.000000
_cell_angle_beta 39.546359
_cell_angle_gamma 90.000000
_cell_volume 1279.233854
_symmetry_space_group_name_H-M "P 21/M"
_symmetry_group_IT_number 11
_symmetry_cell_setting 'monoclinic'
loop_
_space_group_symop_operation_xyz
x,y,z
-x,1/2+y,-z
-x,-y,-z
x,1/2-y,z
loop_
_atom_site_type_symbol
_atom_site_label
_atom_site_fract_x
_atom_site_fract_y
_atom_site_fract_z
Si Si1 0.867915 0.534650 0.281667
Si Si2 0.941876 0.533611 0.394464
Si Si3 0.304890 0.031479 0.363124
Si Si4 0.378930 0.045125 0.767296
Si Si5 0.792121 0.040733 0.884941
Si Si6 0.624323 0.956975 0.519199
Si Si7 0.888197 0.039655 0.928829
Si Si8 0.451223 0.467332 0.884614
O O1 0.870508 0.750000 0.275805
O O2 0.928703 0.472083 0.268565
O O3 0.780894 0.477766 0.507106
O O4 0.877399 0.478740 0.109269
O O5 0.945333 0.750000 0.385476
O O6 0.866711 0.483104 0.635874
O O7 0.024720 0.466152 0.279525
O O8 0.306494 0.250000 0.360784
O O9 0.319155 0.967126 0.484926
O O10 0.377973 0.973482 0.124172
O O11 0.405145 0.250000 0.697428
O O12 0.378110 0.959751 0.622543
O O13 0.432921 0.968598 0.771874
O O14 0.288082 0.046514 0.999728
O O15 0.773513 0.250000 0.932549
O O16 0.820689 0.967482 0.970693
O O17 0.647253 0.750000 0.455249
O O18 0.535605 0.966060 0.756272
O O19 0.889734 0.250000 0.894198
O O20 0.452882 0.250000 0.882556
#
# Coordination Sequence:
#
# PCOD9161669 Si02
#       8
#     4   4   4   4   4   4   4   4
#     4  10  20  36  60  84 107 145 191 228 270 328
#     4  10  21  38  59  82 112 149 186 226 275 331
#     4   9  18  33  52  76 105 136 174 217 263 320
#     4  10  21  37  56  77 105 142 179 220 272 325
#     4  11  23  37  56  83 113 146 186 231 276 325
#     4  10  20  34  53  77 105 137 174 217 265 320
#     4  10  22  38  55  82 117 147 181 229 280 327
#     4  10  20  35  55  77 104 138 175 218 266 318
#
# _framework density 25.014970999999999
#
# number of rings (size 3 to 8) (size 9 to 14) (size 15 to 20)
#    0.000    2.000    0.000    3.375    0.000    6.000 
#    0.000    1.250    0.000    0.000    0.000    0.000 
#    0.000    0.000    0.000    0.000    0.000    0.000 
#
# Total GULP energy -179029.359973 kJ/mol
# GULP energy per Si atom -5594.667499 kJ/mol
# Density = 2.495804 g / cm^3
# Si number density = 25.014971 Si / 1000 Ang^3
#
#
#
# Elastic Constant Matrix: (Units=GPa)
#
#
# Indices 1 2 3 4 5 6 
#
# 1 92.9731 8.2724 -18.4450 0.0000 -7.6417 0.0000
# 2 8.2724 80.6562 -7.2226 0.0000 -1.6513 0.0000
# 3 -18.4450 -7.2226 68.9336 0.0000 -4.4923 0.0000
# 4 0.0000 0.0000 0.0000 20.1242 0.0000 2.3088
# 5 -7.6417 -1.6513 -4.4923 0.0000 46.6249 0.0000
# 6 0.0000 0.0000 0.0000 2.3088 0.0000 2.5174
#
#
#
# Elastic Compliance Matrix: (Units=1/GPa)
#
#
# Indices 1 2 3 4 5 6 
#
# 1 0.011640 -0.000866 0.003166 0.000000 0.002182 0.000000
# 2 -0.000866 0.012595 0.001115 0.000000 0.000412 0.000000
# 3 0.003166 0.001115 0.015605 0.000000 0.002062 0.000000
# 4 0.000000 0.000000 0.000000 0.055535 0.000000 -0.050933
# 5 0.002182 0.000412 0.002062 0.000000 0.022019 0.000000
# 6 0.000000 0.000000 0.000000 -0.050933 0.000000 0.443942
#
#
# Mechanical properties :
#
#
# Convention : Reuss Voigt Hill
#
# Bulk Modulus (GPa) = 21.42630 23.08582 22.25606
# Shear Modulus (GPa) = 8.77096 31.18386 19.97741
#
# Velocity S-wave (km/s) = 1.87454 3.53456 2.82905
# Velocity P-wave (km/s) = 3.64269 5.08983 4.42581
#
# Compressibility (1/GPa) = 0.04667162
#
# Stress axis : x y z
#
# Youngs Moduli (GPa) = 85.90825 79.39436 64.08159
#
# Poissons Ratio (x) = 0.06873 -0.20289
# Poissons Ratio (y) = 0.07437 -0.07144
# Poissons Ratio (z) = -0.27200 -0.08852
#
# Static dielectric constant tensor:
#      x y z
#    x 1.972160 0.000000 0.030050 
#    y 0.000000 1.930150 0.000000 
#    z 0.030050 0.000000 1.983620 
# 
# From -- ./inp_files/45024.got.cif
#   From: 2010.05.17/outbox.cif.g08.bks.cpg/sg11_23_cif.got.tgz:45024.got - 2010.06.03 12:22:45.
