data_PCOD9161302
_publ_section_title
;
Structure prediction by ZEFSAII (Michael W. Deem and Ramdas Pophale) SiO2 
 PCOD9161302
Probable space group: P 21/M
;
_chemical_formula_sum "Si O2"
_cell_formula_units_Z 28
_cell_length_a 13.073156
_cell_length_b 13.272840
_cell_length_c 14.057544
_cell_angle_alpha 90.000000
_cell_angle_beta 31.648330
_cell_angle_gamma 90.000000
_cell_volume 1279.877095
_symmetry_space_group_name_H-M "P 21/M"
_symmetry_group_IT_number 11
_symmetry_cell_setting 'monoclinic'
loop_
_space_group_symop_operation_xyz
x,y,z
-x,1/2+y,-z
-x,-y,-z
x,1/2-y,z
loop_
_atom_site_type_symbol
_atom_site_label
_atom_site_fract_x
_atom_site_fract_y
_atom_site_fract_z
Si Si1 0.384632 0.570624 0.228430
Si Si2 0.408787 0.135319 0.115082
Si Si3 0.987556 0.369538 0.354331
Si Si4 0.833461 0.640056 0.220306
Si Si5 0.769587 0.426297 0.348565
Si Si6 0.275543 0.639835 0.829279
Si Si7 0.400099 0.082022 0.763763
O O1 0.422406 0.452151 0.181775
O O2 0.546613 0.613863 0.172786
O O3 0.176103 0.587286 0.443488
O O4 0.419802 0.620699 0.098275
O O5 0.407234 0.250000 0.151365
O O6 0.203753 0.114053 0.223207
O O7 0.955683 0.250000 0.374104
O O8 0.948078 0.412750 0.280066
O O9 0.762087 0.750000 0.306870
O O10 0.745171 0.544706 0.343798
O O11 0.782859 0.624459 0.148586
O O12 0.065375 0.635750 0.046649
O O13 0.771497 0.372151 0.245867
O O14 0.583680 0.387775 0.553635
O O15 0.363732 0.750000 0.777341
O O16 0.386616 0.539273 0.770992
#
# Coordination Sequence:
#
# PCOD9161302 Si02
#       7
#     4   4   4   4   4   4   4
#     4  10  22  39  59  87 116 145 187 240 284 334
#     4  10  22  39  62  85 112 150 187 232 291 341
#     4  10  21  37  61  88 114 148 190 232 280 339
#     4  10  21  34  52  78 111 148 186 224 269 327
#     4  10  20  34  53  80 111 143 183 228 274 321
#     4  10  20  33  51  77 109 147 183 224 271 326
#     4  10  21  34  54  78 106 146 180 229 275 325
#
# _framework density 21.877101
#
# number of rings (size 3 to 8) (size 9 to 14) (size 15 to 20)
#    0.000    2.000    0.000    4.714    4.000    5.714 
#    0.000    2.143    0.000    0.857    0.000    0.000 
#    0.000    0.000    0.000    0.000    0.000    0.000 
#
# Total GULP energy -156388.452467 kJ/mol
# GULP energy per Si atom -5585.301874 kJ/mol
# Density = 2.182731 g / cm^3
# Si number density = 21.877101 Si / 1000 Ang^3
#
#
#
# Elastic Constant Matrix: (Units=GPa)
#
#
# Indices 1 2 3 4 5 6 
#
# 1 50.6866 1.2050 4.7652 0.0000 11.9269 0.0000
# 2 1.2050 88.4391 -1.3286 0.0000 11.0530 0.0000
# 3 4.7652 -1.3286 43.9160 0.0000 4.4918 0.0000
# 4 0.0000 0.0000 0.0000 18.8946 0.0000 -52.3287
# 5 11.9269 11.0530 4.4918 0.0000 17.9596 0.0000
# 6 0.0000 0.0000 0.0000 -52.3287 0.0000 571.3990
#
#
#
# Elastic Compliance Matrix: (Units=1/GPa)
#
#
# Indices 1 2 3 4 5 6 
#
# 1 0.023666 0.001738 -0.000819 0.000000 -0.016581 0.000000
# 2 0.001738 0.012436 0.001117 0.000000 -0.009087 0.000000
# 3 -0.000819 0.001117 0.023509 0.000000 -0.006023 0.000000
# 4 0.000000 0.000000 0.000000 0.070910 0.000000 0.006494
# 5 -0.016581 -0.009087 -0.006023 0.000000 0.073791 0.000000
# 6 0.000000 0.000000 0.000000 0.006494 0.000000 0.002345
#
#
# Mechanical properties :
#
#
# Convention : Reuss Voigt Hill
#
# Bulk Modulus (GPa) = 15.70294 21.36942 18.53618
# Shear Modulus (GPa) = 22.33987 133.54398 77.94192
#
# Velocity S-wave (km/s) = 3.19902 7.82147 5.97533
# Velocity P-wave (km/s) = 4.56490 9.55805 7.48981
#
# Compressibility (1/GPa) = 0.06368233
#
# Stress axis : x y z
#
# Youngs Moduli (GPa) = 42.25385 80.41175 42.53600
#
# Poissons Ratio (x) = -0.13972 0.03486
# Poissons Ratio (y) = -0.07342 -0.04752
# Poissons Ratio (z) = 0.03463 -0.08983
#
# Static dielectric constant tensor:
#      x y z
#    x 1.799660 0.000000 -0.010280 
#    y 0.000000 1.801230 0.000000 
#    z -0.010280 0.000000 1.777210 
# 
# From -- ./inp_files/52428.got.cif
#   From: 2010.05.17/outbox.cif.g08.bks.cpg/sg11_27_cif.got.tgz:52428.got - 2010.06.03 12:22:45.
