data_PCOD9161063
_publ_section_title
;
Structure prediction by ZEFSAII (Michael W. Deem and Ramdas Pophale) SiO2 
 PCOD9161063
Probable space group: P 21/M
;
_chemical_formula_sum "Si O2"
_cell_formula_units_Z 32
_cell_length_a 22.939858
_cell_length_b 9.234500
_cell_length_c 26.294717
_cell_angle_alpha 90.000000
_cell_angle_beta 164.441682
_cell_angle_gamma 90.000000
_cell_volume 1494.040080
_symmetry_space_group_name_H-M "P 21/M"
_symmetry_group_IT_number 11
_symmetry_cell_setting 'monoclinic'
loop_
_space_group_symop_operation_xyz
x,y,z
-x,1/2+y,-z
-x,-y,-z
x,1/2-y,z
loop_
_atom_site_type_symbol
_atom_site_label
_atom_site_fract_x
_atom_site_fract_y
_atom_site_fract_z
Si Si1 0.167364 0.417912 0.851571
Si Si2 0.615114 0.415557 0.295414
Si Si3 0.410365 0.585168 0.973163
Si Si4 0.157599 0.411733 0.595775
Si Si5 0.342381 0.088108 0.403544
Si Si6 0.319766 0.424745 0.135647
Si Si7 0.092531 0.584820 0.029413
Si Si8 0.946939 0.574185 0.753325
O O1 0.105919 0.250000 0.793904
O O2 0.989928 0.507817 0.734233
O O3 0.391418 0.419227 0.073678
O O4 0.228259 0.494872 0.850079
O O5 0.691372 0.250000 0.358981
O O6 0.787556 0.514467 0.411727
O O7 0.540181 0.454861 0.289468
O O8 0.344861 0.750000 0.905955
O O9 0.613499 0.594669 0.182368
O O10 0.500000 0.500000 0.000000
O O11 0.073339 0.250000 0.518367
O O12 0.000000 0.500000 0.500000
O O13 0.430094 0.250000 0.481742
O O14 0.113733 0.093614 0.181660
O O15 0.275051 0.035886 0.403262
O O16 0.500000 0.000000 0.500000
O O17 0.291995 0.250000 0.114229
O O18 0.278239 0.496517 0.155447
O O19 0.135272 0.498572 0.945295
O O20 0.158029 0.750000 0.096181
O O21 0.000000 0.500000 0.000000
O O22 0.968127 0.750000 0.771309
#
# Coordination Sequence:
#
# PCOD9161063 Si02
#       8
#     4   4   4   4   4   4   4   4
#     4   9  16  27  45  69  94 123 158 197 239 282
#     4   8  15  27  44  67  94 121 154 195 236 277
#     4  10  20  33  50  73  99 129 161 197 240 287
#     4  10  20  32  49  72  98 128 161 195 237 284
#     4   9  19  32  48  71  98 127 160 196 237 283
#     4   9  16  27  45  69  94 123 157 196 240 283
#     4  10  20  33  49  72  99 128 161 198 239 287
#     4   9  16  27  43  67  96 123 156 200 240 279
#
# _framework density 21.418433
#
# number of rings (size 3 to 8) (size 9 to 14) (size 15 to 20)
#    0.000    2.750    0.000    3.750    0.000    8.000 
#    0.000    0.000    0.000    1.500    0.000    8.750 
#    0.000    0.000    0.000    0.000    0.000    0.000 
#
# Total GULP energy -178521.160261 kJ/mol
# GULP energy per Si atom -5578.786258 kJ/mol
# Density = 2.136968 g / cm^3
# Si number density = 21.418433 Si / 1000 Ang^3
#
#
#
# Elastic Constant Matrix: (Units=GPa)
#
#
# Indices 1 2 3 4 5 6 
#
# 1 192.6533 113.8586 40.1559 0.0000 70.1111 0.0000
# 2 113.8586 174.8119 42.0622 0.0000 60.7114 0.0000
# 3 40.1559 42.0622 60.0754 0.0000 12.1949 0.0000
# 4 0.0000 0.0000 0.0000 18.2325 0.0000 17.2766
# 5 70.1111 60.7114 12.1949 0.0000 57.9055 0.0000
# 6 0.0000 0.0000 0.0000 17.2766 0.0000 39.6095
#
#
#
# Elastic Compliance Matrix: (Units=1/GPa)
#
#
# Indices 1 2 3 4 5 6 
#
# 1 0.011269 -0.003211 -0.003341 0.000000 -0.009574 0.000000
# 2 -0.003211 0.011304 -0.004337 0.000000 -0.007051 0.000000
# 3 -0.003341 -0.004337 0.021072 0.000000 0.004155 0.000000
# 4 0.000000 0.000000 0.000000 0.093485 0.000000 -0.040776
# 5 -0.009574 -0.007051 0.004155 0.000000 0.035380 0.000000
# 6 0.000000 0.000000 0.000000 -0.040776 0.000000 0.043032
#
#
# Mechanical properties :
#
#
# Convention : Reuss Voigt Hill
#
# Bulk Modulus (GPa) = 45.72980 91.07712 68.40346
# Shear Modulus (GPa) = 20.44083 38.58041 29.51062
#
# Velocity S-wave (km/s) = 3.09262 4.24874 3.71592
# Velocity P-wave (km/s) = 5.84375 8.16604 7.10048
#
# Compressibility (1/GPa) = 0.02186758
#
# Stress axis : x y z
#
# Youngs Moduli (GPa) = 88.73994 88.46501 47.45580
#
# Poissons Ratio (x) = 0.28403 0.15855
# Poissons Ratio (y) = 0.28491 0.20582
# Poissons Ratio (z) = 0.29647 0.38369
#
# Static dielectric constant tensor:
#      x y z
#    x 1.832260 0.000000 -0.048950 
#    y 0.000000 1.743750 0.000000 
#    z -0.048950 0.000000 1.831630 
# 
# From -- ./inp_files/42515.got.cif
#   From: 2010.05.17/outbox.cif.g08.bks.cpg/sg11_22_cif.got.tgz:42515.got - 2010.06.03 12:22:45.
