data_PCOD9161142
_publ_section_title
;
Structure prediction by ZEFSAII (Michael W. Deem and Ramdas Pophale) SiO2 
 PCOD9161142
Probable space group: P 21/M
;
_chemical_formula_sum "Si O2"
_cell_formula_units_Z 28
_cell_length_a 21.960972
_cell_length_b 7.704564
_cell_length_c 11.579998
_cell_angle_alpha 90.000000
_cell_angle_beta 51.163502
_cell_angle_gamma 90.000000
_cell_volume 1526.199705
_symmetry_space_group_name_H-M "P 21/M"
_symmetry_group_IT_number 11
_symmetry_cell_setting 'monoclinic'
loop_
_space_group_symop_operation_xyz
x,y,z
-x,1/2+y,-z
-x,-y,-z
x,1/2-y,z
loop_
_atom_site_type_symbol
_atom_site_label
_atom_site_fract_x
_atom_site_fract_y
_atom_site_fract_z
Si Si1 0.233008 0.459004 0.260924
Si Si2 0.074461 0.042806 0.333025
Si Si3 0.269217 0.959542 0.483899
Si Si4 0.562834 0.452207 0.756023
Si Si5 0.402682 0.037996 0.019195
Si Si6 0.029752 0.545763 0.128736
Si Si7 0.873756 0.452290 0.201011
O O1 0.230747 0.250000 0.258901
O O2 0.153907 0.525953 0.297167
O O3 0.241317 0.505007 0.386050
O O4 0.313378 0.513600 0.101529
O O5 0.080685 0.250000 0.318849
O O6 0.060361 0.976973 0.220792
O O7 0.000000 0.000000 0.500000
O O8 0.272615 0.750000 0.490087
O O9 0.358075 0.027813 0.393365
O O10 0.204505 0.028103 0.649848
O O11 0.559368 0.250000 0.727089
O O12 0.580289 0.467253 0.872555
O O13 0.474179 0.521899 0.852710
O O14 0.405990 0.250000 0.021032
O O15 0.019208 0.750000 0.117872
O O16 0.944784 0.463913 0.208128
O O17 0.089849 0.474345 0.960700
O O18 0.857102 0.250000 0.198174
#
# Coordination Sequence:
#
# PCOD9161142 Si02
#       7
#     4   4   4   4   4   4   4
#     4   9  18  29  41  60  86 115 143 171 206 250
#     4  11  22  34  47  64  87 114 145 179 214 253
#     4   9  16  26  42  65  89 111 137 170 209 251
#     4   8  13  21  36  58  82 107 134 165 202 245
#     4   8  13  23  37  54  80 110 137 165 200 244
#     4  10  20  33  48  65  85 112 146 179 214 254
#     4   9  18  32  48  65  87 113 141 177 216 254
#
# _framework density 18.346223999999999
#
# number of rings (size 3 to 8) (size 9 to 14) (size 15 to 20)
#    0.000    2.857    0.000    1.714    0.000    4.571 
#    0.000    0.000    0.000    0.000    0.000    1.000 
#    0.000    0.000    0.000    0.000    0.000    0.000 
#
# Total GULP energy -155895.533598 kJ/mol
# GULP energy per Si atom -5567.697628 kJ/mol
# Density = 1.830447 g / cm^3
# Si number density = 18.346224 Si / 1000 Ang^3
#
#
#
# Elastic Constant Matrix: (Units=GPa)
#
#
# Indices 1 2 3 4 5 6 
#
# 1 75.2930 -1.8937 58.9618 0.0000 -25.0661 0.0000
# 2 -1.8937 33.5035 2.9352 0.0000 -0.5024 0.0000
# 3 58.9618 2.9352 146.9886 0.0000 -44.4674 0.0000
# 4 0.0000 0.0000 0.0000 13.0002 0.0000 -0.3033
# 5 -25.0661 -0.5024 -44.4674 0.0000 35.5758 0.0000
# 6 0.0000 0.0000 0.0000 -0.3033 0.0000 11.2675
#
#
#
# Elastic Compliance Matrix: (Units=1/GPa)
#
#
# Indices 1 2 3 4 5 6 
#
# 1 0.020400 0.001797 -0.006212 0.000000 0.006634 0.000000
# 2 0.001797 0.030064 -0.001302 0.000000 0.000063 0.000000
# 3 -0.006212 -0.001302 0.012851 0.000000 0.011667 0.000000
# 4 0.000000 0.000000 0.000000 0.076970 0.000000 0.002072
# 5 0.006634 0.000063 0.011667 0.000000 0.047368 0.000000
# 6 0.000000 0.000000 0.000000 0.002072 0.000000 0.088807
#
#
# Mechanical properties :
#
#
# Convention : Reuss Voigt Hill
#
# Bulk Modulus (GPa) = 19.27512 41.75465 30.51488
# Shear Modulus (GPa) = 16.38341 25.02082 20.70211
#
# Velocity S-wave (km/s) = 2.99157 3.69699 3.36283
# Velocity P-wave (km/s) = 4.73939 6.40565 5.63445
#
# Compressibility (1/GPa) = 0.05188036
#
# Stress axis : x y z
#
# Youngs Moduli (GPa) = 49.02010 33.26221 77.81700
#
# Poissons Ratio (x) = -0.05976 0.48339
# Poissons Ratio (y) = -0.08808 0.10132
# Poissons Ratio (z) = 0.30451 0.04331
#
# Static dielectric constant tensor:
#      x y z
#    x 1.621180 0.000000 -0.066970 
#    y 0.000000 1.700070 0.000000 
#    z -0.066970 0.000000 1.677240 
# 
# From -- ./inp_files/42303.got.cif
#   From: 2010.05.17/outbox.cif.g08.bks.cpg/sg11_22_cif.got.tgz:42303.got - 2010.06.03 12:22:45.
