data_PCOD9161324
_publ_section_title
;
Structure prediction by ZEFSAII (Michael W. Deem and Ramdas Pophale) SiO2 
 PCOD9161324
Probable space group: P 21/M
;
_chemical_formula_sum "Si O2"
_cell_formula_units_Z 24
_cell_length_a 11.329934
_cell_length_b 8.989552
_cell_length_c 20.196907
_cell_angle_alpha 90.000000
_cell_angle_beta 135.803914
_cell_angle_gamma 90.000000
_cell_volume 1434.020714
_symmetry_space_group_name_H-M "P 21/M"
_symmetry_group_IT_number 11
_symmetry_cell_setting 'monoclinic'
loop_
_space_group_symop_operation_xyz
x,y,z
-x,1/2+y,-z
-x,-y,-z
x,1/2-y,z
loop_
_atom_site_type_symbol
_atom_site_label
_atom_site_fract_x
_atom_site_fract_y
_atom_site_fract_z
Si Si1 0.417759 0.927812 0.184120
Si Si2 0.754678 0.073973 0.361503
Si Si3 0.870636 0.573535 0.541663
Si Si4 0.682331 0.428392 0.586640
Si Si5 0.176277 0.571982 0.212010
Si Si6 0.900800 0.072138 0.021863
O O1 0.447355 0.750000 0.197005
O O2 0.310343 0.965214 0.207558
O O3 0.593149 0.013791 0.257415
O O4 0.295227 0.962520 0.072661
O O5 0.740095 0.250000 0.367843
O O6 0.931191 0.047777 0.394176
O O7 0.770038 0.988701 0.437536
O O8 0.841294 0.750000 0.535896
O O9 0.808320 0.490274 0.581678
O O10 0.500000 0.500000 0.500000
O O11 0.670229 0.250000 0.577711
O O12 0.748455 0.467553 0.686549
O O13 0.151260 0.750000 0.198960
O O14 0.998506 0.492974 0.124089
O O15 0.918743 0.250000 0.026965
O O16 0.000000 0.000000 0.000000
#
# Coordination Sequence:
#
# PCOD9161324 Si02
#       6
#     4   4   4   4   4   4
#     4   9  17  30  49  74 102 128 158 201 249 292
#     4  10  20  33  52  75  97 128 168 207 248 292
#     4  10  21  36  51  71 101 132 165 206 247 291
#     4  11  22  35  53  76 102 133 166 200 243 294
#     4   9  19  33  48  71 102 131 160 199 245 290
#     4   9  17  29  47  71  98 129 162 198 243 290
#
# _framework density 16.736160000000002
#
# number of rings (size 3 to 8) (size 9 to 14) (size 15 to 20)
#    0.000    2.333    0.000    4.000    0.000    8.000 
#    0.000    0.000    0.000    1.000    0.000    0.000 
#    0.000    0.000    0.000    0.000    0.000    0.000 
#
# Total GULP energy -133859.483927 kJ/mol
# GULP energy per Si atom -5577.478497 kJ/mol
# Density = 1.669807 g / cm^3
# Si number density = 16.736160 Si / 1000 Ang^3
#
#
#
# Elastic Constant Matrix: (Units=GPa)
#
#
# Indices 1 2 3 4 5 6 
#
# 1 41.1168 29.8136 42.1672 0.0000 -6.0995 0.0000
# 2 29.8136 52.0815 65.3594 0.0000 2.4470 0.0000
# 3 42.1672 65.3594 164.9505 0.0000 7.2888 0.0000
# 4 0.0000 0.0000 0.0000 34.9225 0.0000 2.3077
# 5 -6.0995 2.4470 7.2888 0.0000 23.4365 0.0000
# 6 0.0000 0.0000 0.0000 2.3077 0.0000 26.1010
#
#
#
# Elastic Compliance Matrix: (Units=1/GPa)
#
#
# Indices 1 2 3 4 5 6 
#
# 1 0.047206 -0.023361 -0.003510 0.000000 0.015816 0.000000
# 2 -0.023361 0.049765 -0.013433 0.000000 -0.007098 0.000000
# 3 -0.003510 -0.013433 0.012432 0.000000 -0.003377 0.000000
# 4 0.000000 0.000000 0.000000 0.028803 0.000000 -0.002547
# 5 0.015816 -0.007098 -0.003377 0.000000 0.048576 0.000000
# 6 0.000000 0.000000 0.000000 -0.002547 0.000000 0.038538
#
#
# Mechanical properties :
#
#
# Convention : Reuss Voigt Hill
#
# Bulk Modulus (GPa) = 34.72916 59.20324 46.96620
# Shear Modulus (GPa) = 15.84664 24.94593 20.39628
#
# Velocity S-wave (km/s) = 3.08043 3.86494 3.49477
# Velocity P-wave (km/s) = 5.78343 7.44099 6.66395
#
# Compressibility (1/GPa) = 0.02879425
#
# Stress axis : x y z
#
# Youngs Moduli (GPa) = 21.18392 20.09464 80.44036
#
# Poissons Ratio (x) = 0.46943 0.28234
# Poissons Ratio (y) = 0.49487 1.08056
# Poissons Ratio (z) = 0.07435 0.26993
#
# Static dielectric constant tensor:
#      x y z
#    x 1.546200 0.000000 0.004800 
#    y 0.000000 1.557280 0.000000 
#    z 0.004800 0.000000 1.583450 
# 
# From -- ./inp_files/36965.got.cif
#   From: 2010.05.17/outbox.cif.g08.bks.cpg/sg11_19_cif.got.tgz:36965.got - 2010.06.03 12:22:45.
