data_PCOD9161325
_publ_section_title
;
Structure prediction by ZEFSAII (Michael W. Deem and Ramdas Pophale) SiO2 
 PCOD9161325
Probable space group: P 21/M
;
_chemical_formula_sum "Si O2"
_cell_formula_units_Z 32
_cell_length_a 16.114792
_cell_length_b 9.277999
_cell_length_c 11.670845
_cell_angle_alpha 90.000000
_cell_angle_beta 89.672033
_cell_angle_gamma 90.000000
_cell_volume 1744.914743
_symmetry_space_group_name_H-M "P 21/M"
_symmetry_group_IT_number 11
_symmetry_cell_setting 'monoclinic'
loop_
_space_group_symop_operation_xyz
x,y,z
-x,1/2+y,-z
-x,-y,-z
x,1/2-y,z
loop_
_atom_site_type_symbol
_atom_site_label
_atom_site_fract_x
_atom_site_fract_y
_atom_site_fract_z
Si Si1 0.289405 0.076869 0.684109
Si Si2 0.653861 0.420475 0.727678
Si Si3 0.431469 0.417020 0.073749
Si Si4 0.412818 0.578077 0.521291
Si Si5 0.174705 0.922085 0.144594
Si Si6 0.255569 0.417054 0.943303
Si Si7 0.119492 0.421310 0.554194
Si Si8 0.051422 0.577011 0.333562
O O1 0.305773 0.250000 0.684427
O O2 0.268170 0.031748 0.813681
O O3 0.208393 0.048986 0.607689
O O4 0.365774 0.992350 0.628637
O O5 0.640102 0.250000 0.747607
O O6 0.588535 0.508605 0.804812
O O7 0.641275 0.447904 0.593695
O O8 0.745945 0.454733 0.773658
O O9 0.454392 0.250000 0.088370
O O10 0.500000 0.500000 0.000000
O O11 0.345068 0.424040 0.004387
O O12 0.500000 0.500000 0.500000
O O13 0.423071 0.750000 0.534928
O O14 0.172595 0.750000 0.128874
O O15 0.092839 0.969100 0.214009
O O16 0.192627 0.996482 0.023838
O O17 0.229583 0.250000 0.938812
O O18 0.114093 0.250000 0.531057
O O19 0.100946 0.506722 0.438503
O O20 0.044996 0.457263 0.643469
O O21 0.060719 0.750000 0.340222
#
# Coordination Sequence:
#
# PCOD9161325 Si02
#       8
#     4   4   4   4   4   4   4   4
#     4  10  21  38  56  75 107 145 179 215 264 321
#     4   9  19  35  52  72 100 132 168 211 259 310
#     4  10  20  33  52  75  98 128 170 218 265 310
#     4  11  24  39  56  79 106 138 176 219 268 321
#     4   9  17  32  54  77 102 135 174 217 262 308
#     4   9  20  36  52  72 101 139 176 215 263 313
#     4   9  18  32  53  81 109 143 179 215 262 318
#     4   9  17  31  53  81 112 139 174 222 268 311
#
# _framework density 18.339005
#
# number of rings (size 3 to 8) (size 9 to 14) (size 15 to 20)
#    0.000    2.500    0.000    1.500    1.750    4.000 
#    0.000    3.125    0.000    0.000    0.000    0.000 
#    0.000    0.000    0.000    0.000    0.000    0.000 
#
# Total GULP energy -178547.877122 kJ/mol
# GULP energy per Si atom -5579.621160 kJ/mol
# Density = 1.829726 g / cm^3
# Si number density = 18.339005 Si / 1000 Ang^3
#
#
#
# Elastic Constant Matrix: (Units=GPa)
#
#
# Indices 1 2 3 4 5 6 
#
# 1 65.5248 35.7659 43.0780 0.0000 -32.9841 0.0000
# 2 35.7659 34.4217 36.4259 0.0000 -18.4229 0.0000
# 3 43.0780 36.4259 96.5674 0.0000 -35.6174 0.0000
# 4 0.0000 0.0000 0.0000 33.3321 0.0000 -6.7342
# 5 -32.9841 -18.4229 -35.6174 0.0000 36.8833 0.0000
# 6 0.0000 0.0000 0.0000 -6.7342 0.0000 20.6573
#
#
#
# Elastic Compliance Matrix: (Units=1/GPa)
#
#
# Indices 1 2 3 4 5 6 
#
# 1 0.047432 -0.038474 0.002968 0.000000 0.026066 0.000000
# 2 -0.038474 0.082140 -0.017673 0.000000 -0.010445 0.000000
# 3 0.002968 -0.017673 0.020846 0.000000 0.013957 0.000000
# 4 0.000000 0.000000 0.000000 0.032116 0.000000 0.010470
# 5 0.026066 -0.010445 0.013957 0.000000 0.058683 0.000000
# 6 0.000000 0.000000 0.000000 0.010470 0.000000 0.051822
#
#
# Mechanical properties :
#
#
# Convention : Reuss Voigt Hill
#
# Bulk Modulus (GPa) = 22.69715 47.45039 35.07377
# Shear Modulus (GPa) = 12.07480 23.59081 17.83281
#
# Velocity S-wave (km/s) = 2.56876 3.59050 3.12171
# Velocity P-wave (km/s) = 4.60449 6.56651 5.67100
#
# Compressibility (1/GPa) = 0.04405840
#
# Stress axis : x y z
#
# Youngs Moduli (GPa) = 21.08264 12.17437 47.97131
#
# Poissons Ratio (x) = 0.46840 -0.14236
# Poissons Ratio (y) = 0.81113 0.84781
# Poissons Ratio (z) = -0.06256 0.21516
#
# Static dielectric constant tensor:
#      x y z
#    x 1.629360 0.000000 -0.002660 
#    y 0.000000 1.615060 0.000000 
#    z -0.002660 0.000000 1.621400 
# 
# From -- ./inp_files/38161.got.cif
#   From: 2010.05.17/outbox.cif.g08.bks.cpg/sg11_20_cif.got.tgz:38161.got - 2010.06.03 12:22:45.
