data_PCOD9161358
_publ_section_title
;
Structure prediction by ZEFSAII (Michael W. Deem and Ramdas Pophale) SiO2 
 PCOD9161358
Probable space group: P 21/M
;
_chemical_formula_sum "Si O2"
_cell_formula_units_Z 28
_cell_length_a 15.988734
_cell_length_b 7.739841
_cell_length_c 21.642628
_cell_angle_alpha 90.000000
_cell_angle_beta 151.617360
_cell_angle_gamma 90.000000
_cell_volume 1273.141312
_symmetry_space_group_name_H-M "P 21/M"
_symmetry_group_IT_number 11
_symmetry_cell_setting 'monoclinic'
loop_
_space_group_symop_operation_xyz
x,y,z
-x,1/2+y,-z
-x,-y,-z
x,1/2-y,z
loop_
_atom_site_type_symbol
_atom_site_label
_atom_site_fract_x
_atom_site_fract_y
_atom_site_fract_z
Si Si1 0.324347 0.953141 0.555446
Si Si2 0.812511 0.457901 0.407043
Si Si3 0.132098 0.948277 0.316507
Si Si4 0.421586 0.540261 0.856668
Si Si5 0.969225 0.040978 0.882928
Si Si6 0.279311 0.954667 0.166469
Si Si7 0.219696 0.548058 0.848207
O O1 0.279582 0.750000 0.521944
O O2 0.214365 0.027419 0.541408
O O3 0.273756 0.028215 0.455698
O O4 0.527790 0.967669 0.705094
O O5 0.797319 0.250000 0.399933
O O6 0.660857 0.518111 0.261397
O O7 0.000000 0.500000 0.500000
O O8 0.185208 0.750000 0.338263
O O9 0.092179 0.026531 0.223494
O O10 0.949458 0.952570 0.235638
O O11 0.429315 0.750000 0.862838
O O12 0.292091 0.486713 0.828745
O O13 0.614760 0.473562 0.998316
O O14 0.966816 0.250000 0.880529
O O15 0.838370 0.980669 0.852246
O O16 0.165497 0.990968 0.031356
O O17 0.298787 0.750000 0.185559
O O18 0.174958 0.750000 0.813930
#
# Coordination Sequence:
#
# PCOD9161358 Si02
#       7
#     4   4   4   4   4   4   4
#     4  10  22  38  57  84 116 151 189 228 278 339
#     4  10  21  36  55  78 108 147 188 228 275 328
#     4  10  21  37  57  80 111 151 187 225 278 339
#     4   9  19  35  52  73 105 148 186 225 280 334
#     4   9  20  39  61  83 112 150 186 228 283 340
#     4  10  21  38  60  87 114 143 186 235 282 334
#     4  10  20  33  52  79 109 139 185 238 279 323
#
# _framework density 21.992843000000001
#
# number of rings (size 3 to 8) (size 9 to 14) (size 15 to 20)
#    0.000    2.286    0.000    1.714    2.000    4.000 
#    0.000    0.000    0.000    0.000    0.000    0.000 
#    0.000    0.000    0.000    0.000    0.000    0.000 
#
# Total GULP energy -156407.575543 kJ/mol
# GULP energy per Si atom -5585.984841 kJ/mol
# Density = 2.194279 g / cm^3
# Si number density = 21.992843 Si / 1000 Ang^3
#
#
#
# Elastic Constant Matrix: (Units=GPa)
#
#
# Indices 1 2 3 4 5 6 
#
# 1 72.4883 0.8558 59.9015 0.0000 -26.6410 0.0000
# 2 0.8558 35.3014 -6.4381 0.0000 -8.7181 0.0000
# 3 59.9015 -6.4381 113.5433 0.0000 -32.6369 0.0000
# 4 0.0000 0.0000 0.0000 7.6949 0.0000 3.4611
# 5 -26.6410 -8.7181 -32.6369 0.0000 43.4064 0.0000
# 6 0.0000 0.0000 0.0000 3.4611 0.0000 16.5749
#
#
#
# Elastic Compliance Matrix: (Units=1/GPa)
#
#
# Indices 1 2 3 4 5 6 
#
# 1 0.026163 -0.001096 -0.011880 0.000000 0.006905 0.000000
# 2 -0.001096 0.031638 0.005109 0.000000 0.009524 0.000000
# 3 -0.011880 0.005109 0.017303 0.000000 0.006745 0.000000
# 4 0.000000 0.000000 0.000000 0.143428 0.000000 -0.029950
# 5 0.006905 0.009524 0.006745 0.000000 0.034260 0.000000
# 6 0.000000 0.000000 0.000000 -0.029950 0.000000 0.066586
#
#
# Mechanical properties :
#
#
# Convention : Reuss Voigt Hill
#
# Bulk Modulus (GPa) = 16.84300 36.66350 26.75325
# Shear Modulus (GPa) = 14.08836 24.66949 19.37893
#
# Velocity S-wave (km/s) = 2.53373 3.35282 2.97163
# Velocity P-wave (km/s) = 4.02924 5.62986 4.89541
#
# Compressibility (1/GPa) = 0.05937185
#
# Stress axis : x y z
#
# Youngs Moduli (GPa) = 38.22130 31.60771 57.79275
#
# Poissons Ratio (x) = 0.03463 0.68659
# Poissons Ratio (y) = 0.04187 -0.29529
# Poissons Ratio (z) = 0.45407 -0.16150
#
# Static dielectric constant tensor:
#      x y z
#    x 1.815010 0.000000 -0.042720 
#    y 0.000000 1.808120 0.000000 
#    z -0.042720 0.000000 1.793960 
# 
# From -- ./inp_files/54477.got.cif
#   From: 2010.05.17/outbox.cif.g08.bks.cpg/sg11_28_cif.got.tgz:54477.got - 2010.06.03 12:22:45.
