data_PCOD9161706
_publ_section_title
;
Structure prediction by ZEFSAII (Michael W. Deem and Ramdas Pophale) SiO2 
 PCOD9161706
Probable space group: P 21/M
;
_chemical_formula_sum "Si O2"
_cell_formula_units_Z 32
_cell_length_a 10.390967
_cell_length_b 9.819862
_cell_length_c 23.195351
_cell_angle_alpha 90.000000
_cell_angle_beta 141.013349
_cell_angle_gamma 90.000000
_cell_volume 1489.049454
_symmetry_space_group_name_H-M "P 21/M"
_symmetry_group_IT_number 11
_symmetry_cell_setting 'monoclinic'
loop_
_space_group_symop_operation_xyz
x,y,z
-x,1/2+y,-z
-x,-y,-z
x,1/2-y,z
loop_
_atom_site_type_symbol
_atom_site_label
_atom_site_fract_x
_atom_site_fract_y
_atom_site_fract_z
Si Si1 0.567851 0.899119 0.453267
Si Si2 0.120366 0.587419 0.903689
Si Si3 0.072555 0.601053 0.454285
Si Si4 0.578508 0.414350 0.884066
Si Si5 0.743077 0.603849 0.639877
Si Si6 0.759608 0.104257 0.360434
Si Si7 0.296126 0.410781 0.181991
Si Si8 0.783710 0.089156 0.191293
O O1 0.586225 0.750000 0.432712
O O2 0.606231 0.882432 0.534982
O O3 0.748617 0.999548 0.499972
O O4 0.355886 0.973248 0.365111
O O5 0.108199 0.750000 0.891667
O O6 0.201284 0.538046 0.870071
O O7 0.892709 0.544949 0.843825
O O8 0.273901 0.561938 0.009562
O O9 0.089820 0.750000 0.433140
O O10 0.112151 0.617423 0.536283
O O11 0.859231 0.527776 0.366936
O O12 0.555023 0.250000 0.867880
O O13 0.679236 0.490235 0.864313
O O14 0.370368 0.494735 0.827234
O O15 0.727209 0.750000 0.666432
O O16 0.979300 0.584569 0.706283
O O17 0.783837 0.250000 0.336786
O O18 0.520452 0.086348 0.289238
O O19 0.261540 0.250000 0.153489
O O20 0.720817 0.250000 0.171234
#
# Coordination Sequence:
#
# PCOD9161706 Si02
#       8
#     4   4   4   4   4   4   4   4
#     4  10  20  34  53  79 114 150 187 234 286 341
#     4   9  20  39  64  90 117 153 198 249 300 355
#     4  10  20  34  55  80 111 150 189 234 288 342
#     4  11  23  39  59  90 126 155 191 244 305 359
#     4   9  20  36  55  80 108 146 197 240 282 339
#     4   9  20  36  55  80 109 146 196 242 284 339
#     4  10  21  39  64  89 115 155 204 246 291 354
#     4  10  21  39  65  90 116 157 204 245 291 355
#
# _framework density 21.490220999999998
#
# number of rings (size 3 to 8) (size 9 to 14) (size 15 to 20)
#    0.000    2.250    0.000    1.875    3.500    2.000 
#    0.000    1.875    0.000    0.000    0.000    0.000 
#    0.000    0.000    0.000    0.000    0.000    0.000 
#
# Total GULP energy -178472.315284 kJ/mol
# GULP energy per Si atom -5577.259853 kJ/mol
# Density = 2.144131 g / cm^3
# Si number density = 21.490221 Si / 1000 Ang^3
#
#
#
# Elastic Constant Matrix: (Units=GPa)
#
#
# Indices 1 2 3 4 5 6 
#
# 1 63.6841 31.5609 10.0017 0.0000 1.2718 0.0000
# 2 31.5609 143.5681 30.9857 0.0000 22.1728 0.0000
# 3 10.0017 30.9857 80.6191 0.0000 3.8937 0.0000
# 4 0.0000 0.0000 0.0000 23.9908 0.0000 5.9501
# 5 1.2718 22.1728 3.8937 0.0000 34.3548 0.0000
# 6 0.0000 0.0000 0.0000 5.9501 0.0000 29.6625
#
#
#
# Elastic Compliance Matrix: (Units=1/GPa)
#
#
# Indices 1 2 3 4 5 6 
#
# 1 0.017794 -0.004068 -0.000743 0.000000 0.002051 0.000000
# 2 -0.004068 0.009323 -0.002811 0.000000 -0.005548 0.000000
# 3 -0.000743 -0.002811 0.013562 0.000000 0.000304 0.000000
# 4 0.000000 0.000000 0.000000 0.043865 0.000000 -0.008799
# 5 0.002051 -0.005548 0.000304 0.000000 0.032578 0.000000
# 6 0.000000 0.000000 0.000000 -0.008799 0.000000 0.035478
#
#
# Mechanical properties :
#
#
# Convention : Reuss Voigt Hill
#
# Bulk Modulus (GPa) = 39.31517 48.10752 43.71135
# Shear Modulus (GPa) = 28.35717 31.95650 30.15683
#
# Velocity S-wave (km/s) = 3.63649 3.86038 3.75010
# Velocity P-wave (km/s) = 5.99718 6.50418 6.25582
#
# Compressibility (1/GPa) = 0.02543547
#
# Stress axis : x y z
#
# Youngs Moduli (GPa) = 56.19750 107.26040 73.73675
#
# Poissons Ratio (x) = 0.43635 0.05479
# Poissons Ratio (y) = 0.22862 0.20725
# Poissons Ratio (z) = 0.04176 0.30147
#
# Static dielectric constant tensor:
#      x y z
#    x 1.838850 0.000000 -0.037630 
#    y 0.000000 1.811020 0.000000 
#    z -0.037630 0.000000 1.780380 
# 
# From -- ./inp_files/73154.got.cif
#   From: 2010.05.17/outbox.cif.g08.bks.cpg/sg11_37_cif.got.tgz:73154.got - 2010.06.03 12:22:45.
