data_PCOD9161728
_publ_section_title
;
Structure prediction by ZEFSAII (Michael W. Deem and Ramdas Pophale) SiO2 
 PCOD9161728
Probable space group: P 21/M
;
_chemical_formula_sum "Si O2"
_cell_formula_units_Z 30
_cell_length_a 15.112817
_cell_length_b 8.283112
_cell_length_c 9.823587
_cell_angle_alpha 90.000000
_cell_angle_beta 108.429493
_cell_angle_gamma 90.000000
_cell_volume 1166.659415
_symmetry_space_group_name_H-M "P 21/M"
_symmetry_group_IT_number 11
_symmetry_cell_setting 'monoclinic'
loop_
_space_group_symop_operation_xyz
x,y,z
-x,1/2+y,-z
-x,-y,-z
x,1/2-y,z
loop_
_atom_site_type_symbol
_atom_site_label
_atom_site_fract_x
_atom_site_fract_y
_atom_site_fract_z
Si Si1 0.398122 0.573805 0.028191
Si Si2 0.645025 0.568835 0.581685
Si Si3 0.242617 0.068397 0.772981
Si Si4 0.303939 0.750000 0.232889
Si Si5 0.466132 0.928541 0.697405
Si Si6 0.900071 0.062046 0.509037
Si Si7 0.124912 0.568366 0.938825
Si Si8 0.903346 0.932983 0.800392
O O1 0.434451 0.750000 0.009862
O O2 0.327361 0.887244 0.120857
O O3 0.480915 0.022651 0.139529
O O4 0.339240 0.000979 0.877314
O O5 0.688504 0.750000 0.618257
O O6 0.692584 0.399596 0.651295
O O7 0.608971 0.545954 0.408685
O O8 0.551678 0.575582 0.629952
O O9 0.250134 0.250000 0.727259
O O10 0.182575 0.965049 0.638111
O O11 0.179058 0.060805 0.878369
O O12 0.425777 0.750000 0.686264
O O13 0.910972 0.250000 0.547057
O O14 0.875777 0.965676 0.633534
O O15 0.000000 0.000000 0.500000
O O16 0.150482 0.750000 0.907711
O O17 0.136625 0.554275 0.106758
O O18 0.015322 0.546590 0.858175
O O19 0.884756 0.750000 0.835850
#
# Coordination Sequence:
#
# PCOD9161728 Si02
#       8
#     4   4   4   2   4   4   4   4
#     4   9  18  29  39  57  86 121 161 199 238 291
#     4   9  14  20  35  55  77 110 153 200 237 277
#     4  12  23  35  51  70  97 135 170 203 251 304
#     4   8  16  28  38  56  84 114 158 202 238 282
#     4   9  14  21  34  53  79 110 152 200 232 276
#     4  12  23  36  54  75  99 126 162 205 251 298
#     4  10  20  34  54  74 100 127 155 199 251 299
#     4  10  20  35  54  78 100 120 156 204 248 293
#
# _framework density 25.714445999999999
#
# number of rings (size 3 to 8) (size 9 to 14) (size 15 to 20)
#    0.400    1.600    2.000    4.000    2.800    1.600 
#    0.000    0.000    0.000    0.000    0.000    0.000 
#    0.000    0.000    0.000    0.000    0.000   24.000 
#
# Total GULP energy -167384.650917 kJ/mol
# GULP energy per Si atom -5579.488364 kJ/mol
# Density = 2.565592 g / cm^3
# Si number density = 25.714446 Si / 1000 Ang^3
#
#
#
# Elastic Constant Matrix: (Units=GPa)
#
#
# Indices 1 2 3 4 5 6 
#
# 1 92.2625 20.7910 25.1231 0.0000 15.1128 0.0000
# 2 20.7910 129.4046 8.3307 0.0000 1.4890 0.0000
# 3 25.1231 8.3307 153.1524 0.0000 9.8669 0.0000
# 4 0.0000 0.0000 0.0000 40.1187 0.0000 -6.6148
# 5 15.1128 1.4890 9.8669 0.0000 35.9227 0.0000
# 6 0.0000 0.0000 0.0000 -6.6148 0.0000 7.1801
#
#
#
# Elastic Compliance Matrix: (Units=1/GPa)
#
#
# Indices 1 2 3 4 5 6 
#
# 1 0.012475 -0.001844 -0.001642 0.000000 -0.004721 0.000000
# 2 -0.001844 0.008029 -0.000166 0.000000 0.000489 0.000000
# 3 -0.001642 -0.000166 0.006885 0.000000 -0.001193 0.000000
# 4 0.000000 0.000000 0.000000 0.029390 0.000000 0.027077
# 5 -0.004721 0.000489 -0.001193 0.000000 0.030131 0.000000
# 6 0.000000 0.000000 0.000000 0.027077 0.000000 0.164219
#
#
# Mechanical properties :
#
#
# Convention : Reuss Voigt Hill
#
# Bulk Modulus (GPa) = 49.78913 53.70100 51.74506
# Shear Modulus (GPa) = 18.85886 38.01595 28.43740
#
# Velocity S-wave (km/s) = 2.71107 3.84915 3.32910
# Velocity P-wave (km/s) = 5.40409 6.37837 5.91133
#
# Compressibility (1/GPa) = 0.02008471
#
# Stress axis : x y z
#
# Youngs Moduli (GPa) = 80.16305 124.54770 145.25011
#
# Poissons Ratio (x) = 0.22969 0.23848
# Poissons Ratio (y) = 0.14784 0.02407
# Poissons Ratio (z) = 0.13162 0.02064
#
# Static dielectric constant tensor:
#      x y z
#    x 2.106790 0.000000 -0.003310 
#    y 0.000000 1.953870 0.000000 
#    z -0.003310 0.000000 2.065690 
# 
# From -- ./inp_files/27407.got.cif
#   From: 2010.05.17/outbox.cif.g08.bks.cpg/sg11_14_cif.got.tgz:27407.got - 2010.06.03 12:22:45.
