data_PCOD9161745
_publ_section_title
;
Structure prediction by ZEFSAII (Michael W. Deem and Ramdas Pophale) SiO2 
 PCOD9161745
Probable space group: P 21/M
;
_chemical_formula_sum "Si O2"
_cell_formula_units_Z 24
_cell_length_a 9.156907
_cell_length_b 19.415027
_cell_length_c 12.033226
_cell_angle_alpha 90.000000
_cell_angle_beta 142.615930
_cell_angle_gamma 90.000000
_cell_volume 1298.878152
_symmetry_space_group_name_H-M "P 21/M"
_symmetry_group_IT_number 11
_symmetry_cell_setting 'monoclinic'
loop_
_space_group_symop_operation_xyz
x,y,z
-x,1/2+y,-z
-x,-y,-z
x,1/2-y,z
loop_
_atom_site_type_symbol
_atom_site_label
_atom_site_fract_x
_atom_site_fract_y
_atom_site_fract_z
Si Si1 0.454795 0.828683 0.332191
Si Si2 0.941334 0.447593 0.623939
Si Si3 0.433013 0.669829 0.575336
Si Si4 0.090081 0.976113 0.932822
Si Si5 0.638389 0.551679 0.288981
Si Si6 0.957757 0.829339 0.916348
O O1 0.530315 0.750000 0.359519
O O2 0.498619 0.846454 0.486575
O O3 0.581746 0.879118 0.323164
O O4 0.167599 0.832231 0.135053
O O5 0.784285 0.378712 0.524444
O O6 0.788988 0.502662 0.461276
O O7 0.975177 0.477348 0.767852
O O8 0.197934 0.437518 0.720021
O O9 0.366449 0.750000 0.540987
O O10 0.684739 0.659839 0.792264
O O11 0.020070 0.895050 0.877154
O O12 0.378680 0.980068 0.103861
O O13 0.000000 0.000000 0.000000
O O14 0.964722 0.750000 0.874470
#
# Coordination Sequence:
#
# PCOD9161745 Si02
#       6
#     4   4   4   4   4   4
#     4   9  18  34  55  78 103 135 178 220 259 309
#     4  11  22  36  52  77 112 141 175 216 264 323
#     4  10  20  34  54  78 104 136 174 218 263 310
#     4  11  21  35  58  81 103 138 182 225 267 308
#     4  10  22  36  53  78 109 145 174 213 267 319
#     4   9  18  32  51  76 103 130 168 217 262 305
#
# _framework density 18.477484
#
# number of rings (size 3 to 8) (size 9 to 14) (size 15 to 20)
#    0.000    2.000    0.000    4.500    0.000    2.667 
#    0.000    0.000    0.000    1.000    0.000   14.000 
#    0.000    0.000    0.000    0.000    0.000    0.000 
#
# Total GULP energy -133862.882890 kJ/mol
# GULP energy per Si atom -5577.620120 kJ/mol
# Density = 1.843543 g / cm^3
# Si number density = 18.477484 Si / 1000 Ang^3
#
#
#
# Elastic Constant Matrix: (Units=GPa)
#
#
# Indices 1 2 3 4 5 6 
#
# 1 89.8423 52.0577 47.5440 0.0000 14.0333 0.0000
# 2 52.0577 66.0698 32.7122 0.0000 9.4237 0.0000
# 3 47.5440 32.7122 77.1505 0.0000 20.1628 0.0000
# 4 0.0000 0.0000 0.0000 25.5668 0.0000 11.4122
# 5 14.0333 9.4237 20.1628 0.0000 30.3146 0.0000
# 6 0.0000 0.0000 0.0000 11.4122 0.0000 11.1783
#
#
#
# Elastic Compliance Matrix: (Units=1/GPa)
#
#
# Indices 1 2 3 4 5 6 
#
# 1 0.024388 -0.014886 -0.008444 0.000000 -0.001046 0.000000
# 2 -0.014886 0.028254 -0.002799 0.000000 -0.000031 0.000000
# 3 -0.008444 -0.002799 0.021912 0.000000 -0.009795 0.000000
# 4 0.000000 0.000000 0.000000 0.071861 0.000000 -0.073365
# 5 -0.001046 -0.000031 -0.009795 0.000000 0.039996 0.000000
# 6 0.000000 0.000000 0.000000 -0.073365 0.000000 0.164359
#
#
# Mechanical properties :
#
#
# Convention : Reuss Voigt Hill
#
# Bulk Modulus (GPa) = 44.84843 55.29892 50.07368
# Shear Modulus (GPa) = 12.18149 20.12852 16.15501
#
# Velocity S-wave (km/s) = 2.57039 3.30412 2.96008
# Velocity P-wave (km/s) = 5.75620 6.67450 6.23229
#
# Compressibility (1/GPa) = 0.02229732
#
# Stress axis : x y z
#
# Youngs Moduli (GPa) = 41.00419 35.39294 45.63749
#
# Poissons Ratio (x) = 0.52685 0.38536
# Poissons Ratio (y) = 0.61037 0.12772
# Poissons Ratio (z) = 0.34624 0.09905
#
# Static dielectric constant tensor:
#      x y z
#    x 1.601740 0.000000 0.006260 
#    y 0.000000 1.660070 0.000000 
#    z 0.006260 0.000000 1.653940 
# 
# From -- ./inp_files/19073.got.cif
#   From: 2010.05.17/outbox.cif.g08.bks.cpg/sg11_10_cif.got.tgz:19073.got - 2010.06.03 12:22:45.
