data_PCOD9161126
_publ_section_title
;
Structure prediction by ZEFSAII (Michael W. Deem and Ramdas Pophale) SiO2 
 PCOD9161126
Probable space group: P 21/M
;
_chemical_formula_sum "Si O2"
_cell_formula_units_Z 20
_cell_length_a 5.748560
_cell_length_b 14.288484
_cell_length_c 10.262906
_cell_angle_alpha 90.000000
_cell_angle_beta 111.675402
_cell_angle_gamma 90.000000
_cell_volume 783.370853
_symmetry_space_group_name_H-M "P 21/M"
_symmetry_group_IT_number 11
_symmetry_cell_setting 'monoclinic'
loop_
_space_group_symop_operation_xyz
x,y,z
-x,1/2+y,-z
-x,-y,-z
x,1/2-y,z
loop_
_atom_site_type_symbol
_atom_site_label
_atom_site_fract_x
_atom_site_fract_y
_atom_site_fract_z
Si Si1 0.931742 0.647306 0.486084
Si Si2 0.425343 0.848631 0.243847
Si Si3 0.744438 0.750000 0.954767
Si Si4 0.152832 0.994511 0.351547
Si Si5 0.786578 0.963015 0.057669
Si Si6 0.747227 0.250000 0.039386
O O1 0.024763 0.750000 0.536187
O O2 0.718806 0.655136 0.331264
O O3 0.134543 0.576511 0.469859
O O4 0.801481 0.596169 0.581268
O O5 0.324980 0.750000 0.287095
O O6 0.333642 0.833487 0.077381
O O7 0.335477 0.943625 0.289377
O O8 0.794082 0.849221 0.038886
O O9 0.442349 0.750000 0.879333
O O10 0.954810 0.750000 0.885091
O O11 0.895887 0.996841 0.218395
O O12 0.500000 0.000000 0.000000
O O13 0.000000 0.000000 0.000000
#
# Coordination Sequence:
#
# PCOD9161126 Si02
#       6
#     4   4   2   4   4   2
#     4  10  22  38  64  99 133 177 223 281 357 415
#     4   9  18  31  60  96 125 166 214 280 326 412
#     4  12  22  46  70  98 131 191 234 302 339 404
#     4  11  22  40  66  95 138 174 232 288 344 415
#     4  12  28  47  73 106 140 187 246 293 350 421
#     4  10  20  32  72 100 129 167 240 284 333 400
#
# _framework density 25.530691999999998
#
# number of rings (size 3 to 8) (size 9 to 14) (size 15 to 20)
#    0.600    0.800    2.000    3.600    4.200    0.000 
#    3.600    0.000    0.000    0.000    0.000    0.000 
#    0.000    0.000    0.000    0.000    0.000    0.000 
#
# Total GULP energy -111468.878302 kJ/mol
# GULP energy per Si atom -5573.443915 kJ/mol
# Density = 2.547258 g / cm^3
# Si number density = 25.530692 Si / 1000 Ang^3
#
#
#
# Elastic Constant Matrix: (Units=GPa)
#
#
# Indices 1 2 3 4 5 6 
#
# 1 148.7552 35.7703 27.7332 0.0000 -10.7971 0.0000
# 2 35.7703 151.1585 32.2658 0.0000 -17.7042 0.0000
# 3 27.7332 32.2658 52.1763 0.0000 0.9140 0.0000
# 4 0.0000 0.0000 0.0000 14.8066 0.0000 -1.8598
# 5 -10.7971 -17.7042 0.9140 0.0000 35.9082 0.0000
# 6 0.0000 0.0000 0.0000 -1.8598 0.0000 36.8365
#
#
#
# Elastic Compliance Matrix: (Units=1/GPa)
#
#
# Indices 1 2 3 4 5 6 
#
# 1 0.007746 -0.000818 -0.003646 0.000000 0.002018 0.000000
# 2 -0.000818 0.008289 -0.004761 0.000000 0.003962 0.000000
# 3 -0.003646 -0.004761 0.024119 0.000000 -0.004058 0.000000
# 4 0.000000 0.000000 0.000000 0.067969 0.000000 0.003432
# 5 0.002018 0.003962 -0.004058 0.000000 0.030513 0.000000
# 6 0.000000 0.000000 0.000000 0.003432 0.000000 0.027320
#
#
# Mechanical properties :
#
#
# Convention : Reuss Voigt Hill
#
# Bulk Modulus (GPa) = 46.07551 60.40318 53.23934
# Shear Modulus (GPa) = 26.09053 34.59830 30.34441
#
# Velocity S-wave (km/s) = 3.20023 3.68525 3.45127
# Velocity P-wave (km/s) = 5.63397 6.46672 6.06465
#
# Compressibility (1/GPa) = 0.02170351
#
# Stress axis : x y z
#
# Youngs Moduli (GPa) = 129.10719 120.63513 41.46099
#
# Poissons Ratio (x) = 0.09870 0.15118
# Poissons Ratio (y) = 0.10563 0.19738
# Poissons Ratio (z) = 0.47077 0.57431
#
# Static dielectric constant tensor:
#      x y z
#    x 2.074930 0.000000 -0.035290 
#    y 0.000000 2.167370 0.000000 
#    z -0.035290 0.000000 2.024520 
# 
# From -- ./inp_files/29579.got.cif
#   From: 2010.05.17/outbox.cif.g08.bks.cpg/sg11_15_cif.got.tgz:29579.got - 2010.06.03 12:22:45.
