data_PCOD9161600
_publ_section_title
;
Structure prediction by ZEFSAII (Michael W. Deem and Ramdas Pophale) SiO2 
 PCOD9161600
Probable space group: P 21/M
;
_chemical_formula_sum "Si O2"
_cell_formula_units_Z 32
_cell_length_a 29.242640
_cell_length_b 8.394907
_cell_length_c 23.289350
_cell_angle_alpha 90.000000
_cell_angle_beta 18.245047
_cell_angle_gamma 90.000000
_cell_volume 1789.977321
_symmetry_space_group_name_H-M "P 21/M"
_symmetry_group_IT_number 11
_symmetry_cell_setting 'monoclinic'
loop_
_space_group_symop_operation_xyz
x,y,z
-x,1/2+y,-z
-x,-y,-z
x,1/2-y,z
loop_
_atom_site_type_symbol
_atom_site_label
_atom_site_fract_x
_atom_site_fract_y
_atom_site_fract_z
Si Si1 0.423176 0.557526 0.505300
Si Si2 0.675314 0.442458 0.502430
Si Si3 0.779233 0.057552 0.792332
Si Si4 0.082118 0.057501 0.487724
Si Si5 0.529629 0.557471 0.789151
Si Si6 0.829130 0.942416 0.491507
Si Si7 0.025912 0.559440 0.794410
Si Si8 0.717977 0.440660 0.207830
O O1 0.422678 0.750000 0.505425
O O2 0.366330 0.501184 0.511425
O O3 0.586533 0.501045 0.324415
O O4 0.323260 0.504948 0.678276
O O5 0.674855 0.250000 0.502626
O O6 0.563402 0.499580 0.684668
O O7 0.836200 0.495464 0.331298
O O8 0.778024 0.250000 0.793645
O O9 0.918883 0.005562 0.663813
O O10 0.810637 0.000102 0.690422
O O11 0.625151 0.001828 0.001490
O O12 0.083232 0.250000 0.486652
O O13 0.128369 0.001570 0.495673
O O14 0.528696 0.750000 0.789997
O O15 0.667627 0.505211 0.663537
O O16 0.829682 0.750000 0.491309
O O17 0.940794 0.998730 0.309404
O O18 0.026189 0.750000 0.793439
O O19 0.873571 0.500464 0.001004
O O20 0.717511 0.250000 0.207915
#
# Coordination Sequence:
#
# PCOD9161600 Si02
#       8
#     4   4   4   4   4   4   4   4
#     4   9  19  36  54  74 102 133 167 208 251 295
#     4   9  19  35  53  74 101 132 166 206 250 296
#     4   9  18  32  48  68  95 124 156 196 241 289
#     4   9  18  32  49  69  94 124 158 197 240 288
#     4   9  18  32  49  70  97 128 161 199 242 289
#     4   9  18  33  50  69  96 128 162 200 242 289
#     4  10  20  34  52  75 103 133 166 205 249 297
#     4  10  20  34  53  76 102 133 168 206 249 297
#
# _framework density 17.877320999999998
#
# number of rings (size 3 to 8) (size 9 to 14) (size 15 to 20)
#    0.000    2.750    0.000    0.750    0.000    4.500 
#    0.000    1.250    0.000    0.000    0.000    0.000 
#    0.000    0.000    0.000    0.000    0.000    0.000 
#
# Total GULP energy -178459.178999 kJ/mol
# GULP energy per Si atom -5576.849344 kJ/mol
# Density = 1.783663 g / cm^3
# Si number density = 17.877321 Si / 1000 Ang^3
#
#
#
# Elastic Constant Matrix: (Units=GPa)
#
#
# Indices 1 2 3 4 5 6 
#
# 1 220.6598 32.2251 127.4404 0.0000 21.0604 0.0000
# 2 32.2251 8.5065 27.2836 0.0000 1.9935 0.0000
# 3 127.4404 27.2836 213.8304 0.0000 15.1242 0.0000
# 4 0.0000 0.0000 0.0000 -32.9474 0.0000 19.6297
# 5 21.0604 1.9935 15.1242 0.0000 8.5707 0.0000
# 6 0.0000 0.0000 0.0000 19.6297 0.0000 19.0428
#
#
#
# Elastic Compliance Matrix: (Units=1/GPa)
#
#
# Indices 1 2 3 4 5 6 
#
# 1 0.013283 -0.041930 -0.001083 0.000000 -0.020975 0.000000
# 2 -0.041930 0.331382 -0.021856 0.000000 0.064523 0.000000
# 3 -0.001083 -0.021856 0.008641 0.000000 -0.007505 0.000000
# 4 0.000000 0.000000 0.000000 -0.018803 0.000000 0.019383
# 5 -0.020975 0.064523 -0.007505 0.000000 0.166454 0.000000
# 6 0.000000 0.000000 0.000000 0.019383 0.000000 0.032533
#
#
# Mechanical properties :
#
#
# Convention : Reuss Voigt Hill
#
# Bulk Modulus (GPa) = 4.47292 90.76613 47.61952
# Shear Modulus (GPa) = 6.77736 16.00306 11.39021
#
# Velocity S-wave (km/s) = 1.94917 2.99517 2.52689
# Velocity P-wave (km/s) = 2.75193 7.92737 5.93365
#
# Compressibility (1/GPa) = 0.22356773
#
# Stress axis : x y z
#
# Youngs Moduli (GPa) = 75.28692 3.01766 115.72220
#
# Poissons Ratio (x) = 0.12653 0.12528
# Poissons Ratio (y) = 3.15680 2.52926
# Poissons Ratio (z) = 0.08150 0.06596
#
# Static dielectric constant tensor:
#      x y z
#    x 1.605670 0.000000 -0.009850 
#    y 0.000000 1.611980 0.000000 
#    z -0.009850 0.000000 1.586650 
# 
# From -- ./inp_files/67036.got.cif
#   From: 2010.05.17/outbox.cif.g08.bks.cpg/sg11_34_cif.got.tgz:67036.got - 2010.06.03 12:22:45.
