data_PCOD9161353
_publ_section_title
;
Structure prediction by ZEFSAII (Michael W. Deem and Ramdas Pophale) SiO2 
 PCOD9161353
Probable space group: P 21/M
;
_chemical_formula_sum "Si O2"
_cell_formula_units_Z 32
_cell_length_a 11.735586
_cell_length_b 7.503062
_cell_length_c 22.281536
_cell_angle_alpha 90.000000
_cell_angle_beta 128.577638
_cell_angle_gamma 90.000000
_cell_volume 1533.783486
_symmetry_space_group_name_H-M "P 21/M"
_symmetry_group_IT_number 11
_symmetry_cell_setting 'monoclinic'
loop_
_space_group_symop_operation_xyz
x,y,z
-x,1/2+y,-z
-x,-y,-z
x,1/2-y,z
loop_
_atom_site_type_symbol
_atom_site_label
_atom_site_fract_x
_atom_site_fract_y
_atom_site_fract_z
Si Si1 0.318502 0.966849 0.731777
Si Si2 0.671313 0.453938 0.130549
Si Si3 0.572320 0.463630 0.615741
Si Si4 0.017234 0.963257 0.575836
Si Si5 0.830835 0.463226 0.937476
Si Si6 0.275204 0.036110 0.456008
Si Si7 0.376805 0.960015 0.233918
Si Si8 0.664591 0.031760 0.000656
O O1 0.322773 0.750000 0.734329
O O2 0.305953 0.033049 0.796343
O O3 0.174533 0.028118 0.649668
O O4 0.468219 0.022857 0.749135
O O5 0.723463 0.250000 0.151277
O O6 0.727957 0.528704 0.085816
O O7 0.497692 0.460106 0.062675
O O8 0.557737 0.250000 0.615683
O O9 0.690173 0.498597 0.602277
O O10 0.415900 0.531494 0.539687
O O11 0.610666 0.534010 0.694432
O O12 0.019556 0.750000 0.584898
O O13 0.877584 0.031275 0.567509
O O14 0.000000 0.000000 0.500000
O O15 0.810341 0.250000 0.929797
O O16 0.748120 0.534075 0.851273
O O17 0.754745 0.527731 0.973126
O O18 0.000000 0.500000 0.000000
O O19 0.273588 0.250000 0.461914
O O20 0.346230 0.750000 0.231037
O O21 0.656678 0.250000 0.999540
#
# Coordination Sequence:
#
# PCOD9161353 Si02
#       8
#     4   4   4   4   4   4   4   4
#     4  10  20  33  52  79 107 135 171 217 260 306
#     4   9  17  30  51  76 101 130 166 210 255 302
#     4   9  18  33  55  77 100 136 177 215 254 297
#     4  10  21  36  53  78 110 141 174 212 260 311
#     4  10  21  36  53  75 104 137 173 215 260 308
#     4   9  18  34  53  76 106 138 173 211 254 304
#     4  10  20  36  56  77 104 136 174 216 258 311
#     4   9  17  32  52  74 100 131 168 207 255 309
#
# _framework density 20.863441000000002
#
# number of rings (size 3 to 8) (size 9 to 14) (size 15 to 20)
#    0.000    2.500    1.250    0.750    0.000    3.500 
#    2.250    2.500    0.000    0.000    0.000    0.000 
#    0.000    0.000    0.000    0.000    0.000    0.000 
#
# Total GULP energy -178495.923091 kJ/mol
# GULP energy per Si atom -5577.997597 kJ/mol
# Density = 2.081595 g / cm^3
# Si number density = 20.863441 Si / 1000 Ang^3
#
#
#
# Elastic Constant Matrix: (Units=GPa)
#
#
# Indices 1 2 3 4 5 6 
#
# 1 96.0290 -4.4465 90.3352 0.0000 -11.3048 0.0000
# 2 -4.4465 54.2325 -3.3022 0.0000 -2.7410 0.0000
# 3 90.3352 -3.3022 198.1814 0.0000 -28.6056 0.0000
# 4 0.0000 0.0000 0.0000 5.6756 0.0000 4.5857
# 5 -11.3048 -2.7410 -28.6056 0.0000 37.9347 0.0000
# 6 0.0000 0.0000 0.0000 4.5857 0.0000 16.1355
#
#
#
# Elastic Compliance Matrix: (Units=1/GPa)
#
#
# Indices 1 2 3 4 5 6 
#
# 1 0.018308 0.000944 -0.008452 0.000000 -0.000849 0.000000
# 2 0.000944 0.018611 0.000129 0.000000 0.001723 0.000000
# 3 -0.008452 0.000129 0.009581 0.000000 0.004716 0.000000
# 4 0.000000 0.000000 0.000000 0.228711 0.000000 -0.064999
# 5 -0.000849 0.001723 0.004716 0.000000 0.029788 0.000000
# 6 0.000000 0.000000 0.000000 -0.064999 0.000000 0.080448
#
#
# Mechanical properties :
#
#
# Convention : Reuss Voigt Hill
#
# Bulk Modulus (GPa) = 31.50478 57.06840 44.28659
# Shear Modulus (GPa) = 12.17172 29.67292 20.92232
#
# Velocity S-wave (km/s) = 2.41799 3.77536 3.17017
# Velocity P-wave (km/s) = 4.78840 6.81301 5.88837
#
# Compressibility (1/GPa) = 0.03174121
#
# Stress axis : x y z
#
# Youngs Moduli (GPa) = 54.62027 53.73044 104.36953
#
# Poissons Ratio (x) = -0.05070 0.88215
# Poissons Ratio (y) = -0.05153 -0.01344
# Poissons Ratio (z) = 0.46166 -0.00692
#
# Static dielectric constant tensor:
#      x y z
#    x 1.731820 0.000000 -0.029420 
#    y 0.000000 1.765390 0.000000 
#    z -0.029420 0.000000 1.762590 
# 
# From -- ./inp_files/64414.got.cif
#   From: 2010.05.17/outbox.cif.g08.bks.cpg/sg11_33_cif.got.tgz:64414.got - 2010.06.03 12:22:45.
