data_PCOD9161559
_publ_section_title
;
Structure prediction by ZEFSAII (Michael W. Deem and Ramdas Pophale) SiO2 
 PCOD9161559
Probable space group: P 21/M
;
_chemical_formula_sum "Si O2"
_cell_formula_units_Z 28
_cell_length_a 16.033735
_cell_length_b 7.996427
_cell_length_c 18.503264
_cell_angle_alpha 90.000000
_cell_angle_beta 141.571546
_cell_angle_gamma 90.000000
_cell_volume 1474.503948
_symmetry_space_group_name_H-M "P 21/M"
_symmetry_group_IT_number 11
_symmetry_cell_setting 'monoclinic'
loop_
_space_group_symop_operation_xyz
x,y,z
-x,1/2+y,-z
-x,-y,-z
x,1/2-y,z
loop_
_atom_site_type_symbol
_atom_site_label
_atom_site_fract_x
_atom_site_fract_y
_atom_site_fract_z
Si Si1 0.674119 0.551831 0.919617
Si Si2 0.432404 0.452800 0.664227
Si Si3 0.641176 0.547011 0.059897
Si Si4 0.842077 0.949911 0.893953
Si Si5 0.148079 0.452280 0.521026
Si Si6 0.409308 0.550362 0.368971
Si Si7 0.141905 0.051256 0.681425
O O1 0.701199 0.750000 0.941575
O O2 0.523027 0.521050 0.790076
O O3 0.770363 0.484854 0.919991
O O4 0.675681 0.484787 0.002471
O O5 0.437156 0.250000 0.669916
O O6 0.279427 0.505404 0.567705
O O7 0.502214 0.510897 0.638619
O O8 0.645093 0.750000 0.059116
O O9 0.752840 0.482472 0.190932
O O10 0.500000 0.500000 0.000000
O O11 0.838667 0.750000 0.893967
O O12 0.743685 0.998328 0.759091
O O13 0.000000 0.000000 0.000000
O O14 0.143127 0.250000 0.518501
O O15 0.157872 0.513892 0.610636
O O16 0.008868 0.517212 0.396269
O O17 0.500000 0.500000 0.500000
O O18 0.405255 0.750000 0.367351
O O19 0.163074 0.250000 0.691350
#
# Coordination Sequence:
#
# PCOD9161559 Si02
#       7
#     4   4   4   4   4   4   4
#     4   9  19  34  53  77 106 136 173 217 259 316
#     4   9  18  33  54  76 101 132 170 212 256 310
#     4  10  20  34  51  74 104 135 171 213 258 306
#     4  10  20  37  59  82 111 148 187 229 281 337
#     4   9  17  31  49  69  95 129 167 207 247 294
#     4  10  20  36  57  82 111 141 179 228 279 332
#     4   9  18  31  47  68  98 132 165 203 247 297
#
# _framework density 18.989436999999999
#
# number of rings (size 3 to 8) (size 9 to 14) (size 15 to 20)
#    0.000    2.571    0.000    1.714    0.000    4.000 
#    2.571    2.857    0.000    0.000    0.000    0.000 
#    0.000    0.000    0.000    0.000    0.000    0.000 
#
# Total GULP energy -155903.562139 kJ/mol
# GULP energy per Si atom -5567.984362 kJ/mol
# Density = 1.894622 g / cm^3
# Si number density = 18.989437 Si / 1000 Ang^3
#
#
#
# Elastic Constant Matrix: (Units=GPa)
#
#
# Indices 1 2 3 4 5 6 
#
# 1 70.4558 2.3470 70.0421 0.0000 12.7727 0.0000
# 2 2.3470 20.4846 10.8054 0.0000 -3.7977 0.0000
# 3 70.0421 10.8054 179.8844 0.0000 3.7262 0.0000
# 4 0.0000 0.0000 0.0000 26.2471 0.0000 5.3539
# 5 12.7727 -3.7977 3.7262 0.0000 28.6033 0.0000
# 6 0.0000 0.0000 0.0000 5.3539 0.0000 19.4642
#
#
#
# Elastic Compliance Matrix: (Units=1/GPa)
#
#
# Indices 1 2 3 4 5 6 
#
# 1 0.025849 0.000354 -0.009875 0.000000 -0.010209 0.000000
# 2 0.000354 0.051903 -0.003404 0.000000 0.007177 0.000000
# 3 -0.009875 -0.003404 0.009552 0.000000 0.002713 0.000000
# 4 0.000000 0.000000 0.000000 0.040364 0.000000 -0.011103
# 5 -0.010209 0.007177 0.002713 0.000000 0.040119 0.000000
# 6 0.000000 0.000000 0.000000 -0.011103 0.000000 0.054430
#
#
# Mechanical properties :
#
#
# Convention : Reuss Voigt Hill
#
# Bulk Modulus (GPa) = 16.27209 48.57932 32.42570
# Shear Modulus (GPa) = 18.61832 27.37161 22.99497
#
# Velocity S-wave (km/s) = 3.13462 3.80071 3.48362
# Velocity P-wave (km/s) = 4.65712 6.70062 5.77006
#
# Compressibility (1/GPa) = 0.06145492
#
# Stress axis : x y z
#
# Youngs Moduli (GPa) = 38.68607 19.26673 104.68598
#
# Poissons Ratio (x) = -0.00683 1.03375
# Poissons Ratio (y) = -0.01371 0.35639
# Poissons Ratio (z) = 0.38202 0.06559
#
# Static dielectric constant tensor:
#      x y z
#    x 1.678630 0.000000 -0.020830 
#    y 0.000000 1.682480 0.000000 
#    z -0.020830 0.000000 1.678360 
# 
# From -- ./inp_files/54518.got.cif
#   From: 2010.05.17/outbox.cif.g08.bks.cpg/sg11_28_cif.got.tgz:54518.got - 2010.06.03 12:22:45.
