data_PCOD9161627
_publ_section_title
;
Structure prediction by ZEFSAII (Michael W. Deem and Ramdas Pophale) SiO2 
 PCOD9161627
Probable space group: P 21/M
;
_chemical_formula_sum "Si O2"
_cell_formula_units_Z 32
_cell_length_a 15.886034
_cell_length_b 8.515246
_cell_length_c 24.055511
_cell_angle_alpha 90.000000
_cell_angle_beta 32.405839
_cell_angle_gamma 90.000000
_cell_volume 1743.899423
_symmetry_space_group_name_H-M "P 21/M"
_symmetry_group_IT_number 11
_symmetry_cell_setting 'monoclinic'
loop_
_space_group_symop_operation_xyz
x,y,z
-x,1/2+y,-z
-x,-y,-z
x,1/2-y,z
loop_
_atom_site_type_symbol
_atom_site_label
_atom_site_fract_x
_atom_site_fract_y
_atom_site_fract_z
Si Si1 0.823435 0.566962 0.095706
Si Si2 0.326759 0.437330 0.604592
Si Si3 0.848225 0.562545 0.907619
Si Si4 0.026153 0.062724 0.700888
Si Si5 0.750883 0.940046 0.647118
Si Si6 0.153257 0.566387 0.804835
Si Si7 0.400700 0.563099 0.874063
Si Si8 0.975467 0.559856 0.425256
O O1 0.826144 0.750000 0.080524
O O2 0.773498 0.533921 0.186565
O O3 0.712218 0.481515 0.114218
O O4 0.000000 0.500000 0.000000
O O5 0.500000 0.500000 0.500000
O O6 0.324578 0.250000 0.617536
O O7 0.257469 0.537953 0.693306
O O8 0.204282 0.463788 0.622649
O O9 0.848649 0.750000 0.906378
O O10 0.909144 0.504439 0.813544
O O11 0.980413 0.513729 0.879853
O O12 0.682482 0.503893 0.024077
O O13 0.999655 0.250000 0.715319
O O14 0.013183 0.003795 0.644820
O O15 0.749823 0.750000 0.648619
O O16 0.576023 0.994429 0.761006
O O17 0.821105 0.987537 0.547436
O O18 0.876114 0.000812 0.622212
O O19 0.146734 0.750000 0.824106
O O20 0.406419 0.750000 0.876599
O O21 0.976443 0.750000 0.423544
#
# Coordination Sequence:
#
# PCOD9161627 Si02
#       8
#     4   4   4   4   4   4   4   4
#     4  12  23  35  53  79 110 146 188 228 272 326
#     4  10  20  34  52  77 110 146 185 231 278 331
#     4  10  20  34  54  79 109 144 185 230 274 327
#     4   9  19  35  57  81 107 145 187 227 279 338
#     4   9  20  37  58  86 114 144 179 225 284 337
#     4  10  20  35  53  74 104 144 186 230 276 324
#     4  11  22  36  56  81 115 151 186 229 280 337
#     4   9  18  37  62  84 109 142 183 228 280 339
#
# _framework density 18.349682000000001
#
# number of rings (size 3 to 8) (size 9 to 14) (size 15 to 20)
#    0.000    2.000    1.250    2.625    0.000    4.000 
#    0.000    3.125    0.000    0.000    0.000    0.000 
#    0.000    0.000    0.000    0.000    0.000    0.000 
#
# Total GULP energy -178423.569926 kJ/mol
# GULP energy per Si atom -5575.736560 kJ/mol
# Density = 1.830792 g / cm^3
# Si number density = 18.349682 Si / 1000 Ang^3
#
#
#
# Elastic Constant Matrix: (Units=GPa)
#
#
# Indices 1 2 3 4 5 6 
#
# 1 94.8176 15.7788 67.7878 0.0000 24.2465 0.0000
# 2 15.7788 24.6298 23.2308 0.0000 4.8435 0.0000
# 3 67.7878 23.2308 158.0612 0.0000 0.1195 0.0000
# 4 0.0000 0.0000 0.0000 25.7666 0.0000 1.7501
# 5 24.2465 4.8435 0.1195 0.0000 25.8532 0.0000
# 6 0.0000 0.0000 0.0000 1.7501 0.0000 26.6022
#
#
#
# Elastic Compliance Matrix: (Units=1/GPa)
#
#
# Indices 1 2 3 4 5 6 
#
# 1 0.023246 -0.001487 -0.009735 0.000000 -0.021478 0.000000
# 2 -0.001487 0.049321 -0.006605 0.000000 -0.007815 0.000000
# 3 -0.009735 -0.006605 0.011465 0.000000 0.010314 0.000000
# 4 0.000000 0.000000 0.000000 0.038984 0.000000 -0.002565
# 5 -0.021478 -0.007815 0.010314 0.000000 0.060239 0.000000
# 6 0.000000 0.000000 0.000000 -0.002565 0.000000 0.037760
#
#
# Mechanical properties :
#
#
# Convention : Reuss Voigt Hill
#
# Bulk Modulus (GPa) = 20.67071 54.56705 37.61888
# Shear Modulus (GPa) = 18.32888 27.02513 22.67700
#
# Velocity S-wave (km/s) = 3.16391 3.84185 3.51924
# Velocity P-wave (km/s) = 4.96351 7.03432 6.08762
#
# Compressibility (1/GPa) = 0.04837764
#
# Stress axis : x y z
#
# Youngs Moduli (GPa) = 43.01863 20.27542 87.22506
#
# Poissons Ratio (x) = 0.03014 0.84911
# Poissons Ratio (y) = 0.06396 0.57615
# Poissons Ratio (z) = 0.41877 0.13393
#
# Static dielectric constant tensor:
#      x y z
#    x 1.939650 0.000000 0.530770 
#    y 0.000000 1.637490 0.000000 
#    z 0.530770 0.000000 2.501590 
# 
# From -- ./inp_files/69016.got.cif
#   From: 2010.05.17/outbox.cif.g08.bks.cpg/sg11_35_cif.got.tgz:69016.got - 2010.06.03 12:22:45.
