data_PCOD9161598
_publ_section_title
;
Structure prediction by ZEFSAII (Michael W. Deem and Ramdas Pophale) SiO2 
 PCOD9161598
Probable space group: P 21/M
;
_chemical_formula_sum "Si O2"
_cell_formula_units_Z 32
_cell_length_a 22.395439
_cell_length_b 19.333772
_cell_length_c 10.052852
_cell_angle_alpha 90.000000
_cell_angle_beta 154.438993
_cell_angle_gamma 90.000000
_cell_volume 1878.096830
_symmetry_space_group_name_H-M "P 21/M"
_symmetry_group_IT_number 11
_symmetry_cell_setting 'monoclinic'
loop_
_space_group_symop_operation_xyz
x,y,z
-x,1/2+y,-z
-x,-y,-z
x,1/2-y,z
loop_
_atom_site_type_symbol
_atom_site_label
_atom_site_fract_x
_atom_site_fract_y
_atom_site_fract_z
Si Si1 0.928951 0.609944 0.198974
Si Si2 0.985256 0.379221 0.347330
Si Si3 0.821302 0.497999 0.348150
Si Si4 0.685161 0.554535 0.325363
Si Si5 0.102647 0.330354 0.149845
Si Si6 0.734595 0.013262 0.892963
Si Si7 0.607129 0.441537 0.381270
Si Si8 0.842795 0.172220 0.808048
O O1 0.968787 0.648318 0.416409
O O2 0.057535 0.559048 0.419746
O O3 0.900904 0.656347 0.015141
O O4 0.800196 0.559453 0.975853
O O5 0.106503 0.427952 0.534275
O O6 0.860029 0.432415 0.124484
O O7 0.930674 0.330361 0.122030
O O8 0.754580 0.502834 0.358007
O O9 0.714819 0.487696 0.011777
O O10 0.787526 0.616596 0.567241
O O11 0.649277 0.510050 0.383514
O O12 0.543581 0.579668 0.972395
O O13 0.133697 0.250000 0.241103
O O14 0.952498 0.345643 0.912996
O O15 0.616818 0.038888 0.556438
O O16 0.720391 0.382933 0.576124
O O17 0.790672 0.250000 0.681496
#
# Coordination Sequence:
#
# PCOD9161598 Si02
#       8
#     4   4   4   4   4   4   4   4
#     4   9  16  29  50  74 102 127 157 201 250 294
#     4   8  15  28  49  76  99 124 156 199 253 290
#     4   9  16  28  51  76 100 127 154 206 255 283
#     4  11  21  33  50  74 103 132 166 208 247 294
#     4  11  22  33  49  74 100 131 169 206 244 292
#     4   8  15  29  49  75  99 123 160 200 245 298
#     4  10  21  34  51  74 100 133 168 201 249 298
#     4  10  20  34  52  74  99 129 167 205 244 294
#
# _framework density 17.038526000000001
#
# number of rings (size 3 to 8) (size 9 to 14) (size 15 to 20)
#    0.000    2.500    2.500    2.250    0.000    2.500 
#    0.000    0.000    0.000    0.000    0.000    0.000 
#    0.000    0.000    0.000    0.000    0.000    0.000 
#
# Total GULP energy -178245.540197 kJ/mol
# GULP energy per Si atom -5570.173131 kJ/mol
# Density = 1.699975 g / cm^3
# Si number density = 17.038526 Si / 1000 Ang^3
#
#
#
# Elastic Constant Matrix: (Units=GPa)
#
#
# Indices 1 2 3 4 5 6 
#
# 1 20.7372 -11.2910 -2.7729 0.0000 -13.0474 0.0000
# 2 -11.2910 39.8985 17.6207 0.0000 4.4244 0.0000
# 3 -2.7729 17.6207 69.6091 0.0000 -9.4297 0.0000
# 4 0.0000 0.0000 0.0000 6.1504 0.0000 2.9434
# 5 -13.0474 4.4244 -9.4297 0.0000 25.0943 0.0000
# 6 0.0000 0.0000 0.0000 2.9434 0.0000 16.3717
#
#
#
# Elastic Compliance Matrix: (Units=1/GPa)
#
#
# Indices 1 2 3 4 5 6 
#
# 1 0.085462 0.017226 0.004901 0.000000 0.043239 0.000000
# 2 0.017226 0.033332 -0.007727 0.000000 0.000176 0.000000
# 3 0.004901 -0.007727 0.017961 0.000000 0.010660 0.000000
# 4 0.000000 0.000000 0.000000 0.177897 0.000000 -0.031984
# 5 0.043239 0.000176 0.010660 0.000000 0.066306 0.000000
# 6 0.000000 0.000000 0.000000 -0.031984 0.000000 0.066831
#
#
# Mechanical properties :
#
#
# Convention : Reuss Voigt Hill
#
# Bulk Modulus (GPa) = 6.04031 15.26205 10.65118
# Shear Modulus (GPa) = 10.54462 17.96915 14.25689
#
# Velocity S-wave (km/s) = 2.49041 3.25101 2.89579
# Velocity P-wave (km/s) = 3.43836 4.80301 4.17679
#
# Compressibility (1/GPa) = 0.16555448
#
# Stress axis : x y z
#
# Youngs Moduli (GPa) = 11.70107 30.00159 55.67488
#
# Poissons Ratio (x) = -0.51680 -0.27289
# Poissons Ratio (y) = -0.20156 0.43023
# Poissons Ratio (z) = -0.05735 0.23184
#
# Static dielectric constant tensor:
#      x y z
#    x 1.586490 0.000000 -0.022860 
#    y 0.000000 1.556050 0.000000 
#    z -0.022860 0.000000 1.594330 
# 
# From -- ./inp_files/19436.got.cif
#   From: 2010.05.17/outbox.cif.g08.bks.cpg/sg11_10_cif.got.tgz:19436.got - 2010.06.03 12:22:45.
