data_PCOD9161755
_publ_section_title
;
Structure prediction by ZEFSAII (Michael W. Deem and Ramdas Pophale) SiO2 
 PCOD9161755
Probable space group: P 21/M
;
_chemical_formula_sum "Si O2"
_cell_formula_units_Z 32
_cell_length_a 25.348919
_cell_length_b 9.303867
_cell_length_c 8.947576
_cell_angle_alpha 90.000000
_cell_angle_beta 58.030680
_cell_angle_gamma 90.000000
_cell_volume 1790.169047
_symmetry_space_group_name_H-M "P 21/M"
_symmetry_group_IT_number 11
_symmetry_cell_setting 'monoclinic'
loop_
_space_group_symop_operation_xyz
x,y,z
-x,1/2+y,-z
-x,-y,-z
x,1/2-y,z
loop_
_atom_site_type_symbol
_atom_site_label
_atom_site_fract_x
_atom_site_fract_y
_atom_site_fract_z
Si Si1 0.560968 0.084105 0.226075
Si Si2 0.058519 0.081229 0.983352
Si Si3 0.302907 0.575073 0.622735
Si Si4 0.439032 0.584105 0.408980
Si Si5 0.174378 0.920795 0.311032
Si Si6 0.302907 0.575073 0.968545
Si Si7 0.825622 0.079205 0.334166
Si Si8 0.941481 0.918771 0.658909
O O1 0.555829 0.250000 0.187988
O O2 0.561899 0.081464 0.407152
O O3 0.500000 0.000000 0.267307
O O4 0.628996 0.026000 0.078808
O O5 0.056590 0.250000 0.947548
O O6 0.121258 0.009005 0.828621
O O7 0.055875 0.068245 0.166187
O O8 0.000000 0.000000 0.000000
O O9 0.306091 0.750000 0.617315
O O10 0.371004 0.526000 0.465797
O O11 0.243036 0.534101 0.617219
O O12 0.294160 0.530992 0.808760
O O13 0.444171 0.750000 0.355476
O O14 0.167346 0.750000 0.288049
O O15 0.243036 0.965899 0.153671
O O16 0.168419 0.938857 0.497371
O O17 0.121258 0.009005 0.307605
O O18 0.306091 0.750000 0.964412
O O19 0.832654 0.250000 0.290088
O O20 0.943410 0.750000 0.617319
O O21 0.000000 0.000000 0.500000
#
# Coordination Sequence:
#
# PCOD9161755 Si02
#       8
#     4   4   4   4   4   4   4   4
#     4   8  13  22  38  61  88 119 157 201 248 295
#     4  11  24  40  58  81 107 135 168 204 245 295
#     4   8  14  26  45  68  95 128 164 203 250 301
#     4   8  13  22  38  61  88 119 157 201 248 295
#     4  10  20  34  54  79 104 133 171 211 252 299
#     4   8  14  26  45  68  95 128 164 203 250 301
#     4  10  20  34  54  79 104 133 171 211 252 299
#     4  11  24  40  58  81 107 135 168 204 245 295
#
# _framework density 17.875406000000002
#
# number of rings (size 3 to 8) (size 9 to 14) (size 15 to 20)
#    0.000    2.750    0.000    3.750    0.000    6.500 
#    0.000    1.250    0.000    5.250    0.000    0.000 
#    0.000    0.000    0.000    0.000    0.000    0.000 
#
# Total GULP energy -178395.619432 kJ/mol
# GULP energy per Si atom -5574.863107 kJ/mol
# Density = 1.783472 g / cm^3
# Si number density = 17.875406 Si / 1000 Ang^3
#
#
#
# Elastic Constant Matrix: (Units=GPa)
#
#
# Indices 1 2 3 4 5 6 
#
# 1 145.5287 70.4338 59.5768 0.0000 -38.3192 0.0000
# 2 70.4338 71.5993 55.0259 0.0000 -15.8310 0.0000
# 3 59.5768 55.0259 77.8129 0.0000 -31.2563 0.0000
# 4 0.0000 0.0000 0.0000 21.5058 0.0000 -6.5078
# 5 -38.3192 -15.8310 -31.2563 0.0000 31.5854 0.0000
# 6 0.0000 0.0000 0.0000 -6.5078 0.0000 27.8396
#
#
#
# Elastic Compliance Matrix: (Units=1/GPa)
#
#
# Indices 1 2 3 4 5 6 
#
# 1 0.018736 -0.020220 0.008321 0.000000 0.020830 0.000000
# 2 -0.020220 0.054480 -0.036398 0.000000 -0.033244 0.000000
# 3 0.008321 -0.036398 0.048044 0.000000 0.039395 0.000000
# 4 0.000000 0.000000 0.000000 0.050039 0.000000 0.011697
# 5 0.020830 -0.033244 0.039395 0.000000 0.079254 0.000000
# 6 0.000000 0.000000 0.000000 0.011697 0.000000 0.038654
#
#
# Mechanical properties :
#
#
# Convention : Reuss Voigt Hill
#
# Bulk Modulus (GPa) = 40.54236 73.89043 57.21640
# Shear Modulus (GPa) = 12.68954 23.51309 18.10132
#
# Velocity S-wave (km/s) = 2.66726 3.63076 3.18565
# Velocity P-wave (km/s) = 5.67587 7.68132 6.75345
#
# Compressibility (1/GPa) = 0.02466556
#
# Stress axis : x y z
#
# Youngs Moduli (GPa) = 53.37233 18.35521 20.81415
#
# Poissons Ratio (x) = 0.37115 -0.17319
# Poissons Ratio (y) = 1.07921 0.75760
# Poissons Ratio (z) = -0.44411 0.66810
#
# Static dielectric constant tensor:
#      x y z
#    x 1.616300 0.000000 -0.009310 
#    y 0.000000 1.601090 0.000000 
#    z -0.009310 0.000000 1.607240 
# 
# From -- ./inp_files/27386.got.cif
#   From: 2010.05.17/outbox.cif.g08.bks.cpg/sg11_14_cif.got.tgz:27386.got - 2010.06.03 12:22:45.
