data_PCOD9161245
_publ_section_title
;
Structure prediction by ZEFSAII (Michael W. Deem and Ramdas Pophale) SiO2 
 PCOD9161245
Probable space group: P 21/M
;
_chemical_formula_sum "Si O2"
_cell_formula_units_Z 24
_cell_length_a 17.893096
_cell_length_b 9.352240
_cell_length_c 22.195731
_cell_angle_alpha 90.000000
_cell_angle_beta 162.148408
_cell_angle_gamma 90.000000
_cell_volume 1138.611294
_symmetry_space_group_name_H-M "P 21/M"
_symmetry_group_IT_number 11
_symmetry_cell_setting 'monoclinic'
loop_
_space_group_symop_operation_xyz
x,y,z
-x,1/2+y,-z
-x,-y,-z
x,1/2-y,z
loop_
_atom_site_type_symbol
_atom_site_label
_atom_site_fract_x
_atom_site_fract_y
_atom_site_fract_z
Si Si1 0.487496 0.579542 0.403681
Si Si2 0.809590 0.910283 0.547211
Si Si3 0.366327 0.910698 0.788502
Si Si4 0.110842 0.580653 0.207868
Si Si5 0.772760 0.412668 0.029823
Si Si6 0.058973 0.090003 0.636029
O O1 0.541956 0.750000 0.457165
O O2 0.556455 0.555530 0.386997
O O3 0.217367 0.555750 0.222532
O O4 0.668347 0.477581 0.580359
O O5 0.798079 0.750000 0.512154
O O6 0.007117 0.907675 0.752774
O O7 0.908835 0.020327 0.575079
O O8 0.455317 0.750000 0.868241
O O9 0.130959 0.900224 0.564811
O O10 0.277088 0.990128 0.780168
O O11 0.560197 0.002648 0.900176
O O12 0.074919 0.750000 0.189094
O O13 0.877671 0.494346 0.052190
O O14 0.702004 0.250000 0.961470
O O15 0.142637 0.250000 0.714635
#
# Coordination Sequence:
#
# PCOD9161245 Si02
#       6
#     4   4   4   4   4   4
#     4   8  15  27  43  67  99 132 165 199 237 285
#     4   9  18  32  50  74 103 132 162 199 243 288
#     4  10  21  37  55  73  95 127 165 202 244 295
#     4   9  15  25  44  69  98 131 164 200 241 284
#     4  10  20  33  50  75 104 131 163 203 245 289
#     4  10  21  36  54  75  97 125 163 203 244 294
#
# _framework density 21.078309000000001
#
# number of rings (size 3 to 8) (size 9 to 14) (size 15 to 20)
#    0.000    2.667    0.000    3.000    0.000    6.667 
#    0.000    0.000    0.000    1.000    0.000    0.000 
#    0.000    0.000    0.000    0.000    0.000    0.000 
#
# Total GULP energy -133868.037796 kJ/mol
# GULP energy per Si atom -5577.834908 kJ/mol
# Density = 2.103033 g / cm^3
# Si number density = 21.078309 Si / 1000 Ang^3
#
#
#
# Elastic Constant Matrix: (Units=GPa)
#
#
# Indices 1 2 3 4 5 6 
#
# 1 136.3013 95.0788 20.8259 0.0000 46.7612 0.0000
# 2 95.0788 174.1987 35.5866 0.0000 50.1001 0.0000
# 3 20.8259 35.5866 59.1078 0.0000 24.1633 0.0000
# 4 0.0000 0.0000 0.0000 21.0175 0.0000 11.6499
# 5 46.7612 50.1001 24.1633 0.0000 57.9155 0.0000
# 6 0.0000 0.0000 0.0000 11.6499 0.0000 26.7442
#
#
#
# Elastic Compliance Matrix: (Units=1/GPa)
#
#
# Indices 1 2 3 4 5 6 
#
# 1 0.013289 -0.005699 0.001350 0.000000 -0.006363 0.000000
# 2 -0.005699 0.010352 -0.002947 0.000000 -0.003124 0.000000
# 3 0.001350 -0.002947 0.021244 0.000000 -0.007404 0.000000
# 4 0.000000 0.000000 0.000000 0.062725 0.000000 -0.027323
# 5 -0.006363 -0.003124 -0.007404 0.000000 0.028195 0.000000
# 6 0.000000 0.000000 0.000000 -0.027323 0.000000 0.049293
#
#
# Mechanical properties :
#
#
# Convention : Reuss Voigt Hill
#
# Bulk Modulus (GPa) = 33.01264 74.73227 53.87245
# Shear Modulus (GPa) = 23.83380 35.67653 29.75517
#
# Velocity S-wave (km/s) = 3.36628 4.11855 3.76127
# Velocity P-wave (km/s) = 5.55022 7.62549 6.66908
#
# Compressibility (1/GPa) = 0.03029143
#
# Stress axis : x y z
#
# Youngs Moduli (GPa) = 75.25254 96.60383 47.07283
#
# Poissons Ratio (x) = 0.55053 -0.06355
# Poissons Ratio (y) = 0.42886 0.13874
# Poissons Ratio (z) = -0.10160 0.28473
#
# Static dielectric constant tensor:
#      x y z
#    x 1.775490 0.000000 0.000840 
#    y 0.000000 1.744470 0.000000 
#    z 0.000840 0.000000 1.790530 
# 
# From -- ./inp_files/40510.got.cif
#   From: 2010.05.17/outbox.cif.g08.bks.cpg/sg11_21_cif.got.tgz:40510.got - 2010.06.03 12:22:45.
