data_PCOD9161007
_publ_section_title
;
Structure prediction by ZEFSAII (Michael W. Deem and Ramdas Pophale) SiO2 
 PCOD9161007
Probable space group: P 21/M
;
_chemical_formula_sum "Si O2"
_cell_formula_units_Z 28
_cell_length_a 25.618757
_cell_length_b 7.498414
_cell_length_c 28.998555
_cell_angle_alpha 90.000000
_cell_angle_beta 165.950041
_cell_angle_gamma 90.000000
_cell_volume 1352.368363
_symmetry_space_group_name_H-M "P 21/M"
_symmetry_group_IT_number 11
_symmetry_cell_setting 'monoclinic'
loop_
_space_group_symop_operation_xyz
x,y,z
-x,1/2+y,-z
-x,-y,-z
x,1/2-y,z
loop_
_atom_site_type_symbol
_atom_site_label
_atom_site_fract_x
_atom_site_fract_y
_atom_site_fract_z
Si Si1 0.308331 0.036839 0.171323
Si Si2 0.831625 0.467126 0.786201
Si Si3 0.493782 0.543397 0.570132
Si Si4 0.980919 0.967959 0.630439
Si Si5 0.385735 0.531954 0.037518
Si Si6 0.499011 0.536769 0.235775
Si Si7 0.133237 0.462717 0.568458
O O1 0.301167 0.250000 0.171455
O O2 0.475486 0.965673 0.352748
O O3 0.376108 0.004788 0.177222
O O4 0.071252 0.971243 0.981052
O O5 0.826051 0.250000 0.783019
O O6 0.722409 0.531994 0.739694
O O7 0.678240 0.532830 0.613066
O O8 0.431981 0.750000 0.522204
O O9 0.986169 0.750000 0.635771
O O10 0.747446 0.025042 0.449558
O O11 0.979188 0.025584 0.575293
O O12 0.183243 0.029414 0.833922
O O13 0.380511 0.750000 0.032233
O O14 0.387290 0.474812 0.092556
O O15 0.618980 0.474200 0.217990
O O16 0.509159 0.750000 0.240694
O O17 0.147124 0.250000 0.575795
O O18 0.000000 0.500000 0.500000
#
# Coordination Sequence:
#
# PCOD9161007 Si02
#       7
#     4   4   4   4   4   4   4
#     4  10  20  32  46  66  94 122 143 176 231 278
#     4   9  18  32  48  66  89 117 148 181 220 268
#     4   9  18  32  48  66  89 117 148 181 220 268
#     4   8  15  30  49  66  89 122 154 185 223 262
#     4   8  15  30  49  66  89 122 154 185 223 262
#     4   9  18  31  48  69  87 111 155 196 218 253
#     4   9  17  29  47  71  96 121 150 184 222 265
#
# _framework density 20.704416999999999
#
# number of rings (size 3 to 8) (size 9 to 14) (size 15 to 20)
#    0.000    3.143    0.000    2.143    0.000    2.857 
#    0.000    2.857    0.000    1.714    0.000    0.000 
#    0.000    0.000    0.000    0.000    0.000    0.000 
#
# Total GULP energy -156147.211654 kJ/mol
# GULP energy per Si atom -5576.686131 kJ/mol
# Density = 2.065729 g / cm^3
# Si number density = 20.704417 Si / 1000 Ang^3
#
#
#
# Elastic Constant Matrix: (Units=GPa)
#
#
# Indices 1 2 3 4 5 6 
#
# 1 98.6233 -13.1669 54.6247 0.0000 -20.4681 0.0000
# 2 -13.1669 51.9719 -0.8021 0.0000 -5.2193 0.0000
# 3 54.6247 -0.8021 118.2599 0.0000 -34.3435 0.0000
# 4 0.0000 0.0000 0.0000 0.2557 0.0000 4.3455
# 5 -20.4681 -5.2193 -34.3435 0.0000 20.2985 0.0000
# 6 0.0000 0.0000 0.0000 4.3455 0.0000 23.7128
#
#
#
# Elastic Compliance Matrix: (Units=1/GPa)
#
#
# Indices 1 2 3 4 5 6 
#
# 1 0.015012 0.004657 -0.004244 0.000000 0.009154 0.000000
# 2 0.004657 0.021817 0.001946 0.000000 0.013597 0.000000
# 3 -0.004244 0.001946 0.018346 0.000000 0.027261 0.000000
# 4 0.000000 0.000000 0.000000 -1.849555 0.000000 0.338941
# 5 0.009154 0.013597 0.027261 0.000000 0.108116 0.000000
# 6 0.000000 0.000000 0.000000 0.338941 0.000000 -0.019941
#
#
# Mechanical properties :
#
#
# Convention : Reuss Voigt Hill
#
# Bulk Modulus (GPa) = 16.69667 38.90737 27.80202
# Shear Modulus (GPa) = -2.95690 24.06670 10.55490
#
# Velocity S-wave (km/s) = -1.19635 3.41309 2.26030
# Velocity P-wave (km/s) = 2.48465 5.86215 4.50213
#
# Compressibility (1/GPa) = 0.05989217
#
# Stress axis : x y z
#
# Youngs Moduli (GPa) = 66.61423 45.83675 54.50669
#
# Poissons Ratio (x) = -0.21346 0.23133
# Poissons Ratio (y) = -0.31022 -0.10605
# Poissons Ratio (z) = 0.28271 -0.08918
#
# Static dielectric constant tensor:
#      x y z
#    x 1.732650 0.000000 -0.025360 
#    y 0.000000 1.778230 0.000000 
#    z -0.025360 0.000000 1.741160 
# 
# From -- ./inp_files/61528.got.cif
#   From: 2010.05.17/outbox.cif.g08.bks.cpg/sg11_31_cif.got.tgz:61528.got - 2010.06.03 12:22:45.
