data_PCOD9161795
_publ_section_title
;
Structure prediction by ZEFSAII (Michael W. Deem and Ramdas Pophale) SiO2 
 PCOD9161795
Probable space group: P 21/M
;
_chemical_formula_sum "Si O2"
_cell_formula_units_Z 24
_cell_length_a 18.614024
_cell_length_b 8.558842
_cell_length_c 25.350885
_cell_angle_alpha 90.000000
_cell_angle_beta 162.058838
_cell_angle_gamma 90.000000
_cell_volume 1244.101364
_symmetry_space_group_name_H-M "P 21/M"
_symmetry_group_IT_number 11
_symmetry_cell_setting 'monoclinic'
loop_
_space_group_symop_operation_xyz
x,y,z
-x,1/2+y,-z
-x,-y,-z
x,1/2-y,z
loop_
_atom_site_type_symbol
_atom_site_label
_atom_site_fract_x
_atom_site_fract_y
_atom_site_fract_z
Si Si1 0.392107 0.063182 0.617562
Si Si2 0.527926 0.563795 0.604644
Si Si3 0.533286 0.938554 0.106173
Si Si4 0.401374 0.940508 0.127058
Si Si5 0.863513 0.938730 0.744058
Si Si6 0.871289 0.562675 0.249546
O O1 0.388434 0.250000 0.615843
O O2 0.492748 0.005299 0.743726
O O3 0.541747 0.008585 0.672041
O O4 0.130169 0.002144 0.427041
O O5 0.527986 0.750000 0.609022
O O6 0.288451 0.509655 0.409281
O O7 0.732783 0.517334 0.707176
O O8 0.524645 0.750000 0.099245
O O9 0.540723 0.990059 0.172052
O O10 0.745986 0.986936 0.216942
O O11 0.297299 0.000027 0.914130
O O12 0.403288 0.750000 0.129547
O O13 0.131779 0.987880 0.932210
O O14 0.854409 0.750000 0.732931
O O15 0.876499 0.750000 0.250955
#
# Coordination Sequence:
#
# PCOD9161795 Si02
#       6
#     4   4   4   4   4   4
#     4  11  22  35  52  74 104 143 180 213 256 310
#     4  10  20  34  54  81 108 134 171 218 264 310
#     4   9  18  35  58  80 104 136 173 215 262 312
#     4   9  19  35  54  76 102 137 178 213 254 314
#     4   9  18  35  58  80 104 136 173 215 262 312
#     4  10  20  34  54  81 108 134 171 218 264 310
#
# _framework density 19.291032000000001
#
# number of rings (size 3 to 8) (size 9 to 14) (size 15 to 20)
#    0.000    2.333    0.000    2.500    0.000    4.000 
#    0.000    3.333    0.000    0.000    0.000    0.000 
#    0.000    0.000    0.000    0.000    0.000    0.000 
#
# Total GULP energy -134001.034439 kJ/mol
# GULP energy per Si atom -5583.376435 kJ/mol
# Density = 1.924712 g / cm^3
# Si number density = 19.291032 Si / 1000 Ang^3
#
#
#
# Elastic Constant Matrix: (Units=GPa)
#
#
# Indices 1 2 3 4 5 6 
#
# 1 133.0269 15.3614 18.5259 0.0000 -27.0986 0.0000
# 2 15.3614 11.4062 0.9620 0.0000 -2.3489 0.0000
# 3 18.5259 0.9620 3.7247 0.0000 0.9965 0.0000
# 4 0.0000 0.0000 0.0000 17.1583 0.0000 -0.4431
# 5 -27.0986 -2.3489 0.9965 0.0000 23.2163 0.0000
# 6 0.0000 0.0000 0.0000 -0.4431 0.0000 26.8801
#
#
#
# Elastic Compliance Matrix: (Units=1/GPa)
#
#
# Indices 1 2 3 4 5 6 
#
# 1 -0.120199 0.076760 0.620607 0.000000 -0.159170 0.000000
# 2 0.076760 0.043047 -0.422898 0.000000 0.112103 0.000000
# 3 0.620607 -0.422898 -2.925020 0.000000 0.807146 0.000000
# 4 0.000000 0.000000 0.000000 0.058306 0.000000 0.000961
# 5 -0.159170 0.112103 0.807146 0.000000 -0.166016 0.000000
# 6 0.000000 0.000000 0.000000 0.000961 0.000000 0.037218
#
#
# Mechanical properties :
#
#
# Convention : Reuss Voigt Hill
#
# Bulk Modulus (GPa) = -0.40763 24.20626 11.89932
# Shear Modulus (GPa) = -1.12629 21.00485 9.93928
#
# Velocity S-wave (km/s) = -0.76492 3.30334 2.27233
# Velocity P-wave (km/s) = 0.99595 5.20812 3.61474
#
# Compressibility (1/GPa) = -2.45323499
#
# Stress axis : x y z
#
# Youngs Moduli (GPa) = -8.31953 23.23049 -0.34188
#
# Poissons Ratio (x) = -1.78317 0.21217
# Poissons Ratio (y) = 0.63861 -0.14458
# Poissons Ratio (z) = 5.16316 9.82412
#
# Static dielectric constant tensor:
#      x y z
#    x 1.701000 0.000000 0.003330 
#    y 0.000000 1.649440 0.000000 
#    z 0.003330 0.000000 1.629550 
# 
# From -- ./inp_files/46469.got.cif
#   From: 2010.05.17/outbox.cif.g08.bks.cpg/sg11_24_cif.got.tgz:46469.got - 2010.06.03 12:22:45.
