data_PCOD9161463
_publ_section_title
;
Structure prediction by ZEFSAII (Michael W. Deem and Ramdas Pophale) SiO2 
 PCOD9161463
Probable space group: P 21/M
;
_chemical_formula_sum "Si O2"
_cell_formula_units_Z 32
_cell_length_a 5.727134
_cell_length_b 9.369440
_cell_length_c 28.064978
_cell_angle_alpha 90.000000
_cell_angle_beta 90.070765
_cell_angle_gamma 90.000000
_cell_volume 1505.966648
_symmetry_space_group_name_H-M "P 21/M"
_symmetry_group_IT_number 11
_symmetry_cell_setting 'monoclinic'
loop_
_space_group_symop_operation_xyz
x,y,z
-x,1/2+y,-z
-x,-y,-z
x,1/2-y,z
loop_
_atom_site_type_symbol
_atom_site_label
_atom_site_fract_x
_atom_site_fract_y
_atom_site_fract_z
Si Si1 0.303637 0.421449 0.662398
Si Si2 0.325883 0.410281 0.032936
Si Si3 0.949924 0.084749 0.898473
Si Si4 0.799535 0.423776 0.709434
Si Si5 0.305325 0.405977 0.475408
Si Si6 0.270086 0.416715 0.191335
Si Si7 0.032059 0.092696 0.572709
Si Si8 0.657488 0.403423 0.123206
O O1 0.314254 0.250000 0.666732
O O2 0.560359 0.468442 0.680780
O O3 0.241284 0.454088 0.607279
O O4 0.057040 0.463686 0.688294
O O5 0.268204 0.250000 0.014836
O O6 0.113799 0.506857 0.051910
O O7 0.463593 0.390577 0.082577
O O8 0.500000 0.500000 0.000000
O O9 0.887747 0.250000 0.899570
O O10 0.847132 0.004017 0.852034
O O11 0.218671 0.049789 0.889952
O O12 0.797086 0.250000 0.713475
O O13 0.775173 0.499642 0.760401
O O14 0.500000 0.500000 0.500000
O O15 0.394460 0.250000 0.462447
O O16 0.123760 0.390540 0.519166
O O17 0.178204 0.482781 0.431687
O O18 0.197397 0.250000 0.193931
O O19 0.540835 0.413435 0.174821
O O20 0.949507 0.250000 0.589456
O O21 0.791643 0.250000 0.119964
#
# Coordination Sequence:
#
# PCOD9161463 Si02
#       8
#     4   4   4   4   4   4   4   4
#     4   9  20  37  61  88 119 156 202 252 301 360
#     4  10  21  38  58  82 116 153 192 237 289 349
#     4  11  22  36  59  87 113 147 191 241 293 348
#     4  10  21  38  60  90 119 154 203 252 302 360
#     4  10  20  33  55  84 114 150 195 246 298 357
#     4  10  22  40  60  83 115 152 190 239 295 356
#     4   9  19  36  57  81 112 154 197 243 297 356
#     4   9  20  38  58  81 111 149 189 234 287 346
#
# _framework density 21.248809999999999
#
# number of rings (size 3 to 8) (size 9 to 14) (size 15 to 20)
#    0.000    2.250    0.000    3.000    3.500    4.000 
#    0.000    1.250    0.000    0.000    0.000    0.000 
#    0.000    0.000    0.000    0.000    0.000    0.000 
#
# Total GULP energy -178135.553701 kJ/mol
# GULP energy per Si atom -5566.736053 kJ/mol
# Density = 2.120045 g / cm^3
# Si number density = 21.248810 Si / 1000 Ang^3
#
#
#
# Elastic Constant Matrix: (Units=GPa)
#
#
# Indices 1 2 3 4 5 6 
#
# 1 53.3820 15.4616 5.4518 0.0000 5.5698 0.0000
# 2 15.4616 107.4657 10.3911 0.0000 2.3717 0.0000
# 3 5.4518 10.3911 72.0440 0.0000 -1.9630 0.0000
# 4 0.0000 0.0000 0.0000 23.4876 0.0000 2.0122
# 5 5.5698 2.3717 -1.9630 0.0000 30.1667 0.0000
# 6 0.0000 0.0000 0.0000 2.0122 0.0000 22.7307
#
#
#
# Elastic Compliance Matrix: (Units=1/GPa)
#
#
# Indices 1 2 3 4 5 6 
#
# 1 0.020006 -0.002681 -0.001224 0.000000 -0.003563 0.000000
# 2 -0.002681 0.009817 -0.001223 0.000000 -0.000356 0.000000
# 3 -0.001224 -0.001223 0.014183 0.000000 0.001245 0.000000
# 4 0.000000 0.000000 0.000000 0.042901 0.000000 -0.003798
# 5 -0.003563 -0.000356 0.001245 0.000000 0.033916 0.000000
# 6 0.000000 0.000000 0.000000 -0.003798 0.000000 0.044330
#
#
# Mechanical properties :
#
#
# Convention : Reuss Voigt Hill
#
# Bulk Modulus (GPa) = 29.62964 32.83340 31.23152
# Shear Modulus (GPa) = 26.78664 28.71614 27.75139
#
# Velocity S-wave (km/s) = 3.55437 3.68016 3.61781
# Velocity P-wave (km/s) = 5.55150 5.79168 5.67286
#
# Compressibility (1/GPa) = 0.03374998
#
# Stress axis : x y z
#
# Youngs Moduli (GPa) = 49.98420 101.86225 70.50531
#
# Poissons Ratio (x) = 0.27313 0.08632
# Poissons Ratio (y) = 0.13403 0.08621
# Poissons Ratio (z) = 0.06119 0.12455
#
# Static dielectric constant tensor:
#      x y z
#    x 1.886890 0.000000 -0.014730 
#    y 0.000000 1.854910 0.000000 
#    z -0.014730 0.000000 1.769160 
# 
# From -- ./inp_files/72604.got.cif
#   From: 2010.05.17/outbox.cif.g08.bks.cpg/sg11_37_cif.got.tgz:72604.got - 2010.06.03 12:22:45.
