data_PCOD9161656
_publ_section_title
;
Structure prediction by ZEFSAII (Michael W. Deem and Ramdas Pophale) SiO2 
 PCOD9161656
Probable space group: P 21/M
;
_chemical_formula_sum "Si O2"
_cell_formula_units_Z 32
_cell_length_a 7.164371
_cell_length_b 9.047061
_cell_length_c 28.875807
_cell_angle_alpha 90.000000
_cell_angle_beta 92.070077
_cell_angle_gamma 90.000000
_cell_volume 1870.407352
_symmetry_space_group_name_H-M "P 21/M"
_symmetry_group_IT_number 11
_symmetry_cell_setting 'monoclinic'
loop_
_space_group_symop_operation_xyz
x,y,z
-x,1/2+y,-z
-x,-y,-z
x,1/2-y,z
loop_
_atom_site_type_symbol
_atom_site_label
_atom_site_fract_x
_atom_site_fract_y
_atom_site_fract_z
Si Si1 0.497648 0.427062 0.571700
Si Si2 0.798396 0.073646 0.496769
Si Si3 0.223117 0.925930 0.745711
Si Si4 0.800272 0.926117 0.005808
Si Si5 0.177051 0.926517 0.244491
Si Si6 0.502910 0.072850 0.679195
Si Si7 0.479900 0.926909 0.928259
Si Si8 0.545427 0.926741 0.822617
O O1 0.466410 0.250000 0.568460
O O2 0.324959 0.509660 0.546326
O O3 0.679569 0.460521 0.542228
O O4 0.521552 0.466608 0.625565
O O5 0.814831 0.250000 0.493068
O O6 0.000000 0.000000 0.500000
O O7 0.202774 0.750000 0.741158
O O8 0.360388 0.956180 0.790477
O O9 0.331167 0.991715 0.702424
O O10 0.023857 0.000678 0.751094
O O11 0.819661 0.750000 0.009959
O O12 0.662133 0.957935 0.961267
O O13 0.693280 0.991242 0.049403
O O14 0.000000 0.000000 0.000000
O O15 0.160235 0.750000 0.241216
O O16 0.311897 0.962223 0.289387
O O17 0.285091 0.989963 0.200823
O O18 0.474247 0.250000 0.682177
O O19 0.446649 0.750000 0.929604
O O20 0.514369 0.969568 0.875509
O O21 0.580658 0.750000 0.821211
#
# Coordination Sequence:
#
# PCOD9161656 Si02
#       8
#     4   4   4   4   4   4   4   4
#     4   9  19  36  55  74 100 135 173 212 253 299
#     4  10  20  34  53  78 106 136 171 211 256 304
#     4  10  20  34  53  77 104 133 167 210 256 300
#     4  10  20  34  53  76 103 133 167 210 256 304
#     4  10  20  34  53  77 105 136 170 209 253 304
#     4   9  19  36  55  74  99 134 173 210 251 300
#     4   9  19  36  55  74  99 134 173 210 252 303
#     4   9  19  36  55  74 100 135 173 212 253 300
#
# _framework density 17.108574000000001
#
# number of rings (size 3 to 8) (size 9 to 14) (size 15 to 20)
#    0.000    2.500    0.000    1.500    0.000    5.000 
#    0.000    7.500    0.000    0.000    0.000    0.000 
#    0.000    0.000    0.000    0.000    0.000    0.000 
#
# Total GULP energy -178563.062006 kJ/mol
# GULP energy per Si atom -5580.095688 kJ/mol
# Density = 1.706963 g / cm^3
# Si number density = 17.108574 Si / 1000 Ang^3
#
#
#
# Elastic Constant Matrix: (Units=GPa)
#
#
# Indices 1 2 3 4 5 6 
#
# 1 150.4926 67.3813 59.6144 0.0000 -15.7104 0.0000
# 2 67.3813 47.9542 48.7864 0.0000 -7.0897 0.0000
# 3 59.6144 48.7864 140.8426 0.0000 -14.3839 0.0000
# 4 0.0000 0.0000 0.0000 28.3790 0.0000 -3.7840
# 5 -15.7104 -7.0897 -14.3839 0.0000 8.7267 0.0000
# 6 0.0000 0.0000 0.0000 -3.7840 0.0000 37.7305
#
#
#
# Elastic Compliance Matrix: (Units=1/GPa)
#
#
# Indices 1 2 3 4 5 6 
#
# 1 0.020371 -0.029401 0.003448 0.000000 0.018471 0.000000
# 2 -0.029401 0.075282 -0.015381 0.000000 -0.017121 0.000000
# 3 0.003448 -0.015381 0.012416 0.000000 0.014177 0.000000
# 4 0.000000 0.000000 0.000000 0.035715 0.000000 0.003582
# 5 0.018471 -0.017121 0.014177 0.000000 0.157302 0.000000
# 6 0.000000 0.000000 0.000000 0.003582 0.000000 0.026863
#
#
# Mechanical properties :
#
#
# Convention : Reuss Voigt Hill
#
# Bulk Modulus (GPa) = 39.36749 76.76151 58.06450
# Shear Modulus (GPa) = 11.93081 25.86772 18.89927
#
# Velocity S-wave (km/s) = 2.64362 3.89263 3.32726
# Velocity P-wave (km/s) = 5.69022 8.07268 6.98379
#
# Compressibility (1/GPa) = 0.02540167
#
# Stress axis : x y z
#
# Youngs Moduli (GPa) = 49.08899 13.28347 80.53956
#
# Poissons Ratio (x) = 0.39055 -0.27771
# Poissons Ratio (y) = 1.44327 1.23876
# Poissons Ratio (z) = -0.16926 0.20431
#
# Static dielectric constant tensor:
#      x y z
#    x 1.543500 0.000000 0.006660 
#    y 0.000000 1.570200 0.000000 
#    z 0.006660 0.000000 1.566460 
# 
# From -- ./inp_files/72582.got.cif
#   From: 2010.05.17/outbox.cif.g08.bks.cpg/sg11_37_cif.got.tgz:72582.got - 2010.06.03 12:22:45.
