data_PCOD9161084
_publ_section_title
;
Structure prediction by ZEFSAII (Michael W. Deem and Ramdas Pophale) SiO2 
 PCOD9161084
Probable space group: P 21/M
;
_chemical_formula_sum "Si O2"
_cell_formula_units_Z 24
_cell_length_a 27.009999
_cell_length_b 8.976788
_cell_length_c 11.742094
_cell_angle_alpha 90.000000
_cell_angle_beta 150.958156
_cell_angle_gamma 90.000000
_cell_volume 1382.082665
_symmetry_space_group_name_H-M "P 21/M"
_symmetry_group_IT_number 11
_symmetry_cell_setting 'monoclinic'
loop_
_space_group_symop_operation_xyz
x,y,z
-x,1/2+y,-z
-x,-y,-z
x,1/2-y,z
loop_
_atom_site_type_symbol
_atom_site_label
_atom_site_fract_x
_atom_site_fract_y
_atom_site_fract_z
Si Si1 0.105593 0.419429 0.231754
Si Si2 0.386095 0.425914 0.903261
Si Si3 0.376195 0.574595 0.633471
Si Si4 0.805119 0.580806 0.841210
Si Si5 0.994563 0.430681 0.613630
Si Si6 0.795277 0.072842 0.357921
O O1 0.095391 0.250000 0.255104
O O2 0.156761 0.411548 0.212036
O O3 0.163786 0.522035 0.437131
O O4 0.000000 0.500000 0.000000
O O5 0.363640 0.250000 0.850587
O O6 0.366553 0.495033 0.737803
O O7 0.315744 0.496809 0.860404
O O8 0.506307 0.447490 0.166923
O O9 0.358310 0.750000 0.615182
O O10 0.297501 0.514150 0.380573
O O11 0.781805 0.750000 0.832715
O O12 0.902889 0.524845 0.110053
O O13 0.995352 0.250000 0.612022
O O14 0.887011 0.473977 0.457342
O O15 0.000000 0.500000 0.500000
O O16 0.784420 0.250000 0.327408
#
# Coordination Sequence:
#
# PCOD9161084 Si02
#       6
#     4   4   4   4   4   4
#     4  11  20  31  49  77 111 143 174 212 264 324
#     4  10  20  33  49  77 114 147 180 217 260 314
#     4  10  20  32  50  78 112 147 182 216 257 316
#     4  10  20  35  53  76 111 143 175 219 266 317
#     4  10  23  41  57  78 105 137 178 226 272 318
#     4  11  21  35  54  78 110 142 178 220 265 320
#
# _framework density 17.365096999999999
#
# number of rings (size 3 to 8) (size 9 to 14) (size 15 to 20)
#    0.000    1.667    3.333    2.000    0.000    4.667 
#    0.000    0.000    0.000    1.000    0.000    0.000 
#    0.000    0.000    0.000    0.000    0.000    0.000 
#
# Total GULP energy -133717.056976 kJ/mol
# GULP energy per Si atom -5571.544041 kJ/mol
# Density = 1.732557 g / cm^3
# Si number density = 17.365097 Si / 1000 Ang^3
#
#
#
# Elastic Constant Matrix: (Units=GPa)
#
#
# Indices 1 2 3 4 5 6 
#
# 1 90.4513 40.2218 63.9073 0.0000 10.3812 0.0000
# 2 40.2218 61.4427 55.0227 0.0000 19.4628 0.0000
# 3 63.9073 55.0227 100.8251 0.0000 25.7388 0.0000
# 4 0.0000 0.0000 0.0000 27.7818 0.0000 2.5486
# 5 10.3812 19.4628 25.7388 0.0000 25.8943 0.0000
# 6 0.0000 0.0000 0.0000 2.5486 0.0000 25.4486
#
#
#
# Elastic Compliance Matrix: (Units=1/GPa)
#
#
# Indices 1 2 3 4 5 6 
#
# 1 0.021515 -0.005044 -0.012932 0.000000 0.008020 0.000000
# 2 -0.005044 0.034630 -0.012828 0.000000 -0.011256 0.000000
# 3 -0.012932 -0.012828 0.028584 0.000000 -0.013586 0.000000
# 4 0.000000 0.000000 0.000000 0.036329 0.000000 -0.003638
# 5 0.008020 -0.011256 -0.013586 0.000000 0.057367 0.000000
# 6 0.000000 0.000000 0.000000 -0.003638 0.000000 0.039659
#
#
# Mechanical properties :
#
#
# Convention : Reuss Voigt Hill
#
# Bulk Modulus (GPa) = 43.25038 63.44698 53.34868
# Shear Modulus (GPa) = 17.39738 22.06276 19.73007
#
# Velocity S-wave (km/s) = 3.16865 3.56831 3.37440
# Velocity P-wave (km/s) = 6.19255 7.32076 6.78016
#
# Compressibility (1/GPa) = 0.02312118
#
# Stress axis : x y z
#
# Youngs Moduli (GPa) = 46.47914 28.87630 34.98501
#
# Poissons Ratio (x) = 0.14565 0.45242
# Poissons Ratio (y) = 0.23444 0.44879
# Poissons Ratio (z) = 0.60106 0.37043
#
# Static dielectric constant tensor:
#      x y z
#    x 1.583710 0.000000 0.047110 
#    y 0.000000 1.634080 0.000000 
#    z 0.047110 0.000000 1.642160 
# 
# From -- ./inp_files/40512.got.cif
#   From: 2010.05.17/outbox.cif.g08.bks.cpg/sg11_21_cif.got.tgz:40512.got - 2010.06.03 12:22:45.
