data_PCOD9161359
_publ_section_title
;
Structure prediction by ZEFSAII (Michael W. Deem and Ramdas Pophale) SiO2 
 PCOD9161359
Probable space group: P 21/M
;
_chemical_formula_sum "Si O2"
_cell_formula_units_Z 32
_cell_length_a 16.248557
_cell_length_b 8.652506
_cell_length_c 26.174582
_cell_angle_alpha 90.000000
_cell_angle_beta 29.602726
_cell_angle_gamma 90.000000
_cell_volume 1817.810768
_symmetry_space_group_name_H-M "P 21/M"
_symmetry_group_IT_number 11
_symmetry_cell_setting 'monoclinic'
loop_
_space_group_symop_operation_xyz
x,y,z
-x,1/2+y,-z
-x,-y,-z
x,1/2-y,z
loop_
_atom_site_type_symbol
_atom_site_label
_atom_site_fract_x
_atom_site_fract_y
_atom_site_fract_z
Si Si1 0.776036 0.563030 0.580136
Si Si2 0.719677 0.565192 0.929896
Si Si3 0.530207 0.437387 0.323608
Si Si4 0.848757 0.065158 0.650551
Si Si5 0.391408 0.564049 0.604774
Si Si6 0.094072 0.935852 0.900161
Si Si7 0.360048 0.065167 0.143191
Si Si8 0.968377 0.934338 0.177029
O O1 0.769909 0.750000 0.587703
O O2 0.624504 0.508567 0.626493
O O3 0.769635 0.492850 0.640132
O O4 0.955453 0.522515 0.459075
O O5 0.732653 0.750000 0.927077
O O6 0.713171 0.523368 0.873159
O O7 0.873505 0.488341 0.875730
O O8 0.542924 0.509969 0.047887
O O9 0.524564 0.250000 0.326232
O O10 0.529235 0.484194 0.383481
O O11 0.710633 0.482005 0.204250
O O12 0.836895 0.250000 0.660068
O O13 0.757637 0.991386 0.747948
O O14 0.500000 0.500000 0.500000
O O15 0.386145 0.750000 0.605944
O O16 0.202906 0.501150 0.706963
O O17 0.085353 0.750000 0.903668
O O18 0.022121 0.000746 0.885855
O O19 0.000000 0.000000 0.000000
O O20 0.377672 0.250000 0.135418
O O21 0.959427 0.750000 0.180438
#
# Coordination Sequence:
#
# PCOD9161359 Si02
#       8
#     4   4   4   4   4   4   4   4
#     4   9  18  35  55  74 101 139 182 224 267 315
#     4  10  21  38  58  81 109 140 179 226 270 316
#     4   8  17  34  55  76 101 137 179 223 268 316
#     4  10  20  33  52  79 109 140 175 220 270 319
#     4  10  20  36  56  81 111 142 181 228 277 327
#     4  10  20  36  56  79 109 142 181 230 279 327
#     4  10  21  37  57  80 108 142 178 219 269 325
#     4  11  22  37  57  81 110 146 184 222 272 328
#
# _framework density 17.603591999999999
#
# number of rings (size 3 to 8) (size 9 to 14) (size 15 to 20)
#    0.000    2.250    0.000    3.750    0.000    4.000 
#    0.000    8.750    0.000    0.000    0.000    0.000 
#    0.000    0.000    0.000    0.000    0.000    0.000 
#
# Total GULP energy -178625.023458 kJ/mol
# GULP energy per Si atom -5582.031983 kJ/mol
# Density = 1.756353 g / cm^3
# Si number density = 17.603592 Si / 1000 Ang^3
#
#
#
# Elastic Constant Matrix: (Units=GPa)
#
#
# Indices 1 2 3 4 5 6 
#
# 1 150.6812 49.7253 105.2448 0.0000 -16.4192 0.0000
# 2 49.7253 71.3020 49.2067 0.0000 1.0405 0.0000
# 3 105.2448 49.2067 141.2248 0.0000 21.2053 0.0000
# 4 0.0000 0.0000 0.0000 32.0558 0.0000 2.4123
# 5 -16.4192 1.0405 21.2053 0.0000 29.7576 0.0000
# 6 0.0000 0.0000 0.0000 2.4123 0.0000 26.7026
#
#
#
# Elastic Compliance Matrix: (Units=1/GPa)
#
#
# Indices 1 2 3 4 5 6 
#
# 1 0.030644 -0.003119 -0.027217 0.000000 0.036412 0.000000
# 2 -0.003119 0.019314 -0.004530 0.000000 0.000832 0.000000
# 3 -0.027217 -0.004530 0.034909 0.000000 -0.039735 0.000000
# 4 0.000000 0.000000 0.000000 0.031409 0.000000 -0.002838
# 5 0.036412 0.000832 -0.039735 0.000000 0.081982 0.000000
# 6 0.000000 0.000000 0.000000 -0.002838 0.000000 0.037706
#
#
# Mechanical properties :
#
#
# Convention : Reuss Voigt Hill
#
# Bulk Modulus (GPa) = 66.07682 85.72909 75.90295
# Shear Modulus (GPa) = 16.09053 28.30528 22.19790
#
# Velocity S-wave (km/s) = 3.02660 4.01425 3.55489
# Velocity P-wave (km/s) = 7.05912 8.38398 7.74991
#
# Compressibility (1/GPa) = 0.01513390
#
# Stress axis : x y z
#
# Youngs Moduli (GPa) = 32.63310 51.77541 28.64600
#
# Poissons Ratio (x) = 0.16148 0.77967
# Poissons Ratio (y) = 0.10178 0.12977
# Poissons Ratio (z) = 0.88819 0.23456
#
# Static dielectric constant tensor:
#      x y z
#    x 1.582910 0.000000 -0.006190 
#    y 0.000000 1.590600 0.000000 
#    z -0.006190 0.000000 1.571100 
# 
# From -- ./inp_files/69052.got.cif
#   From: 2010.05.17/outbox.cif.g08.bks.cpg/sg11_35_cif.got.tgz:69052.got - 2010.06.03 12:22:45.
