data_PCOD9161628
_publ_section_title
;
Structure prediction by ZEFSAII (Michael W. Deem and Ramdas Pophale) SiO2 
 PCOD9161628
Probable space group: P 21/M
;
_chemical_formula_sum "Si O2"
_cell_formula_units_Z 28
_cell_length_a 9.848106
_cell_length_b 8.293304
_cell_length_c 28.182575
_cell_angle_alpha 90.000000
_cell_angle_beta 140.181098
_cell_angle_gamma 90.000000
_cell_volume 1473.965387
_symmetry_space_group_name_H-M "P 21/M"
_symmetry_group_IT_number 11
_symmetry_cell_setting 'monoclinic'
loop_
_space_group_symop_operation_xyz
x,y,z
-x,1/2+y,-z
-x,-y,-z
x,1/2-y,z
loop_
_atom_site_type_symbol
_atom_site_label
_atom_site_fract_x
_atom_site_fract_y
_atom_site_fract_z
Si Si1 0.532821 0.932027 0.787385
Si Si2 0.372690 0.555665 0.282598
Si Si3 0.975758 0.552183 0.239574
Si Si4 0.915937 0.565064 0.329736
Si Si5 0.770910 0.566474 0.950571
Si Si6 0.865292 0.555075 0.419144
Si Si7 0.433391 0.437230 0.930491
O O1 0.450202 0.750000 0.757161
O O2 0.648530 0.933866 0.868056
O O3 0.678740 0.981955 0.782607
O O4 0.339533 0.056188 0.737904
O O5 0.369120 0.750000 0.278759
O O6 0.617390 0.505458 0.357827
O O7 0.195238 0.507857 0.272835
O O8 0.962697 0.750000 0.238201
O O9 0.974003 0.493324 0.293900
O O10 0.773313 0.495188 0.153700
O O11 0.991473 0.750000 0.349814
O O12 0.963243 0.495292 0.394933
O O13 0.783947 0.750000 0.972061
O O14 0.635035 0.464283 0.950870
O O15 0.000000 0.500000 0.000000
O O16 0.865651 0.750000 0.416997
O O17 0.000000 0.500000 0.500000
O O18 0.386879 0.250000 0.924097
O O19 0.500000 0.500000 0.000000
#
# Coordination Sequence:
#
# PCOD9161628 Si02
#       7
#     4   4   4   4   4   4   4
#     4  10  20  34  52  78 106 136 176 228 275 315
#     4   9  19  35  56  81 106 141 183 220 264 326
#     4   9  18  35  59  81 104 140 186 226 268 324
#     4   9  17  34  58  80 102 139 182 217 262 326
#     4  11  24  39  55  78 108 145 188 234 284 335
#     4   9  18  32  54  80 110 143 177 220 265 317
#     4  11  23  39  58  82 112 149 187 235 287 336
#
# _framework density 18.996376000000001
#
# number of rings (size 3 to 8) (size 9 to 14) (size 15 to 20)
#    0.000    2.286    1.429    2.143    2.000    4.000 
#    0.000    2.143    0.000    0.000    0.000    0.000 
#    0.000    0.000    0.000    0.000    0.000    0.000 
#
# Total GULP energy -155975.684135 kJ/mol
# GULP energy per Si atom -5570.560148 kJ/mol
# Density = 1.895314 g / cm^3
# Si number density = 18.996376 Si / 1000 Ang^3
#
#
#
# Elastic Constant Matrix: (Units=GPa)
#
#
# Indices 1 2 3 4 5 6 
#
# 1 167.5122 2.2729 61.9231 0.0000 -28.7101 0.0000
# 2 2.2729 11.8979 13.8962 0.0000 -8.8777 0.0000
# 3 61.9231 13.8962 83.9668 0.0000 -26.6464 0.0000
# 4 0.0000 0.0000 0.0000 21.3608 0.0000 -7.9390
# 5 -28.7101 -8.8777 -26.6464 0.0000 31.4863 0.0000
# 6 0.0000 0.0000 0.0000 -7.9390 0.0000 19.2019
#
#
#
# Elastic Compliance Matrix: (Units=1/GPa)
#
#
# Indices 1 2 3 4 5 6 
#
# 1 0.009308 0.010375 -0.006781 0.000000 0.005674 0.000000
# 2 0.010375 0.126095 -0.019462 0.000000 0.028544 0.000000
# 3 -0.006781 -0.019462 0.022459 0.000000 0.007337 0.000000
# 4 0.000000 0.000000 0.000000 0.055314 0.000000 0.022870
# 5 0.005674 0.028544 0.007337 0.000000 0.051191 0.000000
# 6 0.000000 0.000000 0.000000 0.022870 0.000000 0.061533
#
#
# Mechanical properties :
#
#
# Convention : Reuss Voigt Hill
#
# Bulk Modulus (GPa) = 7.92845 46.61792 27.27318
# Shear Modulus (GPa) = 12.51007 26.76211 19.63609
#
# Velocity S-wave (km/s) = 2.56901 3.75747 3.21857
# Velocity P-wave (km/s) = 3.60312 6.58927 5.31041
#
# Compressibility (1/GPa) = 0.12612805
#
# Stress axis : x y z
#
# Youngs Moduli (GPa) = 107.43357 7.93053 44.52506
#
# Poissons Ratio (x) = -0.08228 0.30192
# Poissons Ratio (y) = -1.11467 0.86654
# Poissons Ratio (z) = 0.72849 0.15434
#
# Static dielectric constant tensor:
#      x y z
#    x 1.671070 0.000000 -0.028350 
#    y 0.000000 1.696740 0.000000 
#    z -0.028350 0.000000 1.660720 
# 
# From -- ./inp_files/28976.got.cif
#   From: 2010.05.17/outbox.cif.g08.bks.cpg/sg11_15_cif.got.tgz:28976.got - 2010.06.03 12:22:45.
