data_PCOD9161447
_publ_section_title
;
Structure prediction by ZEFSAII (Michael W. Deem and Ramdas Pophale) SiO2 
 PCOD9161447
Probable space group: P 21/M
;
_chemical_formula_sum "Si O2"
_cell_formula_units_Z 32
_cell_length_a 24.035161
_cell_length_b 9.032542
_cell_length_c 16.165418
_cell_angle_alpha 90.000000
_cell_angle_beta 27.966005
_cell_angle_gamma 90.000000
_cell_volume 1645.766762
_symmetry_space_group_name_H-M "P 21/M"
_symmetry_group_IT_number 11
_symmetry_cell_setting 'monoclinic'
loop_
_space_group_symop_operation_xyz
x,y,z
-x,1/2+y,-z
-x,-y,-z
x,1/2-y,z
loop_
_atom_site_type_symbol
_atom_site_label
_atom_site_fract_x
_atom_site_fract_y
_atom_site_fract_z
Si Si1 0.629109 0.572641 0.329020
Si Si2 0.665018 0.077911 0.844113
Si Si3 0.259154 0.928067 0.440336
Si Si4 0.497252 0.072554 0.813753
Si Si5 0.924901 0.575250 0.214731
Si Si6 0.178414 0.574789 0.813644
Si Si7 0.707845 0.928218 0.041515
Si Si8 0.881507 0.422677 0.688323
O O1 0.500000 0.500000 0.500000
O O2 0.620008 0.750000 0.346960
O O3 0.708741 0.506853 0.297476
O O4 0.690940 0.536133 0.159758
O O5 0.626909 0.250000 0.893890
O O6 0.697404 0.035096 0.708719
O O7 0.782485 0.066716 0.746249
O O8 0.566208 0.981237 0.019141
O O9 0.243915 0.750000 0.465300
O O10 0.365788 0.974740 0.362353
O O11 0.138272 0.008274 0.622573
O O12 0.498751 0.250000 0.810495
O O13 0.411890 0.023389 0.850991
O O14 0.903284 0.750000 0.236322
O O15 0.864932 0.491655 0.216119
O O16 0.065729 0.552078 0.022570
O O17 0.200422 0.750000 0.776081
O O18 0.717403 0.750000 0.020681
O O19 0.819587 0.001560 0.849027
O O20 0.904034 0.250000 0.675531
O O21 0.000000 0.500000 0.500000
#
# Coordination Sequence:
#
# PCOD9161447 Si02
#       8
#     4   4   4   4   4   4   4   4
#     4  11  24  40  62  91 122 157 200 248 301 356
#     4   9  19  34  50  76 110 144 183 227 278 331
#     4  10  20  33  54  82 112 147 184 227 283 343
#     4   9  18  33  54  78 108 147 185 223 278 337
#     4  10  22  39  60  87 113 148 194 239 293 351
#     4  10  22  42  63  83 116 152 190 242 296 351
#     4   9  20  38  56  80 114 150 190 236 288 345
#     4  10  20  35  56  80 110 148 191 237 286 343
#
# _framework density 19.443823999999999
#
# number of rings (size 3 to 8) (size 9 to 14) (size 15 to 20)
#    0.000    2.250    0.000    1.875    1.750    5.000 
#    0.000    3.750    0.000    0.000    0.000    0.000 
#    0.000    0.000    0.000    0.000    0.000    0.000 
#
# Total GULP energy -178688.127671 kJ/mol
# GULP energy per Si atom -5584.003990 kJ/mol
# Density = 1.939957 g / cm^3
# Si number density = 19.443824 Si / 1000 Ang^3
#
#
#
# Elastic Constant Matrix: (Units=GPa)
#
#
# Indices 1 2 3 4 5 6 
#
# 1 42.7498 20.5625 5.9356 0.0000 -5.6632 0.0000
# 2 20.5625 40.9959 27.4739 0.0000 -11.3985 0.0000
# 3 5.9356 27.4739 59.2954 0.0000 -12.0651 0.0000
# 4 0.0000 0.0000 0.0000 34.4195 0.0000 0.8352
# 5 -5.6632 -11.3985 -12.0651 0.0000 19.7318 0.0000
# 6 0.0000 0.0000 0.0000 0.8352 0.0000 24.5224
#
#
#
# Elastic Compliance Matrix: (Units=1/GPa)
#
#
# Indices 1 2 3 4 5 6 
#
# 1 0.032371 -0.020070 0.006385 0.000000 0.001601 0.000000
# 2 -0.020070 0.050447 -0.018967 0.000000 0.011784 0.000000
# 3 0.006385 -0.018967 0.026448 0.000000 0.007047 0.000000
# 4 0.000000 0.000000 0.000000 0.029077 0.000000 -0.000990
# 5 0.001601 0.011784 0.007047 0.000000 0.062255 0.000000
# 6 0.000000 0.000000 0.000000 -0.000990 0.000000 0.040813
#
#
# Mechanical properties :
#
#
# Convention : Reuss Voigt Hill
#
# Bulk Modulus (GPa) = 22.74786 27.88722 25.31754
# Shear Modulus (GPa) = 15.55834 21.67267 18.61550
#
# Velocity S-wave (km/s) = 2.83179 3.34223 3.09754
# Velocity P-wave (km/s) = 4.73463 5.40995 5.08352
#
# Compressibility (1/GPa) = 0.04396018
#
# Stress axis : x y z
#
# Youngs Moduli (GPa) = 30.89156 19.82277 37.81029
#
# Poissons Ratio (x) = 0.39785 -0.24141
# Poissons Ratio (y) = 0.62000 0.71716
# Poissons Ratio (z) = -0.19723 0.37598
#
# Static dielectric constant tensor:
#      x y z
#    x 1.688840 0.000000 -0.001720 
#    y 0.000000 1.649920 0.000000 
#    z -0.001720 0.000000 1.668570 
# 
# From -- ./inp_files/55597.got.cif
#   From: 2010.05.17/outbox.cif.g08.bks.cpg/sg11_28_cif.got.tgz:55597.got - 2010.06.03 12:22:45.
