data_PCOD9161381
_publ_section_title
;
Structure prediction by ZEFSAII (Michael W. Deem and Ramdas Pophale) SiO2 
 PCOD9161381
Probable space group: P 21/M
;
_chemical_formula_sum "Si O2"
_cell_formula_units_Z 32
_cell_length_a 12.721508
_cell_length_b 8.732317
_cell_length_c 23.703583
_cell_angle_alpha 90.000000
_cell_angle_beta 45.242070
_cell_angle_gamma 90.000000
_cell_volume 1869.795961
_symmetry_space_group_name_H-M "P 21/M"
_symmetry_group_IT_number 11
_symmetry_cell_setting 'monoclinic'
loop_
_space_group_symop_operation_xyz
x,y,z
-x,1/2+y,-z
-x,-y,-z
x,1/2-y,z
loop_
_atom_site_type_symbol
_atom_site_label
_atom_site_fract_x
_atom_site_fract_y
_atom_site_fract_z
Si Si1 0.963187 0.434537 0.153450
Si Si2 0.112642 0.933757 0.331190
Si Si3 0.062453 0.066481 0.713878
Si Si4 0.345027 0.065632 0.321216
Si Si5 0.140361 0.433253 0.980533
Si Si6 0.681630 0.065341 0.182744
Si Si7 0.812736 0.935345 0.504860
Si Si8 0.659092 0.067428 0.453914
O O1 0.957385 0.250000 0.161861
O O2 0.975858 0.511095 0.209278
O O3 0.810957 0.481460 0.178143
O O4 0.101150 0.471947 0.059991
O O5 0.124984 0.750000 0.328109
O O6 0.055844 0.977556 0.290200
O O7 0.979617 0.979700 0.424418
O O8 0.263422 0.005900 0.296373
O O9 0.076642 0.250000 0.706707
O O10 0.217636 0.992625 0.636357
O O11 0.343850 0.250000 0.321035
O O12 0.516087 0.016812 0.261782
O O13 0.248065 0.014625 0.411697
O O14 0.142481 0.250000 0.975044
O O15 0.277534 0.502131 0.894657
O O16 0.000000 0.500000 0.000000
O O17 0.686843 0.250000 0.178695
O O18 0.805234 0.750000 0.504635
O O19 0.710071 0.005214 0.495284
O O20 0.655949 0.250000 0.454458
O O21 0.500000 0.000000 0.500000
#
# Coordination Sequence:
#
# PCOD9161381 Si02
#       8
#     4   4   4   4   4   4   4   4
#     4   9  18  32  52  78 105 134 168 206 253 310
#     4   9  19  35  51  71 102 135 174 220 257 300
#     4  10  21  36  53  76 102 133 174 214 256 303
#     4  10  20  33  53  77 103 136 172 215 261 307
#     4   9  17  31  51  75 104 137 168 202 251 307
#     4   9  19  33  49  77 110 136 166 207 259 308
#     4   9  19  35  52  73 101 135 174 217 261 301
#     4  11  22  35  51  72 102 138 172 210 256 305
#
# _framework density 17.114166999999998
#
# number of rings (size 3 to 8) (size 9 to 14) (size 15 to 20)
#    0.000    2.500    0.000    3.750    1.750    6.000 
#    0.000    0.000    0.000    0.750    0.000    0.000 
#    0.000    0.000    0.000    0.000    0.000    0.000 
#
# Total GULP energy -178391.942052 kJ/mol
# GULP energy per Si atom -5574.748189 kJ/mol
# Density = 1.707521 g / cm^3
# Si number density = 17.114167 Si / 1000 Ang^3
#
#
#
# Elastic Constant Matrix: (Units=GPa)
#
#
# Indices 1 2 3 4 5 6 
#
# 1 57.8031 12.2693 46.7835 0.0000 4.3921 0.0000
# 2 12.2693 13.2424 18.6227 0.0000 3.7792 0.0000
# 3 46.7835 18.6227 93.7039 0.0000 23.2944 0.0000
# 4 0.0000 0.0000 0.0000 28.6940 0.0000 3.1750
# 5 4.3921 3.7792 23.2944 0.0000 19.7697 0.0000
# 6 0.0000 0.0000 0.0000 3.1750 0.0000 27.5092
#
#
#
# Elastic Compliance Matrix: (Units=1/GPa)
#
#
# Indices 1 2 3 4 5 6 
#
# 1 0.033308 -0.008885 -0.019017 0.000000 0.016706 0.000000
# 2 -0.008885 0.107748 -0.017464 0.000000 0.001954 0.000000
# 3 -0.019017 -0.017464 0.030770 0.000000 -0.028693 0.000000
# 4 0.000000 0.000000 0.000000 0.035301 0.000000 -0.004074
# 5 0.016706 0.001954 -0.028693 0.000000 0.080306 0.000000
# 6 0.000000 0.000000 0.000000 -0.004074 0.000000 0.036822
#
#
# Mechanical properties :
#
#
# Convention : Reuss Voigt Hill
#
# Bulk Modulus (GPa) = 12.33112 35.56673 23.94892
# Shear Modulus (GPa) = 11.31173 20.99952 16.15563
#
# Velocity S-wave (km/s) = 2.57370 3.50669 3.07578
# Velocity P-wave (km/s) = 4.00659 6.10107 5.16119
#
# Compressibility (1/GPa) = 0.08109566
#
# Stress axis : x y z
#
# Youngs Moduli (GPa) = 30.02253 9.28089 32.49879
#
# Poissons Ratio (x) = 0.08246 0.61804
# Poissons Ratio (y) = 0.26674 0.56755
# Poissons Ratio (z) = 0.57095 0.16208
#
# Static dielectric constant tensor:
#      x y z
#    x 1.559950 0.000000 0.005090 
#    y 0.000000 1.575410 0.000000 
#    z 0.005090 0.000000 1.596470 
# 
# From -- ./inp_files/43779.got.cif
#   From: 2010.05.17/outbox.cif.g08.bks.cpg/sg11_22_cif.got.tgz:43779.got - 2010.06.03 12:22:45.
