data_PCOD9161959
_publ_section_title
;
Structure prediction by ZEFSAII (Michael W. Deem and Ramdas Pophale) SiO2 
 PCOD9161959
Probable space group: P 21/M
;
_chemical_formula_sum "Si O2"
_cell_formula_units_Z 32
_cell_length_a 34.357576
_cell_length_b 7.776099
_cell_length_c 12.346268
_cell_angle_alpha 90.000000
_cell_angle_beta 24.283524
_cell_angle_gamma 90.000000
_cell_volume 1356.526532
_symmetry_space_group_name_H-M "P 21/M"
_symmetry_group_IT_number 11
_symmetry_cell_setting 'monoclinic'
loop_
_space_group_symop_operation_xyz
x,y,z
-x,1/2+y,-z
-x,-y,-z
x,1/2-y,z
loop_
_atom_site_type_symbol
_atom_site_label
_atom_site_fract_x
_atom_site_fract_y
_atom_site_fract_z
Si Si1 0.448077 0.460164 0.779429
Si Si2 0.067387 0.043133 0.229357
Si Si3 0.347669 0.450398 0.828489
Si Si4 0.004238 0.540124 0.822068
Si Si5 0.403126 0.558410 0.303700
Si Si6 0.154990 0.949856 0.599733
Si Si7 0.260412 0.048771 0.838486
Si Si8 0.664071 0.946566 0.736549
O O1 0.452797 0.250000 0.762465
O O2 0.367323 0.520549 0.898843
O O3 0.547548 0.535190 0.490095
O O4 0.419598 0.508222 0.972707
O O5 0.074084 0.250000 0.200269
O O6 0.023007 0.981269 0.228834
O O7 0.171528 0.975957 0.997677
O O8 0.000000 0.000000 0.500000
O O9 0.323043 0.250000 0.904362
O O10 0.279517 0.528109 0.909578
O O11 0.001083 0.750000 0.835207
O O12 0.106710 0.489348 0.610310
O O13 0.926578 0.469810 0.102620
O O14 0.417367 0.750000 0.308111
O O15 0.353768 0.461323 0.527294
O O16 0.330007 0.551228 0.388339
O O17 0.500000 0.500000 0.000000
O O18 0.180799 0.750000 0.523939
O O19 0.243966 0.047765 0.422013
O O20 0.240258 0.250000 0.907033
O O21 0.647332 0.750000 0.745472
#
# Coordination Sequence:
#
# PCOD9161959 Si02
#       8
#     4   4   4   4   4   4   4   4
#     4   9  19  34  52  76 106 141 180 223 272 329
#     4  10  22  39  59  83 114 152 193 240 291 344
#     4   9  18  34  55  78 105 139 181 226 274 328
#     4   9  19  37  57  79 111 147 184 230 287 344
#     4  12  25  40  60  87 120 156 195 238 285 342
#     4  10  20  34  56  84 110 141 183 231 284 342
#     4  10  21  38  60  85 115 152 193 239 291 344
#     4  11  22  36  55  81 114 147 183 228 279 336
#
# _framework density 23.589661
#
# number of rings (size 3 to 8) (size 9 to 14) (size 15 to 20)
#    0.000    2.000    0.000    3.375    0.000    7.000 
#    0.000    1.250    0.000    0.000    0.000    0.000 
#    0.000    0.000    0.000    0.000    0.000    0.000 
#
# Total GULP energy -178762.786546 kJ/mol
# GULP energy per Si atom -5586.337080 kJ/mol
# Density = 2.353597 g / cm^3
# Si number density = 23.589661 Si / 1000 Ang^3
#
#
#
# Elastic Constant Matrix: (Units=GPa)
#
#
# Indices 1 2 3 4 5 6 
#
# 1 174.1268 4.8892 15.4594 0.0000 -11.8371 0.0000
# 2 4.8892 40.6013 -9.1801 0.0000 -5.6932 0.0000
# 3 15.4594 -9.1801 42.9742 0.0000 -10.9082 0.0000
# 4 0.0000 0.0000 0.0000 22.1751 0.0000 -0.5789
# 5 -11.8371 -5.6932 -10.9082 0.0000 38.5125 0.0000
# 6 0.0000 0.0000 0.0000 -0.5789 0.0000 16.0905
#
#
#
# Elastic Compliance Matrix: (Units=1/GPa)
#
#
# Indices 1 2 3 4 5 6 
#
# 1 0.006035 -0.001051 -0.002116 0.000000 0.001100 0.000000
# 2 -0.001051 0.027328 0.007714 0.000000 0.005902 0.000000
# 3 -0.002116 0.007714 0.027802 0.000000 0.008364 0.000000
# 4 0.000000 0.000000 0.000000 0.045138 0.000000 0.001624
# 5 0.001100 0.005902 0.008364 0.000000 0.029545 0.000000
# 6 0.000000 0.000000 0.000000 0.001624 0.000000 0.062207
#
#
# Mechanical properties :
#
#
# Convention : Reuss Voigt Hill
#
# Bulk Modulus (GPa) = 14.23317 31.11546 22.67431
# Shear Modulus (GPa) = 23.54253 31.79122 27.66687
#
# Velocity S-wave (km/s) = 3.16254 3.67505 3.42839
# Velocity P-wave (km/s) = 4.40254 5.58811 5.03037
#
# Compressibility (1/GPa) = 0.07025840
#
# Stress axis : x y z
#
# Youngs Moduli (GPa) = 165.69653 36.59249 35.96855
#
# Poissons Ratio (x) = 0.03846 0.07612
# Poissons Ratio (y) = 0.17415 -0.27746
# Poissons Ratio (z) = 0.35067 -0.28227
#
# Static dielectric constant tensor:
#      x y z
#    x 1.950990 0.000000 -0.068160 
#    y 0.000000 1.891620 0.000000 
#    z -0.068160 0.000000 1.880290 
# 
# From -- ./inp_files/45163.got.cif
#   From: 2010.05.17/outbox.cif.g08.bks.cpg/sg11_23_cif.got.tgz:45163.got - 2010.06.03 12:22:45.
