data_PCOD9161097
_publ_section_title
;
Structure prediction by ZEFSAII (Michael W. Deem and Ramdas Pophale) SiO2 
 PCOD9161097
Probable space group: P 21/M
;
_chemical_formula_sum "Si O2"
_cell_formula_units_Z 28
_cell_length_a 15.316500
_cell_length_b 9.245326
_cell_length_c 20.288343
_cell_angle_alpha 90.000000
_cell_angle_beta 30.287657
_cell_angle_gamma 90.000000
_cell_volume 1448.949160
_symmetry_space_group_name_H-M "P 21/M"
_symmetry_group_IT_number 11
_symmetry_cell_setting 'monoclinic'
loop_
_space_group_symop_operation_xyz
x,y,z
-x,1/2+y,-z
-x,-y,-z
x,1/2-y,z
loop_
_atom_site_type_symbol
_atom_site_label
_atom_site_fract_x
_atom_site_fract_y
_atom_site_fract_z
Si Si1 0.403463 0.590001 0.674536
Si Si2 0.363049 0.072940 0.040462
Si Si3 0.851424 0.909790 0.248508
Si Si4 0.995385 0.922447 0.300434
Si Si5 0.851169 0.467878 0.044335
Si Si6 0.449708 0.086126 0.837529
Si Si7 0.312360 0.575140 0.434503
O O1 0.467730 0.750000 0.614834
O O2 0.277381 0.523992 0.701230
O O3 0.289010 0.604067 0.816039
O O4 0.556508 0.481413 0.594201
O O5 0.361559 0.250000 0.045008
O O6 0.175506 0.007442 0.179155
O O7 0.412780 0.023881 0.933423
O O8 0.500000 0.000000 0.000000
O O9 0.772350 0.750000 0.293636
O O10 0.900701 0.939749 0.291358
O O11 0.033341 0.905097 0.089844
O O12 0.018947 0.750000 0.296187
O O13 0.868879 0.996919 0.435519
O O14 0.729541 0.583709 0.087112
O O15 0.000000 0.500000 0.000000
O O16 0.502310 0.250000 0.815399
O O17 0.597399 0.026124 0.693005
O O18 0.300627 0.750000 0.443980
#
# Coordination Sequence:
#
# PCOD9161097 Si02
#       7
#     4   4   4   4   4   4   4
#     4  10  20  32  51  80 116 159 206 250 295 352
#     4  11  23  43  69  97 123 154 195 250 308 366
#     4  10  20  33  51  78 116 158 201 249 299 351
#     4  11  23  40  61  89 121 157 199 249 302 361
#     4   9  17  30  50  83 118 156 198 246 294 349
#     4   9  19  37  62  88 120 159 202 246 299 358
#     4  10  21  39  60  85 119 162 203 246 297 355
#
# _framework density 19.324348000000001
#
# number of rings (size 3 to 8) (size 9 to 14) (size 15 to 20)
#    0.000    2.000    1.429    2.143    0.000    7.429 
#    0.000    2.857    0.000    0.000    0.000    0.000 
#    0.000    0.000    0.000    0.000    0.000    0.000 
#
# Total GULP energy -155897.639653 kJ/mol
# GULP energy per Si atom -5567.772845 kJ/mol
# Density = 1.928037 g / cm^3
# Si number density = 19.324348 Si / 1000 Ang^3
#
#
#
# Elastic Constant Matrix: (Units=GPa)
#
#
# Indices 1 2 3 4 5 6 
#
# 1 83.7133 43.4410 55.7236 0.0000 0.7537 0.0000
# 2 43.4410 105.0701 53.5953 0.0000 -4.3098 0.0000
# 3 55.7236 53.5953 150.5505 0.0000 10.0303 0.0000
# 4 0.0000 0.0000 0.0000 17.9696 0.0000 -9.8564
# 5 0.7537 -4.3098 10.0303 0.0000 13.1866 0.0000
# 6 0.0000 0.0000 0.0000 -9.8564 0.0000 17.1410
#
#
#
# Elastic Compliance Matrix: (Units=1/GPa)
#
#
# Indices 1 2 3 4 5 6 
#
# 1 0.017682 -0.004744 -0.004935 0.000000 0.001193 0.000000
# 2 -0.004744 0.013614 -0.003587 0.000000 0.007449 0.000000
# 3 -0.004935 -0.003587 0.010329 0.000000 -0.008747 0.000000
# 4 0.000000 0.000000 0.000000 0.081287 0.000000 0.046741
# 5 0.001193 0.007449 -0.008747 0.000000 0.084854 0.000000
# 6 0.000000 0.000000 0.000000 0.046741 0.000000 0.085216
#
#
# Mechanical properties :
#
#
# Convention : Reuss Voigt Hill
#
# Bulk Modulus (GPa) = 66.26005 71.65041 68.95523
# Shear Modulus (GPa) = 15.40620 22.09773 18.75196
#
# Velocity S-wave (km/s) = 2.82661 3.38526 3.11847
# Velocity P-wave (km/s) = 6.70938 7.24143 6.98048
#
# Compressibility (1/GPa) = 0.01509205
#
# Stress axis : x y z
#
# Youngs Moduli (GPa) = 56.55554 73.45322 96.81881
#
# Poissons Ratio (x) = 0.34848 0.47781
# Poissons Ratio (y) = 0.26831 0.34728
# Poissons Ratio (z) = 0.27911 0.26347
#
# Static dielectric constant tensor:
#      x y z
#    x 1.613670 0.000000 0.046820 
#    y 0.000000 1.693540 0.000000 
#    z 0.046820 0.000000 1.712450 
# 
# From -- ./inp_files/65377.got.cif
#   From: 2010.05.17/outbox.cif.g08.bks.cpg/sg11_33_cif.got.tgz:65377.got - 2010.06.03 12:22:45.
