data_PCOD9161880
_publ_section_title
;
Structure prediction by ZEFSAII (Michael W. Deem and Ramdas Pophale) SiO2 
 PCOD9161880
Probable space group: P 21/M
;
_chemical_formula_sum "Si O2"
_cell_formula_units_Z 32
_cell_length_a 26.156438
_cell_length_b 9.101099
_cell_length_c 20.803723
_cell_angle_alpha 90.000000
_cell_angle_beta 159.854031
_cell_angle_gamma 90.000000
_cell_volume 1705.662395
_symmetry_space_group_name_H-M "P 21/M"
_symmetry_group_IT_number 11
_symmetry_cell_setting 'monoclinic'
loop_
_space_group_symop_operation_xyz
x,y,z
-x,1/2+y,-z
-x,-y,-z
x,1/2-y,z
loop_
_atom_site_type_symbol
_atom_site_label
_atom_site_fract_x
_atom_site_fract_y
_atom_site_fract_z
Si Si1 0.997498 0.422580 0.806050
Si Si2 0.844685 0.080334 0.369871
Si Si3 0.814535 0.573353 0.207412
Si Si4 0.585408 0.081387 0.155751
Si Si5 0.422110 0.424605 0.585735
Si Si6 0.089392 0.073544 0.163203
Si Si7 0.274022 0.072484 0.041590
Si Si8 0.659630 0.423659 0.379734
O O1 0.020170 0.250000 0.849321
O O2 0.130870 0.467527 0.916095
O O3 0.975945 0.513000 0.846418
O O4 0.837345 0.432371 0.582594
O O5 0.852965 0.250000 0.358151
O O6 0.752955 0.076763 0.327072
O O7 0.010750 0.031182 0.583061
O O8 0.765911 0.992399 0.218852
O O9 0.800783 0.750000 0.193522
O O10 0.747727 0.526812 0.059455
O O11 0.537143 0.250000 0.100988
O O12 0.581447 0.024128 0.222869
O O13 0.500000 0.000000 0.000000
O O14 0.441274 0.250000 0.603992
O O15 0.266039 0.464049 0.366878
O O16 0.389375 0.477908 0.619345
O O17 0.576292 0.504806 0.751684
O O18 0.077442 0.250000 0.147791
O O19 0.000000 0.000000 0.000000
O O20 0.284439 0.250000 0.053649
O O21 0.624072 0.250000 0.349272
#
# Coordination Sequence:
#
# PCOD9161880 Si02
#       8
#     4   4   4   4   4   4   4   4
#     4   9  18  35  60  86 110 142 184 225 267 319
#     4   9  18  33  48  67  95 130 174 223 277 325
#     4   9  18  32  51  71  96 132 175 221 266 321
#     4  10  21  33  47  68  97 133 176 225 275 323
#     4  10  22  37  55  83 116 145 178 223 272 322
#     4  10  21  39  63  89 116 147 181 217 260 316
#     4  10  20  34  55  82 111 144 183 225 271 324
#     4   9  18  35  56  75 101 142 187 229 276 331
#
# _framework density 18.761039
#
# number of rings (size 3 to 8) (size 9 to 14) (size 15 to 20)
#    0.000    2.500    0.000    1.500    1.750    6.500 
#    0.000    0.625    0.000    7.500    0.000    0.000 
#    0.000    0.000    0.000    0.000    0.000    0.000 
#
# Total GULP energy -178356.292304 kJ/mol
# GULP energy per Si atom -5573.634134 kJ/mol
# Density = 1.871834 g / cm^3
# Si number density = 18.761039 Si / 1000 Ang^3
#
#
#
# Elastic Constant Matrix: (Units=GPa)
#
#
# Indices 1 2 3 4 5 6 
#
# 1 39.9453 11.9524 27.1671 0.0000 -7.3113 0.0000
# 2 11.9524 19.6541 23.2572 0.0000 -6.3934 0.0000
# 3 27.1671 23.2572 93.8913 0.0000 -7.3854 0.0000
# 4 0.0000 0.0000 0.0000 28.7595 0.0000 0.0461
# 5 -7.3113 -6.3934 -7.3854 0.0000 36.8414 0.0000
# 6 0.0000 0.0000 0.0000 0.0461 0.0000 24.6389
#
#
#
# Elastic Compliance Matrix: (Units=1/GPa)
#
#
# Indices 1 2 3 4 5 6 
#
# 1 0.033583 -0.011527 -0.006599 0.000000 0.003341 0.000000
# 2 -0.011527 0.079039 -0.015590 0.000000 0.008303 0.000000
# 3 -0.006599 -0.015590 0.016364 0.000000 -0.000735 0.000000
# 4 0.000000 0.000000 0.000000 0.034771 0.000000 -0.000065
# 5 0.003341 0.008303 -0.000735 0.000000 0.029100 0.000000
# 6 0.000000 0.000000 0.000000 -0.000065 0.000000 0.040586
#
#
# Mechanical properties :
#
#
# Convention : Reuss Voigt Hill
#
# Bulk Modulus (GPa) = 16.24599 30.91602 23.58101
# Shear Modulus (GPa) = 15.55727 24.12223 19.83975
#
# Velocity S-wave (km/s) = 2.88276 3.58964 3.25545
# Velocity P-wave (km/s) = 4.44507 5.80477 5.16982
#
# Compressibility (1/GPa) = 0.06155364
#
# Stress axis : x y z
#
# Youngs Moduli (GPa) = 29.77698 12.65202 61.11047
#
# Poissons Ratio (x) = 0.14585 0.40326
# Poissons Ratio (y) = 0.34325 0.95269
# Poissons Ratio (z) = 0.19650 0.19724
#
# Static dielectric constant tensor:
#      x y z
#    x 1.666180 0.000000 0.034230 
#    y 0.000000 1.643020 0.000000 
#    z 0.034230 0.000000 1.705540 
# 
# From -- ./inp_files/67232.got.cif
#   From: 2010.05.17/outbox.cif.g08.bks.cpg/sg11_34_cif.got.tgz:67232.got - 2010.06.03 12:22:45.
