data_PCOD9161788
_publ_section_title
;
Structure prediction by ZEFSAII (Michael W. Deem and Ramdas Pophale) SiO2 
 PCOD9161788
Probable space group: P 21/M
;
_chemical_formula_sum "Si O2"
_cell_formula_units_Z 28
_cell_length_a 7.987059
_cell_length_b 9.359889
_cell_length_c 28.540395
_cell_angle_alpha 90.000000
_cell_angle_beta 45.602880
_cell_angle_gamma 90.000000
_cell_volume 1524.489978
_symmetry_space_group_name_H-M "P 21/M"
_symmetry_group_IT_number 11
_symmetry_cell_setting 'monoclinic'
loop_
_space_group_symop_operation_xyz
x,y,z
-x,1/2+y,-z
-x,-y,-z
x,1/2-y,z
loop_
_atom_site_type_symbol
_atom_site_label
_atom_site_fract_x
_atom_site_fract_y
_atom_site_fract_z
Si Si1 0.025159 0.412413 0.309417
Si Si2 0.215416 0.576299 0.836708
Si Si3 0.601045 0.576299 0.836708
Si Si4 0.427758 0.412413 0.309417
Si Si5 0.209821 0.910585 0.436378
Si Si6 0.325699 0.076702 0.069721
Si Si7 0.391711 0.089415 0.563622
O O1 0.937884 0.250000 0.318484
O O2 0.159557 0.466739 0.236860
O O3 0.229755 0.404301 0.308098
O O4 0.824799 0.510313 0.369701
O O5 0.224301 0.750000 0.835025
O O6 0.376361 0.529050 0.849455
O O7 0.343858 0.533263 0.763140
O O8 0.943580 0.535892 0.889407
O O9 0.600574 0.750000 0.835024
O O10 0.609381 0.535892 0.889408
O O11 0.469696 0.250000 0.318484
O O12 0.326697 0.510313 0.369701
O O13 0.132459 0.750000 0.439037
O O14 0.406880 0.901238 0.437248
O O15 0.000000 0.000000 0.500000
O O16 0.343015 0.250000 0.062794
O O17 0.500000 0.000000 0.000000
O O18 0.327643 0.250000 0.560963
O O19 0.500000 0.000000 0.500000
#
# Coordination Sequence:
#
# PCOD9161788 Si02
#       7
#     4   4   4   4   4   4   4
#     4   9  18  34  57  82 104 131 174 225 270 319
#     4   8  16  32  54  80 108 139 180 224 266 322
#     4   8  16  32  54  80 108 139 180 224 266 322
#     4   9  18  34  57  82 104 131 174 225 270 319
#     4  11  24  38  52  75 106 140 178 220 266 319
#     4  10  20  34  54  80 110 146 182 222 272 322
#     4  11  24  38  52  75 106 140 178 220 266 319
#
# _framework density 18.366797999999999
#
# number of rings (size 3 to 8) (size 9 to 14) (size 15 to 20)
#    0.000    2.571    0.000    3.429    2.000    6.857 
#    0.000    1.429    0.000    1.714    0.000    0.000 
#    0.000    0.000    0.000    0.000    0.000    0.000 
#
# Total GULP energy -156134.484873 kJ/mol
# GULP energy per Si atom -5576.231603 kJ/mol
# Density = 1.832499 g / cm^3
# Si number density = 18.366798 Si / 1000 Ang^3
#
#
#
# Elastic Constant Matrix: (Units=GPa)
#
#
# Indices 1 2 3 4 5 6 
#
# 1 74.0030 30.4582 79.8933 0.0000 0.9360 0.0000
# 2 30.4582 76.4937 77.8195 0.0000 0.5396 0.0000
# 3 79.8933 77.8195 207.7548 0.0000 0.5874 0.0000
# 4 0.0000 0.0000 0.0000 34.2091 0.0000 0.1754
# 5 0.9360 0.5396 0.5874 0.0000 38.1399 0.0000
# 6 0.0000 0.0000 0.0000 0.1754 0.0000 18.8166
#
#
#
# Elastic Compliance Matrix: (Units=1/GPa)
#
#
# Indices 1 2 3 4 5 6 
#
# 1 0.023116 -0.000257 -0.008792 0.000000 -0.000428 0.000000
# 2 -0.000257 0.021126 -0.007814 0.000000 -0.000172 0.000000
# 3 -0.008792 -0.007814 0.011121 0.000000 0.000155 0.000000
# 4 0.000000 0.000000 0.000000 0.029233 0.000000 -0.000273
# 5 -0.000428 -0.000172 0.000155 0.000000 0.026230 0.000000
# 6 0.000000 0.000000 0.000000 -0.000273 0.000000 0.053147
#
#
# Mechanical properties :
#
#
# Convention : Reuss Voigt Hill
#
# Bulk Modulus (GPa) = 46.21718 81.62151 63.91935
# Shear Modulus (GPa) = 24.40090 29.57181 26.98636
#
# Velocity S-wave (km/s) = 3.64886 4.01692 3.83730
# Velocity P-wave (km/s) = 6.55517 8.12714 7.38311
#
# Compressibility (1/GPa) = 0.02163698
#
# Stress axis : x y z
#
# Youngs Moduli (GPa) = 43.26050 47.33546 89.92198
#
# Poissons Ratio (x) = 0.01216 0.79058
# Poissons Ratio (y) = 0.01112 0.70264
# Poissons Ratio (z) = 0.38034 0.36987
#
# Static dielectric constant tensor:
#      x y z
#    x 1.632610 0.000000 0.000300 
#    y 0.000000 1.641090 0.000000 
#    z 0.000300 0.000000 1.658860 
# 
# From -- ./inp_files/72718.got.cif
#   From: 2010.05.17/outbox.cif.g08.bks.cpg/sg11_37_cif.got.tgz:72718.got - 2010.06.03 12:22:45.
