data_PCOD9161147
_publ_section_title
;
Structure prediction by ZEFSAII (Michael W. Deem and Ramdas Pophale) SiO2 
 PCOD9161147
Probable space group: P 21/M
;
_chemical_formula_sum "Si O2"
_cell_formula_units_Z 32
_cell_length_a 24.340445
_cell_length_b 8.771131
_cell_length_c 15.556915
_cell_angle_alpha 90.000000
_cell_angle_beta 147.336557
_cell_angle_gamma 90.000000
_cell_volume 1792.514420
_symmetry_space_group_name_H-M "P 21/M"
_symmetry_group_IT_number 11
_symmetry_cell_setting 'monoclinic'
loop_
_space_group_symop_operation_xyz
x,y,z
-x,1/2+y,-z
-x,-y,-z
x,1/2-y,z
loop_
_atom_site_type_symbol
_atom_site_label
_atom_site_fract_x
_atom_site_fract_y
_atom_site_fract_z
Si Si1 0.886794 0.566371 0.838910
Si Si2 0.744034 0.432754 0.365092
Si Si3 0.080085 0.432833 0.306596
Si Si4 0.354429 0.432085 0.249245
Si Si5 0.152983 0.932867 0.035816
Si Si6 0.446238 0.068405 0.557849
Si Si7 0.413721 0.932365 0.692047
Si Si8 0.428987 0.933422 0.982255
O O1 0.885195 0.750000 0.843244
O O2 0.864815 0.523371 0.711269
O O3 0.829062 0.496586 0.843917
O O4 0.000000 0.500000 0.000000
O O5 0.751051 0.250000 0.376698
O O6 0.853793 0.501484 0.529078
O O7 0.669429 0.479621 0.345894
O O8 0.684775 0.474385 0.199246
O O9 0.080622 0.250000 0.311222
O O10 0.961408 0.480063 0.143758
O O11 0.352891 0.250000 0.237787
O O12 0.439249 0.504037 0.299390
O O13 0.392795 0.469037 0.396889
O O14 0.242137 0.501281 0.094220
O O15 0.156234 0.750000 0.042522
O O16 0.447309 0.250000 0.568191
O O17 0.392873 0.996659 0.570351
O O18 0.416997 0.750000 0.694822
O O19 0.522285 0.997106 0.868137
O O20 0.437079 0.750000 0.994786
O O21 0.500000 0.000000 0.000000
#
# Coordination Sequence:
#
# PCOD9161147 Si02
#       8
#     4   4   4   4   4   4   4   4
#     4   9  17  29  42  61  88 121 161 201 237 280
#     4   9  19  31  46  71 101 131 163 199 240 284
#     4   9  19  31  44  66  95 127 165 200 236 285
#     4  10  21  36  53  73  97 127 164 207 249 290
#     4  10  20  33  48  67  93 129 165 203 246 288
#     4  10  21  36  53  74  98 127 162 204 249 293
#     4  10  20  33  50  74 100 130 165 201 244 294
#     4   9  17  31  48  70  98 129 163 200 243 293
#
# _framework density 17.852018999999999
#
# number of rings (size 3 to 8) (size 9 to 14) (size 15 to 20)
#    0.000    2.500    0.000    3.750    1.750    7.500 
#    0.000    0.000    0.000    0.000    0.000    0.875 
#    0.000    0.000    0.000    0.000    0.000    0.000 
#
# Total GULP energy -178359.039375 kJ/mol
# GULP energy per Si atom -5573.719980 kJ/mol
# Density = 1.781139 g / cm^3
# Si number density = 17.852019 Si / 1000 Ang^3
#
#
#
# Elastic Constant Matrix: (Units=GPa)
#
#
# Indices 1 2 3 4 5 6 
#
# 1 29.6577 7.3857 2.1845 0.0000 11.4897 0.0000
# 2 7.3857 22.8574 17.2884 0.0000 -0.6059 0.0000
# 3 2.1845 17.2884 90.3482 0.0000 8.0164 0.0000
# 4 0.0000 0.0000 0.0000 24.9366 0.0000 -1.1913
# 5 11.4897 -0.6059 8.0164 0.0000 26.5983 0.0000
# 6 0.0000 0.0000 0.0000 -1.1913 0.0000 23.5668
#
#
#
# Elastic Compliance Matrix: (Units=1/GPa)
#
#
# Indices 1 2 3 4 5 6 
#
# 1 0.046613 -0.019012 0.004455 0.000000 -0.021911 0.000000
# 2 -0.019012 0.059375 -0.012073 0.000000 0.013204 0.000000
# 3 0.004455 -0.012073 0.013836 0.000000 -0.006369 0.000000
# 4 0.000000 0.000000 0.000000 0.040199 0.000000 0.002032
# 5 -0.021911 0.013204 -0.006369 0.000000 0.049282 0.000000
# 6 0.000000 0.000000 0.000000 0.002032 0.000000 0.042535
#
#
# Mechanical properties :
#
#
# Convention : Reuss Voigt Hill
#
# Bulk Modulus (GPa) = 15.02340 21.84228 18.43284
# Shear Modulus (GPa) = 15.27707 22.75399 19.01553
#
# Velocity S-wave (km/s) = 2.92851 3.57401 3.26724
# Velocity P-wave (km/s) = 4.45743 5.41232 4.95792
#
# Compressibility (1/GPa) = 0.06656283
#
# Stress axis : x y z
#
# Youngs Moduli (GPa) = 21.45320 16.84224 72.27530
#
# Poissons Ratio (x) = 0.32021 -0.32200
# Poissons Ratio (y) = 0.40787 0.87261
# Poissons Ratio (z) = -0.09558 0.20334
#
# Static dielectric constant tensor:
#      x y z
#    x 1.622510 0.000000 -0.010050 
#    y 0.000000 1.589370 0.000000 
#    z -0.010050 0.000000 1.652120 
# 
# From -- ./inp_files/55666.got.cif
#   From: 2010.05.17/outbox.cif.g08.bks.cpg/sg11_28_cif.got.tgz:55666.got - 2010.06.03 12:22:45.
