data_PCOD9161284
_publ_section_title
;
Structure prediction by ZEFSAII (Michael W. Deem and Ramdas Pophale) SiO2 
 PCOD9161284
Probable space group: P 21/M
;
_chemical_formula_sum "Si O2"
_cell_formula_units_Z 32
_cell_length_a 26.591090
_cell_length_b 8.928221
_cell_length_c 16.431118
_cell_angle_alpha 90.000000
_cell_angle_beta 151.370562
_cell_angle_gamma 90.000000
_cell_volume 1869.103013
_symmetry_space_group_name_H-M "P 21/M"
_symmetry_group_IT_number 11
_symmetry_cell_setting 'monoclinic'
loop_
_space_group_symop_operation_xyz
x,y,z
-x,1/2+y,-z
-x,-y,-z
x,1/2-y,z
loop_
_atom_site_type_symbol
_atom_site_label
_atom_site_fract_x
_atom_site_fract_y
_atom_site_fract_z
Si Si1 0.276298 0.567845 0.033806
Si Si2 0.541986 0.429131 0.142537
Si Si3 0.030008 0.429686 0.285390
Si Si4 0.796343 0.430251 0.893255
Si Si5 0.287915 0.071277 0.391464
Si Si6 0.951639 0.430498 0.350885
Si Si7 0.521758 0.069543 0.781040
Si Si8 0.223725 0.928715 0.466852
O O1 0.276735 0.750000 0.035344
O O2 0.169103 0.522646 0.836079
O O3 0.265624 0.521786 0.112915
O O4 0.380054 0.519127 0.133931
O O5 0.531546 0.250000 0.125205
O O6 0.481793 0.494295 0.135547
O O7 0.665003 0.466033 0.332139
O O8 0.500000 0.500000 0.000000
O O9 0.044256 0.250000 0.301583
O O10 0.126684 0.509749 0.380229
O O11 0.014946 0.471260 0.358782
O O12 0.918961 0.464118 0.084123
O O13 0.787227 0.250000 0.873050
O O14 0.753679 0.506337 0.751945
O O15 0.276510 0.250000 0.376697
O O16 0.411074 0.034963 0.580235
O O17 0.227971 0.001191 0.383429
O O18 0.952876 0.250000 0.358483
O O19 0.000000 0.500000 0.500000
O O20 0.527407 0.250000 0.799084
O O21 0.217608 0.750000 0.450584
#
# Coordination Sequence:
#
# PCOD9161284 Si02
#       8
#     4   4   4   4   4   4   4   4
#     4   8  16  33  54  73  98 134 169 200 242 297
#     4  10  21  36  53  75 102 132 167 206 250 298
#     4   9  19  35  53  74 101 133 168 207 251 295
#     4   9  18  34  54  74 100 135 170 203 244 298
#     4  10  20  33  51  76 104 132 164 207 254 295
#     4   9  18  33  52  74 101 132 165 202 246 295
#     4   9  18  34  54  75 101 133 168 205 247 296
#     4  10  21  36  54  75  99 131 170 208 248 298
#
# _framework density 17.120511
#
# number of rings (size 3 to 8) (size 9 to 14) (size 15 to 20)
#    0.000    2.750    0.000    2.625    0.000    5.000 
#    0.000    6.875    0.000    0.000    0.000    0.000 
#    0.000    0.000    0.000    0.000    0.000    0.000 
#
# Total GULP energy -178471.719385 kJ/mol
# GULP energy per Si atom -5577.241231 kJ/mol
# Density = 1.708154 g / cm^3
# Si number density = 17.120511 Si / 1000 Ang^3
#
#
#
# Elastic Constant Matrix: (Units=GPa)
#
#
# Indices 1 2 3 4 5 6 
#
# 1 189.3522 60.0385 119.9831 0.0000 0.3033 0.0000
# 2 60.0385 32.5112 48.8592 0.0000 -4.9247 0.0000
# 3 119.9831 48.8592 107.8740 0.0000 -21.8089 0.0000
# 4 0.0000 0.0000 0.0000 29.5429 0.0000 -6.8655
# 5 0.3033 -4.9247 -21.8089 0.0000 38.6820 0.0000
# 6 0.0000 0.0000 0.0000 -6.8655 0.0000 30.6853
#
#
#
# Elastic Compliance Matrix: (Units=1/GPa)
#
#
# Indices 1 2 3 4 5 6 
#
# 1 0.026438 -0.005868 -0.030407 0.000000 -0.018098 0.000000
# 2 -0.005868 0.104761 -0.043134 0.000000 -0.010936 0.000000
# 3 -0.030407 -0.043134 0.069485 0.000000 0.033923 0.000000
# 4 0.000000 0.000000 0.000000 0.035706 0.000000 0.007989
# 5 -0.018098 -0.010936 0.033923 0.000000 0.043727 0.000000
# 6 0.000000 0.000000 0.000000 0.007989 0.000000 0.034376
#
#
# Mechanical properties :
#
#
# Convention : Reuss Voigt Hill
#
# Bulk Modulus (GPa) = 23.88499 87.49986 55.69242
# Shear Modulus (GPa) = 10.26135 26.50582 18.38359
#
# Velocity S-wave (km/s) = 2.45084 3.93897 3.28041
# Velocity P-wave (km/s) = 4.68937 8.47977 6.85189
#
# Compressibility (1/GPa) = 0.04186730
#
# Stress axis : x y z
#
# Youngs Moduli (GPa) = 37.82447 9.54552 14.39164
#
# Poissons Ratio (x) = 0.05601 0.43760
# Poissons Ratio (y) = 0.22194 0.62077
# Poissons Ratio (z) = 1.15012 0.41173
#
# Static dielectric constant tensor:
#      x y z
#    x 1.558550 0.000000 0.011020 
#    y 0.000000 1.571880 0.000000 
#    z 0.011020 0.000000 1.562550 
# 
# From -- ./inp_files/51782.got.cif
#   From: 2010.05.17/outbox.cif.g08.bks.cpg/sg11_26_cif.got.tgz:51782.got - 2010.06.03 12:22:45.
