data_PCOD9161937
_publ_section_title
;
Structure prediction by ZEFSAII (Michael W. Deem and Ramdas Pophale) SiO2 
 PCOD9161937
Probable space group: P 21/M
;
_chemical_formula_sum "Si O2"
_cell_formula_units_Z 28
_cell_length_a 11.427578
_cell_length_b 13.959691
_cell_length_c 8.956023
_cell_angle_alpha 90.000000
_cell_angle_beta 81.653321
_cell_angle_gamma 90.000000
_cell_volume 1413.580524
_symmetry_space_group_name_H-M "P 21/M"
_symmetry_group_IT_number 11
_symmetry_cell_setting 'monoclinic'
loop_
_space_group_symop_operation_xyz
x,y,z
-x,1/2+y,-z
-x,-y,-z
x,1/2-y,z
loop_
_atom_site_type_symbol
_atom_site_label
_atom_site_fract_x
_atom_site_fract_y
_atom_site_fract_z
Si Si1 0.815730 0.865738 0.596367
Si Si2 0.693524 0.136390 0.607451
Si Si3 0.726240 0.863659 0.930800
Si Si4 0.038782 0.864968 0.384709
Si Si5 0.095151 0.455427 0.870143
Si Si6 0.304236 0.489484 0.635574
Si Si7 0.532732 0.864909 0.181414
O O1 0.805793 0.750000 0.590747
O O2 0.767674 0.901622 0.763563
O O3 0.743648 0.912432 0.475231
O O4 0.952931 0.890443 0.538998
O O5 0.694488 0.250000 0.576914
O O6 0.827072 0.103699 0.615703
O O7 0.605589 0.120692 0.762812
O O8 0.651204 0.078449 0.469988
O O9 0.728531 0.750000 0.915280
O O10 0.819378 0.890870 0.042390
O O11 0.594697 0.888961 0.012407
O O12 0.040969 0.750000 0.374387
O O13 0.978613 0.902599 0.245197
O O14 0.192482 0.518468 0.761534
O O15 0.000000 0.500000 0.000000
O O16 0.400277 0.433801 0.715165
O O17 0.555806 0.750000 0.204353
#
# Coordination Sequence:
#
# PCOD9161937 Si02
#       7
#     4   4   4   4   4   4   4
#     4   9  18  32  56  84 106 132 173 221 266 308
#     4  10  21  35  55  77 105 145 181 213 258 320
#     4   9  18  33  54  78 104 135 174 222 263 305
#     4   9  19  35  53  76 106 140 174 211 264 319
#     4  10  21  32  52  78 108 136 174 216 269 317
#     4  10  20  34  56  79 107 137 180 222 264 305
#     4   9  18  36  58  78 104 138 179 219 263 311
#
# _framework density 19.807856999999998
#
# number of rings (size 3 to 8) (size 9 to 14) (size 15 to 20)
#    0.000    2.571    0.000    1.286    4.000    4.571 
#    0.000    1.429    3.143    0.000    0.000    0.000 
#    0.000    0.000    0.000    0.000    0.000    0.000 
#
# Total GULP energy -156128.368123 kJ/mol
# GULP energy per Si atom -5576.013147 kJ/mol
# Density = 1.976277 g / cm^3
# Si number density = 19.807857 Si / 1000 Ang^3
#
#
#
# Elastic Constant Matrix: (Units=GPa)
#
#
# Indices 1 2 3 4 5 6 
#
# 1 57.7173 13.1939 38.6711 0.0000 -32.4682 0.0000
# 2 13.1939 47.2142 25.4858 0.0000 -18.9272 0.0000
# 3 38.6711 25.4858 144.8210 0.0000 -38.8003 0.0000
# 4 0.0000 0.0000 0.0000 28.5035 0.0000 -2.8779
# 5 -32.4682 -18.9272 -38.8003 0.0000 35.5810 0.0000
# 6 0.0000 0.0000 0.0000 -2.8779 0.0000 16.6846
#
#
#
# Elastic Compliance Matrix: (Units=1/GPa)
#
#
# Indices 1 2 3 4 5 6 
#
# 1 0.036363 0.004168 -0.001355 0.000000 0.033921 0.000000
# 2 0.004168 0.027566 -0.001436 0.000000 0.016901 0.000000
# 3 -0.001355 -0.001436 0.009866 0.000000 0.008758 0.000000
# 4 0.000000 0.000000 0.000000 0.035705 0.000000 0.006159
# 5 0.033921 0.016901 0.008758 0.000000 0.077600 0.000000
# 6 0.000000 0.000000 0.000000 0.006159 0.000000 0.060998
#
#
# Mechanical properties :
#
#
# Convention : Reuss Voigt Hill
#
# Bulk Modulus (GPa) = 13.06346 44.93932 29.00139
# Shear Modulus (GPa) = 18.45970 27.64726 23.05348
#
# Velocity S-wave (km/s) = 3.05608 3.74006 3.41523
# Velocity P-wave (km/s) = 4.36603 6.43332 5.49772
#
# Compressibility (1/GPa) = 0.07654941
#
# Stress axis : x y z
#
# Youngs Moduli (GPa) = 27.50037 36.27686 101.35634
#
# Poissons Ratio (x) = -0.15122 0.13737
# Poissons Ratio (y) = -0.11463 0.14554
# Poissons Ratio (z) = 0.03727 0.05209
#
# Static dielectric constant tensor:
#      x y z
#    x 1.706550 0.000000 -0.048690 
#    y 0.000000 1.700570 0.000000 
#    z -0.048690 0.000000 1.715150 
# 
# From -- ./inp_files/17678.got.cif
#   From: 2010.05.17/outbox.cif.g08.bks.cpg/sg11_9_cif.got.tgz:17678.got - 2010.06.03 12:22:45.
