data_PCOD9161266
_publ_section_title
;
Structure prediction by ZEFSAII (Michael W. Deem and Ramdas Pophale) SiO2 
 PCOD9161266
Probable space group: P 21/M
;
_chemical_formula_sum "Si O2"
_cell_formula_units_Z 32
_cell_length_a 14.738647
_cell_length_b 9.128801
_cell_length_c 20.621899
_cell_angle_alpha 90.000000
_cell_angle_beta 31.108872
_cell_angle_gamma 90.000000
_cell_volume 1433.540020
_symmetry_space_group_name_H-M "P 21/M"
_symmetry_group_IT_number 11
_symmetry_cell_setting 'monoclinic'
loop_
_space_group_symop_operation_xyz
x,y,z
-x,1/2+y,-z
-x,-y,-z
x,1/2-y,z
loop_
_atom_site_type_symbol
_atom_site_label
_atom_site_fract_x
_atom_site_fract_y
_atom_site_fract_z
Si Si1 0.022195 0.082278 0.373738
Si Si2 0.853852 0.412490 0.890146
Si Si3 0.830587 0.416555 0.348688
Si Si4 0.811655 0.073645 0.125163
Si Si5 0.485049 0.081472 0.402649
Si Si6 0.666353 0.085443 0.869578
Si Si7 0.605670 0.923188 0.134092
Si Si8 0.293513 0.082148 0.377867
O O1 0.026727 0.250000 0.393210
O O2 0.927216 0.085005 0.360475
O O3 0.898920 0.981077 0.492870
O O4 0.215624 0.014591 0.249088
O O5 0.850077 0.250000 0.923079
O O6 0.794546 0.395253 0.852553
O O7 0.045904 0.483682 0.771834
O O8 0.711068 0.521563 0.007492
O O9 0.826328 0.250000 0.327624
O O10 0.636414 0.480372 0.478463
O O11 0.824968 0.250000 0.115126
O O12 0.686409 0.037995 0.263778
O O13 0.704549 0.009153 0.130584
O O14 0.000000 0.000000 0.000000
O O15 0.480763 0.250000 0.427793
O O16 0.387387 0.079485 0.391766
O O17 0.622100 0.250000 0.872069
O O18 0.500000 0.000000 0.000000
O O19 0.616530 0.750000 0.135412
O O20 0.407883 0.979597 0.261443
O O21 0.295800 0.250000 0.354653
#
# Coordination Sequence:
#
# PCOD9161266 Si02
#       8
#     4   4   4   4   4   4   4   4
#     4   9  16  27  45  70  98 126 161 204 246 289
#     4  10  20  34  51  72 100 133 166 202 247 296
#     4   9  16  26  44  70  96 123 159 203 244 284
#     4  10  20  34  52  75 103 134 168 205 247 295
#     4   8  15  27  44  67  95 126 159 198 241 285
#     4  10  20  33  51  74 101 133 167 205 249 297
#     4  11  21  33  51  75 102 132 167 206 248 294
#     4   9  16  28  46  69  97 127 162 203 246 290
#
# _framework density 22.322364
#
# number of rings (size 3 to 8) (size 9 to 14) (size 15 to 20)
#    0.000    2.500    0.000    4.125    0.000    8.000 
#    0.000    0.000    0.000    1.500    0.000    0.000 
#    0.000    0.000    0.000    0.000    0.000    0.000 
#
# Total GULP energy -178701.806256 kJ/mol
# GULP energy per Si atom -5584.431445 kJ/mol
# Density = 2.227156 g / cm^3
# Si number density = 22.322364 Si / 1000 Ang^3
#
#
#
# Elastic Constant Matrix: (Units=GPa)
#
#
# Indices 1 2 3 4 5 6 
#
# 1 36.4737 -8.2680 -4.0499 0.0000 -13.4114 0.0000
# 2 -8.2680 137.4665 70.4036 0.0000 -18.3849 0.0000
# 3 -4.0499 70.4036 159.0180 0.0000 -29.3904 0.0000
# 4 0.0000 0.0000 0.0000 42.5477 0.0000 -1.0770
# 5 -13.4114 -18.3849 -29.3904 0.0000 18.2635 0.0000
# 6 0.0000 0.0000 0.0000 -1.0770 0.0000 7.9164
#
#
#
# Elastic Compliance Matrix: (Units=1/GPa)
#
#
# Indices 1 2 3 4 5 6 
#
# 1 0.051905 0.006188 0.009648 0.000000 0.059871 0.000000
# 2 0.006188 0.010349 -0.002361 0.000000 0.011162 0.000000
# 3 0.009648 -0.002361 0.012027 0.000000 0.024062 0.000000
# 4 0.000000 0.000000 0.000000 0.023584 0.000000 0.003209
# 5 0.059871 0.011162 0.024062 0.000000 0.148677 0.000000
# 6 0.000000 0.000000 0.000000 0.003209 0.000000 0.126756
#
#
# Mechanical properties :
#
#
# Convention : Reuss Voigt Hill
#
# Bulk Modulus (GPa) = 9.87849 49.90330 29.89090
# Shear Modulus (GPa) = 13.15468 32.07034 22.61251
#
# Velocity S-wave (km/s) = 2.43019 3.79448 3.18622
# Velocity P-wave (km/s) = 3.50848 6.44994 5.19188
#
# Compressibility (1/GPa) = 0.10123005
#
# Stress axis : x y z
#
# Youngs Moduli (GPa) = 19.26583 96.62980 83.14618
#
# Poissons Ratio (x) = -0.59793 -0.80218
# Poissons Ratio (y) = -0.11921 0.19633
# Poissons Ratio (z) = -0.18587 0.22817
#
# Static dielectric constant tensor:
#      x y z
#    x 1.922280 0.000000 0.006270 
#    y 0.000000 1.694610 0.000000 
#    z 0.006270 0.000000 1.819860 
# 
# From -- ./inp_files/72092.got.cif
#   From: 2010.05.17/outbox.cif.g08.bks.cpg/sg11_37_cif.got.tgz:72092.got - 2010.06.03 12:22:45.
