data_PCOD9161622
_publ_section_title
;
Structure prediction by ZEFSAII (Michael W. Deem and Ramdas Pophale) SiO2 
 PCOD9161622
Probable space group: P 21/M
;
_chemical_formula_sum "Si O2"
_cell_formula_units_Z 32
_cell_length_a 12.078065
_cell_length_b 7.516484
_cell_length_c 29.530422
_cell_angle_alpha 90.000000
_cell_angle_beta 31.960404
_cell_angle_gamma 90.000000
_cell_volume 1419.092742
_symmetry_space_group_name_H-M "P 21/M"
_symmetry_group_IT_number 11
_symmetry_cell_setting 'monoclinic'
loop_
_space_group_symop_operation_xyz
x,y,z
-x,1/2+y,-z
-x,-y,-z
x,1/2-y,z
loop_
_atom_site_type_symbol
_atom_site_label
_atom_site_fract_x
_atom_site_fract_y
_atom_site_fract_z
Si Si1 0.600243 0.468306 0.842960
Si Si2 0.599389 0.537763 0.416395
Si Si3 0.405421 0.032852 0.330568
Si Si4 0.031896 0.538198 0.225047
Si Si5 0.880215 0.036463 0.177266
Si Si6 0.877842 0.963628 0.995689
Si Si7 0.839465 0.454597 0.672235
Si Si8 0.779616 0.543884 0.514868
O O1 0.590472 0.250000 0.845376
O O2 0.741665 0.524857 0.836487
O O3 0.733897 0.530500 0.753323
O O4 0.361427 0.529739 0.922337
O O5 0.500000 0.500000 0.500000
O O6 0.601441 0.750000 0.410441
O O7 0.441537 0.462296 0.433788
O O8 0.834531 0.471925 0.323843
O O9 0.399643 0.250000 0.331441
O O10 0.254391 0.969182 0.423362
O O11 0.640446 0.974788 0.259863
O O12 0.329221 0.962239 0.309200
O O13 0.034153 0.750000 0.230917
O O14 0.986022 0.505026 0.188418
O O15 0.872780 0.250000 0.176521
O O16 0.999846 0.969496 0.091193
O O17 0.868859 0.750000 0.995057
O O18 0.000000 0.000000 0.000000
O O19 0.893607 0.250000 0.665465
O O20 0.046506 0.538364 0.578303
O O21 0.840733 0.750000 0.499784
#
# Coordination Sequence:
#
# PCOD9161622 Si02
#       8
#     4   4   4   4   4   4   4   4
#     4   9  19  37  57  80 111 144 181 230 280 323
#     4  11  22  35  55  81 110 148 192 235 276 330
#     4  10  20  34  52  76 112 147 179 230 285 332
#     4  10  21  38  59  82 110 147 191 231 273 333
#     4  10  21  37  57  83 115 149 184 230 287 334
#     4  10  21  38  61  86 114 148 184 226 279 336
#     4  10  20  34  55  79 107 145 189 233 276 331
#     4  10  20  35  53  76 109 148 185 228 281 331
#
# _framework density 22.549619
#
# number of rings (size 3 to 8) (size 9 to 14) (size 15 to 20)
#    0.000    2.000    1.250    2.250    0.000    5.000 
#    0.000    1.250    0.000    0.000    0.000    0.000 
#    0.000    0.000    0.000    0.000    0.000    0.000 
#
# Total GULP energy -178798.919608 kJ/mol
# GULP energy per Si atom -5587.466238 kJ/mol
# Density = 2.249829 g / cm^3
# Si number density = 22.549619 Si / 1000 Ang^3
#
#
#
# Elastic Constant Matrix: (Units=GPa)
#
#
# Indices 1 2 3 4 5 6 
#
# 1 105.9449 -10.8999 67.2623 0.0000 -16.7504 0.0000
# 2 -10.8999 62.3220 9.8409 0.0000 -0.4494 0.0000
# 3 67.2623 9.8409 168.2769 0.0000 -8.2252 0.0000
# 4 0.0000 0.0000 0.0000 -4.9562 0.0000 -5.4133
# 5 -16.7504 -0.4494 -8.2252 0.0000 42.3090 0.0000
# 6 0.0000 0.0000 0.0000 -5.4133 0.0000 6.7773
#
#
#
# Elastic Compliance Matrix: (Units=1/GPa)
#
#
# Indices 1 2 3 4 5 6 
#
# 1 0.014050 0.003373 -0.005593 0.000000 0.004511 0.000000
# 2 0.003373 0.017005 -0.002290 0.000000 0.001071 0.000000
# 3 -0.005593 -0.002290 0.008281 0.000000 -0.000629 0.000000
# 4 0.000000 0.000000 0.000000 -0.107759 0.000000 -0.086071
# 5 0.004511 0.001071 -0.000629 0.000000 0.025311 0.000000
# 6 0.000000 0.000000 0.000000 -0.086071 0.000000 0.078803
#
#
# Mechanical properties :
#
#
# Convention : Reuss Voigt Hill
#
# Bulk Modulus (GPa) = 32.98605 52.10561 42.54583
# Shear Modulus (GPa) = 91.21445 26.84872 59.03159
#
# Velocity S-wave (km/s) = 6.36697 3.45432 5.12205
# Velocity P-wave (km/s) = 8.28922 6.25036 7.34092
#
# Compressibility (1/GPa) = 0.03031585
#
# Stress axis : x y z
#
# Youngs Moduli (GPa) = 71.17586 58.80633 120.75508
#
# Poissons Ratio (x) = -0.19835 0.67533
# Poissons Ratio (y) = -0.24007 0.27656
# Poissons Ratio (z) = 0.39806 0.13468
#
# Static dielectric constant tensor:
#      x y z
#    x 1.801350 0.000000 -0.007710 
#    y 0.000000 1.888870 0.000000 
#    z -0.007710 0.000000 1.848100 
# 
# From -- ./inp_files/38208.got.cif
#   From: 2010.05.17/outbox.cif.g08.bks.cpg/sg11_20_cif.got.tgz:38208.got - 2010.06.03 12:22:45.
