data_PCOD9161697
_publ_section_title
;
Structure prediction by ZEFSAII (Michael W. Deem and Ramdas Pophale) SiO2 
 PCOD9161697
Probable space group: P 21/M
;
_chemical_formula_sum "Si O2"
_cell_formula_units_Z 32
_cell_length_a 26.212964
_cell_length_b 8.616663
_cell_length_c 16.253990
_cell_angle_alpha 90.000000
_cell_angle_beta 150.161862
_cell_angle_gamma 90.000000
_cell_volume 1826.641147
_symmetry_space_group_name_H-M "P 21/M"
_symmetry_group_IT_number 11
_symmetry_cell_setting 'monoclinic'
loop_
_space_group_symop_operation_xyz
x,y,z
-x,1/2+y,-z
-x,-y,-z
x,1/2-y,z
loop_
_atom_site_type_symbol
_atom_site_label
_atom_site_fract_x
_atom_site_fract_y
_atom_site_fract_z
Si Si1 0.271960 0.938374 0.022604
Si Si2 0.190089 0.937727 0.084215
Si Si3 0.978241 0.065136 0.725315
Si Si4 0.515834 0.438265 0.760402
Si Si5 0.299030 0.563584 0.405973
Si Si6 0.950189 0.436440 0.347541
Si Si7 0.224991 0.063528 0.474433
Si Si8 0.448052 0.063621 0.845861
O O1 0.274475 0.750000 0.024256
O O2 0.169041 0.985577 0.830030
O O3 0.254718 0.983974 0.093477
O O4 0.377984 0.992315 0.131267
O O5 0.180858 0.750000 0.069964
O O6 0.244989 0.983357 0.245324
O O7 0.077384 0.007774 0.914902
O O8 0.977705 0.250000 0.720541
O O9 0.875045 0.004718 0.622996
O O10 0.992193 0.997032 0.653132
O O11 0.511526 0.250000 0.750959
O O12 0.415483 0.503283 0.574864
O O13 0.505359 0.483862 0.841700
O O14 0.298771 0.750000 0.410503
O O15 0.240089 0.495575 0.402489
O O16 0.953359 0.250000 0.352030
O O17 0.000000 0.500000 0.500000
O O18 0.219789 0.250000 0.466620
O O19 0.329293 0.016415 0.668160
O O20 0.450432 0.250000 0.852419
O O21 0.500000 0.000000 0.000000
#
# Coordination Sequence:
#
# PCOD9161697 Si02
#       8
#     4   4   4   4   4   4   4   4
#     4   8  16  33  55  75 101 139 176 213 260 311
#     4   9  19  36  55  76 106 140 173 215 265 315
#     4  11  22  36  56  81 106 137 178 221 266 314
#     4   9  18  34  53  74 102 137 175 212 257 312
#     4  10  20  34  53  79 107 136 173 216 263 314
#     4  10  20  36  56  80 111 144 179 220 264 311
#     4  10  21  38  56  76 105 140 175 214 264 317
#     4   9  19  33  51  75 102 134 170 211 259 310
#
# _framework density 17.518491999999998
#
# number of rings (size 3 to 8) (size 9 to 14) (size 15 to 20)
#    0.000    2.500    0.000    3.750    0.000    5.500 
#    0.000    4.375    0.000    0.000    0.000    0.000 
#    0.000    0.000    0.000    0.000    0.000    0.000 
#
# Total GULP energy -178530.863787 kJ/mol
# GULP energy per Si atom -5579.089493 kJ/mol
# Density = 1.747862 g / cm^3
# Si number density = 17.518492 Si / 1000 Ang^3
#
#
#
# Elastic Constant Matrix: (Units=GPa)
#
#
# Indices 1 2 3 4 5 6 
#
# 1 160.4131 46.1637 143.3027 0.0000 14.5769 0.0000
# 2 46.1637 47.2753 48.5207 0.0000 -2.0777 0.0000
# 3 143.3027 48.5207 170.0333 0.0000 -13.0934 0.0000
# 4 0.0000 0.0000 0.0000 30.7548 0.0000 -3.6844
# 5 14.5769 -2.0777 -13.0934 0.0000 39.5256 0.0000
# 6 0.0000 0.0000 0.0000 -3.6844 0.0000 24.8580
#
#
#
# Elastic Compliance Matrix: (Units=1/GPa)
#
#
# Indices 1 2 3 4 5 6 
#
# 1 0.045275 -0.005657 -0.038842 0.000000 -0.029862 0.000000
# 2 -0.005657 0.030685 -0.003801 0.000000 0.002440 0.000000
# 3 -0.038842 -0.003801 0.041857 0.000000 0.027991 0.000000
# 4 0.000000 0.000000 0.000000 0.033103 0.000000 0.004907
# 5 -0.029862 0.002440 0.027991 0.000000 0.045714 0.000000
# 6 0.000000 0.000000 0.000000 0.004907 0.000000 0.040956
#
#
# Mechanical properties :
#
#
# Convention : Reuss Voigt Hill
#
# Bulk Modulus (GPa) = 47.13278 94.85510 70.99394
# Shear Modulus (GPa) = 14.65154 28.34332 21.49743
#
# Velocity S-wave (km/s) = 2.89510 4.02669 3.50684
# Velocity P-wave (km/s) = 6.17564 8.71104 7.55052
#
# Compressibility (1/GPa) = 0.02121666
#
# Stress axis : x y z
#
# Youngs Moduli (GPa) = 22.08740 32.58963 23.89072
#
# Poissons Ratio (x) = 0.18436 0.92797
# Poissons Ratio (y) = 0.12495 0.09080
# Poissons Ratio (z) = 0.85793 0.12386
#
# Static dielectric constant tensor:
#      x y z
#    x 1.578890 0.000000 0.003110 
#    y 0.000000 1.591670 0.000000 
#    z 0.003110 0.000000 1.575960 
# 
# From -- ./inp_files/55709.got.cif
#   From: 2010.05.17/outbox.cif.g08.bks.cpg/sg11_28_cif.got.tgz:55709.got - 2010.06.03 12:22:45.
