data_PCOD9161047
_publ_section_title
;
Structure prediction by ZEFSAII (Michael W. Deem and Ramdas Pophale) SiO2 
 PCOD9161047
Probable space group: P 21/M
;
_chemical_formula_sum "Si O2"
_cell_formula_units_Z 32
_cell_length_a 25.837178
_cell_length_b 7.409668
_cell_length_c 9.737234
_cell_angle_alpha 90.000000
_cell_angle_beta 124.423374
_cell_angle_gamma 90.000000
_cell_volume 1537.700516
_symmetry_space_group_name_H-M "P 21/M"
_symmetry_group_IT_number 11
_symmetry_cell_setting 'monoclinic'
loop_
_space_group_symop_operation_xyz
x,y,z
-x,1/2+y,-z
-x,-y,-z
x,1/2-y,z
loop_
_atom_site_type_symbol
_atom_site_label
_atom_site_fract_x
_atom_site_fract_y
_atom_site_fract_z
Si Si1 0.324874 0.470083 0.828862
Si Si2 0.439455 0.034026 0.815381
Si Si3 0.183419 0.470070 0.617412
Si Si4 0.675126 0.529917 0.854241
Si Si5 0.069691 0.465799 0.948424
Si Si6 0.816581 0.970070 0.067154
Si Si7 0.069691 0.465799 0.260648
Si Si8 0.439455 0.034026 0.502983
O O1 0.325847 0.250000 0.830256
O O2 0.378116 0.533513 0.804505
O O3 0.254087 0.525048 0.683940
O O4 0.337038 0.524667 0.005557
O O5 0.432887 0.250000 0.796104
O O6 0.445847 0.965284 0.668770
O O7 0.500000 0.000000 0.000000
O O8 0.183051 0.250000 0.614259
O O9 0.173157 0.523785 0.759735
O O10 0.127317 0.534397 0.437169
O O11 0.674153 0.750000 0.852715
O O12 0.621884 0.466487 0.670156
O O13 0.745913 0.474952 0.921680
O O14 0.076561 0.250000 0.965785
O O15 0.127317 0.534397 0.944781
O O16 0.000000 0.500000 0.786767
O O17 0.071428 0.536482 0.107142
O O18 0.816949 0.750000 0.065107
O O19 0.076561 0.250000 0.263899
O O20 0.432887 0.250000 0.502556
O O21 0.500000 0.000000 0.500000
#
# Coordination Sequence:
#
# PCOD9161047 Si02
#       8
#     4   4   4   4   4   4   4   4
#     4   8  14  26  44  65  89 115 144 183 227 264
#     4  10  20  32  48  71  96 123 155 189 227 272
#     4   8  14  25  42  64  87 111 142 180 219 256
#     4   8  14  26  44  65  89 115 144 183 227 264
#     4   9  17  28  42  61  85 112 141 175 215 257
#     4   8  14  25  42  64  87 111 142 180 219 256
#     4   9  17  28  42  61  85 112 141 175 215 257
#     4  10  20  32  48  71  96 123 155 189 227 272
#
# _framework density 20.810293999999999
#
# number of rings (size 3 to 8) (size 9 to 14) (size 15 to 20)
#    0.000    3.250    0.000    2.250    0.000    3.000 
#    0.000    5.000    0.000    1.500    0.000    7.000 
#    0.000    0.000    0.000    0.000    0.000    0.000 
#
# Total GULP energy -178530.342209 kJ/mol
# GULP energy per Si atom -5579.073194 kJ/mol
# Density = 2.076293 g / cm^3
# Si number density = 20.810294 Si / 1000 Ang^3
#
#
#
# Elastic Constant Matrix: (Units=GPa)
#
#
# Indices 1 2 3 4 5 6 
#
# 1 221.4258 3.5356 124.5659 0.0000 13.3046 0.0000
# 2 3.5356 69.6688 4.3628 0.0000 -1.4624 0.0000
# 3 124.5659 4.3628 199.3904 0.0000 25.6496 0.0000
# 4 0.0000 0.0000 0.0000 6.8177 0.0000 7.3371
# 5 13.3046 -1.4624 25.6496 0.0000 22.8435 0.0000
# 6 0.0000 0.0000 0.0000 7.3371 0.0000 10.9681
#
#
#
# Elastic Compliance Matrix: (Units=1/GPa)
#
#
# Indices 1 2 3 4 5 6 
#
# 1 0.006982 -0.000053 -0.004485 0.000000 0.000966 0.000000
# 2 -0.000053 0.014417 -0.000473 0.000000 0.001485 0.000000
# 3 -0.004485 -0.000473 0.008761 0.000000 -0.007255 0.000000
# 4 0.000000 0.000000 0.000000 0.523674 0.000000 -0.350310
# 5 0.000966 0.001485 -0.007255 0.000000 0.051455 0.000000
# 6 0.000000 0.000000 0.000000 -0.350310 0.000000 0.325512
#
#
# Mechanical properties :
#
#
# Convention : Reuss Voigt Hill
#
# Bulk Modulus (GPa) = 49.65967 83.93483 66.79725
# Shear Modulus (GPa) = 5.27684 31.99391 18.63538
#
# Velocity S-wave (km/s) = 1.59411 3.92523 2.99572
# Velocity P-wave (km/s) = 5.22524 7.80795 6.64331
#
# Compressibility (1/GPa) = 0.02013706
#
# Stress axis : x y z
#
# Youngs Moduli (GPa) = 143.22290 69.36181 114.14308
#
# Poissons Ratio (x) = 0.00369 0.51194
# Poissons Ratio (y) = 0.00762 0.05403
# Poissons Ratio (z) = 0.64237 0.03283
#
# Static dielectric constant tensor:
#      x y z
#    x 1.724830 0.000000 -0.005700 
#    y 0.000000 1.833660 0.000000 
#    z -0.005700 0.000000 1.728050 
# 
# From -- ./inp_files/27527.got.cif
#   From: 2010.05.17/outbox.cif.g08.bks.cpg/sg11_14_cif.got.tgz:27527.got - 2010.06.03 12:22:45.
