data_PCOD9161725
_publ_section_title
;
Structure prediction by ZEFSAII (Michael W. Deem and Ramdas Pophale) SiO2 
 PCOD9161725
Probable space group: P 21/M
;
_chemical_formula_sum "Si O2"
_cell_formula_units_Z 32
_cell_length_a 11.707122
_cell_length_b 11.474954
_cell_length_c 12.776675
_cell_angle_alpha 90.000000
_cell_angle_beta 96.954140
_cell_angle_gamma 90.000000
_cell_volume 1703.774819
_symmetry_space_group_name_H-M "P 21/M"
_symmetry_group_IT_number 11
_symmetry_cell_setting 'monoclinic'
loop_
_space_group_symop_operation_xyz
x,y,z
-x,1/2+y,-z
-x,-y,-z
x,1/2-y,z
loop_
_atom_site_type_symbol
_atom_site_label
_atom_site_fract_x
_atom_site_fract_y
_atom_site_fract_z
Si Si1 0.040980 0.004823 0.220091
Si Si2 0.694780 0.119090 0.542680
Si Si3 0.160693 0.379765 0.405825
Si Si4 0.247551 0.610382 0.119181
Si Si5 0.908597 0.618644 0.379648
Si Si6 0.311240 0.542815 0.688618
Si Si7 0.808981 0.116056 0.118620
Si Si8 0.533580 0.384919 0.716658
O O1 0.096634 0.112651 0.288427
O O2 0.922866 0.039499 0.150833
O O3 0.135202 0.948720 0.156013
O O4 0.008384 0.920078 0.313206
O O5 0.746404 0.250000 0.572424
O O6 0.672589 0.115323 0.416168
O O7 0.582684 0.111808 0.603737
O O8 0.762770 0.997853 0.576328
O O9 0.217116 0.250000 0.422687
O O10 0.070956 0.385750 0.493227
O O11 0.236858 0.750000 0.129831
O O12 0.360910 0.576992 0.196945
O O13 0.252014 0.582322 0.996686
O O14 0.876888 0.750000 0.350054
O O15 0.798916 0.538345 0.347337
O O16 0.274785 0.606698 0.790886
O O17 0.423752 0.465343 0.717044
O O18 0.846457 0.250000 0.112337
O O19 0.505674 0.250000 0.737767
#
# Coordination Sequence:
#
# PCOD9161725 Si02
#       8
#     4   4   4   4   4   4   4   4
#     4  11  19  34  57  80 110 150 194 238 287 344
#     4  10  20  36  59  88 119 153 191 232 285 349
#     4  10  20  34  53  83 121 154 186 233 292 346
#     4  10  21  37  58  83 111 148 194 242 291 341
#     4   9  19  32  50  81 114 148 188 234 288 347
#     4  10  20  35  57  82 113 151 188 237 287 346
#     4  10  22  38  55  79 112 151 194 242 292 341
#     4  10  20  36  59  85 113 147 190 239 289 344
#
# _framework density 18.781825000000001
#
# number of rings (size 3 to 8) (size 9 to 14) (size 15 to 20)
#    0.000    2.000    1.250    2.625    0.000    1.500 
#    0.000    4.375    0.000    2.250    0.000    0.000 
#    0.000    0.000    0.000    0.000    0.000    0.000 
#
# Total GULP energy -178331.879499 kJ/mol
# GULP energy per Si atom -5572.871234 kJ/mol
# Density = 1.873908 g / cm^3
# Si number density = 18.781825 Si / 1000 Ang^3
#
#
#
# Elastic Constant Matrix: (Units=GPa)
#
#
# Indices 1 2 3 4 5 6 
#
# 1 61.1746 12.4628 36.3185 0.0000 4.9256 0.0000
# 2 12.4628 69.1672 9.5910 0.0000 2.5085 0.0000
# 3 36.3185 9.5910 111.0380 0.0000 -0.0883 0.0000
# 4 0.0000 0.0000 0.0000 7.7450 0.0000 0.8509
# 5 4.9256 2.5085 -0.0883 0.0000 11.8161 0.0000
# 6 0.0000 0.0000 0.0000 0.8509 0.0000 22.9841
#
#
#
# Elastic Compliance Matrix: (Units=1/GPa)
#
#
# Indices 1 2 3 4 5 6 
#
# 1 0.021641 -0.002640 -0.006857 0.000000 -0.008512 0.000000
# 2 -0.002640 0.015071 -0.000440 0.000000 -0.002102 0.000000
# 3 -0.006857 -0.000440 0.011289 0.000000 0.003036 0.000000
# 4 0.000000 0.000000 0.000000 0.129642 0.000000 -0.004800
# 5 -0.008512 -0.002102 0.003036 0.000000 0.088648 0.000000
# 6 0.000000 0.000000 0.000000 -0.004800 0.000000 0.043686
#
#
# Mechanical properties :
#
#
# Convention : Reuss Voigt Hill
#
# Bulk Modulus (GPa) = 35.55317 39.79160 37.67238
# Shear Modulus (GPa) = 14.73946 20.70954 17.72450
#
# Velocity S-wave (km/s) = 2.80442 3.32420 3.07531
# Velocity P-wave (km/s) = 5.42743 5.99716 5.71940
#
# Compressibility (1/GPa) = 0.02812689
#
# Stress axis : x y z
#
# Youngs Moduli (GPa) = 46.20916 66.35426 88.58057
#
# Poissons Ratio (x) = 0.17516 0.60740
# Poissons Ratio (y) = 0.12198 0.03897
# Poissons Ratio (z) = 0.31686 0.02919
#
# Static dielectric constant tensor:
#      x y z
#    x 1.639520 0.000000 0.021070 
#    y 0.000000 1.675560 0.000000 
#    z 0.021070 0.000000 1.679480 
# 
# From -- ./inp_files/34818.got.cif
#   From: 2010.05.17/outbox.cif.g08.bks.cpg/sg11_18_cif.got.tgz:34818.got - 2010.06.03 12:22:45.
