data_PCOD9161724
_publ_section_title
;
Structure prediction by ZEFSAII (Michael W. Deem and Ramdas Pophale) SiO2 
 PCOD9161724
Probable space group: P 21/M
;
_chemical_formula_sum "Si O2"
_cell_formula_units_Z 24
_cell_length_a 9.690219
_cell_length_b 18.705194
_cell_length_c 13.181766
_cell_angle_alpha 90.000000
_cell_angle_beta 147.860165
_cell_angle_gamma 90.000000
_cell_volume 1271.073794
_symmetry_space_group_name_H-M "P 21/M"
_symmetry_group_IT_number 11
_symmetry_cell_setting 'monoclinic'
loop_
_space_group_symop_operation_xyz
x,y,z
-x,1/2+y,-z
-x,-y,-z
x,1/2-y,z
loop_
_atom_site_type_symbol
_atom_site_label
_atom_site_fract_x
_atom_site_fract_y
_atom_site_fract_z
Si Si1 0.693860 0.830672 0.218959
Si Si2 0.802883 0.510921 0.285167
Si Si3 0.378862 0.171343 0.583346
Si Si4 0.688650 0.037782 0.697721
Si Si5 0.762389 0.002910 0.967651
Si Si6 0.136866 0.619804 0.832473
O O1 0.796756 0.750000 0.262470
O O2 0.677372 0.839024 0.331600
O O3 0.823331 0.905673 0.264810
O O4 0.403114 0.836710 0.993374
O O5 0.507662 0.497176 0.140050
O O6 0.860306 0.450248 0.238452
O O7 0.000000 0.500000 0.500000
O O8 0.490362 0.250000 0.641265
O O9 0.564268 0.111989 0.653318
O O10 0.109657 0.164014 0.354908
O O11 0.500000 0.000000 0.500000
O O12 0.700638 0.993981 0.810974
O O13 0.987334 0.044160 0.848938
O O14 0.864664 0.083363 0.057406
#
# Coordination Sequence:
#
# PCOD9161724 Si02
#       6
#     4   4   4   4   4   4
#     4  10  20  34  53  83 118 145 186 242 290 331
#     4  11  20  36  59  85 120 151 196 235 284 344
#     4  11  21  35  56  86 115 145 187 241 294 329
#     4  11  20  36  57  80 115 147 189 236 275 338
#     4  10  21  33  55  86 106 146 196 227 283 327
#     4  11  19  36  57  86 114 148 189 237 279 347
#
# _framework density 18.881672999999999
#
# number of rings (size 3 to 8) (size 9 to 14) (size 15 to 20)
#    0.000    1.333    6.667    2.500    0.000    0.000 
#    0.000    0.000    0.000    6.000    0.000    0.000 
#    0.000    0.000    0.000    0.000    0.000    0.000 
#
# Total GULP energy -133756.064711 kJ/mol
# GULP energy per Si atom -5573.169363 kJ/mol
# Density = 1.883870 g / cm^3
# Si number density = 18.881673 Si / 1000 Ang^3
#
#
#
# Elastic Constant Matrix: (Units=GPa)
#
#
# Indices 1 2 3 4 5 6 
#
# 1 43.2080 21.9777 8.9175 0.0000 -8.7984 0.0000
# 2 21.9777 109.4322 15.3448 0.0000 -0.1516 0.0000
# 3 8.9175 15.3448 118.3140 0.0000 -8.3272 0.0000
# 4 0.0000 0.0000 0.0000 21.5147 0.0000 5.8468
# 5 -8.7984 -0.1516 -8.3272 0.0000 28.7383 0.0000
# 6 0.0000 0.0000 0.0000 5.8468 0.0000 20.6214
#
#
#
# Elastic Compliance Matrix: (Units=1/GPa)
#
#
# Indices 1 2 3 4 5 6 
#
# 1 0.027760 -0.005451 -0.000806 0.000000 0.008237 0.000000
# 2 -0.005451 0.010380 -0.001071 0.000000 -0.001924 0.000000
# 3 -0.000806 -0.001071 0.008814 0.000000 0.002302 0.000000
# 4 0.000000 0.000000 0.000000 0.050360 0.000000 -0.014279
# 5 0.008237 -0.001924 0.002302 0.000000 0.037975 0.000000
# 6 0.000000 0.000000 0.000000 -0.014279 0.000000 0.052542
#
#
# Mechanical properties :
#
#
# Convention : Reuss Voigt Hill
#
# Bulk Modulus (GPa) = 30.96045 40.38157 35.67101
# Shear Modulus (GPa) = 23.44644 29.15582 26.30113
#
# Velocity S-wave (km/s) = 3.52768 3.93381 3.73627
# Velocity P-wave (km/s) = 5.74677 6.48585 6.12746
#
# Compressibility (1/GPa) = 0.03229927
#
# Stress axis : x y z
#
# Youngs Moduli (GPa) = 36.02323 96.33660 113.45994
#
# Poissons Ratio (x) = 0.52511 0.09141
# Poissons Ratio (y) = 0.19635 0.12150
# Poissons Ratio (z) = 0.02902 0.10317
#
# Static dielectric constant tensor:
#      x y z
#    x 1.706690 0.000000 -0.025500 
#    y 0.000000 1.680620 0.000000 
#    z -0.025500 0.000000 1.701970 
# 
# From -- ./inp_files/50436.got.cif
#   From: 2010.05.17/outbox.cif.g08.bks.cpg/sg11_26_cif.got.tgz:50436.got - 2010.06.03 12:22:45.
