data_PCOD9161270
_publ_section_title
;
Structure prediction by ZEFSAII (Michael W. Deem and Ramdas Pophale) SiO2 
 PCOD9161270
Probable space group: P 21/M
;
_chemical_formula_sum "Si O2"
_cell_formula_units_Z 32
_cell_length_a 26.678477
_cell_length_b 8.431982
_cell_length_c 16.499934
_cell_angle_alpha 90.000000
_cell_angle_beta 151.021884
_cell_angle_gamma 90.000000
_cell_volume 1798.227992
_symmetry_space_group_name_H-M "P 21/M"
_symmetry_group_IT_number 11
_symmetry_cell_setting 'monoclinic'
loop_
_space_group_symop_operation_xyz
x,y,z
-x,1/2+y,-z
-x,-y,-z
x,1/2-y,z
loop_
_atom_site_type_symbol
_atom_site_label
_atom_site_fract_x
_atom_site_fract_y
_atom_site_fract_z
Si Si1 0.475833 0.441575 0.719992
Si Si2 0.702143 0.441657 0.097108
Si Si3 0.948666 0.440033 0.845395
Si Si4 0.771480 0.941723 0.025276
Si Si5 0.202135 0.941834 0.597809
Si Si6 0.455004 0.060262 0.352067
Si Si7 0.976137 0.943123 0.222642
Si Si8 0.729176 0.559806 0.476806
O O1 0.475174 0.250000 0.718141
O O2 0.480872 0.500063 0.634781
O O3 0.374775 0.495994 0.625421
O O4 0.583318 0.493116 0.914317
O O5 0.703647 0.250000 0.098975
O O6 0.748218 0.496439 0.247767
O O7 0.766313 0.500829 0.110476
O O8 0.946975 0.250000 0.843265
O O9 0.831883 0.500331 0.667765
O O10 0.011490 0.492133 0.853612
O O11 0.000000 0.500000 0.000000
O O12 0.772560 0.750000 0.026853
O O13 0.663830 0.993390 0.831065
O O14 0.872588 0.998800 0.120405
O O15 0.203970 0.750000 0.599219
O O16 0.082295 0.991537 0.417469
O O17 0.262091 0.000734 0.603153
O O18 0.455747 0.250000 0.353129
O O19 0.500000 0.000000 0.500000
O O20 0.973817 0.750000 0.220126
O O21 0.729682 0.750000 0.477515
#
# Coordination Sequence:
#
# PCOD9161270 Si02
#       8
#     4   4   4   4   4   4   4   4
#     4   9  19  35  52  71 100 135 168 206 252 300
#     4   9  18  33  51  73 101 131 164 204 251 299
#     4  10  20  35  54  76 103 134 167 205 250 300
#     4   9  18  33  51  71  96 128 165 201 242 296
#     4   9  18  33  52  73 100 133 165 202 251 303
#     4  10  20  33  51  74  99 129 165 206 251 300
#     4   8  16  32  51  70  97 131 162 196 243 296
#     4  10  20  34  52  74 100 132 170 210 251 294
#
# _framework density 17.795296
#
# number of rings (size 3 to 8) (size 9 to 14) (size 15 to 20)
#    0.000    2.750    0.000    1.875    0.000    4.000 
#    0.000    5.625    0.000    0.000    0.000    0.000 
#    0.000    0.000    0.000    0.000    0.000    0.000 
#
# Total GULP energy -178453.794935 kJ/mol
# GULP energy per Si atom -5576.681092 kJ/mol
# Density = 1.775479 g / cm^3
# Si number density = 17.795296 Si / 1000 Ang^3
#
#
#
# Elastic Constant Matrix: (Units=GPa)
#
#
# Indices 1 2 3 4 5 6 
#
# 1 192.0021 23.0668 132.0571 0.0000 7.1197 0.0000
# 2 23.0668 14.1503 20.9657 0.0000 -0.3341 0.0000
# 3 132.0571 20.9657 127.1180 0.0000 -18.8005 0.0000
# 4 0.0000 0.0000 0.0000 21.5330 0.0000 -3.9486
# 5 7.1197 -0.3341 -18.8005 0.0000 40.0326 0.0000
# 6 0.0000 0.0000 0.0000 -3.9486 0.0000 30.2654
#
#
#
# Elastic Compliance Matrix: (Units=1/GPa)
#
#
# Indices 1 2 3 4 5 6 
#
# 1 0.028010 0.001850 -0.032387 0.000000 -0.020176 0.000000
# 2 0.001850 0.095479 -0.018914 0.000000 -0.008415 0.000000
# 3 -0.032387 -0.018914 0.048854 0.000000 0.028545 0.000000
# 4 0.000000 0.000000 0.000000 0.047579 0.000000 0.006207
# 5 -0.020176 -0.008415 0.028545 0.000000 0.041904 0.000000
# 6 0.000000 0.000000 0.000000 0.006207 0.000000 0.033851
#
#
# Mechanical properties :
#
#
# Convention : Reuss Voigt Hill
#
# Bulk Modulus (GPa) = 13.61656 76.16106 44.88881
# Shear Modulus (GPa) = 11.93154 28.84492 20.38823
#
# Velocity S-wave (km/s) = 2.59219 4.03044 3.38850
# Velocity P-wave (km/s) = 4.07770 8.03434 6.37096
#
# Compressibility (1/GPa) = 0.07344001
#
# Stress axis : x y z
#
# Youngs Moduli (GPa) = 35.70186 10.47353 20.46928
#
# Poissons Ratio (x) = -0.01938 0.66294
# Poissons Ratio (y) = -0.06606 0.38716
# Poissons Ratio (z) = 1.15628 0.19810
#
# Static dielectric constant tensor:
#      x y z
#    x 1.587310 0.000000 0.009790 
#    y 0.000000 1.613260 0.000000 
#    z 0.009790 0.000000 1.600730 
# 
# From -- ./inp_files/51780.got.cif
#   From: 2010.05.17/outbox.cif.g08.bks.cpg/sg11_26_cif.got.tgz:51780.got - 2010.06.03 12:22:45.
