data_PCOD9161344
_publ_section_title
;
Structure prediction by ZEFSAII (Michael W. Deem and Ramdas Pophale) SiO2 
 PCOD9161344
Probable space group: P 21/M
;
_chemical_formula_sum "Si O2"
_cell_formula_units_Z 28
_cell_length_a 9.124433
_cell_length_b 9.008781
_cell_length_c 26.213048
_cell_angle_alpha 90.000000
_cell_angle_beta 134.183364
_cell_angle_gamma 90.000000
_cell_volume 1545.172731
_symmetry_space_group_name_H-M "P 21/M"
_symmetry_group_IT_number 11
_symmetry_cell_setting 'monoclinic'
loop_
_space_group_symop_operation_xyz
x,y,z
-x,1/2+y,-z
-x,-y,-z
x,1/2-y,z
loop_
_atom_site_type_symbol
_atom_site_label
_atom_site_fract_x
_atom_site_fract_y
_atom_site_fract_z
Si Si1 0.400441 0.927107 0.363497
Si Si2 0.004084 0.572435 0.926503
Si Si3 0.624806 0.425924 0.225466
Si Si4 0.716207 0.925604 0.769787
Si Si5 0.049633 0.927650 0.359562
Si Si6 0.329957 0.925728 0.080931
Si Si7 0.831780 0.428208 0.495780
O O1 0.432440 0.750000 0.371649
O O2 0.231753 0.965432 0.365052
O O3 0.320469 0.979466 0.289138
O O4 0.611371 0.008685 0.427350
O O5 0.967057 0.750000 0.926741
O O6 0.929730 0.544289 0.851015
O O7 0.850116 0.478642 0.924405
O O8 0.232754 0.540824 0.001703
O O9 0.641487 0.250000 0.224466
O O10 0.462973 0.455548 0.232155
O O11 0.528632 0.492280 0.150337
O O12 0.840608 0.495318 0.292289
O O13 0.707714 0.750000 0.755328
O O14 0.019732 0.750000 0.350563
O O15 0.113325 0.967187 0.432543
O O16 0.360477 0.750000 0.092402
O O17 0.833358 0.250000 0.491138
O O18 0.000000 0.500000 0.500000
#
# Coordination Sequence:
#
# PCOD9161344 Si02
#       7
#     4   4   4   4   4   4   4
#     4  11  23  38  56  80 109 140 175 214 258 310
#     4   8  15  27  44  70 103 137 174 217 263 310
#     4  10  20  33  52  78 107 139 177 220 264 312
#     4   9  18  33  52  77 108 140 177 219 262 310
#     4  10  23  40  56  77 107 141 176 214 258 309
#     4   9  15  25  45  72 103 137 172 216 267 312
#     4  11  23  40  62  85 108 136 171 213 260 308
#
# _framework density 18.120951999999999
#
# number of rings (size 3 to 8) (size 9 to 14) (size 15 to 20)
#    0.000    2.286    0.000    3.857    0.000    8.000 
#    0.000    0.000    0.000    0.857    0.000    0.000 
#    0.000    0.000    0.000    0.000    0.000    0.000 
#
# Total GULP energy -156183.567053 kJ/mol
# GULP energy per Si atom -5577.984538 kJ/mol
# Density = 1.807971 g / cm^3
# Si number density = 18.120952 Si / 1000 Ang^3
#
#
#
# Elastic Constant Matrix: (Units=GPa)
#
#
# Indices 1 2 3 4 5 6 
#
# 1 77.2874 49.0516 77.4161 0.0000 -3.2599 0.0000
# 2 49.0516 47.3789 68.1853 0.0000 -6.1721 0.0000
# 3 77.4161 68.1853 187.7819 0.0000 -22.0079 0.0000
# 4 0.0000 0.0000 0.0000 32.6123 0.0000 3.3508
# 5 -3.2599 -6.1721 -22.0079 0.0000 -11.4689 0.0000
# 6 0.0000 0.0000 0.0000 3.3508 0.0000 21.8724
#
#
#
# Elastic Compliance Matrix: (Units=1/GPa)
#
#
# Indices 1 2 3 4 5 6 
#
# 1 0.036784 -0.034914 -0.001233 0.000000 0.010700 0.000000
# 2 -0.034914 0.076892 -0.014052 0.000000 -0.004490 0.000000
# 3 -0.001233 -0.014052 0.009685 0.000000 -0.010673 0.000000
# 4 0.000000 0.000000 0.000000 0.031154 0.000000 -0.004773
# 5 0.010700 -0.004490 -0.010673 0.000000 -0.067337 0.000000
# 6 0.000000 0.000000 0.000000 -0.004773 0.000000 0.046451
#
#
# Mechanical properties :
#
#
# Convention : Reuss Voigt Hill
#
# Bulk Modulus (GPa) = 43.55042 77.97267 60.76154
# Shear Modulus (GPa) = 20.68835 16.45618 18.57227
#
# Velocity S-wave (km/s) = 3.38254 3.01679 3.20489
# Velocity P-wave (km/s) = 6.27223 7.43351 6.87742
#
# Compressibility (1/GPa) = 0.02296189
#
# Stress axis : x y z
#
# Youngs Moduli (GPa) = 27.18578 13.00529 103.24769
#
# Poissons Ratio (x) = 0.45407 0.12732
# Poissons Ratio (y) = 0.94917 1.45089
# Poissons Ratio (z) = 0.03352 0.18276
#
# Static dielectric constant tensor:
#      x y z
#    x 1.589600 0.000000 -0.012140 
#    y 0.000000 1.603340 0.000000 
#    z -0.012140 0.000000 1.643000 
# 
# From -- ./inp_files/29082.got.cif
#   From: 2010.05.17/outbox.cif.g08.bks.cpg/sg11_15_cif.got.tgz:29082.got - 2010.06.03 12:22:45.
