data_PCOD9161538
_publ_section_title
;
Structure prediction by ZEFSAII (Michael W. Deem and Ramdas Pophale) SiO2 
 PCOD9161538
Probable space group: P 21/M
;
_chemical_formula_sum "Si O2"
_cell_formula_units_Z 32
_cell_length_a 12.953314
_cell_length_b 8.917958
_cell_length_c 21.803666
_cell_angle_alpha 90.000000
_cell_angle_beta 126.766863
_cell_angle_gamma 90.000000
_cell_volume 2017.671545
_symmetry_space_group_name_H-M "P 21/M"
_symmetry_group_IT_number 11
_symmetry_cell_setting 'monoclinic'
loop_
_space_group_symop_operation_xyz
x,y,z
-x,1/2+y,-z
-x,-y,-z
x,1/2-y,z
loop_
_atom_site_type_symbol
_atom_site_label
_atom_site_fract_x
_atom_site_fract_y
_atom_site_fract_z
Si Si1 0.289681 0.929431 0.167931
Si Si2 0.024117 0.071562 0.413050
Si Si3 0.519093 0.071316 0.321602
Si Si4 0.425543 0.570506 0.416152
Si Si5 0.879238 0.070423 0.677639
Si Si6 0.796442 0.928726 0.407397
Si Si7 0.887913 0.070999 0.002049
Si Si8 0.034126 0.570269 0.157436
O O1 0.311600 0.750000 0.180900
O O2 0.242176 0.963664 0.081880
O O3 0.168493 0.965287 0.169768
O O4 0.413587 0.017070 0.234873
O O5 0.003522 0.250000 0.405266
O O6 0.136837 0.039706 0.502867
O O7 0.896989 0.989783 0.393079
O O8 0.066054 0.012857 0.361875
O O9 0.520748 0.250000 0.326839
O O10 0.476998 0.000220 0.371618
O O11 0.659783 0.009287 0.355308
O O12 0.500000 0.500000 0.500000
O O13 0.444236 0.750000 0.421137
O O14 0.273070 0.540769 0.368632
O O15 0.893824 0.250000 0.674848
O O16 0.949100 0.027118 0.765918
O O17 0.781150 0.750000 0.396164
O O18 0.901833 0.250000 0.007381
O O19 0.000000 0.000000 0.000000
O O20 0.917214 0.006229 0.079397
O O21 0.019675 0.750000 0.148385
#
# Coordination Sequence:
#
# PCOD9161538 Si02
#       8
#     4   4   4   4   4   4   4   4
#     4   9  17  32  48  67 100 137 169 204 249 299
#     4  10  21  36  55  78  99 124 168 219 257 298
#     4  12  23  33  50  76 103 133 171 212 253 298
#     4  11  22  36  50  69 101 137 173 207 248 303
#     4  10  20  34  51  71 101 138 169 203 251 303
#     4  10  21  38  57  73  97 133 169 212 262 304
#     4   9  17  28  45  68  96 131 167 205 248 295
#     4   9  17  31  48  69  99 135 170 205 246 297
#
# _framework density 15.859866
#
# number of rings (size 3 to 8) (size 9 to 14) (size 15 to 20)
#    0.000    2.000    1.250    4.125    0.000    7.500 
#    0.000    0.000    0.000    0.000    0.000    0.875 
#    0.000    0.000    0.000    0.000    0.000    0.000 
#
# Total GULP energy -178568.090976 kJ/mol
# GULP energy per Si atom -5580.252843 kJ/mol
# Density = 1.582377 g / cm^3
# Si number density = 15.859866 Si / 1000 Ang^3
#
#
#
# Elastic Constant Matrix: (Units=GPa)
#
#
# Indices 1 2 3 4 5 6 
#
# 1 66.9743 50.3995 54.6783 0.0000 11.2121 0.0000
# 2 50.3995 74.5643 71.7671 0.0000 6.6343 0.0000
# 3 54.6783 71.7671 138.0857 0.0000 9.6570 0.0000
# 4 0.0000 0.0000 0.0000 30.4828 0.0000 -1.5816
# 5 11.2121 6.6343 9.6570 0.0000 12.6585 0.0000
# 6 0.0000 0.0000 0.0000 -1.5816 0.0000 26.0209
#
#
#
# Elastic Compliance Matrix: (Units=1/GPa)
#
#
# Indices 1 2 3 4 5 6 
#
# 1 0.034625 -0.019614 -0.002209 0.000000 -0.018704 0.000000
# 2 -0.019614 0.038103 -0.012523 0.000000 0.006957 0.000000
# 3 -0.002209 -0.012523 0.014820 0.000000 -0.002786 0.000000
# 4 0.000000 0.000000 0.000000 0.032909 0.000000 0.002000
# 5 -0.018704 0.006957 -0.002786 0.000000 0.094045 0.000000
# 6 0.000000 0.000000 0.000000 0.002000 0.000000 0.038552
#
#
# Mechanical properties :
#
#
# Convention : Reuss Voigt Hill
#
# Bulk Modulus (GPa) = 53.03116 70.36822 61.69969
# Shear Modulus (GPa) = 15.24238 20.68439 17.96338
#
# Velocity S-wave (km/s) = 3.10347 3.61528 3.36911
# Velocity P-wave (km/s) = 6.80823 7.86715 7.35677
#
# Compressibility (1/GPa) = 0.01885684
#
# Stress axis : x y z
#
# Youngs Moduli (GPa) = 28.88046 26.24457 67.47625
#
# Poissons Ratio (x) = 0.51476 0.14904
# Poissons Ratio (y) = 0.56646 0.84502
# Poissons Ratio (z) = 0.06379 0.32867
#
# Static dielectric constant tensor:
#      x y z
#    x 1.497580 0.000000 -0.007080 
#    y 0.000000 1.530910 0.000000 
#    z -0.007080 0.000000 1.548320 
# 
# From -- ./inp_files/42816.got.cif
#   From: 2010.05.17/outbox.cif.g08.bks.cpg/sg11_22_cif.got.tgz:42816.got - 2010.06.03 12:22:45.
