data_PCOD9161190
_publ_section_title
;
Structure prediction by ZEFSAII (Michael W. Deem and Ramdas Pophale) SiO2 
 PCOD9161190
Probable space group: P 21/M
;
_chemical_formula_sum "Si O2"
_cell_formula_units_Z 32
_cell_length_a 23.891509
_cell_length_b 8.947447
_cell_length_c 16.872327
_cell_angle_alpha 90.000000
_cell_angle_beta 30.993214
_cell_angle_gamma 90.000000
_cell_volume 1857.254496
_symmetry_space_group_name_H-M "P 21/M"
_symmetry_group_IT_number 11
_symmetry_cell_setting 'monoclinic'
loop_
_space_group_symop_operation_xyz
x,y,z
-x,1/2+y,-z
-x,-y,-z
x,1/2-y,z
loop_
_atom_site_type_symbol
_atom_site_label
_atom_site_fract_x
_atom_site_fract_y
_atom_site_fract_z
Si Si1 0.862670 0.571325 0.835996
Si Si2 0.666101 0.429039 0.164342
Si Si3 0.756028 0.429115 0.468303
Si Si4 0.880754 0.571632 0.636758
Si Si5 0.441226 0.071746 0.374937
Si Si6 0.118664 0.569586 0.525745
Si Si7 0.117556 0.929402 0.846636
Si Si8 0.316521 0.428533 0.689783
O O1 0.855661 0.750000 0.857617
O O2 0.828744 0.540344 0.785690
O O3 0.990265 0.529417 0.690877
O O4 0.780742 0.487831 0.993090
O O5 0.666368 0.250000 0.170341
O O6 0.567147 0.473375 0.226037
O O7 0.643757 0.498907 0.277388
O O8 0.747209 0.250000 0.481165
O O9 0.638156 0.495731 0.591777
O O10 0.812586 0.477654 0.481151
O O11 0.833374 0.466843 0.299665
O O12 0.889323 0.750000 0.618460
O O13 0.836079 0.501392 0.610260
O O14 0.000000 0.500000 0.500000
O O15 0.435030 0.250000 0.371509
O O16 0.391896 0.038503 0.522227
O O17 0.121692 0.750000 0.515267
O O18 0.114455 0.750000 0.858214
O O19 0.200223 0.000463 0.809288
O O20 0.000000 0.000000 0.000000
O O21 0.308494 0.250000 0.707839
#
# Coordination Sequence:
#
# PCOD9161190 Si02
#       8
#     4   4   4   4   4   4   4   4
#     4   9  19  33  50  75 107 137 164 199 254 309
#     4  11  22  34  51  77 104 130 170 219 259 301
#     4   9  19  34  53  75 100 133 171 209 249 301
#     4   9  17  31  51  75 103 135 166 202 247 301
#     4   9  20  37  53  72 100 133 172 218 259 297
#     4   9  18  33  53  78 106 134 165 205 249 303
#     4  10  20  33  49  72 103 138 171 208 253 300
#     4  10  20  35  53  71  96 135 175 213 259 304
#
# _framework density 17.229734000000001
#
# number of rings (size 3 to 8) (size 9 to 14) (size 15 to 20)
#    0.000    2.500    0.000    2.625    1.750    5.000 
#    0.000    0.000    0.000    0.750    0.000    0.000 
#    0.000    0.000    0.000    0.000    0.000    0.000 
#
# Total GULP energy -178411.016377 kJ/mol
# GULP energy per Si atom -5575.344262 kJ/mol
# Density = 1.719052 g / cm^3
# Si number density = 17.229734 Si / 1000 Ang^3
#
#
#
# Elastic Constant Matrix: (Units=GPa)
#
#
# Indices 1 2 3 4 5 6 
#
# 1 134.5834 30.9147 22.3189 0.0000 -6.2048 0.0000
# 2 30.9147 29.7034 15.3461 0.0000 1.1790 0.0000
# 3 22.3189 15.3461 23.1376 0.0000 -8.3367 0.0000
# 4 0.0000 0.0000 0.0000 21.1761 0.0000 0.4647
# 5 -6.2048 1.1790 -8.3367 0.0000 20.5832 0.0000
# 6 0.0000 0.0000 0.0000 0.4647 0.0000 31.7492
#
#
#
# Elastic Compliance Matrix: (Units=1/GPa)
#
#
# Indices 1 2 3 4 5 6 
#
# 1 0.010115 -0.009188 -0.002781 0.000000 0.002449 0.000000
# 2 -0.009188 0.067291 -0.044674 0.000000 -0.024718 0.000000
# 3 -0.002781 -0.044674 0.089164 0.000000 0.037834 0.000000
# 4 0.000000 0.000000 0.000000 0.047238 0.000000 -0.000691
# 5 0.002449 -0.024718 0.037834 0.000000 0.066061 0.000000
# 6 0.000000 0.000000 0.000000 -0.000691 0.000000 0.031507
#
#
# Mechanical properties :
#
#
# Convention : Reuss Voigt Hill
#
# Bulk Modulus (GPa) = 18.76722 36.06486 27.41604
# Shear Modulus (GPa) = 11.30144 22.62468 16.96306
#
# Velocity S-wave (km/s) = 2.56388 3.62763 3.14111
# Velocity P-wave (km/s) = 4.43629 6.20673 5.39463
#
# Compressibility (1/GPa) = 0.05328440
#
# Stress axis : x y z
#
# Youngs Moduli (GPa) = 98.86376 14.86092 11.21534
#
# Poissons Ratio (x) = 0.13654 0.03118
# Poissons Ratio (y) = 0.90837 0.50103
# Poissons Ratio (z) = 0.27489 0.66389
#
# Static dielectric constant tensor:
#      x y z
#    x 1.624160 0.000000 0.011500 
#    y 0.000000 1.572500 0.000000 
#    z 0.011500 0.000000 1.571260 
# 
# From -- ./inp_files/61731.got.cif
#   From: 2010.05.17/outbox.cif.g08.bks.cpg/sg11_31_cif.got.tgz:61731.got - 2010.06.03 12:22:45.
