data_PCOD9161441
_publ_section_title
;
Structure prediction by ZEFSAII (Michael W. Deem and Ramdas Pophale) SiO2 
 PCOD9161441
Probable space group: P 21/M
;
_chemical_formula_sum "Si O2"
_cell_formula_units_Z 28
_cell_length_a 15.578831
_cell_length_b 7.484722
_cell_length_c 21.546529
_cell_angle_alpha 90.000000
_cell_angle_beta 28.122573
_cell_angle_gamma 90.000000
_cell_volume 1184.240778
_symmetry_space_group_name_H-M "P 21/M"
_symmetry_group_IT_number 11
_symmetry_cell_setting 'monoclinic'
loop_
_space_group_symop_operation_xyz
x,y,z
-x,1/2+y,-z
-x,-y,-z
x,1/2-y,z
loop_
_atom_site_type_symbol
_atom_site_label
_atom_site_fract_x
_atom_site_fract_y
_atom_site_fract_z
Si Si1 0.404107 0.469346 0.890285
Si Si2 0.219428 0.048517 0.639442
Si Si3 0.312854 0.464062 0.085681
Si Si4 0.202684 0.463445 0.895516
Si Si5 0.803925 0.463529 0.592926
Si Si6 0.963270 0.047993 0.367170
Si Si7 0.620717 0.968254 0.341755
O O1 0.404125 0.250000 0.891449
O O2 0.274482 0.528740 0.916097
O O3 0.614513 0.529334 0.744164
O O4 0.326743 0.529261 0.006096
O O5 0.147926 0.250000 0.684854
O O6 0.224398 0.979639 0.706772
O O7 0.123734 0.945883 0.645436
O O8 0.430934 0.047082 0.484908
O O9 0.282630 0.250000 0.101279
O O10 0.155643 0.540942 0.230308
O O11 0.500000 0.500000 0.000000
O O12 0.220050 0.250000 0.887061
O O13 0.332725 0.525550 0.756877
O O14 0.000000 0.500000 0.000000
O O15 0.778835 0.250000 0.609023
O O16 0.833188 0.529116 0.503192
O O17 0.000000 0.500000 0.500000
O O18 0.998144 0.250000 0.366963
O O19 0.607990 0.750000 0.352385
#
# Coordination Sequence:
#
# PCOD9161441 Si02
#       7
#     4   4   4   4   4   4   4
#     4   9  19  36  57  79 109 149 185 219 274 341
#     4  10  20  33  54  82 107 139 183 228 273 326
#     4  10  21  37  56  80 108 143 184 225 276 335
#     4  10  21  37  57  80 111 151 192 232 276 332
#     4  10  20  36  58  82 108 142 182 227 283 338
#     4  10  21  35  54  79 109 143 179 222 280 338
#     4   9  19  36  54  76 111 146 179 225 281 327
#
# _framework density 23.643839
#
# number of rings (size 3 to 8) (size 9 to 14) (size 15 to 20)
#    0.000    2.286    0.000    2.143    2.000    4.571 
#    0.000    1.429    0.000    0.000    0.000    0.000 
#    0.000    0.000    0.000    0.000    0.000    0.000 
#
# Total GULP energy -156287.766302 kJ/mol
# GULP energy per Si atom -5581.705939 kJ/mol
# Density = 2.359002 g / cm^3
# Si number density = 23.643839 Si / 1000 Ang^3
#
#
#
# Elastic Constant Matrix: (Units=GPa)
#
#
# Indices 1 2 3 4 5 6 
#
# 1 80.4523 -3.2037 -14.5875 0.0000 8.8175 0.0000
# 2 -3.2037 67.0327 2.4974 0.0000 7.0523 0.0000
# 3 -14.5875 2.4974 54.6892 0.0000 5.4483 0.0000
# 4 0.0000 0.0000 0.0000 8.8016 0.0000 -11.2120
# 5 8.8175 7.0523 5.4483 0.0000 41.4262 0.0000
# 6 0.0000 0.0000 0.0000 -11.2120 0.0000 20.2738
#
#
#
# Elastic Compliance Matrix: (Units=1/GPa)
#
#
# Indices 1 2 3 4 5 6 
#
# 1 0.013567 0.000876 0.003933 0.000000 -0.003554 0.000000
# 2 0.000876 0.015257 -0.000188 0.000000 -0.002759 0.000000
# 3 0.003933 -0.000188 0.019681 0.000000 -0.003393 0.000000
# 4 0.000000 0.000000 0.000000 0.384466 0.000000 0.212621
# 5 -0.003554 -0.002759 -0.003393 0.000000 0.025812 0.000000
# 6 0.000000 0.000000 0.000000 0.212621 0.000000 0.166910
#
#
# Mechanical properties :
#
#
# Convention : Reuss Voigt Hill
#
# Bulk Modulus (GPa) = 17.31712 19.06517 18.19115
# Shear Modulus (GPa) = 7.86533 28.59819 18.23176
#
# Velocity S-wave (km/s) = 1.82587 3.48162 2.77988
# Velocity P-wave (km/s) = 3.43295 4.92374 4.24431
#
# Compressibility (1/GPa) = 0.05774632
#
# Stress axis : x y z
#
# Youngs Moduli (GPa) = 73.70693 65.54267 50.81077
#
# Poissons Ratio (x) = -0.05740 -0.19984
# Poissons Ratio (y) = -0.06455 0.00957
# Poissons Ratio (z) = -0.28988 0.01234
#
# Static dielectric constant tensor:
#      x y z
#    x 1.801710 0.000000 0.175510 
#    y 0.000000 2.122280 0.000000 
#    z 0.175510 0.000000 1.643650 
# 
# From -- ./inp_files/54466.got.cif
#   From: 2010.05.17/outbox.cif.g08.bks.cpg/sg11_28_cif.got.tgz:54466.got - 2010.06.03 12:22:45.
