data_PCOD9161992
_publ_section_title
;
Structure prediction by ZEFSAII (Michael W. Deem and Ramdas Pophale) SiO2 
 PCOD9161992
Probable space group: P 21/M
;
_chemical_formula_sum "Si O2"
_cell_formula_units_Z 32
_cell_length_a 20.638213
_cell_length_b 8.272542
_cell_length_c 25.594204
_cell_angle_alpha 90.000000
_cell_angle_beta 23.241228
_cell_angle_gamma 90.000000
_cell_volume 1724.301810
_symmetry_space_group_name_H-M "P 21/M"
_symmetry_group_IT_number 11
_symmetry_cell_setting 'monoclinic'
loop_
_space_group_symop_operation_xyz
x,y,z
-x,1/2+y,-z
-x,-y,-z
x,1/2-y,z
loop_
_atom_site_type_symbol
_atom_site_label
_atom_site_fract_x
_atom_site_fract_y
_atom_site_fract_z
Si Si1 0.741081 0.945716 0.179425
Si Si2 0.945915 0.941260 0.346831
Si Si3 0.045601 0.444977 0.883879
Si Si4 0.748589 0.558729 0.820030
Si Si5 0.583993 0.440764 0.635613
Si Si6 0.531918 0.440874 0.890902
Si Si7 0.939557 0.052879 0.851765
Si Si8 0.437990 0.940574 0.851002
O O1 0.741408 0.750000 0.178221
O O2 0.807884 0.000324 0.186523
O O3 0.561224 0.000457 0.295237
O O4 0.876396 0.004012 0.037405
O O5 0.977956 0.750000 0.324614
O O6 0.992661 0.002649 0.254121
O O7 0.756732 0.974216 0.498620
O O8 0.068090 0.021684 0.297836
O O9 0.049845 0.250000 0.880045
O O10 0.040921 0.501688 0.827584
O O11 0.724175 0.750000 0.831954
O O12 0.687615 0.475226 0.812307
O O13 0.625262 0.503273 0.957975
O O14 0.606851 0.250000 0.610152
O O15 0.518690 0.470169 0.742501
O O16 0.515534 0.250000 0.893768
O O17 0.531543 0.528741 0.835896
O O18 0.942712 0.250000 0.848757
O O19 0.750057 0.004609 0.000366
O O20 0.435045 0.750000 0.841204
#
# Coordination Sequence:
#
# PCOD9161992 Si02
#       8
#     4   4   4   4   4   4   4   4
#     4   9  18  31  51  78 110 143 179 225 277 328
#     4  11  22  38  57  80 110 149 189 229 277 332
#     4   9  16  31  54  80 107 139 180 229 278 324
#     4  10  20  35  56  83 114 148 183 225 274 326
#     4  11  23  38  53  79 115 151 186 227 280 337
#     4  10  20  34  56  86 116 146 180 226 275 325
#     4   9  18  32  55  83 109 138 183 233 274 322
#     4  11  20  35  58  85 111 144 187 232 276 324
#
# _framework density 18.558236000000001
#
# number of rings (size 3 to 8) (size 9 to 14) (size 15 to 20)
#    0.000    2.000    2.500    1.875    0.000    1.500 
#    0.000    2.500    0.000    0.000    0.000    0.000 
#    0.000    0.000    0.000    0.000    0.000    0.000 
#
# Total GULP energy -178612.848353 kJ/mol
# GULP energy per Si atom -5581.651511 kJ/mol
# Density = 1.851600 g / cm^3
# Si number density = 18.558236 Si / 1000 Ang^3
#
#
#
# Elastic Constant Matrix: (Units=GPa)
#
#
# Indices 1 2 3 4 5 6 
#
# 1 105.2371 -8.3047 35.7350 0.0000 -15.5658 0.0000
# 2 -8.3047 13.8361 -7.6771 0.0000 0.2592 0.0000
# 3 35.7350 -7.6771 75.6024 0.0000 -10.8533 0.0000
# 4 0.0000 0.0000 0.0000 17.4981 0.0000 -0.0525
# 5 -15.5658 0.2592 -10.8533 0.0000 27.1207 0.0000
# 6 0.0000 0.0000 0.0000 -0.0525 0.0000 16.4430
#
#
#
# Elastic Compliance Matrix: (Units=1/GPa)
#
#
# Indices 1 2 3 4 5 6 
#
# 1 0.012173 0.004690 -0.004542 0.000000 0.005124 0.000000
# 2 0.004690 0.078561 0.006407 0.000000 0.004505 0.000000
# 3 -0.004542 0.006407 0.016595 0.000000 0.003973 0.000000
# 4 0.000000 0.000000 0.000000 0.057150 0.000000 0.000182
# 5 0.005124 0.004505 0.003973 0.000000 0.041360 0.000000
# 6 0.000000 0.000000 0.000000 0.000182 0.000000 0.060817
#
#
# Mechanical properties :
#
#
# Convention : Reuss Voigt Hill
#
# Bulk Modulus (GPa) = 8.30290 26.02022 17.16156
# Shear Modulus (GPa) = 17.02479 23.87386 20.44932
#
# Velocity S-wave (km/s) = 3.03210 3.59057 3.32309
# Velocity P-wave (km/s) = 4.09168 5.58936 4.89810
#
# Compressibility (1/GPa) = 0.12043984
#
# Stress axis : x y z
#
# Youngs Moduli (GPa) = 82.15151 12.72901 60.25963
#
# Poissons Ratio (x) = -0.05970 0.27369
# Poissons Ratio (y) = -0.38531 -0.38610
# Poissons Ratio (z) = 0.37311 -0.08156
#
# Static dielectric constant tensor:
#      x y z
#    x 1.658060 0.000000 -0.015880 
#    y 0.000000 1.628450 0.000000 
#    z -0.015880 0.000000 1.607770 
# 
# From -- ./inp_files/66400.got.cif
#   From: 2010.05.17/outbox.cif.g08.bks.cpg/sg11_34_cif.got.tgz:66400.got - 2010.06.03 12:22:45.
