data_PCOD9161973
_publ_section_title
;
Structure prediction by ZEFSAII (Michael W. Deem and Ramdas Pophale) SiO2 
 PCOD9161973
Probable space group: P 21/M
;
_chemical_formula_sum "Si O2"
_cell_formula_units_Z 28
_cell_length_a 16.710045
_cell_length_b 9.016880
_cell_length_c 22.972322
_cell_angle_alpha 90.000000
_cell_angle_beta 154.968090
_cell_angle_gamma 90.000000
_cell_volume 1464.553991
_symmetry_space_group_name_H-M "P 21/M"
_symmetry_group_IT_number 11
_symmetry_cell_setting 'monoclinic'
loop_
_space_group_symop_operation_xyz
x,y,z
-x,1/2+y,-z
-x,-y,-z
x,1/2-y,z
loop_
_atom_site_type_symbol
_atom_site_label
_atom_site_fract_x
_atom_site_fract_y
_atom_site_fract_z
Si Si1 0.276086 0.424528 0.662488
Si Si2 0.698038 0.070645 0.650732
Si Si3 0.180883 0.423436 0.148698
Si Si4 0.899378 0.575362 0.128772
Si Si5 0.098546 0.572989 0.650620
Si Si6 0.625733 0.917889 0.844030
Si Si7 0.311900 0.927629 0.904297
O O1 0.258246 0.250000 0.659098
O O2 0.251296 0.502570 0.708100
O O3 0.471271 0.466715 0.762314
O O4 0.104414 0.476586 0.507565
O O5 0.685680 0.250000 0.643575
O O6 0.880021 0.030384 0.730063
O O7 0.500000 0.000000 0.500000
O O8 0.748819 0.008653 0.748104
O O9 0.142324 0.250000 0.136804
O O10 0.332608 0.427839 0.196514
O O11 0.000000 0.500000 0.000000
O O12 0.892045 0.750000 0.138840
O O13 0.764289 0.490055 0.084797
O O14 0.811874 0.559679 0.006245
O O15 0.108427 0.750000 0.651316
O O16 0.147028 0.537632 0.748640
O O17 0.558334 0.750000 0.812798
O O18 0.338946 0.750000 0.925878
O O19 0.500000 0.000000 0.000000
#
# Coordination Sequence:
#
# PCOD9161973 Si02
#       7
#     4   4   4   4   4   4   4
#     4  10  20  34  56  85 110 144 195 243 288 349
#     4  11  24  44  66  94 129 169 212 262 322 382
#     4  11  22  40  65  92 122 161 205 254 310 370
#     4  10  22  41  61  84 120 160 200 250 306 367
#     4   9  20  38  54  74 114 154 185 234 298 352
#     4  10  21  38  59  85 118 154 193 240 303 361
#     4  11  23  38  58  85 117 156 199 244 299 362
#
# _framework density 19.118448000000001
#
# number of rings (size 3 to 8) (size 9 to 14) (size 15 to 20)
#    0.000    1.714    1.429    2.571    0.000    9.143 
#    0.000    2.857    0.000    0.000    0.000    0.000 
#    0.000    0.000    0.000    0.000    0.000    0.000 
#
# Total GULP energy -156290.326678 kJ/mol
# GULP energy per Si atom -5581.797381 kJ/mol
# Density = 1.907493 g / cm^3
# Si number density = 19.118448 Si / 1000 Ang^3
#
#
#
# Elastic Constant Matrix: (Units=GPa)
#
#
# Indices 1 2 3 4 5 6 
#
# 1 91.1244 34.1516 39.0819 0.0000 -3.3337 0.0000
# 2 34.1516 38.6773 35.3826 0.0000 -4.2217 0.0000
# 3 39.0819 35.3826 81.7327 0.0000 -0.5978 0.0000
# 4 0.0000 0.0000 0.0000 33.3425 0.0000 1.4305
# 5 -3.3337 -4.2217 -0.5978 0.0000 30.2885 0.0000
# 6 0.0000 0.0000 0.0000 1.4305 0.0000 30.8870
#
#
#
# Elastic Compliance Matrix: (Units=1/GPa)
#
#
# Indices 1 2 3 4 5 6 
#
# 1 0.016744 -0.012340 -0.002664 0.000000 0.000070 0.000000
# 2 -0.012340 0.052875 -0.016948 0.000000 0.005677 0.000000
# 3 -0.002664 -0.016948 0.020829 0.000000 -0.002244 0.000000
# 4 0.000000 0.000000 0.000000 0.030052 0.000000 -0.001392
# 5 0.000070 0.005677 -0.002244 0.000000 0.033771 0.000000
# 6 0.000000 0.000000 0.000000 -0.001392 0.000000 0.032440
#
#
# Mechanical properties :
#
#
# Convention : Reuss Voigt Hill
#
# Bulk Modulus (GPa) = 37.67236 47.64073 42.65654
# Shear Modulus (GPa) = 19.27070 25.76483 22.51776
#
# Velocity S-wave (km/s) = 3.17829 3.67501 3.43564
# Velocity P-wave (km/s) = 5.76335 6.55594 6.17238
#
# Compressibility (1/GPa) = 0.02654466
#
# Stress axis : x y z
#
# Youngs Moduli (GPa) = 59.72335 18.91262 48.00997
#
# Poissons Ratio (x) = 0.23338 0.12789
# Poissons Ratio (y) = 0.73699 0.81365
# Poissons Ratio (z) = 0.15909 0.32052
#
# Static dielectric constant tensor:
#      x y z
#    x 1.655270 0.000000 -0.000740 
#    y 0.000000 1.651510 0.000000 
#    z -0.000740 0.000000 1.685770 
# 
# From -- ./inp_files/65440.got.cif
#   From: 2010.05.17/outbox.cif.g08.bks.cpg/sg11_33_cif.got.tgz:65440.got - 2010.06.03 12:22:45.
