data_PCOD9161917
_publ_section_title
;
Structure prediction by ZEFSAII (Michael W. Deem and Ramdas Pophale) SiO2 
 PCOD9161917
Probable space group: P 21/M
;
_chemical_formula_sum "Si O2"
_cell_formula_units_Z 20
_cell_length_a 9.857639
_cell_length_b 17.590135
_cell_length_c 12.461164
_cell_angle_alpha 90.000000
_cell_angle_beta 157.159963
_cell_angle_gamma 90.000000
_cell_volume 838.708613
_symmetry_space_group_name_H-M "P 21/M"
_symmetry_group_IT_number 11
_symmetry_cell_setting 'monoclinic'
loop_
_space_group_symop_operation_xyz
x,y,z
-x,1/2+y,-z
-x,-y,-z
x,1/2-y,z
loop_
_atom_site_type_symbol
_atom_site_label
_atom_site_fract_x
_atom_site_fract_y
_atom_site_fract_z
Si Si1 0.432175 0.834992 0.514934
Si Si2 0.777827 0.666060 0.342731
Si Si3 0.737749 0.073700 0.169688
Si Si4 0.234406 0.869051 0.126451
Si Si5 0.385404 0.995483 0.539602
O O1 0.346146 0.750000 0.490006
O O2 0.279235 0.846320 0.283823
O O3 0.321936 0.905925 0.509941
O O4 0.851510 0.844065 0.812698
O O5 0.920416 0.750000 0.427702
O O6 0.533006 0.667317 0.270830
O O7 0.073817 0.603827 0.585750
O O8 0.507277 0.639518 0.055220
O O9 0.049822 0.046585 0.319377
O O10 0.500000 0.000000 0.000000
O O11 0.312120 0.960033 0.174982
O O12 0.500000 0.000000 0.500000
#
# Coordination Sequence:
#
# PCOD9161917 Si02
#       5
#     4   4   4   4   4
#     4  11  20  32  51  82 118 151 186 237 291 344
#     4  11  21  38  63  90 114 151 201 250 290 338
#     4  11  24  41  61  87 122 158 193 239 295 355
#     4  10  20  34  55  84 117 148 189 241 291 337
#     4   9  20  37  59  83 112 152 193 231 284 348
#
# _framework density 23.846184000000001
#
# number of rings (size 3 to 8) (size 9 to 14) (size 15 to 20)
#    0.000    1.600    0.000    7.200    0.000    4.800 
#    0.000    2.000    0.000    0.000    0.000    0.000 
#    0.000    0.000    0.000    0.000    0.000    0.000 
#
# Total GULP energy -111800.596362 kJ/mol
# GULP energy per Si atom -5590.029818 kJ/mol
# Density = 2.379191 g / cm^3
# Si number density = 23.846184 Si / 1000 Ang^3
#
#
#
# Elastic Constant Matrix: (Units=GPa)
#
#
# Indices 1 2 3 4 5 6 
#
# 1 37.5468 -12.6259 10.4883 0.0000 -2.9167 0.0000
# 2 -12.6259 126.9196 13.3182 0.0000 -15.4122 0.0000
# 3 10.4883 13.3182 112.6479 0.0000 -5.7878 0.0000
# 4 0.0000 0.0000 0.0000 32.9598 0.0000 -2.3810
# 5 -2.9167 -15.4122 -5.7878 0.0000 16.0450 0.0000
# 6 0.0000 0.0000 0.0000 -2.3810 0.0000 10.7937
#
#
#
# Elastic Compliance Matrix: (Units=1/GPa)
#
#
# Indices 1 2 3 4 5 6 
#
# 1 0.029506 0.004255 -0.002817 0.000000 0.008435 0.000000
# 2 0.004255 0.009577 -0.001035 0.000000 0.009599 0.000000
# 3 -0.002817 -0.001035 0.009358 0.000000 0.001869 0.000000
# 4 0.000000 0.000000 0.000000 0.030831 0.000000 0.006801
# 5 0.008435 0.009599 0.001869 0.000000 0.073753 0.000000
# 6 0.000000 0.000000 0.000000 0.006801 0.000000 0.094147
#
#
# Mechanical properties :
#
#
# Convention : Reuss Voigt Hill
#
# Bulk Modulus (GPa) = 20.30579 33.27502 26.79040
# Shear Modulus (GPa) = 19.02719 29.68861 24.35790
#
# Velocity S-wave (km/s) = 2.82780 3.53229 3.19949
# Velocity P-wave (km/s) = 4.38130 5.53357 4.99080
#
# Compressibility (1/GPa) = 0.04924704
#
# Stress axis : x y z
#
# Youngs Moduli (GPa) = 33.89084 104.42147 106.86133
#
# Poissons Ratio (x) = -0.44433 0.30102
# Poissons Ratio (y) = -0.14421 0.11062
# Poissons Ratio (z) = 0.09547 0.10810
#
# Static dielectric constant tensor:
#      x y z
#    x 1.901670 0.000000 0.026440 
#    y 0.000000 2.023070 0.000000 
#    z 0.026440 0.000000 1.913240 
# 
# From -- ./inp_files/39877.got.cif
#   From: 2010.05.17/outbox.cif.g08.bks.cpg/sg11_20_cif.got.tgz:39877.got - 2010.06.03 12:22:45.
