data_PCOD9161162
_publ_section_title
;
Structure prediction by ZEFSAII (Michael W. Deem and Ramdas Pophale) SiO2 
 PCOD9161162
Probable space group: P 21/M
;
_chemical_formula_sum "Si O2"
_cell_formula_units_Z 32
_cell_length_a 23.416863
_cell_length_b 9.094690
_cell_length_c 7.500893
_cell_angle_alpha 90.000000
_cell_angle_beta 107.611035
_cell_angle_gamma 90.000000
_cell_volume 1522.589482
_symmetry_space_group_name_H-M "P 21/M"
_symmetry_group_IT_number 11
_symmetry_cell_setting 'monoclinic'
loop_
_space_group_symop_operation_xyz
x,y,z
-x,1/2+y,-z
-x,-y,-z
x,1/2-y,z
loop_
_atom_site_type_symbol
_atom_site_label
_atom_site_fract_x
_atom_site_fract_y
_atom_site_fract_z
Si Si1 0.060935 0.583843 0.521296
Si Si2 0.310968 0.071726 0.753688
Si Si3 0.561821 0.917080 0.523937
Si Si4 0.808524 0.074858 0.347257
Si Si5 0.439374 0.085188 0.905649
Si Si6 0.681332 0.072017 0.633155
Si Si7 0.189521 0.925153 0.219620
Si Si8 0.938708 0.417043 0.905693
O O1 0.055093 0.750000 0.583345
O O2 0.000000 0.500000 0.500000
O O3 0.125128 0.525283 0.650627
O O4 0.066490 0.590342 0.312986
O O5 0.309961 0.250000 0.733823
O O6 0.373990 0.030186 0.907089
O O7 0.248948 0.012793 0.776547
O O8 0.314308 0.991911 0.564013
O O9 0.560660 0.750000 0.590198
O O10 0.566710 0.909790 0.314155
O O11 0.500000 0.000000 0.500000
O O12 0.619995 0.003827 0.648725
O O13 0.802649 0.250000 0.305911
O O14 0.808679 0.056988 0.563333
O O15 0.447188 0.250000 0.981628
O O16 0.500000 0.000000 0.000000
O O17 0.678371 0.250000 0.625984
O O18 0.744743 0.025887 0.782115
O O19 0.186482 0.750000 0.183251
O O20 0.125285 0.984577 0.093271
O O21 0.943821 0.250000 0.978494
O O22 0.000000 0.500000 0.000000
#
# Coordination Sequence:
#
# PCOD9161162 Si02
#       8
#     4   4   4   4   4   4   4   4
#     4   9  18  31  47  68  95 122 153 191 231 274
#     4   9  16  26  41  66  94 116 146 192 233 269
#     4  10  20  33  48  71  98 123 153 191 231 275
#     4   8  14  26  43  63  86 116 151 186 226 274
#     4   9  19  32  47  69  96 122 152 187 226 272
#     4   9  15  26  45  66  88 119 153 188 230 272
#     4   7  12  24  42  62  86 114 146 183 224 265
#     4   9  17  30  46  67  94 122 151 188 228 271
#
# _framework density 21.016826999999999
#
# number of rings (size 3 to 8) (size 9 to 14) (size 15 to 20)
#    0.000    3.250    0.000    4.125    0.000    4.000 
#    0.000    5.625    0.000    1.500    0.000    1.750 
#    0.000    0.000    0.000    0.000    0.000    0.000 
#
# Total GULP energy -178145.150178 kJ/mol
# GULP energy per Si atom -5567.035943 kJ/mol
# Density = 2.096899 g / cm^3
# Si number density = 21.016827 Si / 1000 Ang^3
#
#
#
# Elastic Constant Matrix: (Units=GPa)
#
#
# Indices 1 2 3 4 5 6 
#
# 1 179.8460 69.1566 61.7927 0.0000 84.7196 0.0000
# 2 69.1566 75.3937 32.9363 0.0000 42.2686 0.0000
# 3 61.7927 32.9363 76.2688 0.0000 35.1821 0.0000
# 4 0.0000 0.0000 0.0000 18.8048 0.0000 15.0820
# 5 84.7196 42.2686 35.1821 0.0000 73.4985 0.0000
# 6 0.0000 0.0000 0.0000 15.0820 0.0000 33.3243
#
#
#
# Elastic Compliance Matrix: (Units=1/GPa)
#
#
# Indices 1 2 3 4 5 6 
#
# 1 0.014414 -0.004736 -0.004139 0.000000 -0.011909 0.000000
# 2 -0.004736 0.022230 -0.003059 0.000000 -0.005861 0.000000
# 3 -0.004139 -0.003059 0.018960 0.000000 -0.002546 0.000000
# 4 0.000000 0.000000 0.000000 0.083480 0.000000 -0.037781
# 5 -0.011909 -0.005861 -0.002546 0.000000 0.031922 0.000000
# 6 0.000000 0.000000 0.000000 -0.037781 0.000000 0.047107
#
#
# Mechanical properties :
#
#
# Convention : Reuss Voigt Hill
#
# Bulk Modulus (GPa) = 31.51064 73.25331 52.38198
# Shear Modulus (GPa) = 19.79719 36.30037 28.04878
#
# Velocity S-wave (km/s) = 3.07248 4.16047 3.65716
# Velocity P-wave (km/s) = 5.25475 7.61641 6.54302
#
# Compressibility (1/GPa) = 0.03173532
#
# Stress axis : x y z
#
# Youngs Moduli (GPa) = 69.37817 44.98327 52.74179
#
# Poissons Ratio (x) = 0.21306 0.21830
# Poissons Ratio (y) = 0.32861 0.16135
# Poissons Ratio (z) = 0.28715 0.13761
#
# Static dielectric constant tensor:
#      x y z
#    x 1.874920 0.000000 -0.010900 
#    y 0.000000 1.731480 0.000000 
#    z -0.010900 0.000000 1.814640 
# 
# From -- ./inp_files/42516.got.cif
#   From: 2010.05.17/outbox.cif.g08.bks.cpg/sg11_22_cif.got.tgz:42516.got - 2010.06.03 12:22:45.
