data_PCOD9161903
_publ_section_title
;
Structure prediction by ZEFSAII (Michael W. Deem and Ramdas Pophale) SiO2 
 PCOD9161903
Probable space group: P 21/M
;
_chemical_formula_sum "Si O2"
_cell_formula_units_Z 32
_cell_length_a 28.129134
_cell_length_b 9.600450
_cell_length_c 12.716509
_cell_angle_alpha 90.000000
_cell_angle_beta 153.008471
_cell_angle_gamma 90.000000
_cell_volume 1558.606846
_symmetry_space_group_name_H-M "P 21/M"
_symmetry_group_IT_number 11
_symmetry_cell_setting 'monoclinic'
loop_
_space_group_symop_operation_xyz
x,y,z
-x,1/2+y,-z
-x,-y,-z
x,1/2-y,z
loop_
_atom_site_type_symbol
_atom_site_label
_atom_site_fract_x
_atom_site_fract_y
_atom_site_fract_z
Si Si1 0.518372 0.096605 0.635428
Si Si2 0.030786 0.087554 0.397149
Si Si3 0.159153 0.587935 0.808431
Si Si4 0.724086 0.905638 0.804977
Si Si5 0.720147 0.909384 0.401492
Si Si6 0.441078 0.408205 0.102757
Si Si7 0.960729 0.588797 0.823523
Si Si8 0.309247 0.910795 0.451920
O O1 0.559058 0.250000 0.689112
O O2 0.400443 0.111608 0.445959
O O3 0.500000 0.000000 0.500000
O O4 0.581707 0.017296 0.850228
O O5 0.066752 0.250000 0.464576
O O6 0.004837 0.045781 0.226180
O O7 0.932223 0.083131 0.282154
O O8 0.115117 0.986007 0.617367
O O9 0.186060 0.750000 0.845748
O O10 0.247909 0.492638 0.035898
O O11 0.772013 0.750000 0.900243
O O12 0.747820 0.999828 0.750626
O O13 0.706473 0.750000 0.414831
O O14 0.834336 0.917204 0.574781
O O15 0.713464 0.018057 0.482252
O O16 0.629998 0.934921 0.138488
O O17 0.419928 0.250000 0.098007
O O18 0.564507 0.414047 0.317003
O O19 0.992505 0.750000 0.901711
O O20 0.000000 0.500000 0.000000
O O21 0.276244 0.750000 0.381727
#
# Coordination Sequence:
#
# PCOD9161903 Si02
#       8
#     4   4   4   4   4   4   4   4
#     4  10  21  36  55  80 112 148 184 225 277 334
#     4   9  20  39  58  80 114 150 187 235 293 347
#     4  10  20  35  59  88 113 144 189 240 288 339
#     4  10  21  36  55  81 113 149 187 228 280 339
#     4  10  21  37  57  82 110 148 189 229 285 343
#     4   9  19  36  56  80 113 148 187 231 277 335
#     4  10  23  41  59  82 114 152 193 237 285 344
#     4  10  20  34  55  83 114 148 188 237 281 330
#
# _framework density 20.531157
#
# number of rings (size 3 to 8) (size 9 to 14) (size 15 to 20)
#    0.000    2.250    0.000    1.875    1.750    5.000 
#    0.000    2.500    0.000    0.000    0.000    0.000 
#    0.000    0.000    0.000    0.000    0.000    0.000 
#
# Total GULP energy -178641.731487 kJ/mol
# GULP energy per Si atom -5582.554109 kJ/mol
# Density = 2.048443 g / cm^3
# Si number density = 20.531157 Si / 1000 Ang^3
#
#
#
# Elastic Constant Matrix: (Units=GPa)
#
#
# Indices 1 2 3 4 5 6 
#
# 1 60.9386 52.0834 21.3691 0.0000 -27.5767 0.0000
# 2 52.0834 125.4326 38.1959 0.0000 -26.1405 0.0000
# 3 21.3691 38.1959 75.3983 0.0000 -16.0589 0.0000
# 4 0.0000 0.0000 0.0000 29.4370 0.0000 -10.4128
# 5 -27.5767 -26.1405 -16.0589 0.0000 29.7615 0.0000
# 6 0.0000 0.0000 0.0000 -10.4128 0.0000 29.3499
#
#
#
# Elastic Compliance Matrix: (Units=1/GPa)
#
#
# Indices 1 2 3 4 5 6 
#
# 1 0.035957 -0.009785 0.000036 0.000000 0.024743 0.000000
# 2 -0.009785 0.013327 -0.003859 0.000000 0.000556 0.000000
# 3 0.000036 -0.003859 0.016375 0.000000 0.005479 0.000000
# 4 0.000000 0.000000 0.000000 0.038846 0.000000 0.013782
# 5 0.024743 0.000556 0.005479 0.000000 0.059971 0.000000
# 6 0.000000 0.000000 0.000000 0.013782 0.000000 0.038961
#
#
# Mechanical properties :
#
#
# Convention : Reuss Voigt Hill
#
# Bulk Modulus (GPa) = 26.01346 53.89624 39.95485
# Shear Modulus (GPa) = 20.53655 27.71774 24.12714
#
# Velocity S-wave (km/s) = 3.16612 3.67827 3.43176
# Velocity P-wave (km/s) = 5.10525 6.65939 5.93342
#
# Compressibility (1/GPa) = 0.03844163
#
# Stress axis : x y z
#
# Youngs Moduli (GPa) = 27.81074 75.03803 61.06939
#
# Poissons Ratio (x) = 0.73425 -0.00220
# Poissons Ratio (y) = 0.27213 0.23569
# Poissons Ratio (z) = -0.00100 0.28960
#
# Static dielectric constant tensor:
#      x y z
#    x 1.746730 0.000000 0.044160 
#    y 0.000000 1.740880 0.000000 
#    z 0.044160 0.000000 1.721150 
# 
# From -- ./inp_files/45288.got.cif
#   From: 2010.05.17/outbox.cif.g08.bks.cpg/sg11_23_cif.got.tgz:45288.got - 2010.06.03 12:22:45.
