data_PCOD9161532
_publ_section_title
;
Structure prediction by ZEFSAII (Michael W. Deem and Ramdas Pophale) SiO2 
 PCOD9161532
Probable space group: P 21/M
;
_chemical_formula_sum "Si O2"
_cell_formula_units_Z 28
_cell_length_a 13.990673
_cell_length_b 8.631405
_cell_length_c 21.537658
_cell_angle_alpha 90.000000
_cell_angle_beta 144.327417
_cell_angle_gamma 90.000000
_cell_volume 1516.703733
_symmetry_space_group_name_H-M "P 21/M"
_symmetry_group_IT_number 11
_symmetry_cell_setting 'monoclinic'
loop_
_space_group_symop_operation_xyz
x,y,z
-x,1/2+y,-z
-x,-y,-z
x,1/2-y,z
loop_
_atom_site_type_symbol
_atom_site_label
_atom_site_fract_x
_atom_site_fract_y
_atom_site_fract_z
Si Si1 0.315789 0.937555 0.822775
Si Si2 0.493289 0.935752 0.258385
Si Si3 0.656586 0.564318 0.942212
Si Si4 0.122420 0.564366 0.840332
Si Si5 0.831905 0.064134 0.384454
Si Si6 0.507906 0.436588 0.600816
Si Si7 0.236507 0.935226 0.371755
O O1 0.322355 0.750000 0.829205
O O2 0.496272 0.990361 0.897134
O O3 0.245269 0.993515 0.850715
O O4 0.194930 0.977709 0.702145
O O5 0.490873 0.750000 0.253078
O O6 0.456229 0.982143 0.309581
O O7 0.372327 0.003591 0.142500
O O8 0.674644 0.996015 0.336899
O O9 0.656355 0.750000 0.941125
O O10 0.814496 0.502912 0.061378
O O11 0.129086 0.750000 0.845864
O O12 0.940523 0.511262 0.727137
O O13 0.828223 0.250000 0.387238
O O14 0.000000 0.000000 0.500000
O O15 0.490832 0.250000 0.589775
O O16 0.652558 0.479802 0.629507
O O17 0.340936 0.509386 0.486167
O O18 0.220246 0.750000 0.364230
#
# Coordination Sequence:
#
# PCOD9161532 Si02
#       7
#     4   4   4   4   4   4   4
#     4   8  18  34  52  74 107 146 181 218 264 316
#     4  10  20  36  58  80 105 144 183 222 274 330
#     4  10  20  37  56  80 111 144 183 228 270 321
#     4  11  21  35  56  81 110 146 184 224 272 325
#     4  10  20  34  50  77 112 146 181 223 267 320
#     4   9  20  39  60  80 109 144 179 223 279 332
#     4  10  21  37  57  84 111 139 180 229 275 326
#
# _framework density 18.461088
#
# number of rings (size 3 to 8) (size 9 to 14) (size 15 to 20)
#    0.000    2.286    0.000    3.429    2.000    1.714 
#    0.000    7.857    0.000    0.000    0.000    0.000 
#    0.000    0.000    0.000    0.000    0.000    0.000 
#
# Total GULP energy -156293.845902 kJ/mol
# GULP energy per Si atom -5581.923068 kJ/mol
# Density = 1.841907 g / cm^3
# Si number density = 18.461088 Si / 1000 Ang^3
#
#
#
# Elastic Constant Matrix: (Units=GPa)
#
#
# Indices 1 2 3 4 5 6 
#
# 1 63.8171 22.3217 39.7411 0.0000 -28.1651 0.0000
# 2 22.3217 45.6443 28.4979 0.0000 -7.4734 0.0000
# 3 39.7411 28.4979 98.1944 0.0000 -17.8555 0.0000
# 4 0.0000 0.0000 0.0000 34.3300 0.0000 0.7823
# 5 -28.1651 -7.4734 -17.8555 0.0000 23.0980 0.0000
# 6 0.0000 0.0000 0.0000 0.7823 0.0000 22.9828
#
#
#
# Elastic Compliance Matrix: (Units=1/GPa)
#
#
# Indices 1 2 3 4 5 6 
#
# 1 0.042089 -0.009495 -0.006405 0.000000 0.043299 0.000000
# 2 -0.009495 0.029089 -0.005810 0.000000 -0.006657 0.000000
# 3 -0.006405 -0.005810 0.014778 0.000000 0.001733 0.000000
# 4 0.000000 0.000000 0.000000 0.029152 0.000000 -0.000992
# 5 0.043299 -0.006657 0.001733 0.000000 0.095277 0.000000
# 6 0.000000 0.000000 0.000000 -0.000992 0.000000 0.043545
#
#
# Mechanical properties :
#
#
# Convention : Reuss Voigt Hill
#
# Bulk Modulus (GPa) = 23.50952 43.19749 33.35350
# Shear Modulus (GPa) = 16.04989 23.88848 19.96919
#
# Velocity S-wave (km/s) = 2.95174 3.60111 3.29247
# Velocity P-wave (km/s) = 4.93754 6.38284 5.70614
#
# Compressibility (1/GPa) = 0.04253597
#
# Stress axis : x y z
#
# Youngs Moduli (GPa) = 23.75904 34.37682 67.66985
#
# Poissons Ratio (x) = 0.32639 0.43345
# Poissons Ratio (y) = 0.22558 0.39317
# Poissons Ratio (z) = 0.15219 0.19973
#
# Static dielectric constant tensor:
#      x y z
#    x 1.641420 0.000000 -0.016480 
#    y 0.000000 1.625960 0.000000 
#    z -0.016480 0.000000 1.614510 
# 
# From -- ./inp_files/37463.got.cif
#   From: 2010.05.17/outbox.cif.g08.bks.cpg/sg11_19_cif.got.tgz:37463.got - 2010.06.03 12:22:45.
