data_PCOD9161874
_publ_section_title
;
Structure prediction by ZEFSAII (Michael W. Deem and Ramdas Pophale) SiO2 
 PCOD9161874
Probable space group: P 21/M
;
_chemical_formula_sum "Si O2"
_cell_formula_units_Z 32
_cell_length_a 11.785584
_cell_length_b 8.052611
_cell_length_c 20.432312
_cell_angle_alpha 90.000000
_cell_angle_beta 125.515412
_cell_angle_gamma 90.000000
_cell_volume 1578.367105
_symmetry_space_group_name_H-M "P 21/M"
_symmetry_group_IT_number 11
_symmetry_cell_setting 'monoclinic'
loop_
_space_group_symop_operation_xyz
x,y,z
-x,1/2+y,-z
-x,-y,-z
x,1/2-y,z
loop_
_atom_site_type_symbol
_atom_site_label
_atom_site_fract_x
_atom_site_fract_y
_atom_site_fract_z
Si Si1 0.216522 0.551059 0.250265
Si Si2 0.505186 0.550472 0.578430
Si Si3 0.043982 0.951512 0.608412
Si Si4 0.404613 0.941513 0.072558
Si Si5 0.231585 0.553260 0.559921
Si Si6 0.846526 0.451128 0.920981
Si Si7 0.334211 0.056668 0.907124
Si Si8 0.948770 0.445115 0.239189
O O1 0.205721 0.750000 0.247046
O O2 0.361007 0.504691 0.334420
O O3 0.189055 0.496748 0.165642
O O4 0.093839 0.475756 0.252633
O O5 0.500000 0.500000 0.500000
O O6 0.503590 0.750000 0.578006
O O7 0.367733 0.483943 0.570116
O O8 0.036309 0.750000 0.600942
O O9 0.179617 0.009322 0.613234
O O10 0.046259 0.998287 0.684159
O O11 0.904556 0.023357 0.529736
O O12 0.417384 0.750000 0.097735
O O13 0.281825 0.014399 0.076395
O O14 0.563248 0.006899 0.116737
O O15 0.355899 0.956546 0.981047
O O16 0.255282 0.750000 0.574480
O O17 0.845770 0.250000 0.922391
O O18 0.000000 0.500000 0.000000
O O19 0.369627 0.250000 0.931303
O O20 0.174578 0.043065 0.835894
O O21 0.914564 0.250000 0.225077
#
# Coordination Sequence:
#
# PCOD9161874 Si02
#       8
#     4   4   4   4   4   4   4   4
#     4  11  24  40  58  84 116 149 192 239 281 336
#     4  11  23  39  60  85 116 154 192 233 283 336
#     4   9  19  35  55  79 106 138 178 223 270 325
#     4   9  19  37  57  78 108 144 183 225 275 333
#     4   9  19  36  56  79 107 139 178 223 272 325
#     4  10  22  39  59  83 113 151 191 234 283 334
#     4  10  20  34  55  82 109 139 178 226 277 330
#     4  11  22  36  55  79 109 143 180 224 276 331
#
# _framework density 20.274117
#
# number of rings (size 3 to 8) (size 9 to 14) (size 15 to 20)
#    0.000    2.000    0.000    3.000    0.000    9.000 
#    0.000    0.000    0.000    0.000    0.000    0.000 
#    0.000    0.000    0.000    0.000    0.000    0.000 
#
# Total GULP energy -178452.231368 kJ/mol
# GULP energy per Si atom -5576.632230 kJ/mol
# Density = 2.022797 g / cm^3
# Si number density = 20.274117 Si / 1000 Ang^3
#
#
#
# Elastic Constant Matrix: (Units=GPa)
#
#
# Indices 1 2 3 4 5 6 
#
# 1 125.3864 -1.4501 47.5102 0.0000 6.0445 0.0000
# 2 -1.4501 25.2768 3.4852 0.0000 -5.6035 0.0000
# 3 47.5102 3.4852 86.8121 0.0000 -1.5890 0.0000
# 4 0.0000 0.0000 0.0000 26.0560 0.0000 4.3811
# 5 6.0445 -5.6035 -1.5890 0.0000 30.9522 0.0000
# 6 0.0000 0.0000 0.0000 4.3811 0.0000 23.9034
#
#
#
# Elastic Compliance Matrix: (Units=1/GPa)
#
#
# Indices 1 2 3 4 5 6 
#
# 1 0.010240 0.000899 -0.005679 0.000000 -0.002129 0.000000
# 2 0.000899 0.041496 -0.002025 0.000000 0.007233 0.000000
# 3 -0.005679 -0.002025 0.014736 0.000000 0.001499 0.000000
# 4 0.000000 0.000000 0.000000 0.039599 0.000000 -0.007258
# 5 -0.002129 0.007233 0.001499 0.000000 0.034110 0.000000
# 6 0.000000 0.000000 0.000000 -0.007258 0.000000 0.043165
#
#
# Mechanical properties :
#
#
# Convention : Reuss Voigt Hill
#
# Bulk Modulus (GPa) = 18.91771 37.39622 28.15696
# Shear Modulus (GPa) = 23.30141 28.71098 26.00620
#
# Velocity S-wave (km/s) = 3.39384 3.76725 3.58541
# Velocity P-wave (km/s) = 4.97079 6.11622 5.57301
#
# Compressibility (1/GPa) = 0.05286053
#
# Stress axis : x y z
#
# Youngs Moduli (GPa) = 97.65333 24.09859 67.86085
#
# Poissons Ratio (x) = -0.02166 0.38540
# Poissons Ratio (y) = -0.08776 0.13744
# Poissons Ratio (z) = 0.55460 0.04881
#
# Static dielectric constant tensor:
#      x y z
#    x 1.752350 0.000000 -0.001200 
#    y 0.000000 1.720440 0.000000 
#    z -0.001200 0.000000 1.699350 
# 
# From -- ./inp_files/64465.got.cif
#   From: 2010.05.17/outbox.cif.g08.bks.cpg/sg11_33_cif.got.tgz:64465.got - 2010.06.03 12:22:45.
