data_PCOD9161379
_publ_section_title
;
Structure prediction by ZEFSAII (Michael W. Deem and Ramdas Pophale) SiO2 
 PCOD9161379
Probable space group: P 21/M
;
_chemical_formula_sum "Si O2"
_cell_formula_units_Z 28
_cell_length_a 17.459501
_cell_length_b 11.327192
_cell_length_c 14.202673
_cell_angle_alpha 90.000000
_cell_angle_beta 26.089814
_cell_angle_gamma 90.000000
_cell_volume 1235.262253
_symmetry_space_group_name_H-M "P 21/M"
_symmetry_group_IT_number 11
_symmetry_cell_setting 'monoclinic'
loop_
_space_group_symop_operation_xyz
x,y,z
-x,1/2+y,-z
-x,-y,-z
x,1/2-y,z
loop_
_atom_site_type_symbol
_atom_site_label
_atom_site_fract_x
_atom_site_fract_y
_atom_site_fract_z
Si Si1 0.420264 0.879192 0.220506
Si Si2 0.090422 0.383961 0.018455
Si Si3 0.446950 0.385168 0.709515
Si Si4 0.080394 0.622504 0.294900
Si Si5 0.206103 0.121107 0.222091
Si Si6 0.241052 0.042785 0.656476
Si Si7 0.248910 0.121874 0.446549
O O1 0.332272 0.750000 0.304288
O O2 0.496382 0.882358 0.243415
O O3 0.312228 0.998828 0.330779
O O4 0.593679 0.881290 0.966171
O O5 0.046637 0.250000 0.093427
O O6 0.250242 0.426483 0.907196
O O7 0.167885 0.389579 0.827006
O O8 0.914781 0.458927 0.209270
O O9 0.454076 0.250000 0.666983
O O10 0.593068 0.464110 0.499134
O O11 0.174595 0.750000 0.196421
O O12 0.936667 0.621705 0.537927
O O13 0.959422 0.621364 0.336866
O O14 0.182091 0.501327 0.193647
O O15 0.184613 0.250000 0.196082
O O16 0.294637 0.116610 0.506018
O O17 0.309370 0.250000 0.341938
#
# Coordination Sequence:
#
# PCOD9161379 Si02
#       7
#     4   4   4   4   4   4   4
#     4   9  19  34  53  77 105 134 175 221 264 313
#     4  10  20  33  53  76 100 138 179 223 274 317
#     4   9  18  33  51  75 104 134 174 224 271 316
#     4   9  19  34  52  76 106 140 174 214 264 314
#     4   9  18  34  54  77 105 136 176 221 259 309
#     4  10  20  34  52  74 106 137 178 219 267 323
#     4  10  21  36  53  75 108 142 172 214 269 321
#
# _framework density 22.667252999999999
#
# number of rings (size 3 to 8) (size 9 to 14) (size 15 to 20)
#    0.000    2.571    0.000    1.286    2.000    2.286 
#    0.000    0.000    0.000    4.286    0.000    0.000 
#    0.000    0.000    0.000    0.000    0.000    0.000 
#
# Total GULP energy -156143.504027 kJ/mol
# GULP energy per Si atom -5576.553715 kJ/mol
# Density = 2.261566 g / cm^3
# Si number density = 22.667253 Si / 1000 Ang^3
#
#
#
# Elastic Constant Matrix: (Units=GPa)
#
#
# Indices 1 2 3 4 5 6 
#
# 1 45.6323 26.5178 -4.3428 0.0000 -5.3178 0.0000
# 2 26.5178 189.2452 50.0917 0.0000 -11.5762 0.0000
# 3 -4.3428 50.0917 55.6102 0.0000 -6.6836 0.0000
# 4 0.0000 0.0000 0.0000 15.5892 0.0000 -16.4725
# 5 -5.3178 -11.5762 -6.6836 0.0000 31.0844 0.0000
# 6 0.0000 0.0000 0.0000 -16.4725 0.0000 16.5799
#
#
#
# Elastic Compliance Matrix: (Units=1/GPa)
#
#
# Indices 1 2 3 4 5 6 
#
# 1 0.026216 -0.005378 0.007381 0.000000 0.004069 0.000000
# 2 -0.005378 0.008091 -0.007655 0.000000 0.000447 0.000000
# 3 0.007381 -0.007655 0.025933 0.000000 0.003988 0.000000
# 4 0.000000 0.000000 0.000000 -1.287739 0.000000 -1.279395
# 5 0.004069 0.000447 0.003988 0.000000 0.033891 0.000000
# 6 0.000000 0.000000 0.000000 -1.279395 0.000000 -1.210790
#
#
# Mechanical properties :
#
#
# Convention : Reuss Voigt Hill
#
# Bulk Modulus (GPa) = 20.43451 48.33568 34.38509
# Shear Modulus (GPa) = -2.10368 27.19877 12.54754
#
# Velocity S-wave (km/s) = -0.96441 3.46774 2.35532
# Velocity P-wave (km/s) = 2.79185 6.11587 4.75386
#
# Compressibility (1/GPa) = 0.04893683
#
# Stress axis : x y z
#
# Youngs Moduli (GPa) = 38.14409 123.59032 38.56095
#
# Poissons Ratio (x) = 0.66471 -0.28462
# Poissons Ratio (y) = 0.20515 0.29517
# Poissons Ratio (z) = -0.28154 0.94603
#
# Static dielectric constant tensor:
#      x y z
#    x 1.872540 0.000000 0.021650 
#    y 0.000000 1.870130 0.000000 
#    z 0.021650 0.000000 1.838920 
# 
# From -- ./inp_files/61468.got.cif
#   From: 2010.05.17/outbox.cif.g08.bks.cpg/sg11_31_cif.got.tgz:61468.got - 2010.06.03 12:22:45.
