data_PCOD9161776
_publ_section_title
;
Structure prediction by ZEFSAII (Michael W. Deem and Ramdas Pophale) SiO2 
 PCOD9161776
Probable space group: P 21/M
;
_chemical_formula_sum "Si O2"
_cell_formula_units_Z 32
_cell_length_a 26.508567
_cell_length_b 8.877500
_cell_length_c 16.361006
_cell_angle_alpha 90.000000
_cell_angle_beta 28.444992
_cell_angle_gamma 90.000000
_cell_volume 1833.922695
_symmetry_space_group_name_H-M "P 21/M"
_symmetry_group_IT_number 11
_symmetry_cell_setting 'monoclinic'
loop_
_space_group_symop_operation_xyz
x,y,z
-x,1/2+y,-z
-x,-y,-z
x,1/2-y,z
loop_
_atom_site_type_symbol
_atom_site_label
_atom_site_fract_x
_atom_site_fract_y
_atom_site_fract_z
Si Si1 0.203321 0.928986 0.393239
Si Si2 0.713135 0.570373 0.890968
Si Si3 0.970124 0.570252 0.793904
Si Si4 0.459272 0.570502 0.641724
Si Si5 0.220426 0.569992 0.036669
Si Si6 0.477365 0.930807 0.281335
Si Si7 0.267148 0.568312 0.482681
Si Si8 0.953262 0.930104 0.149017
O O1 0.215157 0.750000 0.361982
O O2 0.264958 0.967714 0.389265
O O3 0.079971 0.958895 0.589007
O O4 0.244161 0.016981 0.256796
O O5 0.723179 0.750000 0.884934
O O6 0.774464 0.491228 0.878155
O O7 0.588876 0.530206 0.079360
O O8 0.961806 0.750000 0.817365
O O9 0.982236 0.490741 0.864308
O O10 0.871969 0.507340 0.883040
O O11 0.500000 0.500000 0.500000
O O12 0.469999 0.750000 0.623754
O O13 0.335352 0.534312 0.833812
O O14 0.521240 0.506278 0.631832
O O15 0.206986 0.750000 0.055973
O O16 0.475441 0.750000 0.294520
O O17 0.376133 0.973192 0.371567
O O18 0.252044 0.750000 0.510601
O O19 0.166640 0.487974 0.666462
O O20 0.956667 0.750000 0.141346
O O21 0.000000 0.000000 0.000000
#
# Coordination Sequence:
#
# PCOD9161776 Si02
#       8
#     4   4   4   4   4   4   4   4
#     4   9  19  35  54  77 107 141 175 216 267 318
#     4  10  20  34  54  80 108 141 180 220 264 314
#     4  10  21  38  58  80 107 140 178 220 267 317
#     4  10  21  36  55  79 107 139 175 217 264 315
#     4  10  21  37  56  79 107 140 178 220 267 316
#     4   9  19  36  56  78 107 141 177 219 264 311
#     4   9  19  37  57  78 108 143 178 219 266 313
#     4  11  22  37  57  81 109 141 178 219 264 315
#
# _framework density 17.448934999999999
#
# number of rings (size 3 to 8) (size 9 to 14) (size 15 to 20)
#    0.000    2.250    0.000    3.375    0.000    7.000 
#    0.000    1.250    0.000    0.000    0.000    0.000 
#    0.000    0.000    0.000    0.000    0.000    0.000 
#
# Total GULP energy -178651.080971 kJ/mol
# GULP energy per Si atom -5582.846280 kJ/mol
# Density = 1.740922 g / cm^3
# Si number density = 17.448935 Si / 1000 Ang^3
#
#
#
# Elastic Constant Matrix: (Units=GPa)
#
#
# Indices 1 2 3 4 5 6 
#
# 1 177.6817 74.6757 100.0218 0.0000 -6.3836 0.0000
# 2 74.6757 68.9694 57.8089 0.0000 5.4823 0.0000
# 3 100.0218 57.8089 84.2118 0.0000 16.7750 0.0000
# 4 0.0000 0.0000 0.0000 30.8909 0.0000 3.9600
# 5 -6.3836 5.4823 16.7750 0.0000 37.3785 0.0000
# 6 0.0000 0.0000 0.0000 3.9600 0.0000 34.9656
#
#
#
# Elastic Compliance Matrix: (Units=1/GPa)
#
#
# Indices 1 2 3 4 5 6 
#
# 1 0.025985 -0.001244 -0.033967 0.000000 0.019864 0.000000
# 2 -0.001244 0.035501 -0.023955 0.000000 0.005331 0.000000
# 3 -0.033967 -0.023955 0.075905 0.000000 -0.036353 0.000000
# 4 0.000000 0.000000 0.000000 0.032849 0.000000 -0.003720
# 5 0.019864 0.005331 -0.036353 0.000000 0.045679 0.000000
# 6 0.000000 0.000000 0.000000 -0.003720 0.000000 0.029021
#
#
# Mechanical properties :
#
#
# Convention : Reuss Voigt Hill
#
# Bulk Modulus (GPa) = 52.46799 88.43064 70.44931
# Shear Modulus (GPa) = 13.52727 27.20408 20.36567
#
# Velocity S-wave (km/s) = 2.78735 3.95279 3.42008
# Velocity P-wave (km/s) = 6.36348 8.46300 7.48720
#
# Compressibility (1/GPa) = 0.01905924
#
# Stress axis : x y z
#
# Youngs Moduli (GPa) = 38.48308 28.16850 13.17441
#
# Poissons Ratio (x) = 0.03503 0.44750
# Poissons Ratio (y) = 0.04786 0.31559
# Poissons Ratio (z) = 1.30716 0.67477
#
# Static dielectric constant tensor:
#      x y z
#    x 1.567090 0.000000 -0.009230 
#    y 0.000000 1.583250 0.000000 
#    z -0.009230 0.000000 1.572280 
# 
# From -- ./inp_files/51662.got.cif
#   From: 2010.05.17/outbox.cif.g08.bks.cpg/sg11_26_cif.got.tgz:51662.got - 2010.06.03 12:22:45.
