data_PCOD9161870
_publ_section_title
;
Structure prediction by ZEFSAII (Michael W. Deem and Ramdas Pophale) SiO2 
 PCOD9161870
Probable space group: P 21/M
;
_chemical_formula_sum "Si O2"
_cell_formula_units_Z 28
_cell_length_a 15.049864
_cell_length_b 8.534692
_cell_length_c 22.555703
_cell_angle_alpha 90.000000
_cell_angle_beta 149.152075
_cell_angle_gamma 90.000000
_cell_volume 1485.565889
_symmetry_space_group_name_H-M "P 21/M"
_symmetry_group_IT_number 11
_symmetry_cell_setting 'monoclinic'
loop_
_space_group_symop_operation_xyz
x,y,z
-x,1/2+y,-z
-x,-y,-z
x,1/2-y,z
loop_
_atom_site_type_symbol
_atom_site_label
_atom_site_fract_x
_atom_site_fract_y
_atom_site_fract_z
Si Si1 0.169196 0.939638 0.363382
Si Si2 0.467254 0.437003 0.887644
Si Si3 0.923526 0.562090 0.017994
Si Si4 0.229401 0.060754 0.860995
Si Si5 0.478236 0.439142 0.206386
Si Si6 0.772820 0.562314 0.730182
Si Si7 0.439953 0.940948 0.616068
O O1 0.171288 0.750000 0.363077
O O2 0.279065 0.990829 0.483421
O O3 0.969129 0.991621 0.250622
O O4 0.253099 0.001217 0.350963
O O5 0.470902 0.250000 0.889402
O O6 0.324822 0.488059 0.854704
O O7 0.434924 0.498230 0.803333
O O8 0.651343 0.498917 0.017512
O O9 0.926853 0.750000 0.019238
O O10 0.046925 0.501552 0.140753
O O11 0.724101 0.512097 0.910082
O O12 0.000000 0.500000 0.000000
O O13 0.231126 0.250000 0.864743
O O14 0.482465 0.250000 0.207482
O O15 0.558632 0.492673 0.314932
O O16 0.777086 0.750000 0.732669
O O17 0.617311 0.511297 0.684618
O O18 0.440427 0.750000 0.617178
#
# Coordination Sequence:
#
# PCOD9161870 Si02
#       7
#     4   4   4   4   4   4   4
#     4  10  20  36  57  77 100 139 184 220 260 311
#     4  10  20  34  55  82 107 133 168 216 267 314
#     4  11  21  34  53  77 107 139 174 214 258 308
#     4   9  19  36  56  79 106 134 170 216 265 315
#     4  10  20  36  54  75 106 143 175 208 258 317
#     4  11  21  35  53  78 110 140 176 221 264 310
#     4   9  19  36  54  73 104 144 181 214 256 313
#
# _framework density 18.848037999999999
#
# number of rings (size 3 to 8) (size 9 to 14) (size 15 to 20)
#    0.000    2.000    1.429    2.571    0.000    5.714 
#    0.000    2.143    0.000    0.000    0.000    0.000 
#    0.000    0.000    0.000    0.000    0.000    0.000 
#
# Total GULP energy -156377.491415 kJ/mol
# GULP energy per Si atom -5584.910408 kJ/mol
# Density = 1.880514 g / cm^3
# Si number density = 18.848038 Si / 1000 Ang^3
#
#
#
# Elastic Constant Matrix: (Units=GPa)
#
#
# Indices 1 2 3 4 5 6 
#
# 1 97.9518 13.0060 45.3262 0.0000 -35.2416 0.0000
# 2 13.0060 12.4983 14.6428 0.0000 -2.8694 0.0000
# 3 45.3262 14.6428 98.0497 0.0000 -32.2114 0.0000
# 4 0.0000 0.0000 0.0000 20.0591 0.0000 -7.8644
# 5 -35.2416 -2.8694 -32.2114 0.0000 32.3315 0.0000
# 6 0.0000 0.0000 0.0000 -7.8644 0.0000 29.1212
#
#
#
# Elastic Compliance Matrix: (Units=1/GPa)
#
#
# Indices 1 2 3 4 5 6 
#
# 1 0.019395 -0.015406 -0.000251 0.000000 0.019523 0.000000
# 2 -0.015406 0.110873 -0.017422 0.000000 -0.024310 0.000000
# 3 -0.000251 -0.017422 0.018313 0.000000 0.016424 0.000000
# 4 0.000000 0.000000 0.000000 0.055756 0.000000 0.015057
# 5 0.019523 -0.024310 0.016424 0.000000 0.066416 0.000000
# 6 0.000000 0.000000 0.000000 0.015057 0.000000 0.038406
#
#
# Mechanical properties :
#
#
# Convention : Reuss Voigt Hill
#
# Bulk Modulus (GPa) = 12.13282 39.38331 25.75806
# Shear Modulus (GPa) = 12.41335 25.33735 18.87535
#
# Velocity S-wave (km/s) = 2.56911 3.67044 3.16800
# Velocity P-wave (km/s) = 3.90533 6.23726 5.20360
#
# Compressibility (1/GPa) = 0.08242107
#
# Stress axis : x y z
#
# Youngs Moduli (GPa) = 51.55916 9.01932 54.60673
#
# Poissons Ratio (x) = 0.13895 0.01373
# Poissons Ratio (y) = 0.79433 0.95138
# Poissons Ratio (z) = 0.01297 0.15714
#
# Static dielectric constant tensor:
#      x y z
#    x 1.650370 0.000000 0.000390 
#    y 0.000000 1.643470 0.000000 
#    z 0.000390 0.000000 1.642270 
# 
# From -- ./inp_files/37395.got.cif
#   From: 2010.05.17/outbox.cif.g08.bks.cpg/sg11_19_cif.got.tgz:37395.got - 2010.06.03 12:22:45.
