data_PCOD9161479
_publ_section_title
;
Structure prediction by ZEFSAII (Michael W. Deem and Ramdas Pophale) SiO2 
 PCOD9161479
Probable space group: P 21/M
;
_chemical_formula_sum "Si O2"
_cell_formula_units_Z 28
_cell_length_a 16.241634
_cell_length_b 16.444803
_cell_length_c 9.905332
_cell_angle_alpha 90.000000
_cell_angle_beta 34.830920
_cell_angle_gamma 90.000000
_cell_volume 1511.063266
_symmetry_space_group_name_H-M "P 21/M"
_symmetry_group_IT_number 11
_symmetry_cell_setting 'monoclinic'
loop_
_space_group_symop_operation_xyz
x,y,z
-x,1/2+y,-z
-x,-y,-z
x,1/2-y,z
loop_
_atom_site_type_symbol
_atom_site_label
_atom_site_fract_x
_atom_site_fract_y
_atom_site_fract_z
Si Si1 0.279489 0.160465 0.365147
Si Si2 0.981342 0.623192 0.471547
Si Si3 0.781780 0.481106 0.427825
Si Si4 0.571392 0.412316 0.921593
Si Si5 0.942125 0.541566 0.792198
Si Si6 0.663210 0.030779 0.287579
Si Si7 0.697440 0.340270 0.019994
O O1 0.271902 0.250000 0.443471
O O2 0.157903 0.158885 0.413658
O O3 0.250573 0.077085 0.491068
O O4 0.438325 0.149320 0.086969
O O5 0.959120 0.613425 0.661403
O O6 0.003911 0.536112 0.367232
O O7 0.132345 0.664869 0.236553
O O8 0.699923 0.420114 0.641804
O O9 0.720237 0.464887 0.363090
O O10 0.949814 0.460303 0.226212
O O11 0.633643 0.396079 0.986520
O O12 0.500000 0.500000 0.000000
O O13 0.778042 0.527199 0.056200
O O14 0.500000 0.000000 0.500000
O O15 0.671922 0.115775 0.196000
O O16 0.634098 0.250000 0.099014
#
# Coordination Sequence:
#
# PCOD9161479 Si02
#       7
#     4   4   4   4   4   4   4
#     4  10  20  33  56  87 118 149 192 250 303 343
#     4   9  18  33  60  87 112 146 197 246 290 339
#     4  10  20  37  57  85 116 155 201 239 286 354
#     4  10  20  34  58  85 113 149 198 242 285 347
#     4   9  18  34  58  84 114 151 196 243 281 342
#     4  11  23  35  59  90 119 159 200 238 288 359
#     4  11  22  40  62  86 117 155 197 247 301 350
#
# _framework density 18.530000000000001
#
# number of rings (size 3 to 8) (size 9 to 14) (size 15 to 20)
#    0.000    2.000    1.429    3.000    8.000    0.000 
#    0.000    1.429    0.000    1.714    0.000    0.000 
#    0.000    0.000    0.000    0.000    0.000    0.000 
#
# Total GULP energy -155935.554173 kJ/mol
# GULP energy per Si atom -5569.126935 kJ/mol
# Density = 1.848782 g / cm^3
# Si number density = 18.530000 Si / 1000 Ang^3
#
#
#
# Elastic Constant Matrix: (Units=GPa)
#
#
# Indices 1 2 3 4 5 6 
#
# 1 146.8734 48.4226 45.6116 0.0000 2.3506 0.0000
# 2 48.4226 77.6263 19.3361 0.0000 14.6685 0.0000
# 3 45.6116 19.3361 72.0634 0.0000 -9.6823 0.0000
# 4 0.0000 0.0000 0.0000 0.2512 0.0000 8.3504
# 5 2.3506 14.6685 -9.6823 0.0000 40.3684 0.0000
# 6 0.0000 0.0000 0.0000 8.3504 0.0000 -33.1328
#
#
#
# Elastic Compliance Matrix: (Units=1/GPa)
#
#
# Indices 1 2 3 4 5 6 
#
# 1 0.010007 -0.005009 -0.004984 0.000000 0.000042 0.000000
# 2 -0.005009 0.017937 -0.002562 0.000000 -0.006841 0.000000
# 3 -0.004984 -0.002562 0.018478 0.000000 0.005653 0.000000
# 4 0.000000 0.000000 0.000000 0.424498 0.000000 0.106986
# 5 0.000042 -0.006841 0.005653 0.000000 0.028611 0.000000
# 6 0.000000 0.000000 0.000000 0.106986 0.000000 -0.003218
#
#
# Mechanical properties :
#
#
# Convention : Reuss Voigt Hill
#
# Bulk Modulus (GPa) = 46.91951 58.14485 52.53218
# Shear Modulus (GPa) = 9.46024 13.71020 11.58522
#
# Velocity S-wave (km/s) = 2.26196 2.72305 2.50314
# Velocity P-wave (km/s) = 5.67431 6.42912 6.06347
#
# Compressibility (1/GPa) = 0.02131309
#
# Stress axis : x y z
#
# Youngs Moduli (GPa) = 99.92903 55.74950 54.11729
#
# Poissons Ratio (x) = 0.27923 0.26974
# Poissons Ratio (y) = 0.50051 0.13864
# Poissons Ratio (z) = 0.49808 0.14282
#
# Static dielectric constant tensor:
#      x y z
#    x 1.645600 0.000000 -0.019720 
#    y 0.000000 1.685950 0.000000 
#    z -0.019720 0.000000 1.658300 
# 
# From -- ./inp_files/22689.got.cif
#   From: 2010.05.17/outbox.cif.g08.bks.cpg/sg11_12_cif.got.tgz:22689.got - 2010.06.03 12:22:45.
