data_PCOD9161121
_publ_section_title
;
Structure prediction by ZEFSAII (Michael W. Deem and Ramdas Pophale) SiO2 
 PCOD9161121
Probable space group: P 21/M
;
_chemical_formula_sum "Si O2"
_cell_formula_units_Z 20
_cell_length_a 12.062061
_cell_length_b 18.380534
_cell_length_c 5.049861
_cell_angle_alpha 90.000000
_cell_angle_beta 68.534870
_cell_angle_gamma 90.000000
_cell_volume 1041.935878
_symmetry_space_group_name_H-M "P 21/M"
_symmetry_group_IT_number 11
_symmetry_cell_setting 'monoclinic'
loop_
_space_group_symop_operation_xyz
x,y,z
-x,1/2+y,-z
-x,-y,-z
x,1/2-y,z
loop_
_atom_site_type_symbol
_atom_site_label
_atom_site_fract_x
_atom_site_fract_y
_atom_site_fract_z
Si Si1 0.806627 0.666126 0.393392
Si Si2 0.562728 0.423686 0.528630
Si Si3 0.018778 0.552132 0.235830
Si Si4 0.712224 0.059950 0.919308
Si Si5 0.324528 0.387093 0.993342
O O1 0.833821 0.750000 0.418262
O O2 0.703882 0.640232 0.687743
O O3 0.920521 0.614857 0.330314
O O4 0.760404 0.653805 0.137079
O O5 0.500000 0.500000 0.500000
O O6 0.624175 0.399776 0.202032
O O7 0.664645 0.433293 0.661864
O O8 0.458071 0.379169 0.764084
O O9 0.000000 0.500000 0.500000
O O10 0.152721 0.582251 0.142708
O O11 0.000000 0.500000 0.000000
O O12 0.705426 0.973225 0.985791
#
# Coordination Sequence:
#
# PCOD9161121 Si02
#       5
#     4   4   4   4   4
#     4  12  24  39  59  86 119 162 200 245 304 360
#     4  10  20  32  56  89 119 147 183 239 301 351
#     4  12  22  38  60  87 121 156 201 251 296 355
#     4  11  19  34  58  88 120 150 189 246 303 340
#     4  11  20  37  58  84 123 149 194 246 299 353
#
# _framework density 19.195039000000001
#
# number of rings (size 3 to 8) (size 9 to 14) (size 15 to 20)
#    0.000    0.800    4.000    7.800    0.000    0.000 
#    0.000    0.000    0.000    7.200    0.000    0.000 
#    0.000    0.000    0.000    0.000    0.000    0.000 
#
# Total GULP energy -111690.311634 kJ/mol
# GULP energy per Si atom -5584.515582 kJ/mol
# Density = 1.915135 g / cm^3
# Si number density = 19.195039 Si / 1000 Ang^3
#
#
#
# Elastic Constant Matrix: (Units=GPa)
#
#
# Indices 1 2 3 4 5 6 
#
# 1 84.3405 4.2071 1.0997 0.0000 8.6634 0.0000
# 2 4.2071 68.8585 4.0509 0.0000 -4.8430 0.0000
# 3 1.0997 4.0509 81.3077 0.0000 17.4854 0.0000
# 4 0.0000 0.0000 0.0000 8.1796 0.0000 -0.9201
# 5 8.6634 -4.8430 17.4854 0.0000 33.9958 0.0000
# 6 0.0000 0.0000 0.0000 -0.9201 0.0000 10.6440
#
#
#
# Elastic Compliance Matrix: (Units=1/GPa)
#
#
# Indices 1 2 3 4 5 6 
#
# 1 0.012272 -0.001043 0.000664 0.000000 -0.003617 0.000000
# 2 -0.001043 0.014887 -0.001395 0.000000 0.003104 0.000000
# 3 0.000664 -0.001395 0.013986 0.000000 -0.007561 0.000000
# 4 0.000000 0.000000 0.000000 0.123456 0.000000 0.010671
# 5 -0.003617 0.003104 -0.007561 0.000000 0.034669 0.000000
# 6 0.000000 0.000000 0.000000 0.010671 0.000000 0.094872
#
#
# Mechanical properties :
#
#
# Convention : Reuss Voigt Hill
#
# Bulk Modulus (GPa) = 26.59931 28.13579 27.36755
# Shear Modulus (GPa) = 16.11756 25.57382 20.84569
#
# Velocity S-wave (km/s) = 2.90086 3.65405 3.29902
# Velocity P-wave (km/s) = 5.01073 5.70021 5.36656
#
# Compressibility (1/GPa) = 0.03759497
#
# Stress axis : x y z
#
# Youngs Moduli (GPa) = 81.48863 67.17412 71.50235
#
# Poissons Ratio (x) = 0.07008 -0.04747
# Poissons Ratio (y) = 0.08501 0.09976
# Poissons Ratio (z) = -0.05410 0.09372
#
# Static dielectric constant tensor:
#      x y z
#    x 1.771140 0.000000 -0.038650 
#    y 0.000000 1.649790 0.000000 
#    z -0.038650 0.000000 1.693100 
# 
# From -- ./inp_files/4502.got.cif
#   From: 2010.05.17/outbox.cif.g08.bks.cpg/sg11_3_cif.got.tgz:4502.got - 2010.06.03 12:22:45.
