data_PCOD9161831
_publ_section_title
;
Structure prediction by ZEFSAII (Michael W. Deem and Ramdas Pophale) SiO2 
 PCOD9161831
Probable space group: P 21/M
;
_chemical_formula_sum "Si O2"
_cell_formula_units_Z 28
_cell_length_a 5.411594
_cell_length_b 14.735815
_cell_length_c 18.465677
_cell_angle_alpha 90.000000
_cell_angle_beta 69.814700
_cell_angle_gamma 90.000000
_cell_volume 1382.090971
_symmetry_space_group_name_H-M "P 21/M"
_symmetry_group_IT_number 11
_symmetry_cell_setting 'monoclinic'
loop_
_space_group_symop_operation_xyz
x,y,z
-x,1/2+y,-z
-x,-y,-z
x,1/2-y,z
loop_
_atom_site_type_symbol
_atom_site_label
_atom_site_fract_x
_atom_site_fract_y
_atom_site_fract_z
Si Si1 0.735550 0.068095 0.199632
Si Si2 0.216791 0.847405 0.652220
Si Si3 0.779154 0.046886 0.787350
Si Si4 0.653965 0.569574 0.533884
Si Si5 0.890079 0.140501 0.027786
Si Si6 0.514184 0.640943 0.054212
Si Si7 0.938258 0.468081 0.621649
O O1 0.725272 0.135902 0.269048
O O2 0.827715 0.113624 0.115974
O O3 0.448966 0.025131 0.212449
O O4 0.964114 0.996600 0.200136
O O5 0.078404 0.750000 0.656987
O O6 0.481586 0.847775 0.577646
O O7 0.074908 0.938572 0.637416
O O8 0.636623 0.112217 0.858145
O O9 0.871173 0.086655 0.700549
O O10 0.500000 0.500000 0.500000
O O11 0.699935 0.511119 0.601623
O O12 0.906741 0.585442 0.457551
O O13 0.893284 0.250000 0.022476
O O14 0.661153 0.108273 0.996233
O O15 0.183736 0.107318 0.977343
O O16 0.525491 0.750000 0.048991
#
# Coordination Sequence:
#
# PCOD9161831 Si02
#       7
#     4   4   4   4   4   4   4
#     4  11  22  36  56  87 115 153 189 231 286 342
#     4  10  20  34  54  85 118 150 186 230 281 341
#     4  11  22  37  58  85 116 145 195 238 281 340
#     4   9  17  35  58  77 107 148 188 222 278 343
#     4  10  21  38  56  80 116 153 190 233 288 338
#     4  10  22  39  58  79 108 152 193 240 291 332
#     4   9  19  35  55  83 109 150 185 232 282 335
#
# _framework density 20.259156999999998
#
# number of rings (size 3 to 8) (size 9 to 14) (size 15 to 20)
#    0.000    2.000    1.429    2.143    0.000    4.000 
#    0.000    2.143    0.000    3.429    0.000    0.000 
#    0.000    0.000    0.000    0.000    0.000    0.000 
#
# Total GULP energy -155994.680487 kJ/mol
# GULP energy per Si atom -5571.238589 kJ/mol
# Density = 2.021305 g / cm^3
# Si number density = 20.259157 Si / 1000 Ang^3
#
#
#
# Elastic Constant Matrix: (Units=GPa)
#
#
# Indices 1 2 3 4 5 6 
#
# 1 84.2285 7.0425 14.0225 0.0000 12.1447 0.0000
# 2 7.0425 24.0736 7.3020 0.0000 -0.2124 0.0000
# 3 14.0225 7.3020 115.1268 0.0000 10.1598 0.0000
# 4 0.0000 0.0000 0.0000 2.1124 0.0000 -1.2525
# 5 12.1447 -0.2124 10.1598 0.0000 37.9411 0.0000
# 6 0.0000 0.0000 0.0000 -1.2525 0.0000 10.3814
#
#
#
# Elastic Compliance Matrix: (Units=1/GPa)
#
#
# Indices 1 2 3 4 5 6 
#
# 1 0.012892 -0.003500 -0.001006 0.000000 -0.003877 0.000000
# 2 -0.003500 0.043340 -0.002502 0.000000 0.002033 0.000000
# 3 -0.001006 -0.002502 0.009157 0.000000 -0.002144 0.000000
# 4 0.000000 0.000000 0.000000 0.509874 0.000000 0.061517
# 5 -0.003877 0.002033 -0.002144 0.000000 0.028183 0.000000
# 6 0.000000 0.000000 0.000000 0.061517 0.000000 0.103748
#
#
# Mechanical properties :
#
#
# Convention : Reuss Voigt Hill
#
# Bulk Modulus (GPa) = 19.46603 31.12920 25.29762
# Shear Modulus (GPa) = 6.77201 23.09111 14.93156
#
# Velocity S-wave (km/s) = 1.83029 3.37973 2.71777
# Velocity P-wave (km/s) = 3.75446 5.53435 4.72890
#
# Compressibility (1/GPa) = 0.05137154
#
# Stress axis : x y z
#
# Youngs Moduli (GPa) = 77.56988 23.07330 109.21201
#
# Poissons Ratio (x) = 0.08076 0.10988
# Poissons Ratio (y) = 0.27152 0.27324
# Poissons Ratio (z) = 0.07804 0.05773
#
# Static dielectric constant tensor:
#      x y z
#    x 1.792250 0.000000 -0.048030 
#    y 0.000000 1.772250 0.000000 
#    z -0.048030 0.000000 1.769450 
# 
# From -- ./inp_files/56929.got.cif
#   From: 2010.05.17/outbox.cif.g08.bks.cpg/sg11_29_cif.got.tgz:56929.got - 2010.06.03 12:22:45.
