data_PCOD9161141
_publ_section_title
;
Structure prediction by ZEFSAII (Michael W. Deem and Ramdas Pophale) SiO2 
 PCOD9161141
Probable space group: P 21/M
;
_chemical_formula_sum "Si O2"
_cell_formula_units_Z 32
_cell_length_a 23.308595
_cell_length_b 8.896893
_cell_length_c 17.427040
_cell_angle_alpha 90.000000
_cell_angle_beta 30.980628
_cell_angle_gamma 90.000000
_cell_volume 1860.257035
_symmetry_space_group_name_H-M "P 21/M"
_symmetry_group_IT_number 11
_symmetry_cell_setting 'monoclinic'
loop_
_space_group_symop_operation_xyz
x,y,z
-x,1/2+y,-z
-x,-y,-z
x,1/2-y,z
loop_
_atom_site_type_symbol
_atom_site_label
_atom_site_fract_x
_atom_site_fract_y
_atom_site_fract_z
Si Si1 0.100416 0.924756 0.839162
Si Si2 0.688099 0.431378 0.132966
Si Si3 0.867936 0.069478 0.489366
Si Si4 0.224079 0.430736 0.558432
Si Si5 0.869679 0.929805 0.815599
Si Si6 0.557140 0.569727 0.600081
Si Si7 0.123644 0.069580 0.362614
Si Si8 0.329922 0.924591 0.670744
O O1 0.076458 0.750000 0.849666
O O2 0.209739 0.931344 0.767471
O O3 0.132718 0.011422 0.724443
O O4 0.000000 0.000000 0.000000
O O5 0.696112 0.250000 0.123053
O O6 0.568152 0.476831 0.235451
O O7 0.683515 0.480243 0.227191
O O8 0.791643 0.496219 0.968112
O O9 0.862209 0.250000 0.498256
O O10 0.999471 0.026838 0.328889
O O11 0.801439 0.003559 0.493958
O O12 0.826297 0.001668 0.617990
O O13 0.220762 0.250000 0.557594
O O14 0.344159 0.478669 0.455800
O O15 0.865837 0.750000 0.828401
O O16 0.827521 0.966364 0.777443
O O17 0.559516 0.750000 0.595536
O O18 0.587775 0.512550 0.479903
O O19 0.117569 0.250000 0.376692
O O20 0.000000 0.000000 0.500000
O O21 0.365276 0.750000 0.633235
#
# Coordination Sequence:
#
# PCOD9161141 Si02
#       8
#     4   4   4   4   4   4   4   4
#     4  10  20  33  47  68 101 136 170 210 254 300
#     4  10  20  33  51  75 102 131 167 212 254 298
#     4  10  20  34  53  79 106 132 168 209 250 306
#     4  10  20  34  52  73  98 133 172 209 254 302
#     4   9  20  34  49  76 107 132 161 199 250 302
#     4   9  19  35  52  72  98 131 172 213 254 298
#     4   9  17  32  52  75 105 137 167 203 249 303
#     4   9  19  33  49  71  96 129 173 213 251 298
#
# _framework density 17.201924999999999
#
# number of rings (size 3 to 8) (size 9 to 14) (size 15 to 20)
#    0.000    2.500    0.000    2.625    1.750    5.000 
#    0.000    0.000    0.000    0.750    0.000    0.000 
#    0.000    0.000    0.000    0.000    0.000    0.000 
#
# Total GULP energy -178417.349776 kJ/mol
# GULP energy per Si atom -5575.542181 kJ/mol
# Density = 1.716277 g / cm^3
# Si number density = 17.201925 Si / 1000 Ang^3
#
#
#
# Elastic Constant Matrix: (Units=GPa)
#
#
# Indices 1 2 3 4 5 6 
#
# 1 110.4562 30.1384 23.5897 0.0000 23.7254 0.0000
# 2 30.1384 37.0389 13.5474 0.0000 3.0187 0.0000
# 3 23.5897 13.5474 45.1434 0.0000 4.8855 0.0000
# 4 0.0000 0.0000 0.0000 23.5039 0.0000 8.2773
# 5 23.7254 3.0187 4.8855 0.0000 16.6521 0.0000
# 6 0.0000 0.0000 0.0000 8.2773 0.0000 27.0877
#
#
#
# Elastic Compliance Matrix: (Units=1/GPa)
#
#
# Indices 1 2 3 4 5 6 
#
# 1 0.017585 -0.011262 -0.003428 0.000000 -0.022008 0.000000
# 2 -0.011262 0.037678 -0.006630 0.000000 0.011160 0.000000
# 3 -0.003428 -0.006630 0.026103 0.000000 -0.001572 0.000000
# 4 0.000000 0.000000 0.000000 0.047677 0.000000 -0.014569
# 5 -0.022008 0.011160 -0.001572 0.000000 0.089847 0.000000
# 6 0.000000 0.000000 0.000000 -0.014569 0.000000 0.041369
#
#
# Mechanical properties :
#
#
# Convention : Reuss Voigt Hill
#
# Bulk Modulus (GPa) = 25.82207 36.35439 31.08823
# Shear Modulus (GPa) = 15.83247 21.80627 18.81937
#
# Velocity S-wave (km/s) = 3.03708 3.56429 3.31120
# Velocity P-wave (km/s) = 5.22898 6.17403 5.72105
#
# Compressibility (1/GPa) = 0.03872657
#
# Stress axis : x y z
#
# Youngs Moduli (GPa) = 56.86513 26.54093 38.31023
#
# Poissons Ratio (x) = 0.29890 0.13133
# Poissons Ratio (y) = 0.64040 0.25399
# Poissons Ratio (z) = 0.19493 0.17596
#
# Static dielectric constant tensor:
#      x y z
#    x 1.616710 0.000000 -0.006240 
#    y 0.000000 1.578720 0.000000 
#    z -0.006240 0.000000 1.557540 
# 
# From -- ./inp_files/61736.got.cif
#   From: 2010.05.17/outbox.cif.g08.bks.cpg/sg11_31_cif.got.tgz:61736.got - 2010.06.03 12:22:45.
