data_PCOD9161957
_publ_section_title
;
Structure prediction by ZEFSAII (Michael W. Deem and Ramdas Pophale) SiO2 
 PCOD9161957
Probable space group: P 21/M
;
_chemical_formula_sum "Si O2"
_cell_formula_units_Z 24
_cell_length_a 17.484431
_cell_length_b 14.249381
_cell_length_c 9.602485
_cell_angle_alpha 90.000000
_cell_angle_beta 146.012970
_cell_angle_gamma 90.000000
_cell_volume 1337.355917
_symmetry_space_group_name_H-M "P 21/M"
_symmetry_group_IT_number 11
_symmetry_cell_setting 'monoclinic'
loop_
_space_group_symop_operation_xyz
x,y,z
-x,1/2+y,-z
-x,-y,-z
x,1/2-y,z
loop_
_atom_site_type_symbol
_atom_site_label
_atom_site_fract_x
_atom_site_fract_y
_atom_site_fract_z
Si Si1 0.663577 0.429339 0.614271
Si Si2 0.136428 0.966050 0.622626
Si Si3 0.814527 0.750000 0.025391
Si Si4 0.882235 0.456023 0.724813
Si Si5 0.652664 0.565915 0.863445
Si Si6 0.009221 0.750000 0.079077
Si Si7 0.901983 0.250000 0.381078
Si Si8 0.152887 0.750000 0.026057
O O1 0.742470 0.469398 0.598992
O O2 0.662809 0.498238 0.744871
O O3 0.505013 0.411819 0.341584
O O4 0.752181 0.339323 0.795151
O O5 0.118447 0.992835 0.433478
O O6 0.156690 0.852774 0.665118
O O7 0.000000 0.000000 0.500000
O O8 0.264897 0.017041 0.887266
O O9 0.949240 0.750000 0.324450
O O10 0.729216 0.659306 0.933531
O O11 0.866152 0.750000 0.943476
O O12 0.000000 0.500000 0.000000
O O13 0.914244 0.344932 0.760630
O O14 0.022649 0.750000 0.932898
O O15 0.896141 0.250000 0.205485
#
# Coordination Sequence:
#
# PCOD9161957 Si02
#       8
#     4   4   2   4   4   2   2   2
#     4  10  22  40  58  88 117 160 201 241 295 357
#     4  12  22  38  60  88 120 156 197 250 296 350
#     4  12  21  38  57  88 117 154 194 246 304 343
#     4  11  22  37  61  87 118 154 198 249 296 348
#     4  11  23  38  60  83 122 160 201 243 296 356
#     4  10  20  34  56  83 115 144 184 249 292 341
#     4  12  22  36  61  90 115 151 194 243 301 349
#     4  10  21  36  62  87 115 151 200 244 297 357
#
# _framework density 17.945858999999999
#
# number of rings (size 3 to 8) (size 9 to 14) (size 15 to 20)
#    0.000    1.000    5.000    2.500    2.333    0.667 
#    0.000    0.000    0.000    0.000    0.000    0.000 
#    0.000    0.000    0.000    0.000    0.000    0.000 
#
# Total GULP energy -133937.548267 kJ/mol
# GULP energy per Si atom -5580.731178 kJ/mol
# Density = 1.790501 g / cm^3
# Si number density = 17.945859 Si / 1000 Ang^3
#
#
#
# Elastic Constant Matrix: (Units=GPa)
#
#
# Indices 1 2 3 4 5 6 
#
# 1 154.9653 29.8685 69.8746 0.0000 -8.2253 0.0000
# 2 29.8685 82.9085 35.4591 0.0000 4.8962 0.0000
# 3 69.8746 35.4591 107.7217 0.0000 -7.7531 0.0000
# 4 0.0000 0.0000 0.0000 27.0196 0.0000 -2.4711
# 5 -8.2253 4.8962 -7.7531 0.0000 39.4353 0.0000
# 6 0.0000 0.0000 0.0000 -2.4711 0.0000 20.1280
#
#
#
# Elastic Compliance Matrix: (Units=1/GPa)
#
#
# Indices 1 2 3 4 5 6 
#
# 1 0.009210 -0.000987 -0.005581 0.000000 0.000946 0.000000
# 2 -0.000987 0.014430 -0.004315 0.000000 -0.002846 0.000000
# 3 -0.005581 -0.004315 0.014484 0.000000 0.002219 0.000000
# 4 0.000000 0.000000 0.000000 0.037430 0.000000 0.004595
# 5 0.000946 -0.002846 0.002219 0.000000 0.026345 0.000000
# 6 0.000000 0.000000 0.000000 0.004595 0.000000 0.050246
#
#
# Mechanical properties :
#
#
# Convention : Reuss Voigt Hill
#
# Bulk Modulus (GPa) = 61.13118 68.44444 64.78781
# Shear Modulus (GPa) = 27.87623 31.34280 29.60951
#
# Velocity S-wave (km/s) = 3.94553 4.18367 4.06635
# Velocity P-wave (km/s) = 7.40908 7.84600 7.63067
#
# Compressibility (1/GPa) = 0.01635826
#
# Stress axis : x y z
#
# Youngs Moduli (GPa) = 108.57629 69.29780 69.04380
#
# Poissons Ratio (x) = 0.06839 0.38535
# Poissons Ratio (y) = 0.10715 0.29791
# Poissons Ratio (z) = 0.60599 0.29901
#
# Static dielectric constant tensor:
#      x y z
#    x 1.625360 0.000000 -0.005290 
#    y 0.000000 1.659100 0.000000 
#    z -0.005290 0.000000 1.587690 
# 
# From -- ./inp_files/22369.got.cif
#   From: 2010.05.17/outbox.cif.g08.bks.cpg/sg11_12_cif.got.tgz:22369.got - 2010.06.03 12:22:45.
