data_PCOD9161863
_publ_section_title
;
Structure prediction by ZEFSAII (Michael W. Deem and Ramdas Pophale) SiO2 
 PCOD9161863
Probable space group: P 21/M
;
_chemical_formula_sum "Si O2"
_cell_formula_units_Z 28
_cell_length_a 16.216582
_cell_length_b 15.962027
_cell_length_c 8.932819
_cell_angle_alpha 90.000000
_cell_angle_beta 140.113621
_cell_angle_gamma 90.000000
_cell_volume 1482.773951
_symmetry_space_group_name_H-M "P 21/M"
_symmetry_group_IT_number 11
_symmetry_cell_setting 'monoclinic'
loop_
_space_group_symop_operation_xyz
x,y,z
-x,1/2+y,-z
-x,-y,-z
x,1/2-y,z
loop_
_atom_site_type_symbol
_atom_site_label
_atom_site_fract_x
_atom_site_fract_y
_atom_site_fract_z
Si Si1 0.687596 0.847041 0.936317
Si Si2 0.093857 0.921235 0.596917
Si Si3 0.847093 0.344654 0.634453
Si Si4 0.122977 0.343319 0.528485
Si Si5 0.387588 0.652494 0.477306
Si Si6 0.262227 0.968307 0.081526
Si Si7 0.010243 0.580847 0.914417
O O1 0.720474 0.750000 0.932226
O O2 0.533869 0.849898 0.736271
O O3 0.723860 0.930764 0.892144
O O4 0.762218 0.860017 0.196623
O O5 0.113364 0.901296 0.450606
O O6 0.008629 0.849443 0.557326
O O7 0.229574 0.939987 0.866384
O O8 0.000000 0.000000 0.500000
O O9 0.833394 0.250000 0.559547
O O10 0.714265 0.368940 0.533329
O O11 0.952691 0.348531 0.913964
O O12 0.137250 0.250000 0.490468
O O13 0.105410 0.400710 0.358851
O O14 0.359180 0.750000 0.392744
O O15 0.369092 0.586494 0.315921
O O16 0.132993 0.937515 0.982672
O O17 0.000000 0.500000 0.000000
#
# Coordination Sequence:
#
# PCOD9161863 Si02
#       7
#     4   4   4   4   4   4   4
#     4  10  20  36  59  82 111 150 191 234 275 338
#     4  11  20  34  55  82 114 140 179 234 278 336
#     4  10  20  35  56  81 107 144 186 231 276 330
#     4  10  20  34  55  81 109 145 182 224 283 336
#     4   9  20  38  59  82 111 147 193 236 280 326
#     4  10  20  35  59  80 113 147 188 230 282 330
#     4  10  21  34  54  79 114 143 176 229 281 335
#
# _framework density 18.883524999999999
#
# number of rings (size 3 to 8) (size 9 to 14) (size 15 to 20)
#    0.000    2.000    1.429    3.000    0.000    4.000 
#    0.000    1.429    3.143    0.000    0.000    0.000 
#    0.000    0.000    0.000    0.000    0.000    0.000 
#
# Total GULP energy -155876.449289 kJ/mol
# GULP energy per Si atom -5567.016046 kJ/mol
# Density = 1.884055 g / cm^3
# Si number density = 18.883525 Si / 1000 Ang^3
#
#
#
# Elastic Constant Matrix: (Units=GPa)
#
#
# Indices 1 2 3 4 5 6 
#
# 1 37.8863 30.5522 40.7550 0.0000 -19.9667 0.0000
# 2 30.5522 116.5746 63.4026 0.0000 -16.2903 0.0000
# 3 40.7550 63.4026 117.0198 0.0000 -3.2427 0.0000
# 4 0.0000 0.0000 0.0000 31.0382 0.0000 -5.3050
# 5 -19.9667 -16.2903 -3.2427 0.0000 24.7271 0.0000
# 6 0.0000 0.0000 0.0000 -5.3050 0.0000 27.5075
#
#
#
# Elastic Compliance Matrix: (Units=1/GPa)
#
#
# Indices 1 2 3 4 5 6 
#
# 1 0.108756 0.003900 -0.037622 0.000000 0.085454 0.000000
# 2 0.003900 0.013718 -0.008484 0.000000 0.011074 0.000000
# 3 -0.037622 -0.008484 0.025341 0.000000 -0.032645 0.000000
# 4 0.000000 0.000000 0.000000 0.033317 0.000000 0.006425
# 5 0.085454 0.011074 -0.032645 0.000000 0.112458 0.000000
# 6 0.000000 0.000000 0.000000 0.006425 0.000000 0.037593
#
#
# Mechanical properties :
#
#
# Convention : Reuss Voigt Hill
#
# Bulk Modulus (GPa) = 15.77223 60.10003 37.93613
# Shear Modulus (GPa) = 11.44877 25.77264 18.61070
#
# Velocity S-wave (km/s) = 2.46495 3.69836 3.14276
# Velocity P-wave (km/s) = 4.05855 7.08046 5.77082
#
# Compressibility (1/GPa) = 0.06340258
#
# Stress axis : x y z
#
# Youngs Moduli (GPa) = 9.19489 72.89835 39.46246
#
# Poissons Ratio (x) = -0.28433 1.48467
# Poissons Ratio (y) = -0.03586 0.33480
# Poissons Ratio (z) = 0.34593 0.61847
#
# Static dielectric constant tensor:
#      x y z
#    x 1.815920 0.000000 -0.118890 
#    y 0.000000 1.772460 0.000000 
#    z -0.118890 0.000000 1.763640 
# 
# From -- ./inp_files/24978.got.cif
#   From: 2010.05.17/outbox.cif.g08.bks.cpg/sg11_13_cif.got.tgz:24978.got - 2010.06.03 12:22:45.
