data_PCOD9161494
_publ_section_title
;
Structure prediction by ZEFSAII (Michael W. Deem and Ramdas Pophale) SiO2 
 PCOD9161494
Probable space group: P 21/M
;
_chemical_formula_sum "Si O2"
_cell_formula_units_Z 24
_cell_length_a 12.246980
_cell_length_b 19.494310
_cell_length_c 5.680152
_cell_angle_alpha 90.000000
_cell_angle_beta 67.831881
_cell_angle_gamma 90.000000
_cell_volume 1255.872814
_symmetry_space_group_name_H-M "P 21/M"
_symmetry_group_IT_number 11
_symmetry_cell_setting 'monoclinic'
loop_
_space_group_symop_operation_xyz
x,y,z
-x,1/2+y,-z
-x,-y,-z
x,1/2-y,z
loop_
_atom_site_type_symbol
_atom_site_label
_atom_site_fract_x
_atom_site_fract_y
_atom_site_fract_z
Si Si1 0.649228 0.924938 0.436997
Si Si2 0.021885 0.564876 0.811920
Si Si3 0.166098 0.669621 0.968042
Si Si4 0.767780 0.419082 0.700967
Si Si5 0.234060 0.432484 0.149955
Si Si6 0.385605 0.590200 0.560890
O O1 0.711365 0.910785 0.640347
O O2 0.516809 0.895440 0.537972
O O3 0.633512 0.007715 0.427708
O O4 0.713957 0.903726 0.139753
O O5 0.057722 0.631443 0.931919
O O6 0.138095 0.551602 0.563401
O O7 0.906467 0.576778 0.750448
O O8 0.000000 0.500000 0.000000
O O9 0.166059 0.750000 0.934468
O O10 0.286942 0.634080 0.776653
O O11 0.166952 0.644568 0.235277
O O12 0.744367 0.485038 0.879577
O O13 0.646567 0.394001 0.684735
#
# Coordination Sequence:
#
# PCOD9161494 Si02
#       6
#     4   4   4   4   4   4
#     4  10  21  33  61  92 121 154 196 255 318 364
#     4  11  21  37  61  88 125 163 209 266 319 371
#     4  11  23  38  59  88 124 166 209 258 319 381
#     4  10  20  33  58  87 124 160 202 260 319 368
#     4  11  20  34  57  94 119 154 200 256 316 366
#     4   9  20  36  55  84 124 153 198 254 304 369
#
# _framework density 19.110213999999999
#
# number of rings (size 3 to 8) (size 9 to 14) (size 15 to 20)
#    0.000    1.667    3.333    2.500    4.667    4.667 
#    0.000    0.000    0.000    2.000    0.000    0.000 
#    0.000    0.000    0.000    0.000    0.000    0.000 
#
# Total GULP energy -133629.050083 kJ/mol
# GULP energy per Si atom -5567.877087 kJ/mol
# Density = 1.906672 g / cm^3
# Si number density = 19.110214 Si / 1000 Ang^3
#
#
#
# Elastic Constant Matrix: (Units=GPa)
#
#
# Indices 1 2 3 4 5 6 
#
# 1 199.3685 33.8868 47.5496 0.0000 17.3166 0.0000
# 2 33.8868 78.3842 21.0087 0.0000 5.0189 0.0000
# 3 47.5496 21.0087 71.8231 0.0000 14.0047 0.0000
# 4 0.0000 0.0000 0.0000 11.0552 0.0000 -2.0772
# 5 17.3166 5.0189 14.0047 0.0000 24.0615 0.0000
# 6 0.0000 0.0000 0.0000 -2.0772 0.0000 15.5775
#
#
#
# Elastic Compliance Matrix: (Units=1/GPa)
#
#
# Indices 1 2 3 4 5 6 
#
# 1 0.006269 -0.001704 -0.003205 0.000000 -0.002291 0.000000
# 2 -0.001704 0.014314 -0.003063 0.000000 0.000024 0.000000
# 3 -0.003205 -0.003063 0.018462 0.000000 -0.007800 0.000000
# 4 0.000000 0.000000 0.000000 0.092780 0.000000 0.012372
# 5 -0.002291 0.000024 -0.007800 0.000000 0.047744 0.000000
# 6 0.000000 0.000000 0.000000 0.012372 0.000000 0.065845
#
#
# Mechanical properties :
#
#
# Convention : Reuss Voigt Hill
#
# Bulk Modulus (GPa) = 43.29109 61.60732 52.44920
# Shear Modulus (GPa) = 18.58332 26.61422 22.59877
#
# Velocity S-wave (km/s) = 3.12176 3.73590 3.44255
# Velocity P-wave (km/s) = 5.97465 7.13562 6.58079
#
# Compressibility (1/GPa) = 0.02309944
#
# Stress axis : x y z
#
# Youngs Moduli (GPa) = 159.51735 69.86163 54.16570
#
# Poissons Ratio (x) = 0.11908 0.17360
# Poissons Ratio (y) = 0.27189 0.16592
# Poissons Ratio (z) = 0.51126 0.21400
#
# Static dielectric constant tensor:
#      x y z
#    x 1.716260 0.000000 0.080620 
#    y 0.000000 1.631900 0.000000 
#    z 0.080620 0.000000 1.815620 
# 
# From -- ./inp_files/4822.got.cif
#   From: 2010.05.17/outbox.cif.g08.bks.cpg/sg11_3_cif.got.tgz:4822.got - 2010.06.03 12:22:45.
