data_PCOD9161208
_publ_section_title
;
Structure prediction by ZEFSAII (Michael W. Deem and Ramdas Pophale) SiO2 
 PCOD9161208
Probable space group: P 21/M
;
_chemical_formula_sum "Si O2"
_cell_formula_units_Z 28
_cell_length_a 11.315166
_cell_length_b 8.967735
_cell_length_c 21.972001
_cell_angle_alpha 90.000000
_cell_angle_beta 129.617376
_cell_angle_gamma 90.000000
_cell_volume 1717.451262
_symmetry_space_group_name_H-M "P 21/M"
_symmetry_group_IT_number 11
_symmetry_cell_setting 'monoclinic'
loop_
_space_group_symop_operation_xyz
x,y,z
-x,1/2+y,-z
-x,-y,-z
x,1/2-y,z
loop_
_atom_site_type_symbol
_atom_site_label
_atom_site_fract_x
_atom_site_fract_y
_atom_site_fract_z
Si Si1 0.015330 0.426907 0.602609
Si Si2 0.502806 0.072068 0.262525
Si Si3 0.226117 0.571113 0.567690
Si Si4 0.859340 0.926758 0.034368
Si Si5 0.789375 0.426279 0.884904
Si Si6 0.750018 0.071407 0.238686
Si Si7 0.339205 0.929169 0.927249
O O1 0.026491 0.250000 0.613159
O O2 0.124133 0.482352 0.583128
O O3 0.089579 0.503512 0.685572
O O4 0.844264 0.463382 0.521680
O O5 0.475066 0.250000 0.250274
O O6 0.599227 0.040247 0.355701
O O7 0.616806 0.031960 0.243706
O O8 0.345782 0.985183 0.202134
O O9 0.202954 0.750000 0.570206
O O10 0.831428 0.750000 0.030495
O O11 0.041649 0.952547 0.087356
O O12 0.787797 0.012032 0.067641
O O13 0.784066 0.987182 0.947339
O O14 0.773690 0.250000 0.890838
O O15 0.763413 0.250000 0.244882
O O16 0.702555 0.026001 0.155456
O O17 0.349473 0.750000 0.932844
O O18 0.500000 0.000000 0.000000
#
# Coordination Sequence:
#
# PCOD9161208 Si02
#       7
#     4   4   4   4   4   4   4
#     4   9  15  24  41  63  87 119 156 187 219 267
#     4   9  16  28  46  67  95 126 152 185 231 277
#     4   8  15  26  39  60  91 122 150 184 227 270
#     4  10  21  36  51  68  93 123 155 193 235 275
#     4  10  20  33  50  71  93 119 155 196 234 275
#     4   9  19  32  44  64  95 126 152 184 229 275
#     4  11  22  35  52  72  95 124 157 191 229 275
#
# _framework density 16.303228000000001
#
# number of rings (size 3 to 8) (size 9 to 14) (size 15 to 20)
#    0.000    2.571    0.000    3.429    0.000    6.857 
#    0.000    0.000    0.000    0.000    0.000    1.000 
#    0.000    0.000    0.000    0.000    0.000    0.000 
#
# Total GULP energy -155998.145884 kJ/mol
# GULP energy per Si atom -5571.362353 kJ/mol
# Density = 1.626612 g / cm^3
# Si number density = 16.303228 Si / 1000 Ang^3
#
#
#
# Elastic Constant Matrix: (Units=GPa)
#
#
# Indices 1 2 3 4 5 6 
#
# 1 28.2478 21.3506 33.8599 0.0000 1.7753 0.0000
# 2 21.3506 34.9330 45.7431 0.0000 4.7223 0.0000
# 3 33.8599 45.7431 159.7955 0.0000 15.0802 0.0000
# 4 0.0000 0.0000 0.0000 30.8750 0.0000 3.0687
# 5 1.7753 4.7223 15.0802 0.0000 20.9218 0.0000
# 6 0.0000 0.0000 0.0000 3.0687 0.0000 21.9033
#
#
#
# Elastic Compliance Matrix: (Units=1/GPa)
#
#
# Indices 1 2 3 4 5 6 
#
# 1 0.067970 -0.036390 -0.004524 0.000000 0.005707 0.000000
# 2 -0.036390 0.065291 -0.010601 0.000000 -0.004008 0.000000
# 3 -0.004524 -0.010601 0.010718 0.000000 -0.004949 0.000000
# 4 0.000000 0.000000 0.000000 0.032846 0.000000 -0.004602
# 5 0.005707 -0.004008 -0.004949 0.000000 0.051785 0.000000
# 6 0.000000 0.000000 0.000000 -0.004602 0.000000 0.046300
#
#
# Mechanical properties :
#
#
# Convention : Reuss Voigt Hill
#
# Bulk Modulus (GPa) = 24.42062 47.20927 35.81495
# Shear Modulus (GPa) = 12.76848 22.87487 17.82168
#
# Velocity S-wave (km/s) = 2.80158 3.74985 3.30985
# Velocity P-wave (km/s) = 5.04744 6.91146 6.05165
#
# Compressibility (1/GPa) = 0.04094900
#
# Stress axis : x y z
#
# Youngs Moduli (GPa) = 14.71236 15.31614 93.29806
#
# Poissons Ratio (x) = 0.55735 0.42210
# Poissons Ratio (y) = 0.53538 0.98905
# Poissons Ratio (z) = 0.06656 0.16237
#
# Static dielectric constant tensor:
#      x y z
#    x 1.525110 0.000000 0.016100 
#    y 0.000000 1.545470 0.000000 
#    z 0.016100 0.000000 1.585220 
# 
# From -- ./inp_files/42328.got.cif
#   From: 2010.05.17/outbox.cif.g08.bks.cpg/sg11_22_cif.got.tgz:42328.got - 2010.06.03 12:22:45.
