data_PCOD9161185
_publ_section_title
;
Structure prediction by ZEFSAII (Michael W. Deem and Ramdas Pophale) SiO2 
 PCOD9161185
Probable space group: P 21/M
;
_chemical_formula_sum "Si O2"
_cell_formula_units_Z 32
_cell_length_a 16.547632
_cell_length_b 8.219099
_cell_length_c 14.648783
_cell_angle_alpha 90.000000
_cell_angle_beta 117.725231
_cell_angle_gamma 90.000000
_cell_volume 1763.589650
_symmetry_space_group_name_H-M "P 21/M"
_symmetry_group_IT_number 11
_symmetry_cell_setting 'monoclinic'
loop_
_space_group_symop_operation_xyz
x,y,z
-x,1/2+y,-z
-x,-y,-z
x,1/2-y,z
loop_
_atom_site_type_symbol
_atom_site_label
_atom_site_fract_x
_atom_site_fract_y
_atom_site_fract_z
Si Si1 0.103626 0.943932 0.546723
Si Si2 0.896120 0.053982 0.949003
Si Si3 0.747769 0.446741 0.228917
Si Si4 0.397307 0.551437 0.200752
Si Si5 0.394797 0.053268 0.701581
Si Si6 0.754462 0.555998 0.522358
Si Si7 0.746931 0.053786 0.726092
Si Si8 0.753066 0.448609 0.023568
O O1 0.104935 0.750000 0.550341
O O2 0.167426 0.004611 0.663914
O O3 0.154135 0.998312 0.480837
O O4 0.000000 0.000000 0.500000
O O5 0.894304 0.250000 0.947970
O O6 0.835636 0.998938 0.830475
O O7 0.841078 0.000103 0.010611
O O8 0.000000 0.000000 0.000000
O O9 0.750078 0.250000 0.228778
O O10 0.656485 0.499757 0.233490
O O11 0.752745 0.505348 0.127504
O O12 0.398685 0.750000 0.201809
O O13 0.501326 0.494605 0.251217
O O14 0.341464 0.500606 0.261718
O O15 0.336001 0.502486 0.081536
O O16 0.396250 0.250000 0.700351
O O17 0.330696 0.995813 0.584169
O O18 0.753237 0.750000 0.518811
O O19 0.747895 0.502034 0.622963
O O20 0.747134 0.250000 0.726863
O O21 0.753452 0.250000 0.025274
#
# Coordination Sequence:
#
# PCOD9161185 Si02
#       8
#     4   4   4   4   4   4   4   4
#     4  10  20  34  51  72  99 129 162 200 242 288
#     4   9  18  32  50  72  97 126 159 196 239 289
#     4   9  18  32  50  72  97 126 159 195 236 284
#     4   8  15  30  51  71  95 128 160 193 238 290
#     4   9  18  32  49  71  98 127 160 197 238 285
#     4  10  20  33  49  71  99 129 162 201 244 287
#     4   9  18  33  51  71  96 128 166 202 239 287
#     4   8  15  30  50  70  94 125 159 191 231 288
#
# _framework density 18.144808999999999
#
# number of rings (size 3 to 8) (size 9 to 14) (size 15 to 20)
#    0.000    3.000    0.000    2.250    0.000    3.500 
#    0.000    2.500    0.000    1.500    0.000    0.000 
#    0.000    0.000    0.000    0.000    0.000    0.000 
#
# Total GULP energy -178383.737138 kJ/mol
# GULP energy per Si atom -5574.491786 kJ/mol
# Density = 1.810351 g / cm^3
# Si number density = 18.144809 Si / 1000 Ang^3
#
#
#
# Elastic Constant Matrix: (Units=GPa)
#
#
# Indices 1 2 3 4 5 6 
#
# 1 196.4631 16.8993 129.9068 0.0000 7.0871 0.0000
# 2 16.8993 10.0004 15.0357 0.0000 -0.9472 0.0000
# 3 129.9068 15.0357 136.0633 0.0000 -22.7862 0.0000
# 4 0.0000 0.0000 0.0000 16.7016 0.0000 -0.9473
# 5 7.0871 -0.9472 -22.7862 0.0000 35.5560 0.0000
# 6 0.0000 0.0000 0.0000 -0.9473 0.0000 25.7582
#
#
#
# Elastic Compliance Matrix: (Units=1/GPa)
#
#
# Indices 1 2 3 4 5 6 
#
# 1 0.021704 -0.002934 -0.023677 0.000000 -0.019578 0.000000
# 2 -0.002934 0.121445 -0.011180 0.000000 -0.003344 0.000000
# 3 -0.023677 -0.011180 0.035769 0.000000 0.027345 0.000000
# 4 0.000000 0.000000 0.000000 0.059999 0.000000 0.002207
# 5 -0.019578 -0.003344 0.027345 0.000000 0.049462 0.000000
# 6 0.000000 0.000000 0.000000 0.002207 0.000000 0.038904
#
#
# Mechanical properties :
#
#
# Convention : Reuss Voigt Hill
#
# Bulk Modulus (GPa) = 9.67688 74.02338 41.85013
# Shear Modulus (GPa) = 11.43357 27.64882 19.54120
#
# Velocity S-wave (km/s) = 2.51296 3.90781 3.28526
# Velocity P-wave (km/s) = 3.71008 7.82596 6.12415
#
# Compressibility (1/GPa) = 0.10333912
#
# Stress axis : x y z
#
# Youngs Moduli (GPa) = 46.07413 8.23420 27.95679
#
# Poissons Ratio (x) = 0.02416 0.66192
# Poissons Ratio (y) = 0.13516 0.31254
# Poissons Ratio (z) = 1.09088 0.09205
#
# Static dielectric constant tensor:
#      x y z
#    x 1.547480 0.000000 0.006680 
#    y 0.000000 1.638290 0.000000 
#    z 0.006680 0.000000 1.623160 
# 
# From -- ./inp_files/51682.got.cif
#   From: 2010.05.17/outbox.cif.g08.bks.cpg/sg11_26_cif.got.tgz:51682.got - 2010.06.03 12:22:45.
