data_PCOD9161871
_publ_section_title
;
Structure prediction by ZEFSAII (Michael W. Deem and Ramdas Pophale) SiO2 
 PCOD9161871
Probable space group: P 21/M
;
_chemical_formula_sum "Si O2"
_cell_formula_units_Z 28
_cell_length_a 8.187361
_cell_length_b 9.103493
_cell_length_c 26.736979
_cell_angle_alpha 90.000000
_cell_angle_beta 141.536948
_cell_angle_gamma 90.000000
_cell_volume 1239.542969
_symmetry_space_group_name_H-M "P 21/M"
_symmetry_group_IT_number 11
_symmetry_cell_setting 'monoclinic'
loop_
_space_group_symop_operation_xyz
x,y,z
-x,1/2+y,-z
-x,-y,-z
x,1/2-y,z
loop_
_atom_site_type_symbol
_atom_site_label
_atom_site_fract_x
_atom_site_fract_y
_atom_site_fract_z
Si Si1 0.887303 0.921255 0.093444
Si Si2 0.256168 0.575664 0.037380
Si Si3 0.939356 0.575729 0.768708
Si Si4 0.342456 0.578044 0.613520
Si Si5 0.999103 0.423820 0.330551
Si Si6 0.839407 0.078301 0.537134
Si Si7 0.513054 0.419187 0.803359
O O1 0.816188 0.750000 0.078282
O O2 0.191782 0.932490 0.147143
O O3 0.895289 0.991753 0.150027
O O4 0.717292 0.004400 0.010686
O O5 0.215539 0.750000 0.022449
O O6 0.466674 0.553680 0.131901
O O7 0.000000 0.500000 0.000000
O O8 0.001228 0.750000 0.785357
O O9 0.628926 0.557855 0.705040
O O10 0.964466 0.523869 0.717570
O O11 0.263381 0.750000 0.601379
O O12 0.353143 0.552980 0.555972
O O13 0.121069 0.472816 0.582284
O O14 0.029141 0.250000 0.338461
O O15 0.185578 0.491240 0.417367
O O16 0.699343 0.471559 0.270299
O O17 0.838480 0.250000 0.548008
O O18 0.429363 0.250000 0.775032
#
# Coordination Sequence:
#
# PCOD9161871 Si02
#       7
#     4   4   4   4   4   4   4
#     4  10  20  34  55  82 107 135 174 218 265 314
#     4   9  17  31  53  80 107 135 171 217 264 309
#     4  10  22  38  53  74 106 142 180 217 256 308
#     4   9  19  37  59  80 104 136 173 216 263 308
#     4  11  23  36  52  76 107 143 179 214 257 310
#     4  10  20  35  57  83 107 133 171 217 263 312
#     4   9  19  35  55  80 107 135 173 218 261 309
#
# _framework density 22.588971000000001
#
# number of rings (size 3 to 8) (size 9 to 14) (size 15 to 20)
#    0.000    2.286    0.000    3.429    0.000    8.571 
#    0.000    0.714    0.000    0.000    0.000    0.000 
#    0.000    0.000    0.000    0.000    0.000    0.000 
#
# Total GULP energy -156515.988814 kJ/mol
# GULP energy per Si atom -5589.856743 kJ/mol
# Density = 2.253756 g / cm^3
# Si number density = 22.588971 Si / 1000 Ang^3
#
#
#
# Elastic Constant Matrix: (Units=GPa)
#
#
# Indices 1 2 3 4 5 6 
#
# 1 73.9222 14.1732 24.3059 0.0000 -28.3712 0.0000
# 2 14.1732 62.7080 65.5561 0.0000 -23.8922 0.0000
# 3 24.3059 65.5561 122.3934 0.0000 -34.4656 0.0000
# 4 0.0000 0.0000 0.0000 29.7068 0.0000 -18.5817
# 5 -28.3712 -23.8922 -34.4656 0.0000 46.6178 0.0000
# 6 0.0000 0.0000 0.0000 -18.5817 0.0000 21.6796
#
#
#
# Elastic Compliance Matrix: (Units=1/GPa)
#
#
# Indices 1 2 3 4 5 6 
#
# 1 0.017734 0.001332 -0.001268 0.000000 0.010538 0.000000
# 2 0.001332 0.037420 -0.018538 0.000000 0.006283 0.000000
# 3 -0.001268 -0.018538 0.019523 0.000000 0.004162 0.000000
# 4 0.000000 0.000000 0.000000 0.072568 0.000000 0.062198
# 5 0.010538 0.006283 0.004162 0.000000 0.034162 0.000000
# 6 0.000000 0.000000 0.000000 0.062198 0.000000 0.099437
#
#
# Mechanical properties :
#
#
# Convention : Reuss Voigt Hill
#
# Bulk Modulus (GPa) = 26.50416 51.89932 39.20174
# Shear Modulus (GPa) = 15.13474 29.93338 22.53406
#
# Velocity S-wave (km/s) = 2.59126 3.64419 3.16186
# Velocity P-wave (km/s) = 4.55099 6.38218 5.54273
#
# Compressibility (1/GPa) = 0.03772992
#
# Stress axis : x y z
#
# Youngs Moduli (GPa) = 56.38993 26.72397 51.22112
#
# Poissons Ratio (x) = -0.03561 0.06494
# Poissons Ratio (y) = -0.07513 0.94953
# Poissons Ratio (z) = 0.07149 0.49540
#
# Static dielectric constant tensor:
#      x y z
#    x 1.906860 0.000000 -0.009190 
#    y 0.000000 1.755420 0.000000 
#    z -0.009190 0.000000 1.866120 
# 
# From -- ./inp_files/28419.got.cif
#   From: 2010.05.17/outbox.cif.g08.bks.cpg/sg11_15_cif.got.tgz:28419.got - 2010.06.03 12:22:45.
