data_PCOD9161429
_publ_section_title
;
Structure prediction by ZEFSAII (Michael W. Deem and Ramdas Pophale) SiO2 
 PCOD9161429
Probable space group: P 21/M
;
_chemical_formula_sum "Si O2"
_cell_formula_units_Z 32
_cell_length_a 11.691893
_cell_length_b 8.920134
_cell_length_c 30.050806
_cell_angle_alpha 90.000000
_cell_angle_beta 29.748243
_cell_angle_gamma 90.000000
_cell_volume 1555.106862
_symmetry_space_group_name_H-M "P 21/M"
_symmetry_group_IT_number 11
_symmetry_cell_setting 'monoclinic'
loop_
_space_group_symop_operation_xyz
x,y,z
-x,1/2+y,-z
-x,-y,-z
x,1/2-y,z
loop_
_atom_site_type_symbol
_atom_site_label
_atom_site_fract_x
_atom_site_fract_y
_atom_site_fract_z
Si Si1 0.810274 0.067992 0.200587
Si Si2 0.050701 0.070083 0.031006
Si Si3 0.291190 0.074997 0.597866
Si Si4 0.976948 0.914915 0.573145
Si Si5 0.462963 0.427548 0.124018
Si Si6 0.003290 0.430292 0.227114
Si Si7 0.197396 0.578884 0.288060
Si Si8 0.345792 0.081574 0.402933
O O1 0.798883 0.250000 0.201878
O O2 0.985867 0.029238 0.181061
O O3 0.566962 0.018757 0.302962
O O4 0.878001 0.017260 0.128575
O O5 0.039366 0.250000 0.031346
O O6 0.303549 0.018304 0.961325
O O7 0.000000 0.000000 0.000000
O O8 0.343266 0.250000 0.587705
O O9 0.057873 0.065234 0.646950
O O10 0.500000 0.000000 0.500000
O O11 0.205141 0.998698 0.673037
O O12 0.981962 0.750000 0.592650
O O13 0.845778 0.901982 0.570776
O O14 0.232092 0.977347 0.478280
O O15 0.835436 0.030341 0.650476
O O16 0.502764 0.250000 0.106146
O O17 0.368155 0.468103 0.204982
O O18 0.250306 0.474422 0.164120
O O19 0.986279 0.250000 0.236805
O O20 0.275325 0.750000 0.256342
O O21 0.395437 0.250000 0.403672
#
# Coordination Sequence:
#
# PCOD9161429 Si02
#       8
#     4   4   4   4   4   4   4   4
#     4   9  20  39  63  88 117 156 199 246 303 358
#     4  11  24  42  65  93 122 157 200 247 302 363
#     4  10  21  35  53  81 118 157 197 243 293 346
#     4  10  20  33  53  82 115 154 197 244 294 348
#     4  10  21  39  62  88 120 154 196 249 300 355
#     4   9  19  38  62  87 116 156 201 244 296 358
#     4  10  21  36  56  82 113 156 199 239 292 353
#     4   9  19  36  55  78 113 155 195 240 293 352
#
# _framework density 20.577365
#
# number of rings (size 3 to 8) (size 9 to 14) (size 15 to 20)
#    0.000    2.250    0.000    1.875    3.500    3.000 
#    0.000    2.500    0.000    0.000    0.000    0.000 
#    0.000    0.000    0.000    0.000    0.000    0.000 
#
# Total GULP energy -178578.379041 kJ/mol
# GULP energy per Si atom -5580.574345 kJ/mol
# Density = 2.053053 g / cm^3
# Si number density = 20.577365 Si / 1000 Ang^3
#
#
#
# Elastic Constant Matrix: (Units=GPa)
#
#
# Indices 1 2 3 4 5 6 
#
# 1 43.4593 11.7194 10.7730 0.0000 9.5845 0.0000
# 2 11.7194 43.1133 4.0742 0.0000 -2.2658 0.0000
# 3 10.7730 4.0742 63.5138 0.0000 -3.9686 0.0000
# 4 0.0000 0.0000 0.0000 30.4501 0.0000 -1.3728
# 5 9.5845 -2.2658 -3.9686 0.0000 27.6715 0.0000
# 6 0.0000 0.0000 0.0000 -1.3728 0.0000 19.1933
#
#
#
# Elastic Compliance Matrix: (Units=1/GPa)
#
#
# Indices 1 2 3 4 5 6 
#
# 1 0.028947 -0.007986 -0.005111 0.000000 -0.011413 0.000000
# 2 -0.007986 0.025620 0.000015 0.000000 0.004866 0.000000
# 3 -0.005111 0.000015 0.016872 0.000000 0.004191 0.000000
# 4 0.000000 0.000000 0.000000 0.032947 0.000000 0.002356
# 5 -0.011413 0.004866 0.004191 0.000000 0.041091 0.000000
# 6 0.000000 0.000000 0.000000 0.002356 0.000000 0.052270
#
#
# Mechanical properties :
#
#
# Convention : Reuss Voigt Hill
#
# Bulk Modulus (GPa) = 22.08633 22.57997 22.33315
# Shear Modulus (GPa) = 20.92028 23.69761 22.30894
#
# Velocity S-wave (km/s) = 3.19198 3.39726 3.29622
# Velocity P-wave (km/s) = 4.93372 5.13668 5.03622
#
# Compressibility (1/GPa) = 0.04527687
#
# Stress axis : x y z
#
# Youngs Moduli (GPa) = 34.54538 39.03246 59.26834
#
# Poissons Ratio (x) = 0.31170 0.30291
# Poissons Ratio (y) = 0.27586 -0.00089
# Poissons Ratio (z) = 0.17656 -0.00059
#
# Static dielectric constant tensor:
#      x y z
#    x 1.779300 0.000000 -0.011840 
#    y 0.000000 1.740740 0.000000 
#    z -0.011840 0.000000 1.722650 
# 
# From -- ./inp_files/73061.got.cif
#   From: 2010.05.17/outbox.cif.g08.bks.cpg/sg11_37_cif.got.tgz:73061.got - 2010.06.03 12:22:45.
