data_PCOD9161955
_publ_section_title
;
Structure prediction by ZEFSAII (Michael W. Deem and Ramdas Pophale) SiO2 
 PCOD9161955
Probable space group: P 21/M
;
_chemical_formula_sum "Si O2"
_cell_formula_units_Z 20
_cell_length_a 11.393224
_cell_length_b 17.434927
_cell_length_c 14.560828
_cell_angle_alpha 90.000000
_cell_angle_beta 18.758386
_cell_angle_gamma 90.000000
_cell_volume 930.120570
_symmetry_space_group_name_H-M "P 21/M"
_symmetry_group_IT_number 11
_symmetry_cell_setting 'monoclinic'
loop_
_space_group_symop_operation_xyz
x,y,z
-x,1/2+y,-z
-x,-y,-z
x,1/2-y,z
loop_
_atom_site_type_symbol
_atom_site_label
_atom_site_fract_x
_atom_site_fract_y
_atom_site_fract_z
Si Si1 0.813104 0.549883 0.216882
Si Si2 0.194899 0.011093 0.090632
Si Si3 0.215406 0.338263 0.273288
Si Si4 0.136160 0.571132 0.308636
Si Si5 0.228784 0.660403 0.578834
O O1 0.500000 0.500000 0.500000
O O2 0.620098 0.625126 0.318335
O O3 0.113768 0.552264 0.074335
O O4 0.000000 0.500000 0.000000
O O5 0.614896 0.020886 0.806662
O O6 0.050762 0.096516 0.172289
O O7 0.988606 0.983068 0.336638
O O8 0.301737 0.250000 0.221924
O O9 0.878234 0.342787 0.449936
O O10 0.558849 0.378096 0.970285
O O11 0.107811 0.374647 0.449502
O O12 0.186543 0.750000 0.637891
#
# Coordination Sequence:
#
# PCOD9161955 Si02
#       5
#     4   4   4   4   4
#     4  10  20  36  57  80 108 143 181 222 270 323
#     4   9  20  35  57  82 112 146 184 226 272 330
#     4  10  20  35  55  81 112 144 182 228 273 322
#     4  10  20  34  56  83 111 147 185 221 272 330
#     4   9  19  36  58  83 109 141 184 232 277 321
#
# _framework density 21.502587999999999
#
# number of rings (size 3 to 8) (size 9 to 14) (size 15 to 20)
#    0.000    2.400    0.000    1.800    0.000   11.200 
#    0.000   10.000    0.000    1.200    0.000    0.000 
#    0.000    0.000    0.000    0.000    0.000    0.000 
#
# Total GULP energy -111540.236606 kJ/mol
# GULP energy per Si atom -5577.011830 kJ/mol
# Density = 2.145365 g / cm^3
# Si number density = 21.502588 Si / 1000 Ang^3
#
#
#
# Elastic Constant Matrix: (Units=GPa)
#
#
# Indices 1 2 3 4 5 6 
#
# 1 88.2150 39.7209 29.1522 0.0000 0.0231 0.0000
# 2 39.7209 169.1341 42.6245 0.0000 -3.1965 0.0000
# 3 29.1522 42.6245 83.7411 0.0000 12.3799 0.0000
# 4 0.0000 0.0000 0.0000 24.4760 0.0000 -6.9581
# 5 0.0231 -3.1965 12.3799 0.0000 27.0552 0.0000
# 6 0.0000 0.0000 0.0000 -6.9581 0.0000 38.3148
#
#
#
# Elastic Compliance Matrix: (Units=1/GPa)
#
#
# Indices 1 2 3 4 5 6 
#
# 1 0.013592 -0.002198 -0.003832 0.000000 0.001482 0.000000
# 2 -0.002198 0.007307 -0.003305 0.000000 0.002378 0.000000
# 3 -0.003832 -0.003305 0.016105 0.000000 -0.007756 0.000000
# 4 0.000000 0.000000 0.000000 0.043080 0.000000 0.007824
# 5 0.001482 0.002378 -0.007756 0.000000 0.040790 0.000000
# 6 0.000000 0.000000 0.000000 0.007824 0.000000 0.027520
#
#
# Mechanical properties :
#
#
# Convention : Reuss Voigt Hill
#
# Bulk Modulus (GPa) = 54.54888 62.67615 58.61252
# Shear Modulus (GPa) = 28.87247 33.27538 31.07392
#
# Velocity S-wave (km/s) = 3.66832 3.93810 3.80560
# Velocity P-wave (km/s) = 6.58526 7.06326 6.82845
#
# Compressibility (1/GPa) = 0.01833218
#
# Stress axis : x y z
#
# Youngs Moduli (GPa) = 73.57453 136.86125 62.09421
#
# Poissons Ratio (x) = 0.30087 0.23793
# Poissons Ratio (y) = 0.16174 0.20524
# Poissons Ratio (z) = 0.28192 0.45237
#
# Static dielectric constant tensor:
#      x y z
#    x 1.877610 0.000000 -0.019910 
#    y 0.000000 1.794880 0.000000 
#    z -0.019910 0.000000 1.789590 
# 
# From -- ./inp_files/4538.got.cif
#   From: 2010.05.17/outbox.cif.g08.bks.cpg/sg11_3_cif.got.tgz:4538.got - 2010.06.03 12:22:45.
