data_PCOD9161368
_publ_section_title
;
Structure prediction by ZEFSAII (Michael W. Deem and Ramdas Pophale) SiO2 
 PCOD9161368
Probable space group: P 21/M
;
_chemical_formula_sum "Si O2"
_cell_formula_units_Z 28
_cell_length_a 16.282181
_cell_length_b 8.294441
_cell_length_c 21.884041
_cell_angle_alpha 90.000000
_cell_angle_beta 28.474161
_cell_angle_gamma 90.000000
_cell_volume 1409.059088
_symmetry_space_group_name_H-M "P 21/M"
_symmetry_group_IT_number 11
_symmetry_cell_setting 'monoclinic'
loop_
_space_group_symop_operation_xyz
x,y,z
-x,1/2+y,-z
-x,-y,-z
x,1/2-y,z
loop_
_atom_site_type_symbol
_atom_site_label
_atom_site_fract_x
_atom_site_fract_y
_atom_site_fract_z
Si Si1 0.451459 0.558376 0.599441
Si Si2 0.719743 0.059732 0.075322
Si Si3 0.579473 0.552066 0.643435
Si Si4 0.926099 0.556228 0.113887
Si Si5 0.239411 0.944578 0.192707
Si Si6 0.927222 0.944328 0.482112
Si Si7 0.582959 0.560238 0.039882
O O1 0.500000 0.500000 0.500000
O O2 0.465658 0.750000 0.589116
O O3 0.572442 0.500868 0.577045
O O4 0.256281 0.513999 0.746351
O O5 0.731884 0.250000 0.078904
O O6 0.597221 0.994342 0.209019
O O7 0.625591 0.029939 0.073657
O O8 0.916073 0.001423 0.945681
O O9 0.582052 0.750000 0.642368
O O10 0.740478 0.499401 0.580113
O O11 0.908509 0.750000 0.125470
O O12 0.000000 0.500000 0.000000
O O13 0.243371 0.750000 0.183209
O O14 0.065477 0.991599 0.340129
O O15 0.400684 0.991113 0.130185
O O16 0.274802 0.022608 0.104366
O O17 0.921905 0.750000 0.488156
O O18 0.000000 0.000000 0.500000
O O19 0.574981 0.750000 0.057291
#
# Coordination Sequence:
#
# PCOD9161368 Si02
#       7
#     4   4   4   4   4   4   4
#     4  11  23  42  63  90 126 163 207 254 305 369
#     4  10  20  36  58  83 111 147 191 234 291 359
#     4   9  19  37  59  82 113 154 194 236 291 361
#     4  11  22  39  63  89 117 154 197 247 303 361
#     4   9  19  35  52  75 111 150 187 230 285 347
#     4  10  20  35  57  82 111 148 189 233 286 345
#     4  10  20  33  52  80 110 144 188 239 287 336
#
# _framework density 19.871417000000001
#
# number of rings (size 3 to 8) (size 9 to 14) (size 15 to 20)
#    0.000    2.000    1.429    2.143    0.000    3.429 
#    0.000    4.286    0.000    0.000    0.000    0.000 
#    0.000    0.000    0.000    0.000    0.000    0.000 
#
# Total GULP energy -156213.635380 kJ/mol
# GULP energy per Si atom -5579.058406 kJ/mol
# Density = 1.982619 g / cm^3
# Si number density = 19.871417 Si / 1000 Ang^3
#
#
#
# Elastic Constant Matrix: (Units=GPa)
#
#
# Indices 1 2 3 4 5 6 
#
# 1 115.7832 6.3556 48.8021 0.0000 -2.0208 0.0000
# 2 6.3556 7.7997 7.7484 0.0000 -4.5706 0.0000
# 3 48.8021 7.7484 104.8350 0.0000 -3.9394 0.0000
# 4 0.0000 0.0000 0.0000 27.4432 0.0000 4.5720
# 5 -2.0208 -4.5706 -3.9394 0.0000 20.7681 0.0000
# 6 0.0000 0.0000 0.0000 4.5720 0.0000 29.5802
#
#
#
# Elastic Compliance Matrix: (Units=1/GPa)
#
#
# Indices 1 2 3 4 5 6 
#
# 1 0.010881 -0.004651 -0.004754 0.000000 -0.000867 0.000000
# 2 -0.004651 0.159745 -0.008397 0.000000 0.033111 0.000000
# 3 -0.004754 -0.008397 0.012374 0.000000 0.000037 0.000000
# 4 0.000000 0.000000 0.000000 0.037402 0.000000 -0.005781
# 5 -0.000867 0.033111 0.000037 0.000000 0.055360 0.000000
# 6 0.000000 0.000000 0.000000 -0.005781 0.000000 0.034700
#
#
# Mechanical properties :
#
#
# Convention : Reuss Voigt Hill
#
# Bulk Modulus (GPa) = 6.78452 39.35889 23.07170
# Shear Modulus (GPa) = 12.65186 26.59242 19.62214
#
# Velocity S-wave (km/s) = 2.52600 3.66214 3.14579
# Velocity P-wave (km/s) = 3.45387 6.14260 4.98301
#
# Compressibility (1/GPa) = 0.14739438
#
# Stress axis : x y z
#
# Youngs Moduli (GPa) = 91.90512 6.25997 80.81558
#
# Poissons Ratio (x) = 0.02912 0.38419
# Poissons Ratio (y) = 0.42749 0.67864
# Poissons Ratio (z) = 0.43691 0.05257
#
# Static dielectric constant tensor:
#      x y z
#    x 1.725820 0.000000 -0.007560 
#    y 0.000000 1.698360 0.000000 
#    z -0.007560 0.000000 1.720100 
# 
# From -- ./inp_files/65364.got.cif
#   From: 2010.05.17/outbox.cif.g08.bks.cpg/sg11_33_cif.got.tgz:65364.got - 2010.06.03 12:22:45.
