data_PCOD9161149
_publ_section_title
;
Structure prediction by ZEFSAII (Michael W. Deem and Ramdas Pophale) SiO2 
 PCOD9161149
Probable space group: P 21/M
;
_chemical_formula_sum "Si O2"
_cell_formula_units_Z 32
_cell_length_a 23.694307
_cell_length_b 8.927471
_cell_length_c 15.318758
_cell_angle_alpha 90.000000
_cell_angle_beta 140.613021
_cell_angle_gamma 90.000000
_cell_volume 2056.199301
_symmetry_space_group_name_H-M "P 21/M"
_symmetry_group_IT_number 11
_symmetry_cell_setting 'monoclinic'
loop_
_space_group_symop_operation_xyz
x,y,z
-x,1/2+y,-z
-x,-y,-z
x,1/2-y,z
loop_
_atom_site_type_symbol
_atom_site_label
_atom_site_fract_x
_atom_site_fract_y
_atom_site_fract_z
Si Si1 0.893449 0.428614 0.962104
Si Si2 0.919792 0.428816 0.788827
Si Si3 0.422775 0.429236 0.214860
Si Si4 0.374287 0.571508 0.784732
Si Si5 0.247976 0.429057 0.499624
Si Si6 0.387995 0.429634 0.512431
Si Si7 0.440305 0.571615 0.054094
Si Si8 0.707959 0.930069 0.783618
O O1 0.899015 0.250000 0.978029
O O2 0.893184 0.463867 0.857758
O O3 0.803235 0.491521 0.894878
O O4 0.981931 0.504613 0.105996
O O5 0.920785 0.250000 0.780167
O O6 0.846410 0.501989 0.639181
O O7 0.425802 0.250000 0.210634
O O8 0.519373 0.488769 0.359516
O O9 0.402479 0.501854 0.097035
O O10 0.350820 0.469111 0.202562
O O11 0.375023 0.750000 0.771750
O O12 0.290430 0.498336 0.637285
O O13 0.463122 0.500796 0.848508
O O14 0.382541 0.542737 0.898168
O O15 0.242088 0.250000 0.498988
O O16 0.317246 0.465209 0.503914
O O17 0.402792 0.250000 0.531550
O O18 0.345986 0.470540 0.368866
O O19 0.451435 0.750000 0.077028
O O20 0.720444 0.750000 0.796766
#
# Coordination Sequence:
#
# PCOD9161149 Si02
#       8
#     4   4   4   4   4   4   4   4
#     4  10  20  33  51  74  97 129 169 209 250 292
#     4  10  20  33  51  73 101 132 164 205 250 298
#     4  11  22  33  50  72  98 134 174 211 246 292
#     4  10  20  33  51  72  97 128 165 206 251 301
#     4  11  20  31  51  76 102 133 166 204 248 296
#     4  10  20  33  48  68 100 137 172 207 243 287
#     4  10  20  34  50  70  97 130 165 207 253 295
#     4  10  21  36  50  69  99 136 173 209 248 289
#
# _framework density 15.562692999999999
#
# number of rings (size 3 to 8) (size 9 to 14) (size 15 to 20)
#    0.000    1.750    2.500    2.625    0.000    4.500 
#    0.000    0.000    0.000    0.000    0.000    0.875 
#    0.000    0.000    0.000    0.000    0.000    0.000 
#
# Total GULP energy -178691.416079 kJ/mol
# GULP energy per Si atom -5584.106752 kJ/mol
# Density = 1.552727 g / cm^3
# Si number density = 15.562693 Si / 1000 Ang^3
#
#
#
# Elastic Constant Matrix: (Units=GPa)
#
#
# Indices 1 2 3 4 5 6 
#
# 1 87.3736 43.8541 62.4772 0.0000 -1.6116 0.0000
# 2 43.8541 53.6617 63.4679 0.0000 0.4894 0.0000
# 3 62.4772 63.4679 146.2687 0.0000 -0.1116 0.0000
# 4 0.0000 0.0000 0.0000 30.1626 0.0000 1.2177
# 5 -1.6116 0.4894 -0.1116 0.0000 20.0551 0.0000
# 6 0.0000 0.0000 0.0000 1.2177 0.0000 23.7199
#
#
#
# Elastic Compliance Matrix: (Units=1/GPa)
#
#
# Indices 1 2 3 4 5 6 
#
# 1 0.020092 -0.012918 -0.002975 0.000000 0.001913 0.000000
# 2 -0.012918 0.046609 -0.014708 0.000000 -0.002257 0.000000
# 3 -0.002975 -0.014708 0.014490 0.000000 0.000201 0.000000
# 4 0.000000 0.000000 0.000000 0.033223 0.000000 -0.001706
# 5 0.001913 -0.002257 0.000201 0.000000 0.050073 0.000000
# 6 0.000000 0.000000 0.000000 -0.001706 0.000000 0.042246
#
#
# Mechanical properties :
#
#
# Convention : Reuss Voigt Hill
#
# Bulk Modulus (GPa) = 50.03141 69.65583 59.84362
# Shear Modulus (GPa) = 18.20855 22.62117 20.41486
#
# Velocity S-wave (km/s) = 3.42426 3.81668 3.62578
# Velocity P-wave (km/s) = 6.91752 8.01736 7.48767
#
# Compressibility (1/GPa) = 0.01998745
#
# Stress axis : x y z
#
# Youngs Moduli (GPa) = 49.77210 21.45521 69.01481
#
# Poissons Ratio (x) = 0.27716 0.20533
# Poissons Ratio (y) = 0.64297 1.01507
# Poissons Ratio (z) = 0.14808 0.31556
#
# Static dielectric constant tensor:
#      x y z
#    x 1.498520 0.000000 -0.016530 
#    y 0.000000 1.513870 0.000000 
#    z -0.016530 0.000000 1.505470 
# 
# From -- ./inp_files/51196.got.cif
#   From: 2010.05.17/outbox.cif.g08.bks.cpg/sg11_26_cif.got.tgz:51196.got - 2010.06.03 12:22:45.
