data_PCOD9161223
_publ_section_title
;
Structure prediction by ZEFSAII (Michael W. Deem and Ramdas Pophale) SiO2 
 PCOD9161223
Probable space group: P 21/M
;
_chemical_formula_sum "Si O2"
_cell_formula_units_Z 32
_cell_length_a 11.865750
_cell_length_b 19.681455
_cell_length_c 10.706066
_cell_angle_alpha 90.000000
_cell_angle_beta 36.929201
_cell_angle_gamma 90.000000
_cell_volume 1502.215592
_symmetry_space_group_name_H-M "P 21/M"
_symmetry_group_IT_number 11
_symmetry_cell_setting 'monoclinic'
loop_
_space_group_symop_operation_xyz
x,y,z
-x,1/2+y,-z
-x,-y,-z
x,1/2-y,z
loop_
_atom_site_type_symbol
_atom_site_label
_atom_site_fract_x
_atom_site_fract_y
_atom_site_fract_z
Si Si1 0.635984 0.825497 0.894120
Si Si2 0.810639 0.175051 0.747076
Si Si3 0.709777 0.469765 0.451370
Si Si4 0.734642 0.530533 0.173575
Si Si5 0.764439 0.672865 0.049006
Si Si6 0.247720 0.963901 0.098981
Si Si7 0.169087 0.825731 0.563272
Si Si8 0.706498 0.953097 0.697542
O O1 0.717505 0.750000 0.819460
O O2 0.736656 0.875128 0.708580
O O3 0.417283 0.822151 0.055492
O O4 0.646604 0.848765 0.029433
O O5 0.878268 0.250000 0.726717
O O6 0.862957 0.163273 0.555839
O O7 0.844783 0.110097 0.803168
O O8 0.799398 0.491480 0.240294
O O9 0.488161 0.482927 0.636798
O O10 0.728425 0.390776 0.470773
O O11 0.779652 0.515667 0.504672
O O12 0.757064 0.612159 0.154598
O O13 0.811268 0.502206 0.974313
O O14 0.712188 0.750000 0.134114
O O15 0.973485 0.676065 0.809066
O O16 0.477596 0.959110 0.895289
O O17 0.214514 0.004853 0.255680
O O18 0.257688 0.750000 0.496460
#
# Coordination Sequence:
#
# PCOD9161223 Si02
#       8
#     4   4   4   4   4   4   4   4
#     4   9  16  28  49  73  96 127 166 205 248 296
#     4   9  16  28  49  73  96 127 166 205 248 296
#     4  10  20  34  52  75 102 132 167 207 249 295
#     4  10  20  34  52  75 102 132 167 207 249 295
#     4  10  20  33  50  73 101 131 165 205 248 296
#     4   9  15  27  48  73 100 126 157 202 249 289
#     4  10  20  33  50  73 101 131 165 205 248 296
#     4   9  15  27  48  73 100 126 157 202 249 289
#
# _framework density 21.301870000000001
#
# number of rings (size 3 to 8) (size 9 to 14) (size 15 to 20)
#    0.000    2.500    2.500    0.750    0.000    2.000 
#    0.000    3.750    0.000    4.500    0.000    3.500 
#    0.000    0.000    0.000    0.000    0.000    0.000 
#
# Total GULP energy -178645.379281 kJ/mol
# GULP energy per Si atom -5582.668103 kJ/mol
# Density = 2.125339 g / cm^3
# Si number density = 21.301870 Si / 1000 Ang^3
#
#
#
# Elastic Constant Matrix: (Units=GPa)
#
#
# Indices 1 2 3 4 5 6 
#
# 1 59.6088 40.2196 28.0812 0.0000 14.3883 0.0000
# 2 40.2196 142.2036 42.9320 0.0000 40.8201 0.0000
# 3 28.0812 42.9320 84.8967 0.0000 23.0600 0.0000
# 4 0.0000 0.0000 0.0000 31.8462 0.0000 4.4255
# 5 14.3883 40.8201 23.0600 0.0000 32.6447 0.0000
# 6 0.0000 0.0000 0.0000 4.4255 0.0000 27.6909
#
#
#
# Elastic Compliance Matrix: (Units=1/GPa)
#
#
# Indices 1 2 3 4 5 6 
#
# 1 0.022376 -0.004702 -0.004878 0.000000 -0.000538 0.000000
# 2 -0.004702 0.012318 -0.001303 0.000000 -0.012410 0.000000
# 3 -0.004878 -0.001303 0.016117 0.000000 -0.007606 0.000000
# 4 0.000000 0.000000 0.000000 0.032114 0.000000 -0.005132
# 5 -0.000538 -0.012410 -0.007606 0.000000 0.051760 0.000000
# 6 0.000000 0.000000 0.000000 -0.005132 0.000000 0.036933
#
#
# Mechanical properties :
#
#
# Convention : Reuss Voigt Hill
#
# Bulk Modulus (GPa) = 34.42810 56.57498 45.50154
# Shear Modulus (GPa) = 24.62269 30.13480 27.37874
#
# Velocity S-wave (km/s) = 3.40353 3.76527 3.58896
# Velocity P-wave (km/s) = 5.62516 6.74680 6.21135
#
# Compressibility (1/GPa) = 0.02904604
#
# Stress axis : x y z
#
# Youngs Moduli (GPa) = 44.69080 81.18485 62.04516
#
# Poissons Ratio (x) = 0.38171 0.30263
# Poissons Ratio (y) = 0.21012 0.08085
# Poissons Ratio (z) = 0.21799 0.10579
#
# Static dielectric constant tensor:
#      x y z
#    x 1.784140 0.000000 -0.056710 
#    y 0.000000 1.824120 0.000000 
#    z -0.056710 0.000000 1.789140 
# 
# From -- ./inp_files/19369.got.cif
#   From: 2010.05.17/outbox.cif.g08.bks.cpg/sg11_10_cif.got.tgz:19369.got - 2010.06.03 12:22:45.
