data_PCOD9161467
_publ_section_title
;
Structure prediction by ZEFSAII (Michael W. Deem and Ramdas Pophale) SiO2 
 PCOD9161467
Probable space group: P 21/M
;
_chemical_formula_sum "Si O2"
_cell_formula_units_Z 30
_cell_length_a 11.934838
_cell_length_b 14.218650
_cell_length_c 11.830023
_cell_angle_alpha 90.000000
_cell_angle_beta 143.170757
_cell_angle_gamma 90.000000
_cell_volume 1203.373801
_symmetry_space_group_name_H-M "P 21/M"
_symmetry_group_IT_number 11
_symmetry_cell_setting 'monoclinic'
loop_
_space_group_symop_operation_xyz
x,y,z
-x,1/2+y,-z
-x,-y,-z
x,1/2-y,z
loop_
_atom_site_type_symbol
_atom_site_label
_atom_site_fract_x
_atom_site_fract_y
_atom_site_fract_z
Si Si1 0.626208 0.053048 0.194635
Si Si2 0.073053 0.147624 0.349022
Si Si3 0.525005 0.750000 0.987600
Si Si4 0.021446 0.061044 0.789010
Si Si5 0.137751 0.112557 0.657289
Si Si6 0.853083 0.360032 0.872543
Si Si7 0.613648 0.517177 0.789998
Si Si8 0.281906 0.145448 0.310298
O O1 0.815052 0.997527 0.323678
O O2 0.558584 0.021552 0.264868
O O3 0.615401 0.164108 0.167591
O O4 0.500000 0.000000 0.000000
O O5 0.988206 0.250000 0.244772
O O6 0.090686 0.150309 0.496511
O O7 0.266877 0.141394 0.433499
O O8 0.980842 0.049519 0.240664
O O9 0.677775 0.669453 0.153500
O O10 0.003992 0.117728 0.658597
O O11 0.876806 0.091764 0.768707
O O12 0.227006 0.074951 0.009954
O O13 0.807812 0.250000 0.827063
O O14 0.707184 0.418384 0.830147
O O15 0.063847 0.368294 0.095261
O O16 0.593446 0.573189 0.656890
O O17 0.338131 0.250000 0.321785
#
# Coordination Sequence:
#
# PCOD9161467 Si02
#       8
#     4   4   2   4   4   4   4   4
#     4  10  22  39  60  87 114 150 197 257 288 336
#     4  11  21  37  57  85 124 157 192 230 296 366
#     4  10  20  40  64  82 114 152 208 236 292 350
#     4  11  20  36  59  86 121 151 191 246 289 348
#     4  11  23  40  58  90 117 158 196 240 296 351
#     4  10  20  33  55  86 117 153 193 239 294 342
#     4  11  18  35  58  83 118 144 195 246 292 331
#     4   9  18  30  54  84 112 147 189 237 284 347
#
# _framework density 24.929907
#
# number of rings (size 3 to 8) (size 9 to 14) (size 15 to 20)
#    0.000    1.600    6.000    1.200    1.867    0.000 
#    6.000    0.667    1.467    0.000    0.000    0.000 
#    0.000    0.000    0.000    0.000    0.000    0.000 
#
# Total GULP energy -167084.985782 kJ/mol
# GULP energy per Si atom -5569.499526 kJ/mol
# Density = 2.487317 g / cm^3
# Si number density = 24.929907 Si / 1000 Ang^3
#
#
#
# Elastic Constant Matrix: (Units=GPa)
#
#
# Indices 1 2 3 4 5 6 
#
# 1 140.5317 69.7777 39.4684 0.0000 -29.4173 0.0000
# 2 69.7777 196.3723 37.7667 0.0000 -23.5515 0.0000
# 3 39.4684 37.7667 67.9952 0.0000 -13.9731 0.0000
# 4 0.0000 0.0000 0.0000 26.5120 0.0000 -7.5578
# 5 -29.4173 -23.5515 -13.9731 0.0000 41.4465 0.0000
# 6 0.0000 0.0000 0.0000 -7.5578 0.0000 13.3027
#
#
#
# Elastic Compliance Matrix: (Units=1/GPa)
#
#
# Indices 1 2 3 4 5 6 
#
# 1 0.010332 -0.002393 -0.003696 0.000000 0.004727 0.000000
# 2 -0.002393 0.006474 -0.001934 0.000000 0.001328 0.000000
# 3 -0.003696 -0.001934 0.018439 0.000000 0.002494 0.000000
# 4 0.000000 0.000000 0.000000 0.045008 0.000000 0.025571
# 5 0.004727 0.001328 0.002494 0.000000 0.029078 0.000000
# 6 0.000000 0.000000 0.000000 0.025571 0.000000 0.089701
#
#
# Mechanical properties :
#
#
# Convention : Reuss Voigt Hill
#
# Bulk Modulus (GPa) = 52.08896 77.65830 64.87363
# Shear Modulus (GPa) = 22.57557 33.44467 28.01012
#
# Velocity S-wave (km/s) = 3.01252 3.66669 3.35558
# Velocity P-wave (km/s) = 5.74803 7.01031 6.41032
#
# Compressibility (1/GPa) = 0.01919793
#
# Stress axis : x y z
#
# Youngs Moduli (GPa) = 96.78789 154.46393 54.23255
#
# Poissons Ratio (x) = 0.36970 0.20047
# Poissons Ratio (y) = 0.23166 0.10487
# Poissons Ratio (z) = 0.35777 0.29868
#
# Static dielectric constant tensor:
#      x y z
#    x 1.990660 0.000000 0.009270 
#    y 0.000000 1.979250 0.000000 
#    z 0.009270 0.000000 2.051600 
# 
# From -- ./inp_files/35731.got.cif
#   From: 2010.05.17/outbox.cif.g08.bks.cpg/sg11_18_cif.got.tgz:35731.got - 2010.06.03 12:22:45.
