data_PCOD9161562
_publ_section_title
;
Structure prediction by ZEFSAII (Michael W. Deem and Ramdas Pophale) SiO2 
 PCOD9161562
Probable space group: P 21/M
;
_chemical_formula_sum "Si O2"
_cell_formula_units_Z 32
_cell_length_a 28.419940
_cell_length_b 8.851348
_cell_length_c 14.675747
_cell_angle_alpha 90.000000
_cell_angle_beta 29.083318
_cell_angle_gamma 90.000000
_cell_volume 1794.491457
_symmetry_space_group_name_H-M "P 21/M"
_symmetry_group_IT_number 11
_symmetry_cell_setting 'monoclinic'
loop_
_space_group_symop_operation_xyz
x,y,z
-x,1/2+y,-z
-x,-y,-z
x,1/2-y,z
loop_
_atom_site_type_symbol
_atom_site_label
_atom_site_fract_x
_atom_site_fract_y
_atom_site_fract_z
Si Si1 0.703347 0.426733 0.295419
Si Si2 0.910422 0.568730 0.265156
Si Si3 0.790336 0.577769 0.982840
Si Si4 0.187774 0.431917 0.389155
Si Si5 0.882056 0.930340 0.101300
Si Si6 0.324216 0.428185 0.003672
Si Si7 0.989220 0.426884 0.419418
Si Si8 0.504120 0.929611 0.595043
O O1 0.495507 0.250000 0.414554
O O2 0.791244 0.493834 0.205663
O O3 0.602131 0.512688 0.477198
O O4 0.734107 0.459103 0.138982
O O5 0.924377 0.750000 0.247656
O O6 0.830147 0.523921 0.475654
O O7 0.880488 0.534327 0.212206
O O8 0.013856 0.490986 0.108790
O O9 0.761578 0.750000 0.057991
O O10 0.904357 0.561861 0.804600
O O11 0.762061 0.561096 0.925125
O O12 0.190227 0.250000 0.380527
O O13 0.092500 0.489356 0.498796
O O14 0.280797 0.483600 0.173351
O O15 0.878069 0.750000 0.095544
O O16 0.349499 0.250000 0.967808
O O17 0.413549 0.515388 0.808442
O O18 0.965122 0.250000 0.468398
O O19 0.000000 0.500000 0.500000
O O20 0.691616 0.250000 0.332121
O O21 0.500000 0.000000 0.500000
#
# Coordination Sequence:
#
# PCOD9161562 Si02
#       8
#     4   4   4   4   4   4   4   4
#     4  12  24  37  57  82 108 144 185 230 280 330
#     4   9  19  36  60  87 115 149 187 225 274 332
#     4  10  20  34  51  74 107 145 181 222 270 320
#     4  10  20  36  55  78 109 146 184 224 270 326
#     4  10  20  36  58  86 118 148 182 231 280 326
#     4  10  20  36  55  76 108 145 181 223 271 323
#     4  11  21  32  47  71 105 145 183 219 261 313
#     4  12  24  39  58  81 109 143 185 232 279 331
#
# _framework density 17.832350000000002
#
# number of rings (size 3 to 8) (size 9 to 14) (size 15 to 20)
#    0.000    1.500    2.500    3.750    0.000    4.500 
#    0.000    0.000    0.000    0.750    0.000    0.000 
#    0.000    0.000    0.000    0.000    0.000    0.000 
#
# Total GULP energy -178680.082333 kJ/mol
# GULP energy per Si atom -5583.752573 kJ/mol
# Density = 1.779176 g / cm^3
# Si number density = 17.832350 Si / 1000 Ang^3
#
#
#
# Elastic Constant Matrix: (Units=GPa)
#
#
# Indices 1 2 3 4 5 6 
#
# 1 59.6245 29.5112 43.0720 0.0000 6.5810 0.0000
# 2 29.5112 65.4008 51.2012 0.0000 0.4914 0.0000
# 3 43.0720 51.2012 125.2839 0.0000 13.0849 0.0000
# 4 0.0000 0.0000 0.0000 28.3937 0.0000 -1.4409
# 5 6.5810 0.4914 13.0849 0.0000 29.4810 0.0000
# 6 0.0000 0.0000 0.0000 -1.4409 0.0000 22.0181
#
#
#
# Elastic Compliance Matrix: (Units=1/GPa)
#
#
# Indices 1 2 3 4 5 6 
#
# 1 0.024264 -0.006822 -0.005243 0.000000 -0.002976 0.000000
# 2 -0.006822 0.024834 -0.008305 0.000000 0.004795 0.000000
# 3 -0.005243 -0.008305 0.013676 0.000000 -0.004761 0.000000
# 4 0.000000 0.000000 0.000000 0.035336 0.000000 0.002313
# 5 -0.002976 0.004795 -0.004761 0.000000 0.036618 0.000000
# 6 0.000000 0.000000 0.000000 0.002313 0.000000 0.045569
#
#
# Mechanical properties :
#
#
# Convention : Reuss Voigt Hill
#
# Bulk Modulus (GPa) = 45.38308 55.31978 50.35143
# Shear Modulus (GPa) = 21.89326 24.41354 23.15340
#
# Velocity S-wave (km/s) = 3.50770 3.70409 3.60723
# Velocity P-wave (km/s) = 6.47382 7.02732 6.75624
#
# Compressibility (1/GPa) = 0.02203464
#
# Stress axis : x y z
#
# Youngs Moduli (GPa) = 41.21320 40.26710 73.12233
#
# Poissons Ratio (x) = 0.27469 0.38340
# Poissons Ratio (y) = 0.28114 0.60727
# Poissons Ratio (z) = 0.21609 0.33441
#
# Static dielectric constant tensor:
#      x y z
#    x 1.600990 0.000000 0.024710 
#    y 0.000000 1.603260 0.000000 
#    z 0.024710 0.000000 1.629420 
# 
# From -- ./inp_files/56148.got.cif
#   From: 2010.05.17/outbox.cif.g08.bks.cpg/sg11_29_cif.got.tgz:56148.got - 2010.06.03 12:22:45.
