data_PCOD9161282
_publ_section_title
;
Structure prediction by ZEFSAII (Michael W. Deem and Ramdas Pophale) SiO2 
 PCOD9161282
Probable space group: P 21/M
;
_chemical_formula_sum "Si O2"
_cell_formula_units_Z 32
_cell_length_a 22.184948
_cell_length_b 8.931306
_cell_length_c 22.142024
_cell_angle_alpha 90.000000
_cell_angle_beta 25.015748
_cell_angle_gamma 90.000000
_cell_volume 1855.217593
_symmetry_space_group_name_H-M "P 21/M"
_symmetry_group_IT_number 11
_symmetry_cell_setting 'monoclinic'
loop_
_space_group_symop_operation_xyz
x,y,z
-x,1/2+y,-z
-x,-y,-z
x,1/2-y,z
loop_
_atom_site_type_symbol
_atom_site_label
_atom_site_fract_x
_atom_site_fract_y
_atom_site_fract_z
Si Si1 0.226559 0.429776 0.448606
Si Si2 0.692482 0.428421 0.877211
Si Si3 0.055261 0.429079 0.888207
Si Si4 0.993098 0.571703 0.823491
Si Si5 0.704136 0.929717 0.484866
Si Si6 0.385383 0.071435 0.560097
Si Si7 0.921517 0.929455 0.757974
Si Si8 0.639613 0.929713 0.800110
O O1 0.205614 0.250000 0.465457
O O2 0.325173 0.460026 0.418141
O O3 0.295150 0.476755 0.323154
O O4 0.074184 0.505773 0.598347
O O5 0.711220 0.250000 0.860470
O O6 0.800438 0.503295 0.825647
O O7 0.710979 0.491438 0.792756
O O8 0.529077 0.462890 0.043957
O O9 0.045120 0.250000 0.899119
O O10 0.967877 0.490836 0.909902
O O11 0.222630 0.468724 0.726151
O O12 0.000000 0.500000 0.000000
O O13 0.988971 0.750000 0.835692
O O14 0.151355 0.518394 0.660837
O O15 0.901344 0.531785 0.847447
O O16 0.732137 0.750000 0.453922
O O17 0.598512 0.968267 0.525839
O O18 0.397721 0.250000 0.553952
O O19 0.500000 0.000000 0.500000
O O20 0.924806 0.750000 0.750540
O O21 0.655776 0.750000 0.791534
#
# Coordination Sequence:
#
# PCOD9161282 Si02
#       8
#     4   4   4   4   4   4   4   4
#     4   9  17  32  54  75  96 123 159 205 250 291
#     4  10  20  34  52  72  98 134 169 199 240 296
#     4  10  20  34  52  74 100 131 167 206 246 291
#     4   9  17  30  49  72  98 129 163 200 244 291
#     4   8  15  29  48  70  96 126 160 199 244 292
#     4   9  18  31  48  71  99 129 162 199 240 290
#     4  10  20  33  51  76 103 128 160 203 245 289
#     4   9  19  35  53  73  97 127 164 205 248 294
#
# _framework density 17.248650999999999
#
# number of rings (size 3 to 8) (size 9 to 14) (size 15 to 20)
#    0.000    2.750    0.000    2.250    0.000    5.500 
#    0.000    1.250    0.000    1.500    0.000    0.000 
#    0.000    0.000    0.000    0.000    0.000    0.000 
#
# Total GULP energy -178241.326087 kJ/mol
# GULP energy per Si atom -5570.041440 kJ/mol
# Density = 1.720939 g / cm^3
# Si number density = 17.248651 Si / 1000 Ang^3
#
#
#
# Elastic Constant Matrix: (Units=GPa)
#
#
# Indices 1 2 3 4 5 6 
#
# 1 213.8236 63.7337 69.4952 0.0000 18.4589 0.0000
# 2 63.7337 35.6084 30.6030 0.0000 9.1925 0.0000
# 3 69.4952 30.6030 50.3369 0.0000 22.0301 0.0000
# 4 0.0000 0.0000 0.0000 21.8392 0.0000 1.6919
# 5 18.4589 9.1925 22.0301 0.0000 31.5827 0.0000
# 6 0.0000 0.0000 0.0000 1.6919 0.0000 28.7659
#
#
#
# Elastic Compliance Matrix: (Units=1/GPa)
#
#
# Indices 1 2 3 4 5 6 
#
# 1 0.011284 -0.013371 -0.009021 0.000000 0.003589 0.000000
# 2 -0.013371 0.077577 -0.032017 0.000000 0.007568 0.000000
# 3 -0.009021 -0.032017 0.065349 0.000000 -0.030992 0.000000
# 4 0.000000 0.000000 0.000000 0.045999 0.000000 -0.002705
# 5 0.003589 0.007568 -0.030992 0.000000 0.048981 0.000000
# 6 0.000000 0.000000 0.000000 -0.002705 0.000000 0.034923
#
#
# Mechanical properties :
#
#
# Convention : Reuss Voigt Hill
#
# Bulk Modulus (GPa) = 22.02915 69.71476 45.87196
# Shear Modulus (GPa) = 12.25311 25.50001 18.87656
#
# Velocity S-wave (km/s) = 2.66819 3.84914 3.31173
# Velocity P-wave (km/s) = 4.72139 7.76271 6.42461
#
# Compressibility (1/GPa) = 0.04539440
#
# Stress axis : x y z
#
# Youngs Moduli (GPa) = 88.62008 12.89035 15.30253
#
# Poissons Ratio (x) = 0.17235 0.13804
# Poissons Ratio (y) = 1.18492 0.48993
# Poissons Ratio (z) = 0.79940 0.41270
#
# Static dielectric constant tensor:
#      x y z
#    x 1.613730 0.000000 0.019310 
#    y 0.000000 1.573670 0.000000 
#    z 0.019310 0.000000 1.569370 
# 
# From -- ./inp_files/66407.got.cif
#   From: 2010.05.17/outbox.cif.g08.bks.cpg/sg11_34_cif.got.tgz:66407.got - 2010.06.03 12:22:45.
