data_PCOD9161792
_publ_section_title
;
Structure prediction by ZEFSAII (Michael W. Deem and Ramdas Pophale) SiO2 
 PCOD9161792
Probable space group: P 21/M
;
_chemical_formula_sum "Si O2"
_cell_formula_units_Z 32
_cell_length_a 30.097488
_cell_length_b 8.557924
_cell_length_c 12.603674
_cell_angle_alpha 90.000000
_cell_angle_beta 152.663459
_cell_angle_gamma 90.000000
_cell_volume 1490.778169
_symmetry_space_group_name_H-M "P 21/M"
_symmetry_group_IT_number 11
_symmetry_cell_setting 'monoclinic'
loop_
_space_group_symop_operation_xyz
x,y,z
-x,1/2+y,-z
-x,-y,-z
x,1/2-y,z
loop_
_atom_site_type_symbol
_atom_site_label
_atom_site_fract_x
_atom_site_fract_y
_atom_site_fract_z
Si Si1 0.461574 0.938437 0.031000
Si Si2 0.310817 0.063339 0.084521
Si Si3 0.882423 0.930143 0.863557
Si Si4 0.410273 0.429667 0.500935
Si Si5 0.097457 0.935582 0.324133
Si Si6 0.298749 0.563252 0.834699
Si Si7 0.771441 0.423914 0.800590
Si Si8 0.107343 0.929718 0.736876
O O1 0.469571 0.750000 0.042560
O O2 0.522453 0.996135 0.263099
O O3 0.353057 0.979098 0.840064
O O4 0.500000 0.000000 0.000000
O O5 0.310596 0.250000 0.092273
O O6 0.339679 0.012089 0.028054
O O7 0.201106 0.005790 0.877680
O O8 0.386634 0.000828 0.334506
O O9 0.856365 0.750000 0.826918
O O10 0.989755 0.958782 0.138343
O O11 0.891488 0.965446 0.759035
O O12 0.808217 0.044881 0.761463
O O13 0.441128 0.250000 0.551905
O O14 0.304367 0.444584 0.328451
O O15 0.105302 0.750000 0.314784
O O16 0.185827 0.977066 0.586903
O O17 0.307693 0.750000 0.864855
O O18 0.728489 0.250000 0.721004
O O19 0.859683 0.434062 0.070154
O O20 0.103283 0.750000 0.692278
O O21 0.000000 0.000000 0.500000
#
# Coordination Sequence:
#
# PCOD9161792 Si02
#       8
#     4   4   4   4   4   4   4   4
#     4  10  23  42  64  91 122 155 195 245 304 361
#     4  10  21  38  60  87 119 157 203 248 294 354
#     4  10  20  34  54  80 111 153 195 238 289 346
#     4   9  20  40  61  85 119 156 196 246 297 349
#     4   9  20  37  54  78 113 152 193 238 290 348
#     4  10  22  40  61  88 121 157 195 248 306 357
#     4  10  21  35  55  83 113 151 195 239 289 347
#     4  10  21  36  55  83 118 157 199 244 294 348
#
# _framework density 21.465298000000001
#
# number of rings (size 3 to 8) (size 9 to 14) (size 15 to 20)
#    0.000    2.250    0.000    1.500    3.500    4.500 
#    0.000    0.000    0.000    0.000    0.000    0.000 
#    0.000    0.000    0.000    0.000    0.000    0.000 
#
# Total GULP energy -178429.505308 kJ/mol
# GULP energy per Si atom -5575.922041 kJ/mol
# Density = 2.141644 g / cm^3
# Si number density = 21.465298 Si / 1000 Ang^3
#
#
#
# Elastic Constant Matrix: (Units=GPa)
#
#
# Indices 1 2 3 4 5 6 
#
# 1 87.0568 15.9166 4.4328 0.0000 -20.4085 0.0000
# 2 15.9166 23.9538 9.3412 0.0000 -3.9510 0.0000
# 3 4.4328 9.3412 72.6067 0.0000 -9.6939 0.0000
# 4 0.0000 0.0000 0.0000 17.7820 0.0000 -5.9339
# 5 -20.4085 -3.9510 -9.6939 0.0000 12.8896 0.0000
# 6 0.0000 0.0000 0.0000 -5.9339 0.0000 28.5202
#
#
#
# Elastic Compliance Matrix: (Units=1/GPa)
#
#
# Indices 1 2 3 4 5 6 
#
# 1 0.020956 -0.010160 0.004493 0.000000 0.033445 0.000000
# 2 -0.010160 0.050131 -0.006587 0.000000 -0.005674 0.000000
# 3 0.004493 -0.006587 0.016703 0.000000 0.017657 0.000000
# 4 0.000000 0.000000 0.000000 0.060432 0.000000 0.012574
# 5 0.033445 -0.005674 0.017657 0.000000 0.142076 0.000000
# 6 0.000000 0.000000 0.000000 0.012574 0.000000 0.037679
#
#
# Mechanical properties :
#
#
# Convention : Reuss Voigt Hill
#
# Bulk Modulus (GPa) = 15.80226 26.99983 21.40105
# Shear Modulus (GPa) = 13.38402 22.10014 17.74208
#
# Velocity S-wave (km/s) = 2.49975 3.21218 2.87809
# Velocity P-wave (km/s) = 3.96351 5.13451 4.58653
#
# Compressibility (1/GPa) = 0.06328208
#
# Stress axis : x y z
#
# Youngs Moduli (GPa) = 47.71910 19.94774 59.86823
#
# Poissons Ratio (x) = 0.20268 -0.26899
# Poissons Ratio (y) = 0.48484 0.39434
# Poissons Ratio (z) = -0.21440 0.13139
#
# Static dielectric constant tensor:
#      x y z
#    x 1.779790 0.000000 0.003790 
#    y 0.000000 1.765960 0.000000 
#    z 0.003790 0.000000 1.830230 
# 
# From -- ./inp_files/45359.got.cif
#   From: 2010.05.17/outbox.cif.g08.bks.cpg/sg11_23_cif.got.tgz:45359.got - 2010.06.03 12:22:45.
