data_PCOD9161935
_publ_section_title
;
Structure prediction by ZEFSAII (Michael W. Deem and Ramdas Pophale) SiO2 
 PCOD9161935
Probable space group: P 21/M
;
_chemical_formula_sum "Si O2"
_cell_formula_units_Z 26
_cell_length_a 15.313555
_cell_length_b 9.598972
_cell_length_c 12.021924
_cell_angle_alpha 90.000000
_cell_angle_beta 37.940683
_cell_angle_gamma 90.000000
_cell_volume 1086.527215
_symmetry_space_group_name_H-M "P 21/M"
_symmetry_group_IT_number 11
_symmetry_cell_setting 'monoclinic'
loop_
_space_group_symop_operation_xyz
x,y,z
-x,1/2+y,-z
-x,-y,-z
x,1/2-y,z
loop_
_atom_site_type_symbol
_atom_site_label
_atom_site_fract_x
_atom_site_fract_y
_atom_site_fract_z
Si Si1 0.596054 0.915346 0.056006
Si Si2 0.959376 0.904815 0.381781
Si Si3 0.403167 0.985185 0.437983
Si Si4 0.129398 0.590687 0.824532
Si Si5 0.226071 0.908974 0.288339
Si Si6 0.788923 0.406013 0.014773
Si Si7 0.504617 0.750000 0.511302
O O1 0.604302 0.750000 0.030301
O O2 0.450336 0.958874 0.263018
O O3 0.706598 0.969901 0.039649
O O4 0.650946 0.000453 0.893581
O O5 0.895634 0.750000 0.449215
O O6 0.093815 0.906489 0.332691
O O7 0.848428 0.017458 0.533088
O O8 0.044918 0.923695 0.181637
O O9 0.234271 0.971120 0.627855
O O10 0.475164 0.868344 0.443177
O O11 0.455676 0.129614 0.435397
O O12 0.086461 0.750000 0.840204
O O13 0.228207 0.599420 0.836439
O O14 0.000000 0.500000 0.000000
O O15 0.270472 0.750000 0.263519
O O16 0.747553 0.250000 0.014337
#
# Coordination Sequence:
#
# PCOD9161935 Si02
#       7
#     4   4   4   4   4   4   2
#     4  11  20  29  48  78 105 135 172 214 264 318
#     4   8  14  27  44  66  96 132 167 206 255 315
#     4  11  22  35  54  79 107 139 175 220 268 317
#     4  11  24  40  54  74 107 144 185 223 258 309
#     4   9  17  27  42  67 102 137 164 202 261 316
#     4   9  19  33  52  73 100 136 176 218 264 309
#     4  10  20  34  56  78 104 134 170 220 272 314
#
# _framework density 23.929451
#
# number of rings (size 3 to 8) (size 9 to 14) (size 15 to 20)
#    0.000    2.154    1.538    3.692    5.385    4.308 
#    0.000    0.000    0.000    0.000    0.000    1.077 
#    0.000    0.000    0.000    0.000    0.000    0.000 
#
# Total GULP energy -144813.949220 kJ/mol
# GULP energy per Si atom -5569.767278 kJ/mol
# Density = 2.387499 g / cm^3
# Si number density = 23.929451 Si / 1000 Ang^3
#
#
#
# Elastic Constant Matrix: (Units=GPa)
#
#
# Indices 1 2 3 4 5 6 
#
# 1 49.9725 26.7247 25.8093 0.0000 2.1297 0.0000
# 2 26.7247 194.6854 92.3452 0.0000 -15.3652 0.0000
# 3 25.8093 92.3452 200.1794 0.0000 6.6449 0.0000
# 4 0.0000 0.0000 0.0000 10.4991 0.0000 13.9828
# 5 2.1297 -15.3652 6.6449 0.0000 42.1553 0.0000
# 6 0.0000 0.0000 0.0000 13.9828 0.0000 -1.6530
#
#
#
# Elastic Compliance Matrix: (Units=1/GPa)
#
#
# Indices 1 2 3 4 5 6 
#
# 1 0.022240 -0.002375 -0.001715 0.000000 -0.001719 0.000000
# 2 -0.002375 0.007199 -0.003122 0.000000 0.003236 0.000000
# 3 -0.001715 -0.003122 0.006727 0.000000 -0.002112 0.000000
# 4 0.000000 0.000000 0.000000 0.007765 0.000000 0.065686
# 5 -0.001719 0.003236 -0.002112 0.000000 0.025321 0.000000
# 6 0.000000 0.000000 0.000000 0.065686 0.000000 -0.049321
#
#
# Mechanical properties :
#
#
# Convention : Reuss Voigt Hill
#
# Bulk Modulus (GPa) = 45.99416 81.62173 63.80795
# Shear Modulus (GPa) = 120.18380 30.19748 75.19064
#
# Velocity S-wave (km/s) = 7.09459 3.55623 5.61160
# Velocity P-wave (km/s) = 9.29373 7.14463 8.28913
#
# Compressibility (1/GPa) = 0.02174189
#
# Stress axis : x y z
#
# Youngs Moduli (GPa) = 44.96379 138.91103 148.65600
#
# Poissons Ratio (x) = 0.32996 0.25489
# Poissons Ratio (y) = 0.10680 0.46412
# Poissons Ratio (z) = 0.07710 0.43369
#
# Static dielectric constant tensor:
#      x y z
#    x 1.982970 0.000000 -0.035410 
#    y 0.000000 1.827900 0.000000 
#    z -0.035410 0.000000 1.966270 
# 
# From -- ./inp_files/37201.got.cif
#   From: 2010.05.17/outbox.cif.g08.bks.cpg/sg11_19_cif.got.tgz:37201.got - 2010.06.03 12:22:45.
