data_PCOD9161280
_publ_section_title
;
Structure prediction by ZEFSAII (Michael W. Deem and Ramdas Pophale) SiO2 
 PCOD9161280
Probable space group: P 21/M
;
_chemical_formula_sum "Si O2"
_cell_formula_units_Z 24
_cell_length_a 9.096026
_cell_length_b 9.205730
_cell_length_c 15.334202
_cell_angle_alpha 90.000000
_cell_angle_beta 64.165728
_cell_angle_gamma 90.000000
_cell_volume 1155.691008
_symmetry_space_group_name_H-M "P 21/M"
_symmetry_group_IT_number 11
_symmetry_cell_setting 'monoclinic'
loop_
_space_group_symop_operation_xyz
x,y,z
-x,1/2+y,-z
-x,-y,-z
x,1/2-y,z
loop_
_atom_site_type_symbol
_atom_site_label
_atom_site_fract_x
_atom_site_fract_y
_atom_site_fract_z
Si Si1 0.512648 0.575039 0.091876
Si Si2 0.487288 0.425733 0.598557
Si Si3 0.166057 0.915841 0.978062
Si Si4 0.846014 0.086991 0.808909
Si Si5 0.837550 0.413159 0.522391
Si Si6 0.168722 0.586033 0.686049
O O1 0.531898 0.750000 0.079059
O O2 0.334307 0.548643 0.179919
O O3 0.500000 0.500000 0.000000
O O4 0.672391 0.503316 0.093181
O O5 0.500000 0.500000 0.500000
O O6 0.482303 0.250000 0.593014
O O7 0.659132 0.466272 0.599875
O O8 0.318479 0.486893 0.680247
O O9 0.164528 0.750000 0.945603
O O10 0.171977 0.908259 0.081784
O O11 0.000000 0.000000 0.000000
O O12 0.888931 0.250000 0.767693
O O13 0.992283 0.979137 0.751868
O O14 0.859113 0.250000 0.550131
O O15 0.823038 0.409072 0.421240
O O16 0.000000 0.500000 0.500000
O O17 0.186096 0.750000 0.714375
#
# Coordination Sequence:
#
# PCOD9161280 Si02
#       6
#     4   4   4   4   4   4
#     4   9  17  31  51  74 100 132 170 207 247 300
#     4   9  17  31  50  72  98 129 166 203 242 294
#     4  10  20  34  53  77 103 132 169 210 253 302
#     4   9  19  34  52  75 101 131 166 204 248 298
#     4   9  19  33  50  74  99 126 162 201 242 290
#     4  10  20  33  51  76 101 128 166 207 247 294
#
# _framework density 20.766794999999998
#
# number of rings (size 3 to 8) (size 9 to 14) (size 15 to 20)
#    0.000    2.667    0.000    4.000    0.000    8.000 
#    0.000    1.667    0.000    2.000    0.000    0.000 
#    0.000    0.000    0.000    0.000    0.000    0.000 
#
# Total GULP energy -133781.095675 kJ/mol
# GULP energy per Si atom -5574.212320 kJ/mol
# Density = 2.071953 g / cm^3
# Si number density = 20.766795 Si / 1000 Ang^3
#
#
#
# Elastic Constant Matrix: (Units=GPa)
#
#
# Indices 1 2 3 4 5 6 
#
# 1 142.8204 81.5758 40.9997 0.0000 -62.9964 0.0000
# 2 81.5758 138.7862 46.4354 0.0000 -55.9880 0.0000
# 3 40.9997 46.4354 60.4199 0.0000 -32.8312 0.0000
# 4 0.0000 0.0000 0.0000 28.0777 0.0000 -14.5691
# 5 -62.9964 -55.9880 -32.8312 0.0000 58.6612 0.0000
# 6 0.0000 0.0000 0.0000 -14.5691 0.0000 35.6356
#
#
#
# Elastic Compliance Matrix: (Units=1/GPa)
#
#
# Indices 1 2 3 4 5 6 
#
# 1 0.014351 -0.003481 -0.000710 0.000000 0.011692 0.000000
# 2 -0.003481 0.013356 -0.004321 0.000000 0.006590 0.000000
# 3 -0.000710 -0.004321 0.025433 0.000000 0.009348 0.000000
# 4 0.000000 0.000000 0.000000 0.045205 0.000000 0.018482
# 5 0.011692 0.006590 0.009348 0.000000 0.041125 0.000000
# 6 0.000000 0.000000 0.000000 0.018482 0.000000 0.035618
#
#
# Mechanical properties :
#
#
# Convention : Reuss Voigt Hill
#
# Bulk Modulus (GPa) = 27.68891 75.56092 51.62491
# Shear Modulus (GPa) = 24.49173 36.00927 30.25050
#
# Velocity S-wave (km/s) = 3.43792 4.16863 3.82078
# Velocity P-wave (km/s) = 5.39641 7.72233 6.66167
#
# Compressibility (1/GPa) = 0.03611555
#
# Stress axis : x y z
#
# Youngs Moduli (GPa) = 69.68125 74.87296 39.31917
#
# Poissons Ratio (x) = 0.26064 0.02791
# Poissons Ratio (y) = 0.24257 0.16991
# Poissons Ratio (z) = 0.04945 0.32355
#
# Static dielectric constant tensor:
#      x y z
#    x 1.789240 0.000000 0.003610 
#    y 0.000000 1.710860 0.000000 
#    z 0.003610 0.000000 1.808630 
# 
# From -- ./inp_files/23763.got.cif
#   From: 2010.05.17/outbox.cif.g08.bks.cpg/sg11_12_cif.got.tgz:23763.got - 2010.06.03 12:22:45.
