data_PCOD9161262
_publ_section_title
;
Structure prediction by ZEFSAII (Michael W. Deem and Ramdas Pophale) SiO2 
 PCOD9161262
Probable space group: P 21/M
;
_chemical_formula_sum "Si O2"
_cell_formula_units_Z 32
_cell_length_a 29.281377
_cell_length_b 7.658398
_cell_length_c 14.782134
_cell_angle_alpha 90.000000
_cell_angle_beta 151.665173
_cell_angle_gamma 90.000000
_cell_volume 1573.314817
_symmetry_space_group_name_H-M "P 21/M"
_symmetry_group_IT_number 11
_symmetry_cell_setting 'monoclinic'
loop_
_space_group_symop_operation_xyz
x,y,z
-x,1/2+y,-z
-x,-y,-z
x,1/2-y,z
loop_
_atom_site_type_symbol
_atom_site_label
_atom_site_fract_x
_atom_site_fract_y
_atom_site_fract_z
Si Si1 0.542568 0.542566 0.474765
Si Si2 0.127755 0.534868 0.040287
Si Si3 0.741943 0.451495 0.886690
Si Si4 0.250731 0.452256 0.730976
Si Si5 0.388006 0.958812 0.808268
Si Si6 0.343849 0.954476 0.077884
Si Si7 0.767685 0.045204 0.600717
Si Si8 0.907802 0.962248 0.682823
O O1 0.500000 0.500000 0.500000
O O2 0.558266 0.750000 0.491468
O O3 0.647078 0.456976 0.657339
O O4 0.453866 0.478849 0.257804
O O5 0.129004 0.750000 0.042624
O O6 0.171359 0.473565 0.021024
O O7 0.195661 0.472289 0.240541
O O8 0.017956 0.482926 0.866380
O O9 0.767327 0.250000 0.949051
O O10 0.709435 0.531134 0.926344
O O11 0.232771 0.250000 0.718733
O O12 0.336838 0.468720 0.808605
O O13 0.157375 0.522852 0.515526
O O14 0.282598 0.532870 0.880856
O O15 0.375975 0.750000 0.790694
O O16 0.326563 0.026477 0.614857
O O17 0.500000 0.000000 0.000000
O O18 0.358468 0.750000 0.125065
O O19 0.749371 0.250000 0.583965
O O20 0.854544 0.026246 0.680155
O O21 0.904154 0.750000 0.678490
#
# Coordination Sequence:
#
# PCOD9161262 Si02
#       8
#     4   4   4   4   4   4   4   4
#     4   9  17  30  48  70  96 126 160 197 241 290
#     4   9  17  32  53  74  98 128 161 200 247 297
#     4   9  18  32  50  73 101 132 165 202 246 293
#     4  10  20  33  51  73  96 130 172 207 244 290
#     4  10  20  34  51  75 107 135 162 199 242 291
#     4   9  18  32  49  70  97 132 169 203 244 292
#     4   9  18  32  52  76  99 127 162 197 239 294
#     4   9  18  33  52  73  97 126 162 203 246 293
#
# _framework density 20.339221999999999
#
# number of rings (size 3 to 8) (size 9 to 14) (size 15 to 20)
#    0.000    2.750    0.000    2.250    0.000    4.500 
#    0.000    3.125    0.000    0.000    0.000    0.000 
#    0.000    0.000    0.000    0.000    0.000    0.000 
#
# Total GULP energy -178371.896003 kJ/mol
# GULP energy per Si atom -5574.121750 kJ/mol
# Density = 2.029293 g / cm^3
# Si number density = 20.339222 Si / 1000 Ang^3
#
#
#
# Elastic Constant Matrix: (Units=GPa)
#
#
# Indices 1 2 3 4 5 6 
#
# 1 59.5161 -12.5457 56.9197 0.0000 -9.2058 0.0000
# 2 -12.5457 36.9306 -10.5655 0.0000 -4.8387 0.0000
# 3 56.9197 -10.5655 99.4675 0.0000 -1.1125 0.0000
# 4 0.0000 0.0000 0.0000 12.9282 0.0000 1.0183
# 5 -9.2058 -4.8387 -1.1125 0.0000 33.0996 0.0000
# 6 0.0000 0.0000 0.0000 1.0183 0.0000 14.3235
#
#
#
# Elastic Compliance Matrix: (Units=1/GPa)
#
#
# Indices 1 2 3 4 5 6 
#
# 1 0.043484 0.009652 -0.023716 0.000000 0.012708 0.000000
# 2 0.009652 0.030660 -0.002187 0.000000 0.007093 0.000000
# 3 -0.023716 -0.002187 0.023324 0.000000 -0.006132 0.000000
# 4 0.000000 0.000000 0.000000 0.077786 0.000000 -0.005530
# 5 0.012708 0.007093 -0.006132 0.000000 0.034577 0.000000
# 6 0.000000 0.000000 0.000000 -0.005530 0.000000 0.070209
#
#
# Mechanical properties :
#
#
# Convention : Reuss Voigt Hill
#
# Bulk Modulus (GPa) = 15.39279 29.28126 22.33702
# Shear Modulus (GPa) = 14.96125 22.87732 18.91928
#
# Velocity S-wave (km/s) = 2.71511 3.35742 3.05321
# Velocity P-wave (km/s) = 4.17296 5.42747 4.84102
#
# Compressibility (1/GPa) = 0.06496549
#
# Stress axis : x y z
#
# Youngs Moduli (GPa) = 22.99714 32.61552 42.87441
#
# Poissons Ratio (x) = -0.31480 1.01681
# Poissons Ratio (y) = -0.22197 0.09377
# Poissons Ratio (z) = 0.54540 0.07133
#
# Static dielectric constant tensor:
#      x y z
#    x 1.706380 0.000000 -0.004970 
#    y 0.000000 1.773300 0.000000 
#    z -0.004970 0.000000 1.743440 
# 
# From -- ./inp_files/56196.got.cif
#   From: 2010.05.17/outbox.cif.g08.bks.cpg/sg11_29_cif.got.tgz:56196.got - 2010.06.03 12:22:45.
