data_PCOD9161014
_publ_section_title
;
Structure prediction by ZEFSAII (Michael W. Deem and Ramdas Pophale) SiO2 
 PCOD9161014
Probable space group: P 21/M
;
_chemical_formula_sum "Si O2"
_cell_formula_units_Z 28
_cell_length_a 22.435811
_cell_length_b 9.235401
_cell_length_c 19.707020
_cell_angle_alpha 90.000000
_cell_angle_beta 161.405239
_cell_angle_gamma 90.000000
_cell_volume 1302.074258
_symmetry_space_group_name_H-M "P 21/M"
_symmetry_group_IT_number 11
_symmetry_cell_setting 'monoclinic'
loop_
_space_group_symop_operation_xyz
x,y,z
-x,1/2+y,-z
-x,-y,-z
x,1/2-y,z
loop_
_atom_site_type_symbol
_atom_site_label
_atom_site_fract_x
_atom_site_fract_y
_atom_site_fract_z
Si Si1 0.142143 0.082817 0.848588
Si Si2 0.411522 0.916125 0.706556
Si Si3 0.699664 0.423044 0.704936
Si Si4 0.491568 0.087917 0.921175
Si Si5 0.773970 0.423367 0.929551
Si Si6 0.626711 0.075147 0.481589
Si Si7 0.072407 0.586371 0.642929
O O1 0.087536 0.250000 0.793700
O O2 0.041543 0.000849 0.678754
O O3 0.365881 0.079779 0.072465
O O4 0.117036 0.002985 0.892943
O O5 0.366393 0.750000 0.674109
O O6 0.310861 0.959603 0.527600
O O7 0.384120 0.012141 0.743310
O O8 0.500000 0.500000 0.500000
O O9 0.672025 0.250000 0.679675
O O10 0.821697 0.461384 0.902745
O O11 0.753196 0.453583 0.684517
O O12 0.423963 0.250000 0.860905
O O13 0.704937 0.095680 0.126293
O O14 0.500000 0.000000 0.000000
O O15 0.781293 0.250000 0.946630
O O16 0.561715 0.482803 0.709753
O O17 0.585015 0.250000 0.436134
O O18 0.999436 0.750000 0.566249
O O19 0.000000 0.500000 0.500000
#
# Coordination Sequence:
#
# PCOD9161014 Si02
#       7
#     4   4   4   4   4   4   4
#     4   9  16  26  39  54  75 105 138 172 209 252
#     4   8  14  24  38  54  74 102 136 172 210 251
#     4   8  13  19  27  41  63  92 127 164 201 241
#     4  10  20  32  47  66  88 114 146 181 218 260
#     4   9  14  19  29  46  68  95 129 169 206 243
#     4   8  13  21  31  44  65  96 131 165 203 248
#     4  10  20  33  49  69  90 114 145 181 220 263
#
# _framework density 21.504149000000002
#
# number of rings (size 3 to 8) (size 9 to 14) (size 15 to 20)
#    0.000    3.143    0.000    2.571    0.000    5.714 
#    0.000    0.000    0.000    0.000    0.000    0.000 
#    0.000    0.000    0.000    1.286    0.000   15.429 
#
# Total GULP energy -156064.807263 kJ/mol
# GULP energy per Si atom -5573.743117 kJ/mol
# Density = 2.145520 g / cm^3
# Si number density = 21.504149 Si / 1000 Ang^3
#
#
#
# Elastic Constant Matrix: (Units=GPa)
#
#
# Indices 1 2 3 4 5 6 
#
# 1 123.0388 85.2052 86.9432 0.0000 -64.4840 0.0000
# 2 85.2052 128.3009 56.0299 0.0000 -55.0657 0.0000
# 3 86.9432 56.0299 78.1046 0.0000 -44.0328 0.0000
# 4 0.0000 0.0000 0.0000 14.8127 0.0000 -20.1268
# 5 -64.4840 -55.0657 -44.0328 0.0000 85.1138 0.0000
# 6 0.0000 0.0000 0.0000 -20.1268 0.0000 23.4603
#
#
#
# Elastic Compliance Matrix: (Units=1/GPa)
#
#
# Indices 1 2 3 4 5 6 
#
# 1 0.053450 -0.011379 -0.046103 0.000000 0.009282 0.000000
# 2 -0.011379 0.015087 0.003511 0.000000 0.002955 0.000000
# 3 -0.046103 0.003511 0.060979 0.000000 -0.001110 0.000000
# 4 0.000000 0.000000 0.000000 -0.407461 0.000000 -0.349564
# 5 0.009282 0.002955 -0.001110 0.000000 0.020119 0.000000
# 6 0.000000 0.000000 0.000000 -0.349564 0.000000 -0.257269
#
#
# Mechanical properties :
#
#
# Convention : Reuss Voigt Hill
#
# Bulk Modulus (GPa) = 46.35463 87.31122 66.83293
# Shear Modulus (GPa) = -12.50121 31.42843 9.46361
#
# Velocity S-wave (km/s) = -2.41371 3.82711 2.10009
# Velocity P-wave (km/s) = 3.71953 7.76010 6.08499
#
# Compressibility (1/GPa) = 0.02157282
#
# Stress axis : x y z
#
# Youngs Moduli (GPa) = 18.70901 66.28390 16.39912
#
# Poissons Ratio (x) = 0.75427 0.75604
# Poissons Ratio (y) = 0.21290 -0.05757
# Poissons Ratio (z) = 0.86254 -0.23269
#
# Static dielectric constant tensor:
#      x y z
#    x 2.263980 0.000000 0.621110 
#    y 0.000000 1.689740 0.000000 
#    z 0.621110 0.000000 2.686200 
# 
# From -- ./inp_files/42223.got.cif
#   From: 2010.05.17/outbox.cif.g08.bks.cpg/sg11_22_cif.got.tgz:42223.got - 2010.06.03 12:22:45.
