data_PCOD9161375
_publ_section_title
;
Structure prediction by ZEFSAII (Michael W. Deem and Ramdas Pophale) SiO2 
 PCOD9161375
Probable space group: P 21/M
;
_chemical_formula_sum "Si O2"
_cell_formula_units_Z 28
_cell_length_a 14.215674
_cell_length_b 9.568581
_cell_length_c 9.968181
_cell_angle_alpha 90.000000
_cell_angle_beta 73.239847
_cell_angle_gamma 90.000000
_cell_volume 1298.311451
_symmetry_space_group_name_H-M "P 21/M"
_symmetry_group_IT_number 11
_symmetry_cell_setting 'monoclinic'
loop_
_space_group_symop_operation_xyz
x,y,z
-x,1/2+y,-z
-x,-y,-z
x,1/2-y,z
loop_
_atom_site_type_symbol
_atom_site_label
_atom_site_fract_x
_atom_site_fract_y
_atom_site_fract_z
Si Si1 0.802944 0.896740 0.281727
Si Si2 0.795929 0.099388 0.899060
Si Si3 0.516436 0.421658 0.637242
Si Si4 0.340474 0.404060 0.909165
Si Si5 0.074364 0.599859 0.895465
Si Si6 0.094137 0.918730 0.402799
Si Si7 0.709440 0.586479 0.593501
O O1 0.858834 0.750000 0.278757
O O2 0.747582 0.890950 0.163351
O O3 0.720800 0.904145 0.427669
O O4 0.876228 0.025615 0.251068
O O5 0.758379 0.250000 0.866870
O O6 0.887648 0.064979 0.765152
O O7 0.840570 0.115611 0.028557
O O8 0.705544 0.994345 0.952202
O O9 0.500000 0.500000 0.500000
O O10 0.520662 0.250000 0.619404
O O11 0.430507 0.455342 0.780393
O O12 0.615173 0.490682 0.656916
O O13 0.366061 0.250000 0.948829
O O14 0.030773 0.750000 0.881414
O O15 0.000000 0.500000 0.000000
O O16 0.091077 0.750000 0.433373
O O17 0.192395 0.001161 0.409063
O O18 0.000000 0.000000 0.500000
O O19 0.706563 0.750000 0.642262
#
# Coordination Sequence:
#
# PCOD9161375 Si02
#       7
#     4   4   4   4   4   4   4
#     4   9  18  34  53  79 117 153 187 238 296 350
#     4   9  21  40  59  81 115 154 198 249 300 356
#     4  11  21  36  60  94 131 166 201 247 304 367
#     4   9  18  35  59  88 121 156 193 238 295 356
#     4  10  20  33  52  81 111 146 189 240 302 361
#     4  11  25  45  65  88 118 161 210 258 307 361
#     4  11  23  40  61  89 124 161 205 255 304 361
#
# _framework density 21.566475000000001
#
# number of rings (size 3 to 8) (size 9 to 14) (size 15 to 20)
#    0.000    2.000    1.429    1.714    2.000    4.000 
#    0.000    0.714    0.000    0.000    0.000    0.000 
#    0.000    0.000    0.000    0.000    0.000    0.000 
#
# Total GULP energy -155911.555861 kJ/mol
# GULP energy per Si atom -5568.269852 kJ/mol
# Density = 2.151739 g / cm^3
# Si number density = 21.566475 Si / 1000 Ang^3
#
#
#
# Elastic Constant Matrix: (Units=GPa)
#
#
# Indices 1 2 3 4 5 6 
#
# 1 77.6367 53.9893 13.5865 0.0000 -26.0150 0.0000
# 2 53.9893 156.4740 52.7001 0.0000 -40.4799 0.0000
# 3 13.5865 52.7001 80.0793 0.0000 -33.2265 0.0000
# 4 0.0000 0.0000 0.0000 30.1464 0.0000 -11.5417
# 5 -26.0150 -40.4799 -33.2265 0.0000 41.0116 0.0000
# 6 0.0000 0.0000 0.0000 -11.5417 0.0000 26.8077
#
#
#
# Elastic Compliance Matrix: (Units=1/GPa)
#
#
# Indices 1 2 3 4 5 6 
#
# 1 0.019531 -0.005572 0.004838 0.000000 0.010809 0.000000
# 2 -0.005572 0.010758 -0.004813 0.000000 0.003185 0.000000
# 3 0.004838 -0.004813 0.021295 0.000000 0.015571 0.000000
# 4 0.000000 0.000000 0.000000 0.039718 0.000000 0.017100
# 5 0.010809 0.003185 0.015571 0.000000 0.046998 0.000000
# 6 0.000000 0.000000 0.000000 0.017100 0.000000 0.044665
#
#
# Mechanical properties :
#
#
# Convention : Reuss Voigt Hill
#
# Bulk Modulus (GPa) = 24.69773 61.63799 43.16786
# Shear Modulus (GPa) = 24.08986 32.52075 28.30530
#
# Velocity S-wave (km/s) = 3.34579 3.88742 3.62673
# Velocity P-wave (km/s) = 5.13834 6.98512 6.13166
#
# Compressibility (1/GPa) = 0.04048956
#
# Stress axis : x y z
#
# Youngs Moduli (GPa) = 51.20196 92.95078 46.95945
#
# Poissons Ratio (x) = 0.51792 -0.22719
# Poissons Ratio (y) = 0.28529 0.22603
# Poissons Ratio (z) = -0.24772 0.44740
#
# Static dielectric constant tensor:
#      x y z
#    x 1.822080 0.000000 0.052500 
#    y 0.000000 1.858150 0.000000 
#    z 0.052500 0.000000 1.833330 
# 
# From -- ./inp_files/37435.got.cif
#   From: 2010.05.17/outbox.cif.g08.bks.cpg/sg11_19_cif.got.tgz:37435.got - 2010.06.03 12:22:45.
