data_PCOD9161424
_publ_section_title
;
Structure prediction by ZEFSAII (Michael W. Deem and Ramdas Pophale) SiO2 
 PCOD9161424
Probable space group: P 21/M
;
_chemical_formula_sum "Si O2"
_cell_formula_units_Z 32
_cell_length_a 12.138821
_cell_length_b 10.057154
_cell_length_c 25.670798
_cell_angle_alpha 90.000000
_cell_angle_beta 151.001927
_cell_angle_gamma 90.000000
_cell_volume 1519.273121
_symmetry_space_group_name_H-M "P 21/M"
_symmetry_group_IT_number 11
_symmetry_cell_setting 'monoclinic'
loop_
_space_group_symop_operation_xyz
x,y,z
-x,1/2+y,-z
-x,-y,-z
x,1/2-y,z
loop_
_atom_site_type_symbol
_atom_site_label
_atom_site_fract_x
_atom_site_fract_y
_atom_site_fract_z
Si Si1 0.335986 0.898012 0.961526
Si Si2 0.817797 0.095384 0.642772
Si Si3 0.800731 0.596157 0.435753
Si Si4 0.300494 0.105474 0.800555
Si Si5 0.584818 0.899651 0.867537
Si Si6 0.401116 0.092468 0.534836
Si Si7 0.954538 0.896155 0.113086
Si Si8 0.667586 0.101049 0.816398
O O1 0.312222 0.750000 0.928157
O O2 0.471454 0.880867 0.071552
O O3 0.500000 0.000000 0.000000
O O4 0.105243 0.977529 0.876679
O O5 0.771926 0.250000 0.609580
O O6 0.670605 0.072687 0.634247
O O7 0.089252 0.081167 0.751751
O O8 0.722902 0.996286 0.559700
O O9 0.878255 0.750000 0.471348
O O10 0.692037 0.557979 0.446765
O O11 0.592299 0.592140 0.309141
O O12 0.000000 0.500000 0.500000
O O13 0.260593 0.250000 0.757780
O O14 0.356051 0.981077 0.787119
O O15 0.536687 0.750000 0.830088
O O16 0.709893 0.987465 0.875829
O O17 0.749408 0.890108 0.985753
O O18 0.357005 0.250000 0.509218
O O19 0.958125 0.750000 0.141437
O O20 0.178674 0.911580 0.171357
O O21 0.712283 0.250000 0.856326
#
# Coordination Sequence:
#
# PCOD9161424 Si02
#       8
#     4   4   4   4   4   4   4   4
#     4  10  20  34  53  78 110 145 178 219 270 323
#     4   9  18  34  58  82 103 135 178 224 271 324
#     4  10  23  40  57  79 110 147 186 229 276 333
#     4   9  19  34  53  78 106 140 180 219 265 326
#     4  10  20  33  53  82 113 142 177 228 274 319
#     4   9  19  36  55  78 107 136 174 225 279 324
#     4   9  19  36  56  79 108 142 183 226 271 325
#     4  10  21  37  57  79 105 146 187 222 272 332
#
# _framework density 21.062705000000001
#
# number of rings (size 3 to 8) (size 9 to 14) (size 15 to 20)
#    0.000    2.500    0.000    1.125    1.750    4.000 
#    0.000    3.750    0.000    3.000    0.000    0.000 
#    0.000    0.000    0.000    0.000    0.000    0.000 
#
# Total GULP energy -178465.799412 kJ/mol
# GULP energy per Si atom -5577.056232 kJ/mol
# Density = 2.101476 g / cm^3
# Si number density = 21.062705 Si / 1000 Ang^3
#
#
#
# Elastic Constant Matrix: (Units=GPa)
#
#
# Indices 1 2 3 4 5 6 
#
# 1 88.0252 68.3469 17.0586 0.0000 23.3117 0.0000
# 2 68.3469 160.6442 33.7355 0.0000 23.3523 0.0000
# 3 17.0586 33.7355 57.1532 0.0000 28.3766 0.0000
# 4 0.0000 0.0000 0.0000 14.3021 0.0000 0.2245
# 5 23.3117 23.3523 28.3766 0.0000 35.3051 0.0000
# 6 0.0000 0.0000 0.0000 0.2245 0.0000 31.1032
#
#
#
# Elastic Compliance Matrix: (Units=1/GPa)
#
#
# Indices 1 2 3 4 5 6 
#
# 1 0.019309 -0.007471 0.004199 0.000000 -0.011183 0.000000
# 2 -0.007471 0.010102 -0.004767 0.000000 0.002083 0.000000
# 3 0.004199 -0.004767 0.031398 0.000000 -0.024856 0.000000
# 4 0.000000 0.000000 0.000000 0.069928 0.000000 -0.000505
# 5 -0.011183 0.002083 -0.024856 0.000000 0.054309 0.000000
# 6 0.000000 0.000000 0.000000 -0.000505 0.000000 0.032155
#
#
# Mechanical properties :
#
#
# Convention : Reuss Voigt Hill
#
# Bulk Modulus (GPa) = 22.35574 60.45606 41.40590
# Shear Modulus (GPa) = 20.14584 28.58754 24.36669
#
# Velocity S-wave (km/s) = 3.09604 3.68810 3.40496
# Velocity P-wave (km/s) = 4.83917 6.84845 5.92954
#
# Compressibility (1/GPa) = 0.04473124
#
# Stress axis : x y z
#
# Youngs Moduli (GPa) = 51.78821 98.99025 31.84875
#
# Poissons Ratio (x) = 0.73961 -0.13374
# Poissons Ratio (y) = 0.38694 0.15182
# Poissons Ratio (z) = -0.21747 0.47189
#
# Static dielectric constant tensor:
#      x y z
#    x 1.799130 0.000000 -0.009860 
#    y 0.000000 1.800280 0.000000 
#    z -0.009860 0.000000 1.771650 
# 
# From -- ./inp_files/45234.got.cif
#   From: 2010.05.17/outbox.cif.g08.bks.cpg/sg11_23_cif.got.tgz:45234.got - 2010.06.03 12:22:45.
