data_PCOD9161677
_publ_section_title
;
Structure prediction by ZEFSAII (Michael W. Deem and Ramdas Pophale) SiO2 
 PCOD9161677
Probable space group: P 21/M
;
_chemical_formula_sum "Si O2"
_cell_formula_units_Z 20
_cell_length_a 13.957673
_cell_length_b 8.810486
_cell_length_c 23.029119
_cell_angle_alpha 90.000000
_cell_angle_beta 24.177060
_cell_angle_gamma 90.000000
_cell_volume 1159.859592
_symmetry_space_group_name_H-M "P 21/M"
_symmetry_group_IT_number 11
_symmetry_cell_setting 'monoclinic'
loop_
_space_group_symop_operation_xyz
x,y,z
-x,1/2+y,-z
-x,-y,-z
x,1/2-y,z
loop_
_atom_site_type_symbol
_atom_site_label
_atom_site_fract_x
_atom_site_fract_y
_atom_site_fract_z
Si Si1 0.624864 0.930878 0.220309
Si Si2 0.782184 0.432758 0.785314
Si Si3 0.888804 0.567756 0.503266
Si Si4 0.760010 0.567064 0.921335
Si Si5 0.017601 0.432583 0.081018
O O1 0.594543 0.750000 0.239832
O O2 0.375318 0.010652 0.357492
O O3 0.771061 0.966182 0.080728
O O4 0.788174 0.988207 0.182435
O O5 0.787690 0.250000 0.785948
O O6 0.843979 0.500295 0.813854
O O7 0.954917 0.480155 0.638481
O O8 0.513250 0.477656 0.920518
O O9 0.894263 0.750000 0.503473
O O10 0.000000 0.500000 0.500000
O O11 0.766975 0.750000 0.914749
O O12 0.907198 0.519541 0.896154
O O13 0.984172 0.250000 0.098808
#
# Coordination Sequence:
#
# PCOD9161677 Si02
#       5
#     4   4   4   4   4
#     4  10  20  34  53  78 106 134 170 212 253 303
#     4   9  19  34  51  75 105 133 165 208 254 300
#     4  11  22  36  54  76 105 137 168 207 256 305
#     4   9  17  32  54  76 100 132 169 209 252 299
#     4   9  18  34  54  76 104 136 170 211 257 301
#
# _framework density 17.243466000000002
#
# number of rings (size 3 to 8) (size 9 to 14) (size 15 to 20)
#    0.000    2.400    0.000    2.400    0.000    6.400 
#    0.000    5.000    0.000    0.000    0.000    0.000 
#    0.000    0.000    0.000    0.000    0.000    0.000 
#
# Total GULP energy -111611.517070 kJ/mol
# GULP energy per Si atom -5580.575854 kJ/mol
# Density = 1.720422 g / cm^3
# Si number density = 17.243466 Si / 1000 Ang^3
#
#
#
# Elastic Constant Matrix: (Units=GPa)
#
#
# Indices 1 2 3 4 5 6 
#
# 1 188.4387 47.8899 91.0067 0.0000 5.8904 0.0000
# 2 47.8899 31.4705 45.4003 0.0000 1.3625 0.0000
# 3 91.0067 45.4003 129.8253 0.0000 2.6472 0.0000
# 4 0.0000 0.0000 0.0000 28.4523 0.0000 -1.1072
# 5 5.8904 1.3625 2.6472 0.0000 17.7370 0.0000
# 6 0.0000 0.0000 0.0000 -1.1072 0.0000 33.9333
#
#
#
# Elastic Compliance Matrix: (Units=1/GPa)
#
#
# Indices 1 2 3 4 5 6 
#
# 1 0.009314 -0.009542 -0.003154 0.000000 -0.001889 0.000000
# 2 -0.009542 0.073948 -0.019178 0.000000 0.000351 0.000000
# 3 -0.003154 -0.019178 0.016619 0.000000 0.000040 0.000000
# 4 0.000000 0.000000 0.000000 0.035191 0.000000 0.001148
# 5 -0.001889 0.000351 0.000040 0.000000 0.056974 0.000000
# 6 0.000000 0.000000 0.000000 0.001148 0.000000 0.029507
#
#
# Mechanical properties :
#
#
# Convention : Reuss Voigt Hill
#
# Bulk Modulus (GPa) = 27.67502 79.81427 53.74465
# Shear Modulus (GPa) = 16.81546 27.05369 21.93457
#
# Velocity S-wave (km/s) = 3.12617 3.96526 3.57045
# Velocity P-wave (km/s) = 5.39583 8.20680 6.94502
#
# Compressibility (1/GPa) = 0.03613367
#
# Stress axis : x y z
#
# Youngs Moduli (GPa) = 107.36674 13.52297 60.17175
#
# Poissons Ratio (x) = 0.12904 0.18975
# Poissons Ratio (y) = 1.02451 1.15398
# Poissons Ratio (z) = 0.33858 0.25935
#
# Static dielectric constant tensor:
#      x y z
#    x 1.566000 0.000000 0.004950 
#    y 0.000000 1.580910 0.000000 
#    z 0.004950 0.000000 1.564680 
# 
# From -- ./inp_files/33466.got.cif
#   From: 2010.05.17/outbox.cif.g08.bks.cpg/sg11_17_cif.got.tgz:33466.got - 2010.06.03 12:22:45.
