data_PCOD9161436
_publ_section_title
;
Structure prediction by ZEFSAII (Michael W. Deem and Ramdas Pophale) SiO2 
 PCOD9161436
Probable space group: P 21/M
;
_chemical_formula_sum "Si O2"
_cell_formula_units_Z 26
_cell_length_a 15.321986
_cell_length_b 7.671624
_cell_length_c 12.944740
_cell_angle_alpha 90.000000
_cell_angle_beta 59.930833
_cell_angle_gamma 90.000000
_cell_volume 1316.810317
_symmetry_space_group_name_H-M "P 21/M"
_symmetry_group_IT_number 11
_symmetry_cell_setting 'monoclinic'
loop_
_space_group_symop_operation_xyz
x,y,z
-x,1/2+y,-z
-x,-y,-z
x,1/2-y,z
loop_
_atom_site_type_symbol
_atom_site_label
_atom_site_fract_x
_atom_site_fract_y
_atom_site_fract_z
Si Si1 0.146677 0.951271 0.329292
Si Si2 0.635236 0.951328 0.854141
Si Si3 0.848422 0.549089 0.010770
Si Si4 0.374895 0.944968 0.902648
Si Si5 0.067679 0.541974 0.821470
Si Si6 0.922167 0.957963 0.412771
Si Si7 0.483184 0.750000 0.202523
O O1 0.153432 0.750000 0.293014
O O2 0.037834 0.022018 0.358269
O O3 0.243853 0.046013 0.228631
O O4 0.142818 0.963123 0.456143
O O5 0.601715 0.750000 0.861672
O O6 0.590595 0.093875 0.802213
O O7 0.608510 0.011974 0.985766
O O8 0.836905 0.750000 0.985812
O O9 0.744761 0.457168 0.045467
O O10 0.871731 0.537587 0.119105
O O11 0.951207 0.478251 0.897826
O O12 0.407383 0.750000 0.857742
O O13 0.435907 0.096323 0.810018
O O14 0.065566 0.750000 0.838519
O O15 0.110187 0.500937 0.683724
O O16 0.922582 0.750000 0.427349
#
# Coordination Sequence:
#
# PCOD9161436 Si02
#       7
#     4   4   4   4   4   4   2
#     4  10  20  36  53  80 114 149 185 229 274 329
#     4  12  23  36  57  80 114 148 187 229 281 333
#     4  10  20  36  53  80 114 149 185 229 274 329
#     4  12  23  36  57  80 114 148 187 229 281 333
#     4  10  20  33  54  79 113 150 187 224 273 328
#     4  10  20  33  54  79 113 150 187 224 273 328
#     4  12  24  40  54  82 110 148 186 236 278 336
#
# _framework density 19.744682000000001
#
# number of rings (size 3 to 8) (size 9 to 14) (size 15 to 20)
#    0.000    1.231    3.077    3.692    0.000    6.154 
#    0.000    0.000    0.000    0.000    0.000    1.077 
#    0.000    0.000    0.000    0.000    0.000    0.000 
#
# Total GULP energy -144782.810405 kJ/mol
# GULP energy per Si atom -5568.569631 kJ/mol
# Density = 1.969974 g / cm^3
# Si number density = 19.744682 Si / 1000 Ang^3
#
#
#
# Elastic Constant Matrix: (Units=GPa)
#
#
# Indices 1 2 3 4 5 6 
#
# 1 50.0413 14.6839 -12.8924 0.0000 -3.9988 0.0000
# 2 14.6839 146.8441 -10.4992 0.0000 -9.5888 0.0000
# 3 -12.8924 -10.4992 41.7221 0.0000 11.8548 0.0000
# 4 0.0000 0.0000 0.0000 17.6283 0.0000 -0.8437
# 5 -3.9988 -9.5888 11.8548 0.0000 20.7995 0.0000
# 6 0.0000 0.0000 0.0000 -0.8437 0.0000 22.3270
#
#
#
# Elastic Compliance Matrix: (Units=1/GPa)
#
#
# Indices 1 2 3 4 5 6 
#
# 1 0.022149 -0.001768 0.006469 0.000000 -0.000244 0.000000
# 2 -0.001768 0.007198 0.000500 0.000000 0.002694 0.000000
# 3 0.006469 0.000500 0.030635 0.000000 -0.015987 0.000000
# 4 0.000000 0.000000 0.000000 0.056830 0.000000 0.002148
# 5 -0.000244 0.002694 -0.015987 0.000000 0.058385 0.000000
# 6 0.000000 0.000000 0.000000 0.002148 0.000000 0.044870
#
#
# Mechanical properties :
#
#
# Convention : Reuss Voigt Hill
#
# Bulk Modulus (GPa) = 14.20803 24.57689 19.39246
# Shear Modulus (GPa) = 21.44742 28.63865 25.04304
#
# Velocity S-wave (km/s) = 3.29939 3.81261 3.56524
# Velocity P-wave (km/s) = 4.66113 5.64408 5.17599
#
# Compressibility (1/GPa) = 0.07038273
#
# Stress axis : x y z
#
# Youngs Moduli (GPa) = 45.14787 138.91991 32.64238
#
# Poissons Ratio (x) = 0.24565 -0.21115
# Poissons Ratio (y) = 0.07983 -0.01631
# Poissons Ratio (z) = -0.29204 -0.06941
#
# Static dielectric constant tensor:
#      x y z
#    x 1.726560 0.000000 -0.010710 
#    y 0.000000 1.699070 0.000000 
#    z -0.010710 0.000000 1.691550 
# 
# From -- ./inp_files/37353.got.cif
#   From: 2010.05.17/outbox.cif.g08.bks.cpg/sg11_19_cif.got.tgz:37353.got - 2010.06.03 12:22:45.
