data_PCOD9161249
_publ_section_title
;
Structure prediction by ZEFSAII (Michael W. Deem and Ramdas Pophale) SiO2 
 PCOD9161249
Probable space group: P 21/M
;
_chemical_formula_sum "Si O2"
_cell_formula_units_Z 28
_cell_length_a 16.342989
_cell_length_b 9.312487
_cell_length_c 20.801411
_cell_angle_alpha 90.000000
_cell_angle_beta 151.493085
_cell_angle_gamma 90.000000
_cell_volume 1510.947542
_symmetry_space_group_name_H-M "P 21/M"
_symmetry_group_IT_number 11
_symmetry_cell_setting 'monoclinic'
loop_
_space_group_symop_operation_xyz
x,y,z
-x,1/2+y,-z
-x,-y,-z
x,1/2-y,z
loop_
_atom_site_type_symbol
_atom_site_label
_atom_site_fract_x
_atom_site_fract_y
_atom_site_fract_z
Si Si1 0.192545 0.920168 0.959601
Si Si2 0.473024 0.419304 0.737486
Si Si3 0.295404 0.587112 0.430794
Si Si4 0.088856 0.916628 0.155698
Si Si5 0.008115 0.077961 0.303665
Si Si6 0.922837 0.577292 0.508224
Si Si7 0.359005 0.081443 0.265922
O O1 0.152765 0.750000 0.939214
O O2 0.130787 0.966122 0.845948
O O3 0.392609 0.938785 0.111624
O O4 0.081214 0.006523 0.935112
O O5 0.476152 0.250000 0.721252
O O6 0.279121 0.455788 0.622020
O O7 0.549269 0.512401 0.732245
O O8 0.260152 0.750000 0.429384
O O9 0.218566 0.577093 0.306561
O O10 0.497248 0.565302 0.578726
O O11 0.188454 0.479228 0.401121
O O12 0.058639 0.750000 0.119106
O O13 0.186988 0.999622 0.167180
O O14 0.013429 0.250000 0.308276
O O15 0.986498 0.031314 0.362267
O O16 0.938622 0.750000 0.512335
O O17 0.000000 0.500000 0.500000
O O18 0.326085 0.250000 0.234150
#
# Coordination Sequence:
#
# PCOD9161249 Si02
#       7
#     4   4   4   4   4   4   4
#     4   9  19  36  57  78 106 143 182 222 262 310
#     4  10  21  38  57  79 107 141 178 219 270 319
#     4   9  18  31  49  76 107 140 180 225 268 311
#     4  10  20  33  50  75 109 147 185 224 265 312
#     4   9  17  33  57  81 105 138 177 216 262 316
#     4  10  21  37  59  85 110 136 170 214 266 322
#     4  11  21  32  50  77 109 144 185 227 268 311
#
# _framework density 18.531419
#
# number of rings (size 3 to 8) (size 9 to 14) (size 15 to 20)
#    0.000    2.286    1.429    1.286    0.000    3.429 
#    0.000    0.714    0.000    0.000    0.000    0.000 
#    0.000    0.000    0.000    0.000    0.000    0.000 
#
# Total GULP energy -156237.252945 kJ/mol
# GULP energy per Si atom -5579.901891 kJ/mol
# Density = 1.848924 g / cm^3
# Si number density = 18.531419 Si / 1000 Ang^3
#
#
#
# Elastic Constant Matrix: (Units=GPa)
#
#
# Indices 1 2 3 4 5 6 
#
# 1 114.8973 51.8850 35.2293 0.0000 2.8111 0.0000
# 2 51.8850 44.0794 31.0975 0.0000 0.3255 0.0000
# 3 35.2293 31.0975 87.1316 0.0000 -2.4316 0.0000
# 4 0.0000 0.0000 0.0000 16.0313 0.0000 2.2921
# 5 2.8111 0.3255 -2.4316 0.0000 12.6911 0.0000
# 6 0.0000 0.0000 0.0000 2.2921 0.0000 33.8026
#
#
#
# Elastic Compliance Matrix: (Units=1/GPa)
#
#
# Indices 1 2 3 4 5 6 
#
# 1 0.018745 -0.022215 0.000251 0.000000 -0.003534 0.000000
# 2 -0.022215 0.056753 -0.011237 0.000000 0.001312 0.000000
# 3 0.000251 -0.011237 0.015475 0.000000 0.003198 0.000000
# 4 0.000000 0.000000 0.000000 0.062989 0.000000 -0.004271
# 5 -0.003534 0.001312 0.003198 0.000000 0.080157 0.000000
# 6 0.000000 0.000000 0.000000 -0.004271 0.000000 0.029873
#
#
# Mechanical properties :
#
#
# Convention : Reuss Voigt Hill
#
# Bulk Modulus (GPa) = 40.69773 53.61465 47.15619
# Shear Modulus (GPa) = 14.76743 21.03143 17.89943
#
# Velocity S-wave (km/s) = 2.82598 3.37249 3.11126
# Velocity P-wave (km/s) = 5.71466 6.64526 6.19745
#
# Compressibility (1/GPa) = 0.02457140
#
# Stress axis : x y z
#
# Youngs Moduli (GPa) = 53.34836 17.62031 64.62054
#
# Poissons Ratio (x) = 0.39144 -0.01622
# Poissons Ratio (y) = 1.18514 0.72611
# Poissons Ratio (z) = -0.01339 0.19799
#
# Static dielectric constant tensor:
#      x y z
#    x 1.606680 0.000000 -0.052760 
#    y 0.000000 1.624640 0.000000 
#    z -0.052760 0.000000 1.681980 
# 
# From -- ./inp_files/37386.got.cif
#   From: 2010.05.17/outbox.cif.g08.bks.cpg/sg11_19_cif.got.tgz:37386.got - 2010.06.03 12:22:45.
