data_PCOD9161069
_publ_section_title
;
Structure prediction by ZEFSAII (Michael W. Deem and Ramdas Pophale) SiO2 
 PCOD9161069
Probable space group: P 21/M
;
_chemical_formula_sum "Si O2"
_cell_formula_units_Z 28
_cell_length_a 17.888178
_cell_length_b 9.324417
_cell_length_c 18.393617
_cell_angle_alpha 90.000000
_cell_angle_beta 156.387317
_cell_angle_gamma 90.000000
_cell_volume 1228.891943
_symmetry_space_group_name_H-M "P 21/M"
_symmetry_group_IT_number 11
_symmetry_cell_setting 'monoclinic'
loop_
_space_group_symop_operation_xyz
x,y,z
-x,1/2+y,-z
-x,-y,-z
x,1/2-y,z
loop_
_atom_site_type_symbol
_atom_site_label
_atom_site_fract_x
_atom_site_fract_y
_atom_site_fract_z
Si Si1 0.759917 0.412750 0.578482
Si Si2 0.789672 0.411492 0.889838
Si Si3 0.390466 0.089195 0.148805
Si Si4 0.238332 0.087648 0.276209
Si Si5 0.971758 0.915194 0.649347
Si Si6 0.153471 0.078272 0.687278
Si Si7 0.589547 0.911400 0.211616
O O1 0.818556 0.250000 0.647854
O O2 0.578470 0.405782 0.365432
O O3 0.711349 0.498305 0.607833
O O4 0.914361 0.498270 0.669834
O O5 0.713953 0.250000 0.821209
O O6 0.742037 0.487151 0.922903
O O7 0.714645 0.504973 0.755806
O O8 0.012402 0.404506 0.078282
O O9 0.316682 0.250000 0.075722
O O10 0.455367 0.023601 0.130446
O O11 0.311908 0.250000 0.341675
O O12 0.022257 0.750000 0.709081
O O13 0.781624 0.911856 0.430762
O O14 0.124310 0.999225 0.737603
O O15 0.118115 0.250000 0.661538
O O16 0.343046 0.059952 0.810311
O O17 0.000000 0.000000 0.500000
O O18 0.512732 0.750000 0.147694
#
# Coordination Sequence:
#
# PCOD9161069 Si02
#       7
#     4   4   4   4   4   4   4
#     4  10  20  33  50  74 103 133 164 201 246 292
#     4  10  21  37  56  75  97 127 162 201 245 292
#     4  10  20  32  49  74 102 131 164 202 244 290
#     4  10  21  37  56  76  97 125 163 203 243 291
#     4   9  16  26  41  63  93 128 163 201 243 286
#     4   9  15  23  37  59  89 126 164 200 241 288
#     4   8  15  26  40  61  92 128 162 198 241 285
#
# _framework density 22.784752999999998
#
# number of rings (size 3 to 8) (size 9 to 14) (size 15 to 20)
#    0.000    2.571    0.000    3.429    0.000    8.000 
#    0.000    0.000    0.000    0.000    0.000    1.000 
#    0.000    0.000    0.000    0.000    0.000    0.000 
#
# Total GULP energy -156563.178754 kJ/mol
# GULP energy per Si atom -5591.542098 kJ/mol
# Density = 2.273289 g / cm^3
# Si number density = 22.784753 Si / 1000 Ang^3
#
#
#
# Elastic Constant Matrix: (Units=GPa)
#
#
# Indices 1 2 3 4 5 6 
#
# 1 16.1872 43.4699 63.3609 0.0000 50.3056 0.0000
# 2 43.4699 191.7991 50.4627 0.0000 25.6089 0.0000
# 3 63.3609 50.4627 42.5886 0.0000 -22.8855 0.0000
# 4 0.0000 0.0000 0.0000 8.6582 0.0000 5.6364
# 5 50.3056 25.6089 -22.8855 0.0000 14.8248 0.0000
# 6 0.0000 0.0000 0.0000 5.6364 0.0000 44.8799
#
#
#
# Elastic Compliance Matrix: (Units=1/GPa)
#
#
# Indices 1 2 3 4 5 6 
#
# 1 0.002371 -0.004387 0.008338 0.000000 0.012405 0.000000
# 2 -0.004387 0.007086 -0.002625 0.000000 -0.001406 0.000000
# 3 0.008338 -0.002625 0.008327 0.000000 -0.010903 0.000000
# 4 0.000000 0.000000 0.000000 0.125780 0.000000 -0.015797
# 5 0.012405 -0.001406 -0.010903 0.000000 0.010956 0.000000
# 6 0.000000 0.000000 0.000000 -0.015797 0.000000 0.024266
#
#
# Mechanical properties :
#
#
# Convention : Reuss Voigt Hill
#
# Bulk Modulus (GPa) = 48.93442 62.79577 55.86510
# Shear Modulus (GPa) = 27.33032 19.89135 23.61083
#
# Velocity S-wave (km/s) = 3.46714 2.95788 3.22259
# Velocity P-wave (km/s) = 6.12793 6.26783 6.19827
#
# Compressibility (1/GPa) = 0.02043551
#
# Stress axis : x y z
#
# Youngs Moduli (GPa) = 421.81904 141.11472 120.08636
#
# Poissons Ratio (x) = 0.61911 -1.00124
# Poissons Ratio (y) = 1.85065 0.31521
# Poissons Ratio (z) = -3.51699 0.37040
#
# Static dielectric constant tensor:
#      x y z
#    x 1.805460 0.000000 0.001260 
#    y 0.000000 1.742090 0.000000 
#    z 0.001260 0.000000 1.908360 
# 
# From -- ./inp_files/64148.got.cif
#   From: 2010.05.17/outbox.cif.g08.bks.cpg/sg11_33_cif.got.tgz:64148.got - 2010.06.03 12:22:45.
