data_PCOD9161419
_publ_section_title
;
Structure prediction by ZEFSAII (Michael W. Deem and Ramdas Pophale) SiO2 
 PCOD9161419
Probable space group: P 21/M
;
_chemical_formula_sum "Si O2"
_cell_formula_units_Z 22
_cell_length_a 11.205674
_cell_length_b 9.619700
_cell_length_c 21.511445
_cell_angle_alpha 90.000000
_cell_angle_beta 156.635744
_cell_angle_gamma 90.000000
_cell_volume 919.591031
_symmetry_space_group_name_H-M "P 21/M"
_symmetry_group_IT_number 11
_symmetry_cell_setting 'monoclinic'
loop_
_space_group_symop_operation_xyz
x,y,z
-x,1/2+y,-z
-x,-y,-z
x,1/2-y,z
loop_
_atom_site_type_symbol
_atom_site_label
_atom_site_fract_x
_atom_site_fract_y
_atom_site_fract_z
Si Si1 0.662788 0.590757 0.491101
Si Si2 0.249556 0.904299 0.969549
Si Si3 0.337578 0.023816 0.722698
Si Si4 0.044072 0.750000 0.538796
Si Si5 0.634983 0.909625 0.754291
Si Si6 0.970424 0.090724 0.736208
O O1 0.711269 0.750000 0.494145
O O2 0.585211 0.487963 0.398005
O O3 0.353219 0.595741 0.383365
O O4 0.911207 0.517798 0.652549
O O5 0.255376 0.750000 0.943403
O O6 0.953414 0.905243 0.872496
O O7 0.529158 0.926399 0.148569
O O8 0.200347 0.023599 0.895224
O O9 0.124855 0.131622 0.586382
O O10 0.181249 0.874993 0.648921
O O11 0.619344 0.993911 0.810349
O O12 0.518392 0.750000 0.710321
O O13 0.039901 0.250000 0.751351
#
# Coordination Sequence:
#
# PCOD9161419 Si02
#       6
#     4   4   4   2   4   4
#     4   9  17  29  47  74 109 144 175 206 253 319
#     4  10  20  33  53  81 113 142 170 216 271 319
#     4  11  21  40  54  80 103 141 180 226 264 319
#     4  10  24  38  58  70 102 142 192 220 262 306
#     4  10  20  33  53  81 113 142 170 216 271 319
#     4   9  17  29  47  74 109 144 175 206 253 319
#
# _framework density 23.923677000000001
#
# number of rings (size 3 to 8) (size 9 to 14) (size 15 to 20)
#    0.000    2.182    1.818    1.636    2.545    4.364 
#    0.000    0.000    0.000    0.000    0.000    7.636 
#    0.000    0.000    0.000    0.000    0.000    0.000 
#
# Total GULP energy -122656.153182 kJ/mol
# GULP energy per Si atom -5575.279690 kJ/mol
# Density = 2.386923 g / cm^3
# Si number density = 23.923677 Si / 1000 Ang^3
#
#
#
# Elastic Constant Matrix: (Units=GPa)
#
#
# Indices 1 2 3 4 5 6 
#
# 1 72.1706 -15.0853 22.2428 0.0000 114.3694 0.0000
# 2 -15.0853 210.8912 8.8463 0.0000 -117.9027 0.0000
# 3 22.2428 8.8463 130.0346 0.0000 84.8535 0.0000
# 4 0.0000 0.0000 0.0000 31.1088 0.0000 -5.4130
# 5 114.3694 -117.9027 84.8535 0.0000 495.0387 0.0000
# 6 0.0000 0.0000 0.0000 -5.4130 0.0000 57.0955
#
#
#
# Elastic Compliance Matrix: (Units=1/GPa)
#
#
# Indices 1 2 3 4 5 6 
#
# 1 0.022254 -0.001457 -0.000142 0.000000 -0.005464 0.000000
# 2 -0.001457 0.005793 -0.001424 0.000000 0.001961 0.000000
# 3 -0.000142 -0.001424 0.009020 0.000000 -0.001853 0.000000
# 4 0.000000 0.000000 0.000000 0.032684 0.000000 0.003099
# 5 -0.005464 0.001961 -0.001853 0.000000 0.004067 0.000000
# 6 0.000000 0.000000 0.000000 0.003099 0.000000 0.017808
#
#
# Mechanical properties :
#
#
# Convention : Reuss Voigt Hill
#
# Bulk Modulus (GPa) = 32.23559 49.45598 40.84578
# Shear Modulus (GPa) = 46.29009 143.12145 94.70577
#
# Velocity S-wave (km/s) = 4.40353 7.74300 6.29862
# Velocity P-wave (km/s) = 6.27362 10.03275 8.36703
#
# Compressibility (1/GPa) = 0.03102161
#
# Stress axis : x y z
#
# Youngs Moduli (GPa) = 44.93520 172.61078 110.86078
#
# Poissons Ratio (x) = 0.25149 0.01574
# Poissons Ratio (y) = 0.06547 0.15789
# Poissons Ratio (z) = 0.00638 0.24584
#
# Static dielectric constant tensor:
#      x y z
#    x 3.958250 0.000000 0.417790 
#    y 0.000000 1.806180 0.000000 
#    z 0.417790 0.000000 1.899030 
# 
# From -- ./inp_files/33693.got.cif
#   From: 2010.05.17/outbox.cif.g08.bks.cpg/sg11_17_cif.got.tgz:33693.got - 2010.06.03 12:22:45.
