data_PCOD9161861
_publ_section_title
;
Structure prediction by ZEFSAII (Michael W. Deem and Ramdas Pophale) SiO2 
 PCOD9161861
Probable space group: P 21/M
;
_chemical_formula_sum "Si O2"
_cell_formula_units_Z 24
_cell_length_a 12.971074
_cell_length_b 8.484088
_cell_length_c 12.155715
_cell_angle_alpha 90.000000
_cell_angle_beta 89.613670
_cell_angle_gamma 90.000000
_cell_volume 1337.678473
_symmetry_space_group_name_H-M "P 21/M"
_symmetry_group_IT_number 11
_symmetry_cell_setting 'monoclinic'
loop_
_space_group_symop_operation_xyz
x,y,z
-x,1/2+y,-z
-x,-y,-z
x,1/2-y,z
loop_
_atom_site_type_symbol
_atom_site_label
_atom_site_fract_x
_atom_site_fract_y
_atom_site_fract_z
Si Si1 0.609650 0.061449 0.630561
Si Si2 0.626047 0.940659 0.387984
Si Si3 0.985853 0.439148 0.623398
Si Si4 0.205091 0.438683 0.235391
Si Si5 0.814607 0.557968 0.236656
Si Si6 0.117366 0.059180 0.001969
O O1 0.612275 0.250000 0.630709
O O2 0.490253 0.010018 0.642535
O O3 0.646872 0.001484 0.510842
O O4 0.684973 0.998242 0.723410
O O5 0.628126 0.750000 0.391379
O O6 0.712710 0.995076 0.301810
O O7 0.982941 0.250000 0.622554
O O8 0.882104 0.501934 0.679825
O O9 0.000000 0.500000 0.500000
O O10 0.083509 0.489999 0.696745
O O11 0.205110 0.250000 0.236130
O O12 0.173033 0.493491 0.113462
O O13 0.812792 0.750000 0.236648
O O14 0.826218 0.506882 0.110363
O O15 0.115152 0.250000 0.002224
O O16 0.000000 0.000000 0.000000
#
# Coordination Sequence:
#
# PCOD9161861 Si02
#       6
#     4   4   4   4   4   4
#     4  10  20  34  55  81 109 142 179 222 271 323
#     4   9  18  35  58  81 107 140 178 221 273 329
#     4  11  21  33  53  80 111 140 173 220 272 328
#     4  11  22  35  53  77 108 144 182 222 267 322
#     4   9  18  34  55  77 103 137 175 219 271 322
#     4  10  20  36  56  77 103 141 183 223 269 321
#
# _framework density 17.941531999999999
#
# number of rings (size 3 to 8) (size 9 to 14) (size 15 to 20)
#    0.000    2.000    1.667    2.500    0.000    2.667 
#    0.000    2.500    0.000    0.000    0.000    0.000 
#    0.000    0.000    0.000    0.000    0.000    0.000 
#
# Total GULP energy -133999.738719 kJ/mol
# GULP energy per Si atom -5583.322447 kJ/mol
# Density = 1.790070 g / cm^3
# Si number density = 17.941532 Si / 1000 Ang^3
#
#
#
# Elastic Constant Matrix: (Units=GPa)
#
#
# Indices 1 2 3 4 5 6 
#
# 1 89.0005 16.1559 51.1787 0.0000 16.2563 0.0000
# 2 16.1559 18.6232 17.9111 0.0000 4.9752 0.0000
# 3 51.1787 17.9111 114.8637 0.0000 24.1932 0.0000
# 4 0.0000 0.0000 0.0000 21.8323 0.0000 1.9657
# 5 16.2563 4.9752 24.1932 0.0000 33.2205 0.0000
# 6 0.0000 0.0000 0.0000 1.9657 0.0000 20.9315
#
#
#
# Elastic Compliance Matrix: (Units=1/GPa)
#
#
# Indices 1 2 3 4 5 6 
#
# 1 0.016357 -0.008232 -0.005408 0.000000 -0.002833 0.000000
# 2 -0.008232 0.067519 -0.006590 0.000000 -0.001284 0.000000
# 3 -0.005408 -0.006590 0.013439 0.000000 -0.006154 0.000000
# 4 0.000000 0.000000 0.000000 0.046194 0.000000 -0.004338
# 5 -0.002833 -0.001284 -0.006154 0.000000 0.036163 0.000000
# 6 0.000000 0.000000 0.000000 -0.004338 0.000000 0.048182
#
#
# Mechanical properties :
#
#
# Convention : Reuss Voigt Hill
#
# Bulk Modulus (GPa) = 17.58842 43.66433 30.62638
# Shear Modulus (GPa) = 17.40539 24.34630 20.87585
#
# Velocity S-wave (km/s) = 3.11805 3.68772 3.41478
# Velocity P-wave (km/s) = 4.77362 6.52090 5.71444
#
# Compressibility (1/GPa) = 0.05685558
#
# Stress axis : x y z
#
# Youngs Moduli (GPa) = 61.13410 14.81058 74.40875
#
# Poissons Ratio (x) = 0.12193 0.40239
# Poissons Ratio (y) = 0.50328 0.49036
# Poissons Ratio (z) = 0.33060 0.09760
#
# Static dielectric constant tensor:
#      x y z
#    x 1.601700 0.000000 0.003590 
#    y 0.000000 1.612580 0.000000 
#    z 0.003590 0.000000 1.600420 
# 
# From -- ./inp_files/33764.got.cif
#   From: 2010.05.17/outbox.cif.g08.bks.cpg/sg11_17_cif.got.tgz:33764.got - 2010.06.03 12:22:45.
