data_PCOD9161954
_publ_section_title
;
Structure prediction by ZEFSAII (Michael W. Deem and Ramdas Pophale) SiO2 
 PCOD9161954
Probable space group: P 21/M
;
_chemical_formula_sum "Si O2"
_cell_formula_units_Z 32
_cell_length_a 17.374993
_cell_length_b 20.790687
_cell_length_c 16.622144
_cell_angle_alpha 90.000000
_cell_angle_beta 162.999166
_cell_angle_gamma 90.000000
_cell_volume 1755.644318
_symmetry_space_group_name_H-M "P 21/M"
_symmetry_group_IT_number 11
_symmetry_cell_setting 'monoclinic'
loop_
_space_group_symop_operation_xyz
x,y,z
-x,1/2+y,-z
-x,-y,-z
x,1/2-y,z
loop_
_atom_site_type_symbol
_atom_site_label
_atom_site_fract_x
_atom_site_fract_y
_atom_site_fract_z
Si Si1 0.918173 0.060656 0.473752
Si Si2 0.992193 0.941678 0.056637
Si Si3 0.004574 0.175318 0.055707
Si Si4 0.495499 0.978198 0.654584
Si Si5 0.779954 0.381741 0.175763
Si Si6 0.296077 0.175371 0.613292
Si Si7 0.512176 0.368773 0.657110
Si Si8 0.394428 0.026148 0.047300
O O1 0.858763 0.114706 0.348198
O O2 0.657042 0.042649 0.260993
O O3 0.000000 0.000000 0.500000
O O4 0.157005 0.069028 0.774516
O O5 0.204906 0.957773 0.337596
O O6 0.055595 0.875390 0.074896
O O7 0.705141 0.941310 0.809049
O O8 0.000000 0.000000 0.000000
O O9 0.989941 0.250000 0.018290
O O10 0.293648 0.157884 0.377425
O O11 0.792824 0.161051 0.914449
O O12 0.555269 0.967209 0.807914
O O13 0.527539 0.054164 0.668384
O O14 0.036516 0.362283 0.381553
O O15 0.533393 0.335822 0.913072
O O16 0.683877 0.452190 0.050097
O O17 0.229451 0.250000 0.538994
O O18 0.411871 0.150180 0.644955
#
# Coordination Sequence:
#
# PCOD9161954 Si02
#       8
#     4   4   4   4   4   4   4   4
#     4  10  20  34  56  83 111 146 183 231 284 342
#     4  12  23  40  59  86 120 151 199 245 296 356
#     4  12  25  41  61  84 114 160 203 245 291 348
#     4  12  23  37  62  88 118 159 187 240 310 348
#     4  11  21  36  56  79 116 157 189 236 283 331
#     4  12  24  36  53  83 120 162 201 232 273 346
#     4  12  23  39  59  83 123 159 199 234 284 360
#     4  11  21  36  56  86 116 143 190 235 294 355
#
# _framework density 18.226927
#
# number of rings (size 3 to 8) (size 9 to 14) (size 15 to 20)
#    0.000    0.500    3.750    7.875    1.750    0.000 
#    0.000    0.000    0.000    0.000    0.000   17.500 
#    0.000    0.000    0.000    0.000    0.000    0.000 
#
# Total GULP energy -178943.402867 kJ/mol
# GULP energy per Si atom -5591.981340 kJ/mol
# Density = 1.818544 g / cm^3
# Si number density = 18.226927 Si / 1000 Ang^3
#
#
#
# Elastic Constant Matrix: (Units=GPa)
#
#
# Indices 1 2 3 4 5 6 
#
# 1 82.1520 41.9405 24.7711 0.0000 8.0261 0.0000
# 2 41.9405 68.9841 11.0447 0.0000 0.3703 0.0000
# 3 24.7711 11.0447 91.4155 0.0000 1.6041 0.0000
# 4 0.0000 0.0000 0.0000 4.2242 0.0000 -1.8769
# 5 8.0261 0.3703 1.6041 0.0000 46.3112 0.0000
# 6 0.0000 0.0000 0.0000 -1.8769 0.0000 8.7781
#
#
#
# Elastic Compliance Matrix: (Units=1/GPa)
#
#
# Indices 1 2 3 4 5 6 
#
# 1 0.019303 -0.011105 -0.003834 0.000000 -0.003124 0.000000
# 2 -0.011105 0.021171 0.000421 0.000000 0.001741 0.000000
# 3 -0.003834 0.000421 0.011923 0.000000 0.000248 0.000000
# 4 0.000000 0.000000 0.000000 0.261581 0.000000 0.055929
# 5 -0.003124 0.001741 0.000248 0.000000 0.022112 0.000000
# 6 0.000000 0.000000 0.000000 0.055929 0.000000 0.125878
#
#
# Mechanical properties :
#
#
# Convention : Reuss Voigt Hill
#
# Bulk Modulus (GPa) = 42.80815 44.22936 43.51876
# Shear Modulus (GPa) = 10.02422 22.84906 16.43664
#
# Velocity S-wave (km/s) = 2.34768 3.54445 3.00622
# Velocity P-wave (km/s) = 5.55752 6.40854 5.99814
#
# Compressibility (1/GPa) = 0.02336004
#
# Stress axis : x y z
#
# Youngs Moduli (GPa) = 51.80448 47.23426 83.87278
#
# Poissons Ratio (x) = 0.52455 0.32158
# Poissons Ratio (y) = 0.57530 -0.03530
# Poissons Ratio (z) = 0.19863 -0.01988
#
# Static dielectric constant tensor:
#      x y z
#    x 1.622610 0.000000 -0.025920 
#    y 0.000000 1.625310 0.000000 
#    z -0.025920 0.000000 1.645760 
# 
# From -- ./inp_files/52718.got.cif
#   From: 2010.05.17/outbox.cif.g08.bks.cpg/sg11_27_cif.got.tgz:52718.got - 2010.06.03 12:22:45.
