data_PCOD9161610
_publ_section_title
;
Structure prediction by ZEFSAII (Michael W. Deem and Ramdas Pophale) SiO2 
 PCOD9161610
Probable space group: P 21/M
;
_chemical_formula_sum "Si O2"
_cell_formula_units_Z 28
_cell_length_a 9.561628
_cell_length_b 7.681665
_cell_length_c 30.314438
_cell_angle_alpha 90.000000
_cell_angle_beta 37.875619
_cell_angle_gamma 90.000000
_cell_volume 1367.002421
_symmetry_space_group_name_H-M "P 21/M"
_symmetry_group_IT_number 11
_symmetry_cell_setting 'monoclinic'
loop_
_space_group_symop_operation_xyz
x,y,z
-x,1/2+y,-z
-x,-y,-z
x,1/2-y,z
loop_
_atom_site_type_symbol
_atom_site_label
_atom_site_fract_x
_atom_site_fract_y
_atom_site_fract_z
Si Si1 0.012128 0.954334 0.363852
Si Si2 0.766228 0.040378 0.930072
Si Si3 0.832965 0.959746 0.501456
Si Si4 0.082124 0.540462 0.203117
Si Si5 0.316586 0.542927 0.633741
Si Si6 0.917894 0.959306 0.069541
Si Si7 0.599340 0.463622 0.796140
O O1 0.055379 0.750000 0.360419
O O2 0.932701 0.028613 0.430280
O O3 0.240316 0.025025 0.283885
O O4 0.814511 0.969453 0.376319
O O5 0.787345 0.250000 0.924457
O O6 0.867639 0.974994 0.858386
O O7 0.907874 0.974143 0.936795
O O8 0.500000 0.000000 0.000000
O O9 0.818407 0.750000 0.501703
O O10 0.574500 0.023256 0.573103
O O11 0.000000 0.000000 0.500000
O O12 0.094267 0.750000 0.198952
O O13 0.274637 0.481601 0.190106
O O14 0.839523 0.494997 0.284910
O O15 0.321962 0.750000 0.626471
O O16 0.910856 0.750000 0.075134
O O17 0.660125 0.022625 0.141073
O O18 0.000000 0.000000 0.000000
O O19 0.601056 0.250000 0.795421
#
# Coordination Sequence:
#
# PCOD9161610 Si02
#       7
#     4   4   4   4   4   4   4
#     4   9  18  35  57  78 100 135 177 213 256 315
#     4  10  21  35  54  79 106 138 178 218 260 310
#     4  10  22  36  52  77 108 140 176 217 264 313
#     4   9  18  34  54  75 101 139 179 213 255 312
#     4  10  20  34  53  80 109 136 170 216 263 310
#     4  10  20  34  52  76 103 133 169 211 256 304
#     4   8  15  30  52  73  96 127 168 212 249 294
#
# _framework density 20.482773000000002
#
# number of rings (size 3 to 8) (size 9 to 14) (size 15 to 20)
#    0.000    2.571    0.000    2.571    0.000    5.143 
#    0.000    7.143    0.000    0.000    0.000    0.000 
#    0.000    0.000    0.000    0.000    0.000    0.000 
#
# Total GULP energy -156307.227870 kJ/mol
# GULP energy per Si atom -5582.400995 kJ/mol
# Density = 2.043615 g / cm^3
# Si number density = 20.482773 Si / 1000 Ang^3
#
#
#
# Elastic Constant Matrix: (Units=GPa)
#
#
# Indices 1 2 3 4 5 6 
#
# 1 157.4907 -2.6724 148.2221 0.0000 -6.1957 0.0000
# 2 -2.6724 33.7301 0.4145 0.0000 1.2053 0.0000
# 3 148.2221 0.4145 213.7838 0.0000 -0.2335 0.0000
# 4 0.0000 0.0000 0.0000 20.7194 0.0000 -1.4091
# 5 -6.1957 1.2053 -0.2335 0.0000 41.4726 0.0000
# 6 0.0000 0.0000 0.0000 -1.4091 0.0000 19.7509
#
#
#
# Elastic Compliance Matrix: (Units=1/GPa)
#
#
# Indices 1 2 3 4 5 6 
#
# 1 0.018651 0.001541 -0.012931 0.000000 0.002669 0.000000
# 2 0.001541 0.029806 -0.001127 0.000000 -0.000642 0.000000
# 3 -0.012931 -0.001127 0.013643 0.000000 -0.001822 0.000000
# 4 0.000000 0.000000 0.000000 0.048499 0.000000 0.003460
# 5 0.002669 -0.000642 -0.001822 0.000000 0.024519 0.000000
# 6 0.000000 0.000000 0.000000 0.003460 0.000000 0.050878
#
#
# Mechanical properties :
#
#
# Convention : Reuss Voigt Hill
#
# Bulk Modulus (GPa) = 26.97878 77.43702 52.20790
# Shear Modulus (GPa) = 22.38271 33.65791 28.02031
#
# Velocity S-wave (km/s) = 3.30928 4.05808 3.70265
# Velocity P-wave (km/s) = 5.27274 7.73597 6.61993
#
# Compressibility (1/GPa) = 0.03706616
#
# Stress axis : x y z
#
# Youngs Moduli (GPa) = 53.61627 33.55028 73.29507
#
# Poissons Ratio (x) = -0.05171 0.94780
# Poissons Ratio (y) = -0.08264 0.08261
# Poissons Ratio (z) = 0.69333 0.03781
#
# Static dielectric constant tensor:
#      x y z
#    x 1.697940 0.000000 0.003330 
#    y 0.000000 1.726530 0.000000 
#    z 0.003330 0.000000 1.722710 
# 
# From -- ./inp_files/70815.got.cif
#   From: 2010.05.17/outbox.cif.g08.bks.cpg/sg11_36_cif.got.tgz:70815.got - 2010.06.03 12:22:45.
