data_PCOD9161621
_publ_section_title
;
Structure prediction by ZEFSAII (Michael W. Deem and Ramdas Pophale) SiO2 
 PCOD9161621
Probable space group: P 21/M
;
_chemical_formula_sum "Si O2"
_cell_formula_units_Z 28
_cell_length_a 9.228209
_cell_length_b 27.124383
_cell_length_c 6.573386
_cell_angle_alpha 90.000000
_cell_angle_beta 128.200188
_cell_angle_gamma 90.000000
_cell_volume 1293.030505
_symmetry_space_group_name_H-M "P 21/M"
_symmetry_group_IT_number 11
_symmetry_cell_setting 'monoclinic'
loop_
_space_group_symop_operation_xyz
x,y,z
-x,1/2+y,-z
-x,-y,-z
x,1/2-y,z
loop_
_atom_site_type_symbol
_atom_site_label
_atom_site_fract_x
_atom_site_fract_y
_atom_site_fract_z
Si Si1 0.980588 0.383723 0.181853
Si Si2 0.283298 0.458147 0.379674
Si Si3 0.805302 0.805549 0.902719
Si Si4 0.050570 0.804199 0.515362
Si Si5 0.560771 0.390698 0.882565
Si Si6 0.531755 0.037445 0.214260
Si Si7 0.483472 0.693361 0.889003
O O1 0.082627 0.435836 0.246389
O O2 0.089810 0.346060 0.134320
O O3 0.997177 0.354218 0.407989
O O4 0.761946 0.388216 0.956790
O O5 0.316735 0.512036 0.507405
O O6 0.354187 0.457862 0.208058
O O7 0.422406 0.422029 0.625247
O O8 0.791595 0.750000 0.803213
O O9 0.605170 0.823420 0.803717
O O10 0.925293 0.802013 0.210817
O O11 0.031197 0.750000 0.605850
O O12 0.267173 0.807925 0.654106
O O13 0.581730 0.414387 0.128512
O O14 0.485102 0.337145 0.877080
O O15 0.500000 0.000000 0.000000
O O16 0.537570 0.750000 0.970412
#
# Coordination Sequence:
#
# PCOD9161621 Si02
#       7
#     4   4   4   4   4   4   4
#     4  11  22  33  55  86 110 142 185 229 277 331
#     4  10  21  39  60  82 109 141 181 229 280 329
#     4  10  20  34  52  76 109 149 190 228 268 322
#     4   9  19  36  54  77 113 151 185 226 274 322
#     4  10  21  37  58  84 113 145 181 224 274 328
#     4   9  20  41  62  80 109 145 181 228 278 328
#     4   9  18  34  56  81 112 149 184 220 267 322
#
# _framework density 21.654555999999999
#
# number of rings (size 3 to 8) (size 9 to 14) (size 15 to 20)
#    0.000    2.286    0.000    2.143    0.000    5.714 
#    0.000    7.143    0.000    7.714    0.000    0.000 
#    0.000    0.000    0.000    0.000    0.000    0.000 
#
# Total GULP energy -156179.350024 kJ/mol
# GULP energy per Si atom -5577.833929 kJ/mol
# Density = 2.160527 g / cm^3
# Si number density = 21.654556 Si / 1000 Ang^3
#
#
#
# Elastic Constant Matrix: (Units=GPa)
#
#
# Indices 1 2 3 4 5 6 
#
# 1 117.1027 2.6514 20.1059 0.0000 -12.2352 0.0000
# 2 2.6514 40.0243 3.5534 0.0000 -10.0058 0.0000
# 3 20.1059 3.5534 29.1471 0.0000 -9.9256 0.0000
# 4 0.0000 0.0000 0.0000 28.6395 0.0000 -2.5123
# 5 -12.2352 -10.0058 -9.9256 0.0000 20.3643 0.0000
# 6 0.0000 0.0000 0.0000 -2.5123 0.0000 32.1092
#
#
#
# Elastic Compliance Matrix: (Units=1/GPa)
#
#
# Indices 1 2 3 4 5 6 
#
# 1 0.009869 0.000730 -0.005701 0.000000 0.003509 0.000000
# 2 0.000730 0.028596 0.001132 0.000000 0.015041 0.000000
# 3 -0.005701 0.001132 0.044515 0.000000 0.018827 0.000000
# 4 0.000000 0.000000 0.000000 0.035158 0.000000 0.002751
# 5 0.003509 0.015041 0.018827 0.000000 0.067780 0.000000
# 6 0.000000 0.000000 0.000000 0.002751 0.000000 0.031359
#
#
# Mechanical properties :
#
#
# Convention : Reuss Voigt Hill
#
# Bulk Modulus (GPa) = 13.28015 26.54395 19.91205
# Shear Modulus (GPa) = 19.99553 26.88684 23.44118
#
# Velocity S-wave (km/s) = 3.04202 3.52749 3.29371
# Velocity P-wave (km/s) = 4.29937 5.37359 4.86621
#
# Compressibility (1/GPa) = 0.07530034
#
# Stress axis : x y z
#
# Youngs Moduli (GPa) = 101.33241 34.96992 22.46437
#
# Poissons Ratio (x) = -0.02551 0.12808
# Poissons Ratio (y) = -0.07393 -0.02544
# Poissons Ratio (z) = 0.57774 -0.03960
#
# Static dielectric constant tensor:
#      x y z
#    x 1.797410 0.000000 -0.023910 
#    y 0.000000 1.896760 0.000000 
#    z -0.023910 0.000000 1.719370 
# 
# From -- ./inp_files/3464.got.cif
#   From: 2010.05.17/outbox.cif.g08.bks.cpg/sg11_2_cif.got.tgz:3464.got - 2010.06.03 12:22:45.
