data_PCOD9161525
_publ_section_title
;
Structure prediction by ZEFSAII (Michael W. Deem and Ramdas Pophale) SiO2 
 PCOD9161525
Probable space group: P 21/M
;
_chemical_formula_sum "Si O2"
_cell_formula_units_Z 32
_cell_length_a 22.329262
_cell_length_b 7.430340
_cell_length_c 28.589485
_cell_angle_alpha 90.000000
_cell_angle_beta 16.747004
_cell_angle_gamma 90.000000
_cell_volume 1366.791532
_symmetry_space_group_name_H-M "P 21/M"
_symmetry_group_IT_number 11
_symmetry_cell_setting 'monoclinic'
loop_
_space_group_symop_operation_xyz
x,y,z
-x,1/2+y,-z
-x,-y,-z
x,1/2-y,z
loop_
_atom_site_type_symbol
_atom_site_label
_atom_site_fract_x
_atom_site_fract_y
_atom_site_fract_z
Si Si1 0.457397 0.956712 0.823295
Si Si2 0.998944 0.450874 0.146858
Si Si3 0.225914 0.530214 0.231536
Si Si4 0.036660 0.528694 0.724996
Si Si5 0.121643 0.464915 0.956443
Si Si6 0.590268 0.032072 0.622142
Si Si7 0.622952 0.542959 0.985145
Si Si8 0.853305 0.964268 0.566250
O O1 0.401524 0.750000 0.874697
O O2 0.618641 0.032888 0.740467
O O3 0.245146 0.059632 0.974439
O O4 0.584178 0.964176 0.679803
O O5 0.908566 0.250000 0.210196
O O6 0.006215 0.536898 0.089708
O O7 0.912627 0.530833 0.259808
O O8 0.234702 0.750000 0.224778
O O9 0.282310 0.463806 0.138255
O O10 0.997085 0.469891 0.416443
O O11 0.394450 0.465226 0.144241
O O12 0.031803 0.750000 0.728983
O O13 0.806271 0.466967 0.880758
O O14 0.215231 0.473639 0.554855
O O15 0.130488 0.250000 0.956896
O O16 0.361960 0.525187 0.773905
O O17 0.000000 0.500000 0.000000
O O18 0.595745 0.250000 0.619225
O O19 0.596161 0.750000 0.018523
O O20 0.830436 0.750000 0.578854
O O21 0.000000 0.000000 0.500000
#
# Coordination Sequence:
#
# PCOD9161525 Si02
#       8
#     4   4   4   4   4   4   4   4
#     4  10  20  34  50  73 104 137 174 217 263 310
#     4   9  19  35  56  80 104 136 174 211 255 307
#     4   9  18  32  45  64  93 124 162 205 253 302
#     4   9  17  31  54  79 101 127 170 219 255 297
#     4   9  18  33  54  79 106 138 172 203 244 298
#     4   9  18  34  56  81 103 132 173 210 250 305
#     4   9  17  29  49  71  90 121 161 202 251 302
#     4  10  22  34  46  66  95 130 170 215 260 303
#
# _framework density 23.412495
#
# number of rings (size 3 to 8) (size 9 to 14) (size 15 to 20)
#    0.000    2.750    0.000    1.875    1.750    3.500 
#    0.000    1.875    0.000    0.000    0.000    0.000 
#    0.000    0.000    0.000    0.000    0.000    0.000 
#
# Total GULP energy -178597.544586 kJ/mol
# GULP energy per Si atom -5581.173268 kJ/mol
# Density = 2.335921 g / cm^3
# Si number density = 23.412495 Si / 1000 Ang^3
#
#
#
# Elastic Constant Matrix: (Units=GPa)
#
#
# Indices 1 2 3 4 5 6 
#
# 1 126.8377 0.7500 13.8656 0.0000 1.7264 0.0000
# 2 0.7500 88.2884 8.4491 0.0000 2.3659 0.0000
# 3 13.8656 8.4491 51.3694 0.0000 11.8808 0.0000
# 4 0.0000 0.0000 0.0000 10.7680 0.0000 3.4788
# 5 1.7264 2.3659 11.8808 0.0000 41.5088 0.0000
# 6 0.0000 0.0000 0.0000 3.4788 0.0000 19.5089
#
#
#
# Elastic Compliance Matrix: (Units=1/GPa)
#
#
# Indices 1 2 3 4 5 6 
#
# 1 0.008129 0.000142 -0.002289 0.000000 0.000309 0.000000
# 2 0.000142 0.011511 -0.001904 0.000000 -0.000117 0.000000
# 3 -0.002289 -0.001904 0.021794 0.000000 -0.006034 0.000000
# 4 0.000000 0.000000 0.000000 0.098545 0.000000 -0.017572
# 5 0.000309 -0.000117 -0.006034 0.000000 0.025812 0.000000
# 6 0.000000 0.000000 0.000000 -0.017572 0.000000 0.054392
#
#
# Mechanical properties :
#
#
# Convention : Reuss Voigt Hill
#
# Bulk Modulus (GPa) = 30.00308 34.73611 32.36960
# Shear Modulus (GPa) = 20.88590 30.58587 25.73588
#
# Velocity S-wave (km/s) = 2.99002 3.61832 3.31907
# Velocity P-wave (km/s) = 4.97625 5.68552 5.34267
#
# Compressibility (1/GPa) = 0.03332991
#
# Stress axis : x y z
#
# Youngs Moduli (GPa) = 123.01215 86.87568 45.88524
#
# Poissons Ratio (x) = -0.01231 0.10503
# Poissons Ratio (y) = -0.01743 0.08739
# Poissons Ratio (z) = 0.28158 0.16545
#
# Static dielectric constant tensor:
#      x y z
#    x 1.934160 0.000000 0.016480 
#    y 0.000000 1.878710 0.000000 
#    z 0.016480 0.000000 1.911540 
# 
# From -- ./inp_files/72018.got.cif
#   From: 2010.05.17/outbox.cif.g08.bks.cpg/sg11_37_cif.got.tgz:72018.got - 2010.06.03 12:22:45.
