data_PCOD9162971
_publ_section_title
;
Structure prediction by ZEFSAII (Michael W. Deem and Ramdas Pophale) SiO2 
 PCOD9162971
Probable space group: P 21/M
;
_chemical_formula_sum "Si O2"
_cell_formula_units_Z 32
_cell_length_a 12.225824
_cell_length_b 8.858689
_cell_length_c 31.495854
_cell_angle_alpha 90.000000
_cell_angle_beta 30.333306
_cell_angle_gamma 90.000000
_cell_volume 1722.731799
_symmetry_space_group_name_H-M "P 21/M"
_symmetry_group_IT_number 11
_symmetry_cell_setting 'monoclinic'
loop_
_space_group_symop_operation_xyz
x,y,z
-x,1/2+y,-z
-x,-y,-z
x,1/2-y,z
loop_
_atom_site_type_symbol
_atom_site_label
_atom_site_fract_x
_atom_site_fract_y
_atom_site_fract_z
Si Si1 0.853576 0.431706 0.277202
Si Si2 0.667125 0.570974 0.258835
Si Si3 0.443175 0.430292 0.473430
Si Si4 0.020329 0.430950 0.378683
Si Si5 0.794509 0.570048 0.592742
Si Si6 0.856336 0.428631 0.111183
Si Si7 0.215615 0.066249 0.222701
Si Si8 0.705512 0.069220 0.066153
O O1 0.862394 0.250000 0.269053
O O2 0.831061 0.509460 0.239486
O O3 0.636515 0.468279 0.376494
O O4 0.056808 0.479891 0.237969
O O5 0.654041 0.750000 0.264926
O O6 0.430711 0.500472 0.346593
O O7 0.744912 0.515805 0.186790
O O8 0.500000 0.500000 0.500000
O O9 0.434067 0.250000 0.480112
O O10 0.211831 0.493099 0.536658
O O11 0.988241 0.250000 0.386914
O O12 0.172597 0.460094 0.367996
O O13 0.120995 0.482181 0.300133
O O14 0.790304 0.750000 0.587613
O O15 0.000000 0.500000 0.500000
O O16 0.847280 0.250000 0.122642
O O17 0.738825 0.456565 0.105416
O O18 0.102432 0.483722 0.022083
O O19 0.214569 0.250000 0.224045
O O20 0.464504 0.020135 0.134329
O O21 0.728171 0.250000 0.051630
#
# Coordination Sequence:
#
# PCOD9162971 Si02
#       8
#     4   4   4   4   4   4   4   4
#     4  10  21  38  58  79 110 152 196 240 287 342
#     4  12  25  40  59  83 116 155 198 239 282 342
#     4  11  21  34  54  80 112 150 192 237 282 335
#     4  10  20  36  57  82 111 147 190 234 285 340
#     4  11  23  39  60  85 117 152 191 238 289 343
#     4  10  20  37  61  89 119 151 187 229 286 348
#     4   9  17  34  58  83 110 143 184 232 288 341
#     4   9  18  35  62  91 117 145 183 233 290 347
#
# _framework density 18.575149
#
# number of rings (size 3 to 8) (size 9 to 14) (size 15 to 20)
#    0.000    1.750    1.250    3.750    0.000    6.500 
#    0.000    1.875    0.000    0.000    0.000    0.000 
#    0.000    0.000    0.000    0.000    0.000    0.000 
#
# Total GULP energy -178817.839918 kJ/mol
# GULP energy per Si atom -5588.057497 kJ/mol
# Density = 1.853287 g / cm^3
# Si number density = 18.575149 Si / 1000 Ang^3
#
#
#
# Elastic Constant Matrix: (Units=GPa)
#
#
# Indices 1 2 3 4 5 6 
#
# 1 95.4349 40.6713 45.0198 0.0000 -16.7036 0.0000
# 2 40.6713 41.1045 26.0744 0.0000 0.5246 0.0000
# 3 45.0198 26.0744 79.7315 0.0000 -16.3227 0.0000
# 4 0.0000 0.0000 0.0000 30.7361 0.0000 0.4622
# 5 -16.7036 0.5246 -16.3227 0.0000 33.5612 0.0000
# 6 0.0000 0.0000 0.0000 0.4622 0.0000 23.2729
#
#
#
# Elastic Compliance Matrix: (Units=1/GPa)
#
#
# Indices 1 2 3 4 5 6 
#
# 1 0.022584 -0.019683 -0.004388 0.000000 0.009414 0.000000
# 2 -0.019683 0.048961 -0.007841 0.000000 -0.014375 0.000000
# 3 -0.004388 -0.007841 0.019059 0.000000 0.007208 0.000000
# 4 0.000000 0.000000 0.000000 0.032545 0.000000 -0.000646
# 5 0.009414 -0.014375 0.007208 0.000000 0.038212 0.000000
# 6 0.000000 0.000000 0.000000 -0.000646 0.000000 0.042981
#
#
# Mechanical properties :
#
#
# Convention : Reuss Voigt Hill
#
# Bulk Modulus (GPa) = 37.33898 48.86687 43.10293
# Shear Modulus (GPa) = 18.04455 24.48107 21.26281
#
# Velocity S-wave (km/s) = 3.12017 3.63429 3.38700
# Velocity P-wave (km/s) = 5.75550 6.63141 6.20892
#
# Compressibility (1/GPa) = 0.02678166
#
# Stress axis : x y z
#
# Youngs Moduli (GPa) = 44.27898 20.42460 52.46728
#
# Poissons Ratio (x) = 0.40201 0.23022
# Poissons Ratio (y) = 0.87153 0.41137
# Poissons Ratio (z) = 0.19429 0.16014
#
# Static dielectric constant tensor:
#      x y z
#    x 1.645550 0.000000 0.000100 
#    y 0.000000 1.622020 0.000000 
#    z 0.000100 0.000000 1.618710 
# 
# From -- ./inp_files/73056.got.cif
#   From: 2010.05.17/outbox.cif.g08.bks.cpg/sg11_37_cif.got.tgz:73056.got - 2010.06.03 12:22:45.
