data_PCOD9162712
_publ_section_title
;
Structure prediction by ZEFSAII (Michael W. Deem and Ramdas Pophale) SiO2 
 PCOD9162712
Probable space group: P 21/M
;
_chemical_formula_sum "Si O2"
_cell_formula_units_Z 28
_cell_length_a 15.202542
_cell_length_b 8.956553
_cell_length_c 20.652074
_cell_angle_alpha 90.000000
_cell_angle_beta 152.189738
_cell_angle_gamma 90.000000
_cell_volume 1311.941245
_symmetry_space_group_name_H-M "P 21/M"
_symmetry_group_IT_number 11
_symmetry_cell_setting 'monoclinic'
loop_
_space_group_symop_operation_xyz
x,y,z
-x,1/2+y,-z
-x,-y,-z
x,1/2-y,z
loop_
_atom_site_type_symbol
_atom_site_label
_atom_site_fract_x
_atom_site_fract_y
_atom_site_fract_z
Si Si1 0.396284 0.070608 0.604457
Si Si2 0.802841 0.571365 0.897369
Si Si3 0.600737 0.420551 0.145947
Si Si4 0.956240 0.577463 0.134172
Si Si5 0.230846 0.920114 0.872168
Si Si6 0.822671 0.423250 0.419732
Si Si7 0.314539 0.074296 0.405744
O O1 0.410245 0.250000 0.619489
O O2 0.301943 0.034693 0.473617
O O3 0.608453 0.002078 0.745945
O O4 0.264836 0.005465 0.575455
O O5 0.801839 0.750000 0.883921
O O6 0.000000 0.500000 0.000000
O O7 0.813717 0.549046 0.982546
O O8 0.529306 0.250000 0.086379
O O9 0.773614 0.440819 0.208010
O O10 0.664015 0.425602 0.260489
O O11 0.448604 0.546527 0.031488
O O12 0.008676 0.750000 0.165570
O O13 0.142152 0.479675 0.250065
O O14 0.875089 0.533893 0.150964
O O15 0.174796 0.750000 0.851075
O O16 0.865705 0.250000 0.462960
O O17 0.000000 0.500000 0.500000
O O18 0.329995 0.250000 0.411880
O O19 0.500000 0.000000 0.500000
#
# Coordination Sequence:
#
# PCOD9162712 Si02
#       7
#     4   4   4   4   4   4   4
#     4  11  25  44  66  95 132 171 215 268 323 384
#     4  11  24  42  66  96 129 165 210 264 322 386
#     4   9  20  38  57  82 120 157 197 251 303 353
#     4  11  24  40  61  91 125 159 203 255 308 371
#     4  10  20  35  59  88 117 154 198 247 303 362
#     4  11  24  41  62  89 125 169 216 264 313 373
#     4  11  25  44  66  93 127 165 209 262 319 380
#
# _framework density 21.342417999999999
#
# number of rings (size 3 to 8) (size 9 to 14) (size 15 to 20)
#    0.000    1.429    0.000    4.286    2.000   13.143 
#    0.000    0.000    0.000    0.000    0.000    0.000 
#    0.000    0.000    0.000    0.000    0.000    0.000 
#
# Total GULP energy -156459.599732 kJ/mol
# GULP energy per Si atom -5587.842848 kJ/mol
# Density = 2.129384 g / cm^3
# Si number density = 21.342418 Si / 1000 Ang^3
#
#
#
# Elastic Constant Matrix: (Units=GPa)
#
#
# Indices 1 2 3 4 5 6 
#
# 1 77.6344 37.4058 0.0157 0.0000 -0.2314 0.0000
# 2 37.4058 79.1279 28.1925 0.0000 -9.3696 0.0000
# 3 0.0157 28.1925 55.0398 0.0000 -0.8743 0.0000
# 4 0.0000 0.0000 0.0000 33.3350 0.0000 4.3532
# 5 -0.2314 -9.3696 -0.8743 0.0000 34.2301 0.0000
# 6 0.0000 0.0000 0.0000 4.3532 0.0000 40.3559
#
#
#
# Elastic Compliance Matrix: (Units=1/GPa)
#
#
# Indices 1 2 3 4 5 6 
#
# 1 0.018090 -0.010831 0.005500 0.000000 -0.002702 0.000000
# 2 -0.010831 0.022521 -0.011440 0.000000 0.005799 0.000000
# 3 0.005500 -0.011440 0.023988 0.000000 -0.002482 0.000000
# 4 0.000000 0.000000 0.000000 0.030427 0.000000 -0.003282
# 5 -0.002702 0.005799 -0.002482 0.000000 0.030720 0.000000
# 6 0.000000 0.000000 0.000000 -0.003282 0.000000 0.025134
#
#
# Mechanical properties :
#
#
# Convention : Reuss Voigt Hill
#
# Bulk Modulus (GPa) = 32.20054 38.11446 35.15750
# Shear Modulus (GPa) = 25.67065 31.33008 28.50037
#
# Velocity S-wave (km/s) = 3.47190 3.83557 3.65826
# Velocity P-wave (km/s) = 5.58502 6.12477 5.86111
#
# Compressibility (1/GPa) = 0.03105538
#
# Stress axis : x y z
#
# Youngs Moduli (GPa) = 55.27764 44.40334 41.68799
#
# Poissons Ratio (x) = 0.48095 -0.22928
# Poissons Ratio (y) = 0.59873 0.47693
# Poissons Ratio (z) = -0.30403 0.50799
#
# Static dielectric constant tensor:
#      x y z
#    x 1.805910 0.000000 0.016780 
#    y 0.000000 1.728720 0.000000 
#    z 0.016780 0.000000 1.769330 
# 
# From -- ./inp_files/51905.got.cif
#   From: 2010.05.17/outbox.cif.g08.bks.cpg/sg11_26_cif.got.tgz:51905.got - 2010.06.03 12:22:45.
