data_PCOD9162182
_publ_section_title
;
Structure prediction by ZEFSAII (Michael W. Deem and Ramdas Pophale) SiO2 
 PCOD9162182
Probable space group: P 21/M
;
_chemical_formula_sum "Si O2"
_cell_formula_units_Z 32
_cell_length_a 26.926323
_cell_length_b 8.779692
_cell_length_c 19.733879
_cell_angle_alpha 90.000000
_cell_angle_beta 159.727676
_cell_angle_gamma 90.000000
_cell_volume 1616.405026
_symmetry_space_group_name_H-M "P 21/M"
_symmetry_group_IT_number 11
_symmetry_cell_setting 'monoclinic'
loop_
_space_group_symop_operation_xyz
x,y,z
-x,1/2+y,-z
-x,-y,-z
x,1/2-y,z
loop_
_atom_site_type_symbol
_atom_site_label
_atom_site_fract_x
_atom_site_fract_y
_atom_site_fract_z
Si Si1 0.909579 0.069049 0.821170
Si Si2 0.927123 0.563535 0.102386
Si Si3 0.500699 0.433593 0.108065
Si Si4 0.619136 0.574963 0.480893
Si Si5 0.369867 0.434393 0.085506
Si Si6 0.726752 0.434360 0.289316
Si Si7 0.049447 0.435249 0.712167
Si Si8 0.647122 0.576972 0.675530
O O1 0.928500 0.250000 0.850404
O O2 0.743206 0.026424 0.607743
O O3 0.966940 0.016115 0.821604
O O4 0.000000 0.000000 0.000000
O O5 0.929285 0.750000 0.105498
O O6 0.775292 0.505384 0.881032
O O7 0.949470 0.517102 0.207708
O O8 0.495370 0.250000 0.100618
O O9 0.454301 0.480272 0.124611
O O10 0.654213 0.475770 0.269797
O O11 0.379975 0.498450 0.903146
O O12 0.621976 0.750000 0.460991
O O13 0.463622 0.504980 0.266382
O O14 0.665822 0.575631 0.619146
O O15 0.372770 0.250000 0.094373
O O16 0.201523 0.482102 0.873056
O O17 0.724704 0.250000 0.283476
O O18 0.890657 0.484669 0.485041
O O19 0.049635 0.250000 0.709247
O O20 0.500000 0.500000 0.500000
O O21 0.638135 0.750000 0.687303
#
# Coordination Sequence:
#
# PCOD9162182 Si02
#       8
#     4   4   4   4   4   4   4   4
#     4  11  21  36  58  81 108 145 190 237 286 335
#     4   9  18  33  53  76 107 142 179 227 276 322
#     4   9  19  35  56  83 113 143 183 229 273 331
#     4  11  23  38  54  80 115 146 184 234 285 335
#     4  10  21  37  58  84 110 145 190 230 274 335
#     4   9  18  34  57  82 110 146 183 223 276 332
#     4   9  18  33  56  83 110 142 187 230 271 332
#     4  10  20  35  53  75 104 143 186 228 275 328
#
# _framework density 19.797017
#
# number of rings (size 3 to 8) (size 9 to 14) (size 15 to 20)
#    0.000    2.250    1.250    1.500    1.750    3.000 
#    0.000    0.625    0.000    1.500    0.000    0.000 
#    0.000    0.000    0.000    0.000    0.000    0.000 
#
# Total GULP energy -178279.173754 kJ/mol
# GULP energy per Si atom -5571.224180 kJ/mol
# Density = 1.975196 g / cm^3
# Si number density = 19.797017 Si / 1000 Ang^3
#
#
#
# Elastic Constant Matrix: (Units=GPa)
#
#
# Indices 1 2 3 4 5 6 
#
# 1 27.5459 6.9716 -10.0938 0.0000 4.6054 0.0000
# 2 6.9716 6.0019 1.2193 0.0000 2.7426 0.0000
# 3 -10.0938 1.2193 86.3287 0.0000 13.8679 0.0000
# 4 0.0000 0.0000 0.0000 26.5567 0.0000 -2.5307
# 5 4.6054 2.7426 13.8679 0.0000 28.1941 0.0000
# 6 0.0000 0.0000 0.0000 -2.5307 0.0000 15.5004
#
#
#
# Elastic Compliance Matrix: (Units=1/GPa)
#
#
# Indices 1 2 3 4 5 6 
#
# 1 0.057151 -0.064810 0.008778 0.000000 -0.007349 0.000000
# 2 -0.064810 0.247867 -0.009670 0.000000 -0.008769 0.000000
# 3 0.008778 -0.009670 0.013926 0.000000 -0.007343 0.000000
# 4 0.000000 0.000000 0.000000 0.038250 0.000000 0.006245
# 5 -0.007349 -0.008769 -0.007343 0.000000 0.041134 0.000000
# 6 0.000000 0.000000 0.000000 0.006245 0.000000 0.065534
#
#
# Mechanical properties :
#
#
# Convention : Reuss Voigt Hill
#
# Bulk Modulus (GPa) = 5.33218 12.89674 9.11446
# Shear Modulus (GPa) = 7.60133 22.16886 14.88510
#
# Velocity S-wave (km/s) = 1.96162 3.34998 2.74503
# Velocity P-wave (km/s) = 2.79820 4.63593 3.82895
#
# Compressibility (1/GPa) = 0.18754042
#
# Stress axis : x y z
#
# Youngs Moduli (GPa) = 17.49749 4.03442 71.80735
#
# Poissons Ratio (x) = 0.26147 -0.63033
# Poissons Ratio (y) = 1.13401 0.69437
# Poissons Ratio (z) = -0.15359 0.03901
#
# Static dielectric constant tensor:
#      x y z
#    x 1.738940 0.000000 0.073550 
#    y 0.000000 1.675430 0.000000 
#    z 0.073550 0.000000 1.642340 
# 
# From -- ./inp_files/67207.got.cif
#   From: 2010.05.17/outbox.cif.g08.bks.cpg/sg11_34_cif.got.tgz:67207.got - 2010.06.03 12:22:45.
