data_PCOD9162372
_publ_section_title
;
Structure prediction by ZEFSAII (Michael W. Deem and Ramdas Pophale) SiO2 
 PCOD9162372
Probable space group: P 21/M
;
_chemical_formula_sum "Si O2"
_cell_formula_units_Z 32
_cell_length_a 14.386454
_cell_length_b 8.998274
_cell_length_c 35.421541
_cell_angle_alpha 90.000000
_cell_angle_beta 156.798999
_cell_angle_gamma 90.000000
_cell_volume 1806.468172
_symmetry_space_group_name_H-M "P 21/M"
_symmetry_group_IT_number 11
_symmetry_cell_setting 'monoclinic'
loop_
_space_group_symop_operation_xyz
x,y,z
-x,1/2+y,-z
-x,-y,-z
x,1/2-y,z
loop_
_atom_site_type_symbol
_atom_site_label
_atom_site_fract_x
_atom_site_fract_y
_atom_site_fract_z
Si Si1 0.743973 0.572281 0.605201
Si Si2 0.208118 0.572918 0.227067
Si Si3 0.439579 0.072596 0.384456
Si Si4 0.944682 0.427047 0.610625
Si Si5 0.581531 0.071946 0.224783
Si Si6 0.188735 0.072177 0.140430
Si Si7 0.677384 0.570672 0.948422
Si Si8 0.345683 0.072405 0.975045
O O1 0.500000 0.500000 0.500000
O O2 0.737139 0.750000 0.598053
O O3 0.744141 0.540751 0.649883
O O4 0.933373 0.502768 0.647792
O O5 0.225629 0.750000 0.228935
O O6 0.367192 0.515657 0.320544
O O7 0.268807 0.492477 0.210585
O O8 0.932820 0.537426 0.133024
O O9 0.433312 0.250000 0.375156
O O10 0.701769 0.035852 0.497822
O O11 0.950489 0.250000 0.617010
O O12 0.175550 0.488360 0.676478
O O13 0.619842 0.250000 0.240114
O O14 0.376491 0.035627 0.178018
O O15 0.491239 0.031556 0.149146
O O16 0.166220 0.250000 0.134051
O O17 0.933371 0.000920 0.037369
O O18 0.705563 0.750000 0.959194
O O19 0.591067 0.527099 0.958198
O O20 0.372750 0.250000 0.982710
O O21 0.500000 0.000000 0.000000
#
# Coordination Sequence:
#
# PCOD9162372 Si02
#       8
#     4   4   4   4   4   4   4   4
#     4   9  17  31  51  74 103 137 172 213 259 306
#     4  10  21  36  55  78 104 138 178 218 261 314
#     4   9  19  35  54  77 104 138 179 219 259 307
#     4  10  21  35  52  78 110 141 177 221 265 313
#     4  10  21  36  55  79 106 137 174 220 271 317
#     4  10  20  35  56  80 104 133 173 219 267 321
#     4   9  19  36  55  77 106 138 174 214 260 315
#     4   9  19  34  51  75 107 138 168 206 251 301
#
# _framework density 17.714123000000001
#
# number of rings (size 3 to 8) (size 9 to 14) (size 15 to 20)
#    0.000    2.500    0.000    3.375    0.000    8.000 
#    0.000    4.375    0.000    0.000    0.000    0.000 
#    0.000    0.000    0.000    0.000    0.000    0.000 
#
# Total GULP energy -178469.787606 kJ/mol
# GULP energy per Si atom -5577.180863 kJ/mol
# Density = 1.767380 g / cm^3
# Si number density = 17.714123 Si / 1000 Ang^3
#
#
#
# Elastic Constant Matrix: (Units=GPa)
#
#
# Indices 1 2 3 4 5 6 
#
# 1 122.2648 42.2144 57.8069 0.0000 3.0237 0.0000
# 2 42.2144 31.0632 31.8684 0.0000 -2.6316 0.0000
# 3 57.8069 31.8684 65.6122 0.0000 -10.9409 0.0000
# 4 0.0000 0.0000 0.0000 26.5256 0.0000 4.8772
# 5 3.0237 -2.6316 -10.9409 0.0000 23.0331 0.0000
# 6 0.0000 0.0000 0.0000 4.8772 0.0000 31.3924
#
#
#
# Elastic Compliance Matrix: (Units=1/GPa)
#
#
# Indices 1 2 3 4 5 6 
#
# 1 0.018703 -0.015379 -0.010546 0.000000 -0.009222 0.000000
# 2 -0.015379 0.078240 -0.024571 0.000000 -0.000714 0.000000
# 3 -0.010546 -0.024571 0.039347 0.000000 0.017267 0.000000
# 4 0.000000 0.000000 0.000000 0.038808 0.000000 -0.006029
# 5 -0.009222 -0.000714 0.017267 0.000000 0.052747 0.000000
# 6 0.000000 0.000000 0.000000 -0.006029 0.000000 0.032792
#
#
# Mechanical properties :
#
#
# Convention : Reuss Voigt Hill
#
# Bulk Modulus (GPa) = 28.33144 53.63554 40.98349
# Shear Modulus (GPa) = 13.39061 21.99358 17.69210
#
# Velocity S-wave (km/s) = 2.75240 3.52744 3.16374
# Velocity P-wave (km/s) = 5.11169 6.85088 6.04417
#
# Compressibility (1/GPa) = 0.03529648
#
# Stress axis : x y z
#
# Youngs Moduli (GPa) = 53.46647 12.78118 25.41499
#
# Poissons Ratio (x) = 0.19656 0.26804
# Poissons Ratio (y) = 0.82226 0.62448
# Poissons Ratio (z) = 0.56388 0.31405
#
# Static dielectric constant tensor:
#      x y z
#    x 1.659030 0.000000 0.040640 
#    y 0.000000 1.586920 0.000000 
#    z 0.040640 0.000000 1.633560 
# 
# From -- ./inp_files/73155.got.cif
#   From: 2010.05.17/outbox.cif.g08.bks.cpg/sg11_37_cif.got.tgz:73155.got - 2010.06.03 12:22:45.
