data_PCOD9162846
_publ_section_title
;
Structure prediction by ZEFSAII (Michael W. Deem and Ramdas Pophale) SiO2 
 PCOD9162846
Probable space group: P 21/M
;
_chemical_formula_sum "Si O2"
_cell_formula_units_Z 32
_cell_length_a 11.932069
_cell_length_b 8.818353
_cell_length_c 22.261332
_cell_angle_alpha 90.000000
_cell_angle_beta 123.984813
_cell_angle_gamma 90.000000
_cell_volume 1942.254875
_symmetry_space_group_name_H-M "P 21/M"
_symmetry_group_IT_number 11
_symmetry_cell_setting 'monoclinic'
loop_
_space_group_symop_operation_xyz
x,y,z
-x,1/2+y,-z
-x,-y,-z
x,1/2-y,z
loop_
_atom_site_type_symbol
_atom_site_label
_atom_site_fract_x
_atom_site_fract_y
_atom_site_fract_z
Si Si1 0.339148 0.934653 0.236881
Si Si2 0.638215 0.567475 0.516024
Si Si3 0.928907 0.577315 0.069063
Si Si4 0.210306 0.924131 0.077916
Si Si5 0.081188 0.433283 0.580832
Si Si6 0.370775 0.066311 0.626751
Si Si7 0.087274 0.567858 0.351859
Si Si8 0.926668 0.570083 0.780377
O O1 0.329122 0.750000 0.236829
O O2 0.315315 0.978193 0.159993
O O3 0.484640 0.984724 0.304786
O O4 0.216293 0.001996 0.238912
O O5 0.500000 0.500000 0.500000
O O6 0.638711 0.750000 0.521116
O O7 0.647624 0.525355 0.448489
O O8 0.765278 0.498379 0.588806
O O9 0.904729 0.750000 0.080399
O O10 0.067733 0.575270 0.071514
O O11 0.962210 0.475937 0.136596
O O12 0.814135 0.518593 0.989486
O O13 0.240239 0.750000 0.071073
O O14 0.077256 0.250000 0.575088
O O15 0.237340 0.482927 0.622493
O O16 0.000000 0.500000 0.500000
O O17 0.010036 0.475715 0.621914
O O18 0.374608 0.250000 0.630413
O O19 0.094070 0.750000 0.350619
O O20 0.041990 0.501624 0.274659
O O21 0.915288 0.750000 0.772749
#
# Coordination Sequence:
#
# PCOD9162846 Si02
#       8
#     4   4   4   4   4   4   4   4
#     4   9  17  31  50  72 102 134 163 200 245 296
#     4  11  21  33  51  73 101 131 164 201 243 297
#     4   9  16  27  44  66  96 132 165 197 237 288
#     4   8  14  24  41  67  97 130 163 193 233 288
#     4  10  20  36  56  74  93 123 165 212 253 294
#     4   9  18  33  52  72  95 126 162 202 247 290
#     4  11  22  35  51  71  97 129 166 206 251 298
#     4  11  21  32  48  71 101 132 165 205 247 294
#
# _framework density 16.475695000000002
#
# number of rings (size 3 to 8) (size 9 to 14) (size 15 to 20)
#    0.000    2.250    1.250    3.750    0.000    4.500 
#    0.000    1.250    0.000    0.000    0.000    0.875 
#    0.000    0.000    0.000    0.000    0.000    0.000 
#
# Total GULP energy -178445.639557 kJ/mol
# GULP energy per Si atom -5576.426236 kJ/mol
# Density = 1.643820 g / cm^3
# Si number density = 16.475695 Si / 1000 Ang^3
#
#
#
# Elastic Constant Matrix: (Units=GPa)
#
#
# Indices 1 2 3 4 5 6 
#
# 1 68.5083 25.0304 26.3847 0.0000 -21.6757 0.0000
# 2 25.0304 52.9117 33.8879 0.0000 -10.9316 0.0000
# 3 26.3847 33.8879 103.1547 0.0000 -19.5859 0.0000
# 4 0.0000 0.0000 0.0000 27.4682 0.0000 -1.2175
# 5 -21.6757 -10.9316 -19.5859 0.0000 12.6731 0.0000
# 6 0.0000 0.0000 0.0000 -1.2175 0.0000 14.2433
#
#
#
# Elastic Compliance Matrix: (Units=1/GPa)
#
#
# Indices 1 2 3 4 5 6 
#
# 1 0.034336 -0.006944 0.004971 0.000000 0.060420 0.000000
# 2 -0.006944 0.026708 -0.006905 0.000000 0.000490 0.000000
# 3 0.004971 -0.006905 0.015815 0.000000 0.026988 0.000000
# 4 0.000000 0.000000 0.000000 0.036544 0.000000 0.003124
# 5 0.060420 0.000490 0.026988 0.000000 0.224379 0.000000
# 6 0.000000 0.000000 0.000000 0.003124 0.000000 0.070475
#
#
# Mechanical properties :
#
#
# Convention : Reuss Voigt Hill
#
# Bulk Modulus (GPa) = 16.91961 43.90897 30.41429
# Shear Modulus (GPa) = 11.21794 20.16169 15.68981
#
# Velocity S-wave (km/s) = 2.61219 3.50197 3.08928
# Velocity P-wave (km/s) = 4.40339 6.56204 5.58794
#
# Compressibility (1/GPa) = 0.05910302
#
# Stress axis : x y z
#
# Youngs Moduli (GPa) = 29.12405 37.44240 63.23009
#
# Poissons Ratio (x) = 0.25999 -0.31429
# Poissons Ratio (y) = 0.20223 0.43659
# Poissons Ratio (z) = -0.14476 0.25853
#
# Static dielectric constant tensor:
#      x y z
#    x 1.534960 0.000000 0.001050 
#    y 0.000000 1.556640 0.000000 
#    z 0.001050 0.000000 1.563190 
# 
# From -- ./inp_files/64212.got.cif
#   From: 2010.05.17/outbox.cif.g08.bks.cpg/sg11_33_cif.got.tgz:64212.got - 2010.06.03 12:22:45.
