data_PCOD9162645
_publ_section_title
;
Structure prediction by ZEFSAII (Michael W. Deem and Ramdas Pophale) SiO2 
 PCOD9162645
Probable space group: P 21/M
;
_chemical_formula_sum "Si O2"
_cell_formula_units_Z 22
_cell_length_a 6.794732
_cell_length_b 20.809638
_cell_length_c 7.506481
_cell_angle_alpha 90.000000
_cell_angle_beta 121.317821
_cell_angle_gamma 90.000000
_cell_volume 906.738863
_symmetry_space_group_name_H-M "P 21/M"
_symmetry_group_IT_number 11
_symmetry_cell_setting 'monoclinic'
loop_
_space_group_symop_operation_xyz
x,y,z
-x,1/2+y,-z
-x,-y,-z
x,1/2-y,z
loop_
_atom_site_type_symbol
_atom_site_label
_atom_site_fract_x
_atom_site_fract_y
_atom_site_fract_z
Si Si1 0.129212 0.015181 0.797104
Si Si2 0.058067 0.750000 0.865887
Si Si3 0.433565 0.250000 0.725093
Si Si4 0.990297 0.393645 0.028243
Si Si5 0.379083 0.853255 0.416511
Si Si6 0.948234 0.250000 0.565798
Si Si7 0.634595 0.466943 0.403344
O O1 0.345458 0.006164 0.768046
O O2 0.057221 0.944356 0.835445
O O3 0.153745 0.065922 0.969290
O O4 0.905175 0.039957 0.583306
O O5 0.059349 0.750000 0.651917
O O6 0.323267 0.750000 0.060545
O O7 0.961731 0.819365 0.892619
O O8 0.431362 0.310937 0.592402
O O9 0.214110 0.250000 0.745446
O O10 0.749331 0.390016 0.804145
O O11 0.464484 0.895719 0.620547
O O12 0.183913 0.808980 0.410227
O O13 0.500000 0.500000 0.500000
#
# Coordination Sequence:
#
# PCOD9162645 Si02
#       7
#     4   2   2   4   4   2   4
#     4   9  19  36  57  80 116 163 204 245 311 374
#     4  10  20  36  62  92 120 155 211 259 302 377
#     4   9  21  39  58  84 120 159 198 253 321 368
#     4   9  18  37  57  80 120 160 197 253 305 359
#     4   9  20  37  55  86 123 153 208 260 298 371
#     4  11  21  39  66  88 124 170 197 256 319 363
#     4  10  20  35  58  86 117 157 206 258 303 362
#
# _framework density 24.262775000000001
#
# number of rings (size 3 to 8) (size 9 to 14) (size 15 to 20)
#    0.000    2.545    0.000    1.636    0.000    5.818 
#    0.000   20.909    0.000    0.000    0.000    0.000 
#    0.000    0.000    0.000    0.000    0.000    0.000 
#
# Total GULP energy -122744.375577 kJ/mol
# GULP energy per Si atom -5579.289799 kJ/mol
# Density = 2.420755 g / cm^3
# Si number density = 24.262775 Si / 1000 Ang^3
#
#
#
# Elastic Constant Matrix: (Units=GPa)
#
#
# Indices 1 2 3 4 5 6 
#
# 1 91.9329 20.5425 -0.3223 0.0000 -22.8540 0.0000
# 2 20.5425 123.3039 3.9107 0.0000 -5.9805 0.0000
# 3 -0.3223 3.9107 84.7408 0.0000 -1.5179 0.0000
# 4 0.0000 0.0000 0.0000 33.4789 0.0000 -5.7987
# 5 -22.8540 -5.9805 -1.5179 0.0000 36.2524 0.0000
# 6 0.0000 0.0000 0.0000 -5.7987 0.0000 -50.9354
#
#
#
# Elastic Compliance Matrix: (Units=1/GPa)
#
#
# Indices 1 2 3 4 5 6 
#
# 1 0.013300 -0.001832 0.000280 0.000000 0.008094 0.000000
# 2 -0.001832 0.008438 -0.000392 0.000000 0.000221 0.000000
# 3 0.000280 -0.000392 0.011831 0.000000 0.000607 0.000000
# 4 0.000000 0.000000 0.000000 0.029292 0.000000 -0.003335
# 5 0.008094 0.000221 0.000607 0.000000 0.032749 0.000000
# 6 0.000000 0.000000 0.000000 -0.003335 0.000000 -0.019253
#
#
# Mechanical properties :
#
#
# Convention : Reuss Voigt Hill
#
# Bulk Modulus (GPa) = 33.69239 38.69328 36.19283
# Shear Modulus (GPa) = 55.46986 22.14896 38.80941
#
# Velocity S-wave (km/s) = 4.78662 3.02467 4.00377
# Velocity P-wave (km/s) = 6.66825 5.30852 6.02685
#
# Compressibility (1/GPa) = 0.02968029
#
# Stress axis : x y z
#
# Youngs Moduli (GPa) = 75.18813 118.50559 84.52550
#
# Poissons Ratio (x) = 0.21711 -0.02368
# Poissons Ratio (y) = 0.13775 0.03317
# Poissons Ratio (z) = -0.02106 0.04651
#
# Static dielectric constant tensor:
#      x y z
#    x 1.891070 0.000000 -0.010490 
#    y 0.000000 2.627150 0.000000 
#    z -0.010490 0.000000 2.041490 
# 
# From -- ./inp_files/10475.got.cif
#   From: 2010.05.17/outbox.cif.g08.bks.cpg/sg11_6_cif.got.tgz:10475.got - 2010.06.03 12:22:45.
