data_PCOD9162366
_publ_section_title
;
Structure prediction by ZEFSAII (Michael W. Deem and Ramdas Pophale) SiO2 
 PCOD9162366
Probable space group: P 21/M
;
_chemical_formula_sum "Si O2"
_cell_formula_units_Z 28
_cell_length_a 29.182455
_cell_length_b 9.067887
_cell_length_c 10.206508
_cell_angle_alpha 90.000000
_cell_angle_beta 144.635895
_cell_angle_gamma 90.000000
_cell_volume 1563.188713
_symmetry_space_group_name_H-M "P 21/M"
_symmetry_group_IT_number 11
_symmetry_cell_setting 'monoclinic'
loop_
_space_group_symop_operation_xyz
x,y,z
-x,1/2+y,-z
-x,-y,-z
x,1/2-y,z
loop_
_atom_site_type_symbol
_atom_site_label
_atom_site_fract_x
_atom_site_fract_y
_atom_site_fract_z
Si Si1 0.578446 0.572224 0.401150
Si Si2 0.351795 0.925749 0.178302
Si Si3 0.860046 0.574016 0.963995
Si Si4 0.299919 0.072291 0.545226
Si Si5 0.986637 0.925973 0.610507
Si Si6 0.187155 0.075207 0.841588
Si Si7 0.399879 0.573220 0.997791
O O1 0.581321 0.750000 0.419940
O O2 0.604415 0.502847 0.598894
O O3 0.640328 0.528649 0.432920
O O4 0.488239 0.529568 0.158995
O O5 0.355081 0.750000 0.202086
O O6 0.389813 0.964310 0.127100
O O7 0.261364 0.981224 0.969646
O O8 0.872510 0.750000 0.982589
O O9 0.788933 0.528738 0.702623
O O10 0.943167 0.491684 0.138434
O O11 0.829977 0.547422 0.043580
O O12 0.301369 0.250000 0.557008
O O13 0.333730 0.003249 0.755731
O O14 0.994817 0.750000 0.618212
O O15 0.894542 0.956593 0.426081
O O16 0.000000 0.000000 0.500000
O O17 0.204705 0.250000 0.870561
O O18 0.392683 0.750000 0.968229
#
# Coordination Sequence:
#
# PCOD9162366 Si02
#       7
#     4   4   4   4   4   4   4
#     4  10  20  38  58  75 103 138 175 220 266 310
#     4  11  22  34  52  80 108 136 177 219 259 309
#     4   9  17  31  50  76 106 133 169 213 258 308
#     4  10  20  35  56  79 104 138 177 215 258 315
#     4   9  17  28  46  74 105 135 168 209 258 307
#     4   9  17  32  51  73 105 139 170 210 259 309
#     4  10  23  38  52  76 108 140 174 218 265 310
#
# _framework density 17.912106999999999
#
# number of rings (size 3 to 8) (size 9 to 14) (size 15 to 20)
#    0.000    2.286    1.429    2.571    0.000    5.714 
#    0.000    0.000    0.000    0.857    0.000    0.000 
#    0.000    0.000    0.000    0.000    0.000    0.000 
#
# Total GULP energy -156192.334624 kJ/mol
# GULP energy per Si atom -5578.297665 kJ/mol
# Density = 1.787134 g / cm^3
# Si number density = 17.912107 Si / 1000 Ang^3
#
#
#
# Elastic Constant Matrix: (Units=GPa)
#
#
# Indices 1 2 3 4 5 6 
#
# 1 6.7009 2.8589 5.5187 0.0000 -0.1121 0.0000
# 2 2.8589 8.6242 10.3246 0.0000 3.6361 0.0000
# 3 5.5187 10.3246 79.0026 0.0000 13.4092 0.0000
# 4 0.0000 0.0000 0.0000 25.9690 0.0000 -4.0809
# 5 -0.1121 3.6361 13.4092 0.0000 27.9342 0.0000
# 6 0.0000 0.0000 0.0000 -4.0809 0.0000 18.9831
#
#
#
# Elastic Compliance Matrix: (Units=1/GPa)
#
#
# Indices 1 2 3 4 5 6 
#
# 1 0.179042 -0.055561 -0.007180 0.000000 0.011397 0.000000
# 2 -0.055561 0.157364 -0.014338 0.000000 -0.013824 0.000000
# 3 -0.007180 -0.014338 0.016027 0.000000 -0.005856 0.000000
# 4 0.000000 0.000000 0.000000 0.039854 0.000000 0.008568
# 5 0.011397 -0.013824 -0.005856 0.000000 0.040455 0.000000
# 6 0.000000 0.000000 0.000000 0.008568 0.000000 0.054520
#
#
# Mechanical properties :
#
#
# Convention : Reuss Voigt Hill
#
# Bulk Modulus (GPa) = 5.04351 14.63690 9.84020
# Shear Modulus (GPa) = 7.06702 19.61895 13.34298
#
# Velocity S-wave (km/s) = 1.98845 3.31311 2.73227
# Velocity P-wave (km/s) = 2.84495 4.77753 3.93183
#
# Compressibility (1/GPa) = 0.19827477
#
# Stress axis : x y z
#
# Youngs Moduli (GPa) = 5.58528 6.35469 62.39432
#
# Poissons Ratio (x) = 0.35307 0.44801
# Poissons Ratio (y) = 0.31032 0.89461
# Poissons Ratio (z) = 0.04010 0.09111
#
# Static dielectric constant tensor:
#      x y z
#    x 1.599040 0.000000 0.021720 
#    y 0.000000 1.595570 0.000000 
#    z 0.021720 0.000000 1.626880 
# 
# From -- ./inp_files/28567.got.cif
#   From: 2010.05.17/outbox.cif.g08.bks.cpg/sg11_15_cif.got.tgz:28567.got - 2010.06.03 12:22:45.
