data_PCOD9162967
_publ_section_title
;
Structure prediction by ZEFSAII (Michael W. Deem and Ramdas Pophale) SiO2 
 PCOD9162967
Probable space group: P 21/M
;
_chemical_formula_sum "Si O2"
_cell_formula_units_Z 28
_cell_length_a 9.364999
_cell_length_b 8.726800
_cell_length_c 29.914569
_cell_angle_alpha 90.000000
_cell_angle_beta 141.495157
_cell_angle_gamma 90.000000
_cell_volume 1522.093114
_symmetry_space_group_name_H-M "P 21/M"
_symmetry_group_IT_number 11
_symmetry_cell_setting 'monoclinic'
loop_
_space_group_symop_operation_xyz
x,y,z
-x,1/2+y,-z
-x,-y,-z
x,1/2-y,z
loop_
_atom_site_type_symbol
_atom_site_label
_atom_site_fract_x
_atom_site_fract_y
_atom_site_fract_z
Si Si1 0.508931 0.564176 0.136409
Si Si2 0.655253 0.934330 0.998322
Si Si3 0.034739 0.565614 0.280220
Si Si4 0.633685 0.434981 0.720365
Si Si5 0.748454 0.432860 0.432283
Si Si6 0.413934 0.067402 0.432497
Si Si7 0.815429 0.063515 0.861262
O O1 0.502117 0.750000 0.131309
O O2 0.336723 0.515667 0.133701
O O3 0.770089 0.519929 0.211984
O O4 0.434585 0.494178 0.071138
O O5 0.647272 0.750000 0.997541
O O6 0.920126 0.983593 0.069543
O O7 0.500000 0.000000 0.000000
O O8 0.043943 0.750000 0.285575
O O9 0.173425 0.520756 0.269138
O O10 0.172166 0.497039 0.355649
O O11 0.620263 0.250000 0.717057
O O12 0.393016 0.500694 0.644199
O O13 0.707872 0.486760 0.787757
O O14 0.759430 0.250000 0.431494
O O15 0.596873 0.473630 0.438671
O O16 0.000000 0.500000 0.500000
O O17 0.401028 0.250000 0.432397
O O18 0.500000 0.000000 0.500000
O O19 0.813244 0.250000 0.860249
#
# Coordination Sequence:
#
# PCOD9162967 Si02
#       7
#     4   4   4   4   4   4   4
#     4  10  20  36  57  82 111 142 176 219 269 320
#     4  11  22  37  57  81 109 144 184 223 264 316
#     4   9  18  33  54  77 106 144 183 220 264 318
#     4   9  17  33  54  75 103 142 182 219 260 314
#     4  10  21  36  54  79 108 140 177 220 267 317
#     4  10  21  36  55  79 109 142 180 223 269 320
#     4   9  19  35  56  81 110 142 177 218 267 319
#
# _framework density 18.395721999999999
#
# number of rings (size 3 to 8) (size 9 to 14) (size 15 to 20)
#    0.000    2.286    0.000    2.571    0.000    5.714 
#    0.000    8.571    0.000    0.000    0.000    0.000 
#    0.000    0.000    0.000    0.000    0.000    0.000 
#
# Total GULP energy -156330.161238 kJ/mol
# GULP energy per Si atom -5583.220044 kJ/mol
# Density = 1.835385 g / cm^3
# Si number density = 18.395722 Si / 1000 Ang^3
#
#
#
# Elastic Constant Matrix: (Units=GPa)
#
#
# Indices 1 2 3 4 5 6 
#
# 1 130.3535 34.2520 118.1165 0.0000 3.4551 0.0000
# 2 34.2520 17.8913 46.7869 0.0000 1.0446 0.0000
# 3 118.1165 46.7869 227.0259 0.0000 0.6056 0.0000
# 4 0.0000 0.0000 0.0000 35.3188 0.0000 -3.0665
# 5 3.4551 1.0446 0.6056 0.0000 40.5417 0.0000
# 6 0.0000 0.0000 0.0000 -3.0665 0.0000 22.1367
#
#
#
# Elastic Compliance Matrix: (Units=1/GPa)
#
#
# Indices 1 2 3 4 5 6 
#
# 1 0.017577 -0.021017 -0.004811 0.000000 -0.000885 0.000000
# 2 -0.021017 0.146662 -0.019286 0.000000 -0.001700 0.000000
# 3 -0.004811 -0.019286 0.010881 0.000000 0.000744 0.000000
# 4 0.000000 0.000000 0.000000 0.028658 0.000000 0.003970
# 5 -0.000885 -0.001700 0.000744 0.000000 0.024774 0.000000
# 6 0.000000 0.000000 0.000000 0.003970 0.000000 0.045724
#
#
# Mechanical properties :
#
#
# Convention : Reuss Voigt Hill
#
# Bulk Modulus (GPa) = 11.77974 85.95351 48.86662
# Shear Modulus (GPa) = 12.72912 31.34047 22.03479
#
# Velocity S-wave (km/s) = 2.63337 4.13205 3.46471
# Velocity P-wave (km/s) = 3.95773 8.34214 6.52897
#
# Compressibility (1/GPa) = 0.08489153
#
# Stress axis : x y z
#
# Youngs Moduli (GPa) = 56.89296 6.81841 91.90720
#
# Poissons Ratio (x) = 0.14330 0.44219
# Poissons Ratio (y) = 1.19570 1.77252
# Poissons Ratio (z) = 0.27373 0.13150
#
# Static dielectric constant tensor:
#      x y z
#    x 1.622130 0.000000 0.004310 
#    y 0.000000 1.624650 0.000000 
#    z 0.004310 0.000000 1.605660 
# 
# From -- ./inp_files/28237.got.cif
#   From: 2010.05.17/outbox.cif.g08.bks.cpg/sg11_15_cif.got.tgz:28237.got - 2010.06.03 12:22:45.
