data_PCOD9162844
_publ_section_title
;
Structure prediction by ZEFSAII (Michael W. Deem and Ramdas Pophale) SiO2 
 PCOD9162844
Probable space group: P 21/M
;
_chemical_formula_sum "Si O2"
_cell_formula_units_Z 28
_cell_length_a 7.081651
_cell_length_b 27.650494
_cell_length_c 9.656357
_cell_angle_alpha 90.000000
_cell_angle_beta 131.430404
_cell_angle_gamma 90.000000
_cell_volume 1417.663042
_symmetry_space_group_name_H-M "P 21/M"
_symmetry_group_IT_number 11
_symmetry_cell_setting 'monoclinic'
loop_
_space_group_symop_operation_xyz
x,y,z
-x,1/2+y,-z
-x,-y,-z
x,1/2-y,z
loop_
_atom_site_type_symbol
_atom_site_label
_atom_site_fract_x
_atom_site_fract_y
_atom_site_fract_z
Si Si1 0.803068 0.960988 0.257937
Si Si2 0.585362 0.627881 0.795689
Si Si3 0.146984 0.936521 0.673986
Si Si4 0.656081 0.193668 0.093264
Si Si5 0.973072 0.447394 0.914948
Si Si6 0.479130 0.880951 0.201972
Si Si7 0.838163 0.644056 0.632704
O O1 0.011694 0.957301 0.241302
O O2 0.616137 0.916087 0.157491
O O3 0.921321 0.953745 0.466661
O O4 0.705850 0.015960 0.205594
O O5 0.325126 0.597928 0.670939
O O6 0.528689 0.669086 0.882550
O O7 0.670460 0.648401 0.688537
O O8 0.796517 0.588543 0.938249
O O9 0.012510 0.904776 0.726389
O O10 0.603170 0.250000 0.052622
O O11 0.947848 0.184804 0.278394
O O12 0.624884 0.164252 0.934637
O O13 0.726385 0.416877 0.832442
O O14 0.000000 0.500000 0.000000
O O15 0.665234 0.862155 0.413105
#
# Coordination Sequence:
#
# PCOD9162844 Si02
#       7
#     4   4   4   4   4   4   4
#     4  10  20  36  55  89 129 170 208 249 300 366
#     4  11  21  39  61  90 128 162 205 260 309 365
#     4   9  20  35  58  86 127 171 210 247 297 371
#     4  11  25  45  67  90 118 159 212 268 325 370
#     4  12  23  33  61  97 132 169 209 244 307 380
#     4  11  23  42  65  91 128 168 205 258 310 374
#     4  10  22  42  66  90 125 162 209 262 312 369
#
# _framework density 19.750813999999998
#
# number of rings (size 3 to 8) (size 9 to 14) (size 15 to 20)
#    0.000    1.429    2.857    2.571    2.000    2.286 
#    0.000    5.714    0.000    0.000    0.000    0.000 
#    0.000    0.000    0.000    0.000    0.000    0.000 
#
# Total GULP energy -156210.653962 kJ/mol
# GULP energy per Si atom -5578.951927 kJ/mol
# Density = 1.970586 g / cm^3
# Si number density = 19.750814 Si / 1000 Ang^3
#
#
#
# Elastic Constant Matrix: (Units=GPa)
#
#
# Indices 1 2 3 4 5 6 
#
# 1 114.4229 38.1470 15.1477 0.0000 -17.0656 0.0000
# 2 38.1470 141.7136 30.9710 0.0000 -3.7036 0.0000
# 3 15.1477 30.9710 65.2734 0.0000 -4.0969 0.0000
# 4 0.0000 0.0000 0.0000 19.3740 0.0000 0.3636
# 5 -17.0656 -3.7036 -4.0969 0.0000 33.5373 0.0000
# 6 0.0000 0.0000 0.0000 0.3636 0.0000 22.2368
#
#
#
# Elastic Compliance Matrix: (Units=1/GPa)
#
#
# Indices 1 2 3 4 5 6 
#
# 1 0.010421 -0.002472 -0.000937 0.000000 0.004915 0.000000
# 2 -0.002472 0.008465 -0.003490 0.000000 -0.000749 0.000000
# 3 -0.000937 -0.003490 0.017272 0.000000 0.001248 0.000000
# 4 0.000000 0.000000 0.000000 0.051631 0.000000 -0.000844
# 5 0.004915 -0.000749 0.001248 0.000000 0.032388 0.000000
# 6 0.000000 0.000000 0.000000 -0.000844 0.000000 0.044984
#
#
# Mechanical properties :
#
#
# Convention : Reuss Voigt Hill
#
# Bulk Modulus (GPa) = 44.72239 54.43790 49.58015
# Shear Modulus (GPa) = 26.82227 30.83924 28.83076
#
# Velocity S-wave (km/s) = 3.68915 3.95576 3.82478
# Velocity P-wave (km/s) = 6.39053 6.96321 6.68301
#
# Compressibility (1/GPa) = 0.02236016
#
# Stress axis : x y z
#
# Youngs Moduli (GPa) = 95.96280 118.13368 57.89784
#
# Poissons Ratio (x) = 0.29201 0.05425
# Poissons Ratio (y) = 0.23721 0.20206
# Poissons Ratio (z) = 0.08991 0.41227
#
# Static dielectric constant tensor:
#      x y z
#    x 1.713340 0.000000 0.011280 
#    y 0.000000 1.709010 0.000000 
#    z 0.011280 0.000000 1.718370 
# 
# From -- ./inp_files/10900.got.cif
#   From: 2010.05.17/outbox.cif.g08.bks.cpg/sg11_6_cif.got.tgz:10900.got - 2010.06.03 12:22:45.
