data_PCOD9162578
_publ_section_title
;
Structure prediction by ZEFSAII (Michael W. Deem and Ramdas Pophale) SiO2 
 PCOD9162578
Probable space group: P 21/M
;
_chemical_formula_sum "Si O2"
_cell_formula_units_Z 28
_cell_length_a 17.683686
_cell_length_b 9.219085
_cell_length_c 19.636936
_cell_angle_alpha 90.000000
_cell_angle_beta 24.118344
_cell_angle_gamma 90.000000
_cell_volume 1308.147823
_symmetry_space_group_name_H-M "P 21/M"
_symmetry_group_IT_number 11
_symmetry_cell_setting 'monoclinic'
loop_
_space_group_symop_operation_xyz
x,y,z
-x,1/2+y,-z
-x,-y,-z
x,1/2-y,z
loop_
_atom_site_type_symbol
_atom_site_label
_atom_site_fract_x
_atom_site_fract_y
_atom_site_fract_z
Si Si1 0.828980 0.421907 0.677304
Si Si2 0.683353 0.090099 0.345194
Si Si3 0.587411 0.089978 0.267585
Si Si4 0.493170 0.576046 0.157168
Si Si5 0.740649 0.422334 0.512357
Si Si6 0.134963 0.922843 0.190652
Si Si7 0.026087 0.575630 0.052610
O O1 0.850111 0.250000 0.647678
O O2 0.635611 0.465206 0.801331
O O3 0.831533 0.446220 0.755816
O O4 0.000000 0.500000 0.500000
O O5 0.679622 0.250000 0.378775
O O6 0.676413 0.108902 0.268834
O O7 0.500000 0.000000 0.500000
O O8 0.854939 0.998251 0.231397
O O9 0.527828 0.250000 0.292235
O O10 0.418373 0.981231 0.407239
O O11 0.776405 0.039831 0.075612
O O12 0.526611 0.750000 0.129387
O O13 0.362524 0.544451 0.330272
O O14 0.688143 0.493610 0.992139
O O15 0.767228 0.250000 0.486430
O O16 0.934934 0.503371 0.342386
O O17 0.125751 0.750000 0.184443
O O18 0.004103 0.750000 0.067353
O O19 0.000000 0.500000 0.000000
#
# Coordination Sequence:
#
# PCOD9162578 Si02
#       7
#     4   4   4   4   4   4   4
#     4  10  20  36  60  88 118 153 195 246 302 353
#     4  10  20  35  57  86 117 148 185 235 287 339
#     4   9  20  38  58  82 114 151 189 231 284 343
#     4  10  22  40  60  86 119 155 198 248 300 352
#     4  11  23  40  62  85 118 161 200 246 297 352
#     4  11  23  38  61  90 118 156 200 246 300 358
#     4   9  17  32  55  80 107 141 179 225 276 329
#
# _framework density 21.404309999999999
#
# number of rings (size 3 to 8) (size 9 to 14) (size 15 to 20)
#    0.000    2.000    1.429    3.000    0.000    5.714 
#    2.571    0.000    0.000    0.000    0.000    0.000 
#    0.000    0.000    0.000    0.000    0.000    0.000 
#
# Total GULP energy -156106.725486 kJ/mol
# GULP energy per Si atom -5575.240196 kJ/mol
# Density = 2.135559 g / cm^3
# Si number density = 21.404310 Si / 1000 Ang^3
#
#
#
# Elastic Constant Matrix: (Units=GPa)
#
#
# Indices 1 2 3 4 5 6 
#
# 1 58.0807 29.4913 31.7983 0.0000 -12.9779 0.0000
# 2 29.4913 106.4177 88.4681 0.0000 -19.9274 0.0000
# 3 31.7983 88.4681 174.7700 0.0000 -37.4462 0.0000
# 4 0.0000 0.0000 0.0000 45.5181 0.0000 -5.4981
# 5 -12.9779 -19.9274 -37.4462 0.0000 24.3412 0.0000
# 6 0.0000 0.0000 0.0000 -5.4981 0.0000 17.6032
#
#
#
# Elastic Compliance Matrix: (Units=1/GPa)
#
#
# Indices 1 2 3 4 5 6 
#
# 1 0.021182 -0.004481 0.000072 0.000000 0.007735 0.000000
# 2 -0.004481 0.017188 -0.008028 0.000000 -0.000669 0.000000
# 3 0.000072 -0.008028 0.012489 0.000000 0.012679 0.000000
# 4 0.000000 0.000000 0.000000 0.022831 0.000000 0.007131
# 5 0.007735 -0.000669 0.012679 0.000000 0.064164 0.000000
# 6 0.000000 0.000000 0.000000 0.007131 0.000000 0.059035
#
#
# Mechanical properties :
#
#
# Convention : Reuss Voigt Hill
#
# Bulk Modulus (GPa) = 38.48623 70.97599 54.73111
# Shear Modulus (GPa) = 21.69893 30.12656 25.91274
#
# Velocity S-wave (km/s) = 3.18742 3.75574 3.48319
# Velocity P-wave (km/s) = 5.61835 7.21381 6.46548
#
# Compressibility (1/GPa) = 0.02598332
#
# Stress axis : x y z
#
# Youngs Moduli (GPa) = 47.20994 58.18079 80.06863
#
# Poissons Ratio (x) = 0.26073 -0.00576
# Poissons Ratio (y) = 0.21157 0.64282
# Poissons Ratio (z) = -0.00340 0.46710
#
# Static dielectric constant tensor:
#      x y z
#    x 1.898800 0.000000 0.144720 
#    y 0.000000 1.778460 0.000000 
#    z 0.144720 0.000000 1.942310 
# 
# From -- ./inp_files/69765.got.cif
#   From: 2010.05.17/outbox.cif.g08.bks.cpg/sg11_35_cif.got.tgz:69765.got - 2010.06.03 12:22:45.
