data_PCOD9162747
_publ_section_title
;
Structure prediction by ZEFSAII (Michael W. Deem and Ramdas Pophale) SiO2 
 PCOD9162747
Probable space group: P 21/M
;
_chemical_formula_sum "Si O2"
_cell_formula_units_Z 32
_cell_length_a 15.279781
_cell_length_b 8.727725
_cell_length_c 12.693923
_cell_angle_alpha 90.000000
_cell_angle_beta 87.697372
_cell_angle_gamma 90.000000
_cell_volume 1691.465841
_symmetry_space_group_name_H-M "P 21/M"
_symmetry_group_IT_number 11
_symmetry_cell_setting 'monoclinic'
loop_
_space_group_symop_operation_xyz
x,y,z
-x,1/2+y,-z
-x,-y,-z
x,1/2-y,z
loop_
_atom_site_type_symbol
_atom_site_label
_atom_site_fract_x
_atom_site_fract_y
_atom_site_fract_z
Si Si1 0.259143 0.434828 0.375357
Si Si2 0.137291 0.433254 0.975274
Si Si3 0.564531 0.066435 0.244275
Si Si4 0.331228 0.565361 0.968468
Si Si5 0.620623 0.433342 0.800454
Si Si6 0.992428 0.934955 0.831670
Si Si7 0.942523 0.935012 0.597780
Si Si8 0.405984 0.066573 0.538995
O O1 0.261388 0.250000 0.363253
O O2 0.294566 0.510045 0.266836
O O3 0.159775 0.479556 0.405883
O O4 0.328535 0.477908 0.462839
O O5 0.140572 0.250000 0.970891
O O6 0.233871 0.500517 0.966187
O O7 0.077811 0.495046 0.882663
O O8 0.088041 0.477383 0.086713
O O9 0.565662 0.250000 0.251687
O O10 0.611097 0.017017 0.134024
O O11 0.464710 0.009344 0.246421
O O12 0.611105 0.995151 0.343327
O O13 0.326963 0.750000 0.967783
O O14 0.372802 0.519077 0.077975
O O15 0.613504 0.250000 0.794094
O O16 0.999305 0.750000 0.833085
O O17 0.976500 0.983198 0.712151
O O18 0.946412 0.750000 0.593960
O O19 0.000000 0.000000 0.500000
O O20 0.412062 0.250000 0.539051
O O21 0.500000 0.000000 0.500000
#
# Coordination Sequence:
#
# PCOD9162747 Si02
#       8
#     4   4   4   4   4   4   4   4
#     4  10  22  40  62  86 116 154 193 240 297 351
#     4  10  20  35  60  88 112 148 194 238 286 347
#     4  11  23  39  58  81 116 158 194 237 293 347
#     4  10  23  39  55  83 121 155 189 236 294 349
#     4  11  22  37  60  87 115 149 195 243 288 347
#     4   9  19  37  59  83 116 152 187 235 294 349
#     4  10  22  40  60  85 118 155 194 239 293 349
#     4  11  22  38  61  87 117 152 196 246 292 343
#
# _framework density 18.918503000000001
#
# number of rings (size 3 to 8) (size 9 to 14) (size 15 to 20)
#    0.000    1.750    1.250    2.625    0.000    6.000 
#    0.000    2.500    0.000    0.000    0.000    0.000 
#    0.000    0.000    0.000    0.000    0.000    0.000 
#
# Total GULP energy -178808.874698 kJ/mol
# GULP energy per Si atom -5587.777334 kJ/mol
# Density = 1.887544 g / cm^3
# Si number density = 18.918503 Si / 1000 Ang^3
#
#
#
# Elastic Constant Matrix: (Units=GPa)
#
#
# Indices 1 2 3 4 5 6 
#
# 1 33.6530 4.8872 36.7940 0.0000 0.9928 0.0000
# 2 4.8872 11.8508 26.9832 0.0000 0.6474 0.0000
# 3 36.7940 26.9832 154.5050 0.0000 2.0560 0.0000
# 4 0.0000 0.0000 0.0000 30.9191 0.0000 -3.8865
# 5 0.9928 0.6474 2.0560 0.0000 25.1201 0.0000
# 6 0.0000 0.0000 0.0000 -3.8865 0.0000 26.9559
#
#
#
# Elastic Compliance Matrix: (Units=1/GPa)
#
#
# Indices 1 2 3 4 5 6 
#
# 1 0.040739 0.008818 -0.011229 0.000000 -0.000918 0.000000
# 2 0.008818 0.142063 -0.026886 0.000000 -0.001809 0.000000
# 3 -0.011229 -0.026886 0.013842 0.000000 0.000004 0.000000
# 4 0.000000 0.000000 0.000000 0.032939 0.000000 0.004749
# 5 -0.000918 -0.001809 0.000004 0.000000 0.039891 0.000000
# 6 0.000000 0.000000 0.000000 0.004749 0.000000 0.037782
#
#
# Mechanical properties :
#
#
# Convention : Reuss Voigt Hill
#
# Bulk Modulus (GPa) = 7.24381 37.48197 22.36289
# Shear Modulus (GPa) = 12.13980 25.35532 18.74756
#
# Velocity S-wave (km/s) = 2.53591 3.66490 3.15137
# Velocity P-wave (km/s) = 3.52302 6.14524 5.00878
#
# Compressibility (1/GPa) = 0.13804895
#
# Stress axis : x y z
#
# Youngs Moduli (GPa) = 24.54643 7.03914 72.24425
#
# Poissons Ratio (x) = -0.06207 0.81127
# Poissons Ratio (y) = -0.21646 1.94237
# Poissons Ratio (z) = 0.27564 0.18926
#
# Static dielectric constant tensor:
#      x y z
#    x 1.625440 0.000000 0.000500 
#    y 0.000000 1.636610 0.000000 
#    z 0.000500 0.000000 1.663180 
# 
# From -- ./inp_files/38279.got.cif
#   From: 2010.05.17/outbox.cif.g08.bks.cpg/sg11_20_cif.got.tgz:38279.got - 2010.06.03 12:22:45.
