data_PCOD9162667
_publ_section_title
;
Structure prediction by ZEFSAII (Michael W. Deem and Ramdas Pophale) SiO2 
 PCOD9162667
Probable space group: P 21/M
;
_chemical_formula_sum "Si O2"
_cell_formula_units_Z 32
_cell_length_a 22.243390
_cell_length_b 9.326678
_cell_length_c 15.339230
_cell_angle_alpha 90.000000
_cell_angle_beta 31.559956
_cell_angle_gamma 90.000000
_cell_volume 1665.548793
_symmetry_space_group_name_H-M "P 21/M"
_symmetry_group_IT_number 11
_symmetry_cell_setting 'monoclinic'
loop_
_space_group_symop_operation_xyz
x,y,z
-x,1/2+y,-z
-x,-y,-z
x,1/2-y,z
loop_
_atom_site_type_symbol
_atom_site_label
_atom_site_fract_x
_atom_site_fract_y
_atom_site_fract_z
Si Si1 0.799803 0.577149 0.875054
Si Si2 0.833072 0.414816 0.660116
Si Si3 0.445391 0.916765 0.801686
Si Si4 0.672276 0.078598 0.507385
Si Si5 0.847955 0.078160 0.437977
Si Si6 0.441197 0.598498 0.006087
Si Si7 0.071647 0.919479 0.128911
Si Si8 0.116929 0.580981 0.878504
O O1 0.794317 0.750000 0.879595
O O2 0.855574 0.517317 0.715178
O O3 0.874871 0.515239 0.861047
O O4 0.673477 0.506851 0.049321
O O5 0.873536 0.250000 0.625936
O O6 0.858965 0.455365 0.527905
O O7 0.694964 0.412274 0.829672
O O8 0.426569 0.750000 0.796963
O O9 0.555853 0.995760 0.625533
O O10 0.481285 0.912537 0.858501
O O11 0.651094 0.250000 0.528609
O O12 0.727783 0.051969 0.535603
O O13 0.774366 0.039144 0.314315
O O14 0.869930 0.250000 0.401711
O O15 0.943772 0.981079 0.274087
O O16 0.472158 0.750000 0.005188
O O17 0.500000 0.500000 0.000000
O O18 0.070757 0.750000 0.152349
O O19 0.137890 0.937412 0.955806
O O20 0.097691 0.750000 0.886224
O O21 0.000000 0.500000 0.000000
#
# Coordination Sequence:
#
# PCOD9162667 Si02
#       8
#     4   4   4   4   4   4   4   4
#     4  11  23  40  61  82 110 154 200 241 286 339
#     4   9  19  35  53  78 113 152 192 236 284 335
#     4  10  21  37  56  81 114 151 190 236 286 339
#     4  10  20  36  59  89 121 150 187 235 285 343
#     4  10  20  35  58  87 120 155 192 238 289 339
#     4   9  17  29  47  72 105 145 186 228 277 330
#     4  11  23  39  60  86 116 152 192 239 290 344
#     4  10  21  38  62  89 119 151 186 232 288 344
#
# _framework density 19.212886999999998
#
# number of rings (size 3 to 8) (size 9 to 14) (size 15 to 20)
#    0.000    2.000    1.250    3.375    0.000    6.000 
#    0.000    0.625    0.000    0.000    0.000    0.000 
#    0.000    0.000    0.000    0.000    0.000    0.000 
#
# Total GULP energy -178271.995587 kJ/mol
# GULP energy per Si atom -5570.999862 kJ/mol
# Density = 1.916916 g / cm^3
# Si number density = 19.212887 Si / 1000 Ang^3
#
#
#
# Elastic Constant Matrix: (Units=GPa)
#
#
# Indices 1 2 3 4 5 6 
#
# 1 49.4342 31.9820 4.0213 0.0000 6.9352 0.0000
# 2 31.9820 77.7412 25.1707 0.0000 0.6166 0.0000
# 3 4.0213 25.1707 90.9281 0.0000 8.0283 0.0000
# 4 0.0000 0.0000 0.0000 25.2211 0.0000 -5.5035
# 5 6.9352 0.6166 8.0283 0.0000 24.3133 0.0000
# 6 0.0000 0.0000 0.0000 -5.5035 0.0000 24.5113
#
#
#
# Elastic Compliance Matrix: (Units=1/GPa)
#
#
# Indices 1 2 3 4 5 6 
#
# 1 0.029812 -0.013212 0.003152 0.000000 -0.009209 0.000000
# 2 -0.013212 0.020007 -0.005399 0.000000 0.005044 0.000000
# 3 0.003152 -0.005399 0.012793 0.000000 -0.004987 0.000000
# 4 0.000000 0.000000 0.000000 0.041692 0.000000 0.009361
# 5 -0.009209 0.005044 -0.004987 0.000000 0.045275 0.000000
# 6 0.000000 0.000000 0.000000 0.009361 0.000000 0.042899
#
#
# Mechanical properties :
#
#
# Convention : Reuss Voigt Hill
#
# Bulk Modulus (GPa) = 31.55216 37.82792 34.69004
# Shear Modulus (GPa) = 21.37105 25.27111 23.32108
#
# Velocity S-wave (km/s) = 3.33878 3.63067 3.48778
# Velocity P-wave (km/s) = 5.59654 6.10797 5.85784
#
# Compressibility (1/GPa) = 0.03169355
#
# Stress axis : x y z
#
# Youngs Moduli (GPa) = 33.54343 49.98358 78.16652
#
# Poissons Ratio (x) = 0.66038 -0.24638
# Poissons Ratio (y) = 0.44317 0.42204
# Poissons Ratio (z) = -0.10573 0.26987
#
# Static dielectric constant tensor:
#      x y z
#    x 1.713870 0.000000 0.040320 
#    y 0.000000 1.657340 0.000000 
#    z 0.040320 0.000000 1.723520 
# 
# From -- ./inp_files/55601.got.cif
#   From: 2010.05.17/outbox.cif.g08.bks.cpg/sg11_28_cif.got.tgz:55601.got - 2010.06.03 12:22:45.
