data_PCOD9162186
_publ_section_title
;
Structure prediction by ZEFSAII (Michael W. Deem and Ramdas Pophale) SiO2 
 PCOD9162186
Probable space group: P 21/M
;
_chemical_formula_sum "Si O2"
_cell_formula_units_Z 32
_cell_length_a 16.441037
_cell_length_b 8.335459
_cell_length_c 12.604177
_cell_angle_alpha 90.000000
_cell_angle_beta 97.826865
_cell_angle_gamma 90.000000
_cell_volume 1711.230102
_symmetry_space_group_name_H-M "P 21/M"
_symmetry_group_IT_number 11
_symmetry_cell_setting 'monoclinic'
loop_
_space_group_symop_operation_xyz
x,y,z
-x,1/2+y,-z
-x,-y,-z
x,1/2-y,z
loop_
_atom_site_type_symbol
_atom_site_label
_atom_site_fract_x
_atom_site_fract_y
_atom_site_fract_z
Si Si1 0.265298 0.440690 0.601339
Si Si2 0.285803 0.557775 0.278742
Si Si3 0.780708 0.056179 0.950642
Si Si4 0.592247 0.559289 0.527296
Si Si5 0.203263 0.940473 0.801908
Si Si6 0.948188 0.563590 0.893051
Si Si7 0.024458 0.434468 0.702337
Si Si8 0.860198 0.442818 0.589667
O O1 0.260680 0.250000 0.587909
O O2 0.346423 0.501096 0.554793
O O3 0.261356 0.483917 0.723480
O O4 0.186657 0.513262 0.526344
O O5 0.285483 0.750000 0.290624
O O6 0.286638 0.524477 0.152844
O O7 0.362918 0.490328 0.356078
O O8 0.202774 0.500708 0.327517
O O9 0.796445 0.250000 0.951750
O O10 0.856540 0.961019 0.915166
O O11 0.775365 0.009584 0.073420
O O12 0.500000 0.500000 0.500000
O O13 0.590885 0.750000 0.520703
O O14 0.211046 0.750000 0.799341
O O15 0.110266 0.983842 0.748812
O O16 0.966112 0.750000 0.870931
O O17 0.971415 0.449137 0.800583
O O18 0.000000 0.500000 0.000000
O O19 0.043177 0.250000 0.678062
O O20 0.954292 0.504843 0.611304
O O21 0.866371 0.250000 0.599340
#
# Coordination Sequence:
#
# PCOD9162186 Si02
#       8
#     4   4   4   4   4   4   4   4
#     4  10  22  39  57  79 110 142 179 224 271 328
#     4   9  17  33  56  83 114 142 172 221 277 325
#     4  10  20  35  53  77 108 145 187 230 275 323
#     4  10  21  38  63  93 115 137 169 213 269 329
#     4  11  23  36  53  76 107 151 195 229 270 325
#     4  12  22  31  47  71 103 144 191 242 283 320
#     4  11  21  34  51  74 105 144 191 241 285 324
#     4   9  18  33  54  76 103 142 185 231 282 327
#
# _framework density 18.699998000000001
#
# number of rings (size 3 to 8) (size 9 to 14) (size 15 to 20)
#    0.000    1.750    2.500    2.625    0.000    4.000 
#    0.000    0.000    0.000    0.750    0.000    0.000 
#    0.000    0.000    0.000    0.000    0.000    0.000 
#
# Total GULP energy -178406.604489 kJ/mol
# GULP energy per Si atom -5575.206390 kJ/mol
# Density = 1.865744 g / cm^3
# Si number density = 18.699998 Si / 1000 Ang^3
#
#
#
# Elastic Constant Matrix: (Units=GPa)
#
#
# Indices 1 2 3 4 5 6 
#
# 1 82.5775 14.0456 55.4236 0.0000 17.7916 0.0000
# 2 14.0456 21.8153 15.6024 0.0000 4.1249 0.0000
# 3 55.4236 15.6024 112.8436 0.0000 2.5361 0.0000
# 4 0.0000 0.0000 0.0000 23.6771 0.0000 -0.2402
# 5 17.7916 4.1249 2.5361 0.0000 19.5576 0.0000
# 6 0.0000 0.0000 0.0000 -0.2402 0.0000 23.2343
#
#
#
# Elastic Compliance Matrix: (Units=1/GPa)
#
#
# Indices 1 2 3 4 5 6 
#
# 1 0.024520 -0.004120 -0.011024 0.000000 -0.020008 0.000000
# 2 -0.004120 0.053525 -0.005223 0.000000 -0.006864 0.000000
# 3 -0.011024 -0.005223 0.014791 0.000000 0.009212 0.000000
# 4 0.000000 0.000000 0.000000 0.042239 0.000000 0.000437
# 5 -0.020008 -0.006864 0.009212 0.000000 0.069585 0.000000
# 6 0.000000 0.000000 0.000000 0.000437 0.000000 0.043044
#
#
# Mechanical properties :
#
#
# Convention : Reuss Voigt Hill
#
# Bulk Modulus (GPa) = 19.19254 43.04218 31.11736
# Shear Modulus (GPa) = 16.35016 22.10478 19.22747
#
# Velocity S-wave (km/s) = 2.96013 3.44186 3.21005
# Velocity P-wave (km/s) = 4.68709 6.23397 5.51504
#
# Compressibility (1/GPa) = 0.05210357
#
# Stress axis : x y z
#
# Youngs Moduli (GPa) = 40.78250 18.68275 67.60670
#
# Poissons Ratio (x) = 0.07697 0.74530
# Poissons Ratio (y) = 0.16801 0.35311
# Poissons Ratio (z) = 0.44959 0.09758
#
# Static dielectric constant tensor:
#      x y z
#    x 1.665260 0.000000 0.023350 
#    y 0.000000 1.638150 0.000000 
#    z 0.023350 0.000000 1.709690 
# 
# From -- ./inp_files/38171.got.cif
#   From: 2010.05.17/outbox.cif.g08.bks.cpg/sg11_20_cif.got.tgz:38171.got - 2010.06.03 12:22:45.
