data_PCOD9162853
_publ_section_title
;
Structure prediction by ZEFSAII (Michael W. Deem and Ramdas Pophale) SiO2 
 PCOD9162853
Probable space group: P 21/M
;
_chemical_formula_sum "Si O2"
_cell_formula_units_Z 28
_cell_length_a 20.763270
_cell_length_b 9.261421
_cell_length_c 8.136874
_cell_angle_alpha 90.000000
_cell_angle_beta 125.698552
_cell_angle_gamma 90.000000
_cell_volume 1270.689837
_symmetry_space_group_name_H-M "P 21/M"
_symmetry_group_IT_number 11
_symmetry_cell_setting 'monoclinic'
loop_
_space_group_symop_operation_xyz
x,y,z
-x,1/2+y,-z
-x,-y,-z
x,1/2-y,z
loop_
_atom_site_type_symbol
_atom_site_label
_atom_site_fract_x
_atom_site_fract_y
_atom_site_fract_z
Si Si1 0.342198 0.418665 0.338312
Si Si2 0.190655 0.424730 0.946984
Si Si3 0.386102 0.585045 0.923141
Si Si4 0.036485 0.076995 0.896680
Si Si5 0.479569 0.584344 0.710331
Si Si6 0.746492 0.585413 0.443498
Si Si7 0.904981 0.579761 0.524621
O O1 0.359879 0.250000 0.333581
O O2 0.422369 0.502970 0.498024
O O3 0.290723 0.424545 0.431307
O O4 0.279357 0.479132 0.112427
O O5 0.197306 0.250000 0.964748
O O6 0.147223 0.457383 0.712234
O O7 0.126140 0.467538 0.987730
O O8 0.380619 0.750000 0.968742
O O9 0.437447 0.492774 0.127595
O O10 0.434033 0.582117 0.819720
O O11 0.302233 0.517942 0.748921
O O12 0.033761 0.250000 0.908309
O O13 0.979299 0.022251 0.665033
O O14 0.000000 0.000000 0.000000
O O15 0.490306 0.750000 0.679447
O O16 0.732983 0.750000 0.364467
O O17 0.840377 0.562394 0.574437
O O18 0.927790 0.750000 0.550596
#
# Coordination Sequence:
#
# PCOD9162853 Si02
#       7
#     4   4   4   4   4   4   4
#     4   9  16  29  48  70  97 131 169 207 250 302
#     4   9  19  35  55  77 104 138 174 211 255 309
#     4   9  16  26  43  68  98 130 165 207 254 302
#     4  11  22  37  57  81 107 136 172 214 258 304
#     4   9  16  26  42  68  99 128 162 207 257 303
#     4   9  17  29  48  72 100 133 168 208 254 303
#     4  10  20  36  56  78 105 138 173 210 257 310
#
# _framework density 22.035274000000001
#
# number of rings (size 3 to 8) (size 9 to 14) (size 15 to 20)
#    0.000    2.571    0.000    2.571    0.000    6.286 
#    0.000    5.714    0.000    0.857    0.000    0.000 
#    0.000    0.000    0.000    0.000    0.000    0.000 
#
# Total GULP energy -156468.824417 kJ/mol
# GULP energy per Si atom -5588.172301 kJ/mol
# Density = 2.198512 g / cm^3
# Si number density = 22.035274 Si / 1000 Ang^3
#
#
#
# Elastic Constant Matrix: (Units=GPa)
#
#
# Indices 1 2 3 4 5 6 
#
# 1 77.5298 11.1538 20.1000 0.0000 7.3249 0.0000
# 2 11.1538 84.0084 45.4555 0.0000 21.5227 0.0000
# 3 20.1000 45.4555 128.0420 0.0000 21.0412 0.0000
# 4 0.0000 0.0000 0.0000 35.2836 0.0000 9.1839
# 5 7.3249 21.5227 21.0412 0.0000 37.8926 0.0000
# 6 0.0000 0.0000 0.0000 9.1839 0.0000 11.0272
#
#
#
# Elastic Compliance Matrix: (Units=1/GPa)
#
#
# Indices 1 2 3 4 5 6 
#
# 1 0.013548 -0.000518 -0.001717 0.000000 -0.001371 0.000000
# 2 -0.000518 0.016113 -0.004568 0.000000 -0.006515 0.000000
# 3 -0.001717 -0.004568 0.010146 0.000000 -0.002707 0.000000
# 4 0.000000 0.000000 0.000000 0.036186 0.000000 -0.030137
# 5 -0.001371 -0.006515 -0.002707 0.000000 0.031859 0.000000
# 6 0.000000 0.000000 0.000000 -0.030137 0.000000 0.115784
#
#
# Mechanical properties :
#
#
# Convention : Reuss Voigt Hill
#
# Bulk Modulus (GPa) = 38.16905 49.22210 43.69557
# Shear Modulus (GPa) = 20.32704 31.03209 25.67956
#
# Velocity S-wave (km/s) = 3.04053 3.75679 3.41748
# Velocity P-wave (km/s) = 5.44847 6.41906 5.95358
#
# Compressibility (1/GPa) = 0.02619924
#
# Stress axis : x y z
#
# Youngs Moduli (GPa) = 73.81386 62.05997 98.55901
#
# Poissons Ratio (x) = 0.03216 0.16927
# Poissons Ratio (y) = 0.03825 0.45025
# Poissons Ratio (z) = 0.12677 0.28351
#
# Static dielectric constant tensor:
#      x y z
#    x 1.870630 0.000000 -0.055790 
#    y 0.000000 1.074910 0.000000 
#    z -0.055790 0.000000 1.840870 
# 
# From -- ./inp_files/28648.got.cif
#   From: 2010.05.17/outbox.cif.g08.bks.cpg/sg11_15_cif.got.tgz:28648.got - 2010.06.03 12:22:45.
