data_PCOD9162729
_publ_section_title
;
Structure prediction by ZEFSAII (Michael W. Deem and Ramdas Pophale) SiO2 
 PCOD9162729
Probable space group: P 21/M
;
_chemical_formula_sum "Si O2"
_cell_formula_units_Z 28
_cell_length_a 11.848310
_cell_length_b 8.735937
_cell_length_c 14.859147
_cell_angle_alpha 90.000000
_cell_angle_beta 110.621148
_cell_angle_gamma 90.000000
_cell_volume 1439.471155
_symmetry_space_group_name_H-M "P 21/M"
_symmetry_group_IT_number 11
_symmetry_cell_setting 'monoclinic'
loop_
_space_group_symop_operation_xyz
x,y,z
-x,1/2+y,-z
-x,-y,-z
x,1/2-y,z
loop_
_atom_site_type_symbol
_atom_site_label
_atom_site_fract_x
_atom_site_fract_y
_atom_site_fract_z
Si Si1 0.449675 0.067149 0.392204
Si Si2 0.114722 0.933434 0.481257
Si Si3 0.354724 0.933470 0.049423
Si Si4 0.817388 0.065310 0.698523
Si Si5 0.381801 0.569106 0.850213
Si Si6 0.335690 0.431606 0.655052
Si Si7 0.887530 0.065693 0.914515
O O1 0.454832 0.250000 0.396210
O O2 0.500000 0.000000 0.500000
O O3 0.314288 0.009789 0.339967
O O4 0.537290 0.002822 0.339948
O O5 0.115834 0.750000 0.488477
O O6 0.116951 0.974785 0.376215
O O7 0.233967 0.999309 0.561899
O O8 0.000000 0.000000 0.500000
O O9 0.373566 0.750000 0.065943
O O10 0.239528 0.980473 0.075470
O O11 0.478174 0.017662 0.109759
O O12 0.333668 0.962205 0.937267
O O13 0.801707 0.250000 0.695574
O O14 0.884964 0.020214 0.808928
O O15 0.373485 0.750000 0.830823
O O16 0.315136 0.479186 0.752427
O O17 0.339071 0.250000 0.646366
O O18 0.892716 0.250000 0.920462
O O19 0.000000 0.000000 0.000000
#
# Coordination Sequence:
#
# PCOD9162729 Si02
#       7
#     4   4   4   4   4   4   4
#     4  12  23  37  62  94 126 159 198 248 306 367
#     4  11  24  42  62  85 119 160 204 251 302 365
#     4   9  19  37  59  86 121 157 194 245 307 366
#     4  10  22  41  64  90 123 161 202 253 309 365
#     4  10  20  35  59  90 121 155 196 246 303 365
#     4  12  24  39  60  88 122 162 204 249 303 362
#     4  10  22  40  61  86 117 156 201 249 301 358
#
# _framework density 19.451588000000001
#
# number of rings (size 3 to 8) (size 9 to 14) (size 15 to 20)
#    0.000    1.429    1.429    4.286    0.000    4.571 
#    0.000    2.857    0.000    0.000    0.000    0.000 
#    0.000    0.000    0.000    0.000    0.000    0.000 
#
# Total GULP energy -156562.262830 kJ/mol
# GULP energy per Si atom -5591.509387 kJ/mol
# Density = 1.940731 g / cm^3
# Si number density = 19.451588 Si / 1000 Ang^3
#
#
#
# Elastic Constant Matrix: (Units=GPa)
#
#
# Indices 1 2 3 4 5 6 
#
# 1 107.9129 40.2768 56.4096 0.0000 -17.0692 0.0000
# 2 40.2768 62.6812 51.6269 0.0000 -10.6937 0.0000
# 3 56.4096 51.6269 152.3930 0.0000 -15.4981 0.0000
# 4 0.0000 0.0000 0.0000 32.8652 0.0000 4.9139
# 5 -17.0692 -10.6937 -15.4981 0.0000 23.5121 0.0000
# 6 0.0000 0.0000 0.0000 4.9139 0.0000 30.5823
#
#
#
# Elastic Compliance Matrix: (Units=1/GPa)
#
#
# Indices 1 2 3 4 5 6 
#
# 1 0.013607 -0.005697 -0.002536 0.000000 0.005616 0.000000
# 2 -0.005697 0.025195 -0.006090 0.000000 0.003309 0.000000
# 3 -0.002536 -0.006090 0.009748 0.000000 0.001815 0.000000
# 4 0.000000 0.000000 0.000000 0.031176 0.000000 -0.005009
# 5 0.005616 0.003309 0.001815 0.000000 0.049309 0.000000
# 6 0.000000 0.000000 0.000000 -0.005009 0.000000 0.033503
#
#
# Mechanical properties :
#
#
# Convention : Reuss Voigt Hill
#
# Bulk Modulus (GPa) = 50.23874 68.84595 59.54234
# Shear Modulus (GPa) = 25.27561 29.03685 27.15623
#
# Velocity S-wave (km/s) = 3.60865 3.86784 3.74049
# Velocity P-wave (km/s) = 6.57623 7.44427 7.02367
#
# Compressibility (1/GPa) = 0.01990496
#
# Stress axis : x y z
#
# Youngs Moduli (GPa) = 73.49349 39.69055 102.58145
#
# Poissons Ratio (x) = 0.22610 0.26011
# Poissons Ratio (y) = 0.41867 0.62474
# Poissons Ratio (z) = 0.18635 0.24172
#
# Static dielectric constant tensor:
#      x y z
#    x 1.655390 0.000000 -0.034900 
#    y 0.000000 1.654560 0.000000 
#    z -0.034900 0.000000 1.686910 
# 
# From -- ./inp_files/49467.got.cif
#   From: 2010.05.17/outbox.cif.g08.bks.cpg/sg11_25_cif.got.tgz:49467.got - 2010.06.03 12:22:45.
