data_PCOD9162635
_publ_section_title
;
Structure prediction by ZEFSAII (Michael W. Deem and Ramdas Pophale) SiO2 
 PCOD9162635
Probable space group: P 21/M
;
_chemical_formula_sum "Si O2"
_cell_formula_units_Z 32
_cell_length_a 16.652548
_cell_length_b 18.000365
_cell_length_c 13.261915
_cell_angle_alpha 90.000000
_cell_angle_beta 154.545513
_cell_angle_gamma 90.000000
_cell_volume 1708.553510
_symmetry_space_group_name_H-M "P 21/M"
_symmetry_group_IT_number 11
_symmetry_cell_setting 'monoclinic'
loop_
_space_group_symop_operation_xyz
x,y,z
-x,1/2+y,-z
-x,-y,-z
x,1/2-y,z
loop_
_atom_site_type_symbol
_atom_site_label
_atom_site_fract_x
_atom_site_fract_y
_atom_site_fract_z
Si Si1 0.049184 0.924805 0.340844
Si Si2 0.798594 0.519432 0.318219
Si Si3 0.369184 0.833211 0.729106
Si Si4 0.424948 0.947776 0.324439
Si Si5 0.001162 0.539508 0.893368
Si Si6 0.378197 0.164279 0.797896
Si Si7 0.627659 0.954116 0.929705
Si Si8 0.321149 0.161517 0.496772
O O1 0.151177 0.846364 0.458671
O O2 0.196232 0.969543 0.577792
O O3 0.045824 0.972409 0.236036
O O4 0.837785 0.925340 0.142285
O O5 0.763118 0.603732 0.314347
O O6 0.000000 0.500000 0.500000
O O7 0.651731 0.502934 0.063409
O O8 0.421952 0.750000 0.762887
O O9 0.488930 0.887673 0.795030
O O10 0.436125 0.843038 0.921970
O O11 0.536995 0.873044 0.424908
O O12 0.500000 0.000000 0.500000
O O13 0.437032 0.995678 0.235389
O O14 0.208674 0.933091 0.101958
O O15 0.858991 0.607918 0.719441
O O16 0.000000 0.500000 0.000000
O O17 0.313236 0.250000 0.736635
O O18 0.394681 0.152398 0.696154
O O19 0.288057 0.250000 0.444633
#
# Coordination Sequence:
#
# PCOD9162635 Si02
#       8
#     4   4   4   4   4   4   4   4
#     4  10  20  35  58  86 113 150 202 248 294 354
#     4   9  17  32  55  86 112 148 198 242 284 359
#     4  10  21  36  56  85 122 161 196 239 304 361
#     4  11  23  40  66  89 118 158 208 257 306 362
#     4  11  22  41  67  87 120 160 209 253 308 363
#     4   9  19  35  57  88 125 160 193 246 309 364
#     4   9  21  35  57  84 114 150 199 246 296 351
#     4  11  23  41  64  94 127 159 200 255 315 366
#
# _framework density 18.729292000000001
#
# number of rings (size 3 to 8) (size 9 to 14) (size 15 to 20)
#    0.000    2.000    2.500    0.750    1.750    2.000 
#    0.000    3.125    0.000    4.500    0.000    0.000 
#    0.000    0.000    0.000    0.000    0.000    0.000 
#
# Total GULP energy -178306.996029 kJ/mol
# GULP energy per Si atom -5572.093626 kJ/mol
# Density = 1.868666 g / cm^3
# Si number density = 18.729292 Si / 1000 Ang^3
#
#
#
# Elastic Constant Matrix: (Units=GPa)
#
#
# Indices 1 2 3 4 5 6 
#
# 1 92.9336 42.6865 34.2382 0.0000 -11.8248 0.0000
# 2 42.6865 84.1343 29.5254 0.0000 6.9431 0.0000
# 3 34.2382 29.5254 71.1551 0.0000 1.2854 0.0000
# 4 0.0000 0.0000 0.0000 24.5568 0.0000 -1.1591
# 5 -11.8248 6.9431 1.2854 0.0000 26.4859 0.0000
# 6 0.0000 0.0000 0.0000 -1.1591 0.0000 23.0975
#
#
#
# Elastic Compliance Matrix: (Units=1/GPa)
#
#
# Indices 1 2 3 4 5 6 
#
# 1 0.017697 -0.007925 -0.005412 0.000000 0.010241 0.000000
# 2 -0.007925 0.017767 -0.003414 0.000000 -0.008030 0.000000
# 3 -0.005412 -0.003414 0.018118 0.000000 -0.002401 0.000000
# 4 0.000000 0.000000 0.000000 0.040819 0.000000 0.002048
# 5 0.010241 -0.008030 -0.002401 0.000000 0.044550 0.000000
# 6 0.000000 0.000000 0.000000 0.002048 0.000000 0.043398
#
#
# Mechanical properties :
#
#
# Convention : Reuss Voigt Hill
#
# Bulk Modulus (GPa) = 49.79973 51.23591 50.51782
# Shear Modulus (GPa) = 22.46741 24.27957 23.37349
#
# Velocity S-wave (km/s) = 3.46726 3.60438 3.53649
# Velocity P-wave (km/s) = 6.53270 6.68861 6.61111
#
# Compressibility (1/GPa) = 0.02008043
#
# Stress axis : x y z
#
# Youngs Moduli (GPa) = 56.50525 56.28316 55.19337
#
# Poissons Ratio (x) = 0.44603 0.29872
# Poissons Ratio (y) = 0.44779 0.18844
# Poissons Ratio (z) = 0.30582 0.19216
#
# Static dielectric constant tensor:
#      x y z
#    x 1.670140 0.000000 0.000990 
#    y 0.000000 1.696620 0.000000 
#    z 0.000990 0.000000 1.674050 
# 
# From -- ./inp_files/39998.got.cif
#   From: 2010.05.17/outbox.cif.g08.bks.cpg/sg11_20_cif.got.tgz:39998.got - 2010.06.03 12:22:45.
