data_PCOD9162209
_publ_section_title
;
Structure prediction by ZEFSAII (Michael W. Deem and Ramdas Pophale) SiO2 
 PCOD9162209
Probable space group: P 21/M
;
_chemical_formula_sum "Si O2"
_cell_formula_units_Z 28
_cell_length_a 15.773220
_cell_length_b 8.537039
_cell_length_c 12.324958
_cell_angle_alpha 90.000000
_cell_angle_beta 116.274869
_cell_angle_gamma 90.000000
_cell_volume 1488.164322
_symmetry_space_group_name_H-M "P 21/M"
_symmetry_group_IT_number 11
_symmetry_cell_setting 'monoclinic'
loop_
_space_group_symop_operation_xyz
x,y,z
-x,1/2+y,-z
-x,-y,-z
x,1/2-y,z
loop_
_atom_site_type_symbol
_atom_site_label
_atom_site_fract_x
_atom_site_fract_y
_atom_site_fract_z
Si Si1 0.269026 0.936863 0.557564
Si Si2 0.175413 0.436903 0.293625
Si Si3 0.420733 0.938986 0.809385
Si Si4 0.368848 0.060604 0.010618
Si Si5 0.097937 0.062524 0.604624
Si Si6 0.035124 0.061783 0.806064
Si Si7 0.807134 0.558623 0.942178
O O1 0.270891 0.750000 0.550919
O O2 0.365178 0.991556 0.670747
O O3 0.245055 0.002959 0.426069
O O4 0.184071 0.986341 0.589421
O O5 0.178715 0.250000 0.295537
O O6 0.198597 0.494011 0.185232
O O7 0.068362 0.488743 0.259173
O O8 0.419431 0.750000 0.810653
O O9 0.529976 0.988843 0.881715
O O10 0.367937 0.998921 0.887322
O O11 0.366847 0.250000 0.005198
O O12 0.281425 0.008330 0.034680
O O13 0.102807 0.250000 0.594299
O O14 0.094154 0.026434 0.730496
O O15 0.000000 0.000000 0.500000
O O16 0.023846 0.250000 0.803845
O O17 0.095838 0.009270 0.944094
O O18 0.807134 0.750000 0.942263
#
# Coordination Sequence:
#
# PCOD9162209 Si02
#       7
#     4   4   4   4   4   4   4
#     4  11  22  36  52  75 110 145 177 214 261 315
#     4  11  22  35  52  74 103 140 183 222 257 308
#     4   9  19  34  56  84 109 135 169 214 267 317
#     4   9  17  35  60  82 106 134 169 217 269 319
#     4  11  21  33  53  79 107 137 172 214 261 313
#     4  10  20  35  54  76 104 137 172 214 267 319
#     4   9  19  35  55  78 102 135 178 219 262 315
#
# _framework density 18.815124999999998
#
# number of rings (size 3 to 8) (size 9 to 14) (size 15 to 20)
#    0.000    2.000    1.429    2.571    0.000    2.857 
#    0.000    3.571    0.000    0.000    0.000    0.000 
#    0.000    0.000    0.000    0.000    0.000    0.000 
#
# Total GULP energy -156345.218506 kJ/mol
# GULP energy per Si atom -5583.757804 kJ/mol
# Density = 1.877230 g / cm^3
# Si number density = 18.815125 Si / 1000 Ang^3
#
#
#
# Elastic Constant Matrix: (Units=GPa)
#
#
# Indices 1 2 3 4 5 6 
#
# 1 30.0009 7.3714 32.0927 0.0000 -0.6305 0.0000
# 2 7.3714 15.3094 28.5860 0.0000 -3.5871 0.0000
# 3 32.0927 28.5860 176.3736 0.0000 1.7685 0.0000
# 4 0.0000 0.0000 0.0000 21.1886 0.0000 -2.6090
# 5 -0.6305 -3.5871 1.7685 0.0000 23.6034 0.0000
# 6 0.0000 0.0000 0.0000 -2.6090 0.0000 17.4447
#
#
#
# Elastic Compliance Matrix: (Units=1/GPa)
#
#
# Indices 1 2 3 4 5 6 
#
# 1 0.042160 -0.008455 -0.006304 0.000000 0.000314 0.000000
# 2 -0.008455 0.101297 -0.015043 0.000000 0.016296 0.000000
# 3 -0.006304 -0.015043 0.009287 0.000000 -0.003150 0.000000
# 4 0.000000 0.000000 0.000000 0.048081 0.000000 0.007191
# 5 0.000314 0.016296 -0.003150 0.000000 0.045088 0.000000
# 6 0.000000 0.000000 0.000000 0.007191 0.000000 0.058400
#
#
# Mechanical properties :
#
#
# Convention : Reuss Voigt Hill
#
# Bulk Modulus (GPa) = 10.73655 39.75378 25.24516
# Shear Modulus (GPa) = 12.65942 22.68958 17.67450
#
# Velocity S-wave (km/s) = 2.59672 3.47641 3.06825
# Velocity P-wave (km/s) = 3.83527 6.10642 5.09891
#
# Compressibility (1/GPa) = 0.09313980
#
# Stress axis : x y z
#
# Youngs Moduli (GPa) = 23.71911 9.87193 107.68242
#
# Poissons Ratio (x) = 0.08347 0.67885
# Poissons Ratio (y) = 0.20055 1.61985
# Poissons Ratio (z) = 0.14953 0.14850
#
# Static dielectric constant tensor:
#      x y z
#    x 1.628750 0.000000 0.005580 
#    y 0.000000 1.641900 0.000000 
#    z 0.005580 0.000000 1.659630 
# 
# From -- ./inp_files/37394.got.cif
#   From: 2010.05.17/outbox.cif.g08.bks.cpg/sg11_19_cif.got.tgz:37394.got - 2010.06.03 12:22:45.
