data_PCOD9162231
_publ_section_title
;
Structure prediction by ZEFSAII (Michael W. Deem and Ramdas Pophale) SiO2 
 PCOD9162231
Probable space group: P 21/M
;
_chemical_formula_sum "Si O2"
_cell_formula_units_Z 32
_cell_length_a 8.695404
_cell_length_b 16.092576
_cell_length_c 27.057868
_cell_angle_alpha 90.000000
_cell_angle_beta 26.836518
_cell_angle_gamma 90.000000
_cell_volume 1709.287239
_symmetry_space_group_name_H-M "P 21/M"
_symmetry_group_IT_number 11
_symmetry_cell_setting 'monoclinic'
loop_
_space_group_symop_operation_xyz
x,y,z
-x,1/2+y,-z
-x,-y,-z
x,1/2-y,z
loop_
_atom_site_type_symbol
_atom_site_label
_atom_site_fract_x
_atom_site_fract_y
_atom_site_fract_z
Si Si1 0.967349 0.847193 0.121412
Si Si2 0.609111 0.652700 0.758829
Si Si3 0.685612 0.451791 0.065771
Si Si4 0.160918 0.959159 0.618907
Si Si5 0.437952 0.152857 0.425284
Si Si6 0.780846 0.080810 0.665680
Si Si7 0.228658 0.527223 0.119061
Si Si8 0.452534 0.571461 0.706299
O O1 0.024902 0.750000 0.102322
O O2 0.568695 0.869284 0.228925
O O3 0.091869 0.884616 0.138336
O O4 0.168216 0.894065 0.020045
O O5 0.597843 0.750000 0.768857
O O6 0.488231 0.604814 0.842529
O O7 0.395239 0.622980 0.772993
O O8 0.989988 0.618324 0.639207
O O9 0.418450 0.514683 0.116485
O O10 0.000000 0.500000 0.000000
O O11 0.284583 0.913080 0.633043
O O12 0.500000 0.000000 0.500000
O O13 0.892484 0.033663 0.684358
O O14 0.534717 0.250000 0.402748
O O15 0.395760 0.128510 0.380128
O O16 0.091301 0.134212 0.554943
O O17 0.693568 0.005898 0.652376
O O18 0.905287 0.466757 0.207987
O O19 0.500000 0.500000 0.000000
#
# Coordination Sequence:
#
# PCOD9162231 Si02
#       8
#     4   4   4   4   4   4   4   4
#     4  10  20  37  59  86 111 140 184 236 280 324
#     4  11  21  35  54  82 114 146 187 241 282 320
#     4  11  21  37  59  82 113 153 189 221 275 345
#     4   9  19  34  52  75 107 146 184 220 273 340
#     4  11  20  32  53  83 111 144 188 237 282 327
#     4   9  19  36  56  77 109 149 185 226 281 346
#     4   9  19  36  56  77 106 145 182 221 272 333
#     4  10  20  35  54  78 111 149 188 228 278 339
#
# _framework density 18.721254999999999
#
# number of rings (size 3 to 8) (size 9 to 14) (size 15 to 20)
#    0.000    2.000    0.000    5.625    0.000    0.000 
#    0.000    9.375    0.000    0.000    0.000   14.875 
#    0.000    0.000    0.000    0.000    0.000    0.000 
#
# Total GULP energy -178259.078032 kJ/mol
# GULP energy per Si atom -5570.596188 kJ/mol
# Density = 1.867864 g / cm^3
# Si number density = 18.721255 Si / 1000 Ang^3
#
#
#
# Elastic Constant Matrix: (Units=GPa)
#
#
# Indices 1 2 3 4 5 6 
#
# 1 131.3341 61.3799 38.1666 0.0000 -0.9477 0.0000
# 2 61.3799 129.8150 39.5034 0.0000 5.1393 0.0000
# 3 38.1666 39.5034 59.0039 0.0000 0.9241 0.0000
# 4 0.0000 0.0000 0.0000 23.7489 0.0000 5.1497
# 5 -0.9477 5.1393 0.9241 0.0000 33.7896 0.0000
# 6 0.0000 0.0000 0.0000 5.1497 0.0000 11.1544
#
#
#
# Elastic Compliance Matrix: (Units=1/GPa)
#
#
# Indices 1 2 3 4 5 6 
#
# 1 0.010645 -0.003733 -0.004402 0.000000 0.000987 0.000000
# 2 -0.003733 0.011040 -0.004951 0.000000 -0.001648 0.000000
# 3 -0.004402 -0.004951 0.023110 0.000000 -0.000002 0.000000
# 4 0.000000 0.000000 0.000000 0.046792 0.000000 -0.021603
# 5 0.000987 -0.001648 -0.000002 0.000000 0.029873 0.000000
# 6 0.000000 0.000000 0.000000 -0.021603 0.000000 0.099624
#
#
# Mechanical properties :
#
#
# Convention : Reuss Voigt Hill
#
# Bulk Modulus (GPa) = 53.69514 66.47253 60.08384
# Shear Modulus (GPa) = 19.72665 25.81214 22.76939
#
# Velocity S-wave (km/s) = 3.24960 3.71720 3.49124
# Velocity P-wave (km/s) = 6.54397 7.34894 6.95810
#
# Compressibility (1/GPa) = 0.01862366
#
# Stress axis : x y z
#
# Youngs Moduli (GPa) = 93.93992 90.57889 43.27073
#
# Poissons Ratio (x) = 0.33811 0.19048
# Poissons Ratio (y) = 0.35065 0.21424
# Poissons Ratio (z) = 0.41354 0.44846
#
# Static dielectric constant tensor:
#      x y z
#    x 1.697500 0.000000 -0.007310 
#    y 0.000000 1.624450 0.000000 
#    z -0.007310 0.000000 1.672960 
# 
# From -- ./inp_files/71110.got.cif
#   From: 2010.05.17/outbox.cif.g08.bks.cpg/sg11_36_cif.got.tgz:71110.got - 2010.06.03 12:22:45.
