data_PCOD9162536
_publ_section_title
;
Structure prediction by ZEFSAII (Michael W. Deem and Ramdas Pophale) SiO2 
 PCOD9162536
Probable space group: P 21/M
;
_chemical_formula_sum "Si O2"
_cell_formula_units_Z 32
_cell_length_a 21.357748
_cell_length_b 14.254441
_cell_length_c 17.932135
_cell_angle_alpha 90.000000
_cell_angle_beta 161.374021
_cell_angle_gamma 90.000000
_cell_volume 1743.643200
_symmetry_space_group_name_H-M "P 21/M"
_symmetry_group_IT_number 11
_symmetry_cell_setting 'monoclinic'
loop_
_space_group_symop_operation_xyz
x,y,z
-x,1/2+y,-z
-x,-y,-z
x,1/2-y,z
loop_
_atom_site_type_symbol
_atom_site_label
_atom_site_fract_x
_atom_site_fract_y
_atom_site_fract_z
Si Si1 0.453663 0.859109 0.894735
Si Si2 0.384363 0.955476 0.217661
Si Si3 0.804495 0.361928 0.853675
Si Si4 0.802832 0.144645 0.538942
Si Si5 0.818939 0.980592 0.349535
Si Si6 0.783612 0.638408 0.613667
Si Si7 0.977938 0.546595 0.691815
Si Si8 0.593470 0.358249 0.460810
O O1 0.452809 0.750000 0.916250
O O2 0.375535 0.863904 0.721559
O O3 0.303257 0.923889 0.771897
O O4 0.665359 0.906279 0.142729
O O5 0.323628 0.915988 0.229752
O O6 0.586601 0.911168 0.417769
O O7 0.420750 0.066558 0.262931
O O8 0.204945 0.929757 0.960652
O O9 0.786476 0.250000 0.847482
O O10 0.727158 0.379869 0.683640
O O11 0.031518 0.386597 0.124642
O O12 0.884180 0.250000 0.622773
O O13 0.720363 0.132869 0.528819
O O14 0.949074 0.061845 0.683291
O O15 0.900352 0.944342 0.520748
O O16 0.000000 0.000000 0.500000
O O17 0.757357 0.750000 0.585710
O O18 0.849137 0.605442 0.605307
O O19 0.527548 0.250000 0.392022
#
# Coordination Sequence:
#
# PCOD9162536 Si02
#       8
#     4   4   4   4   4   4   4   4
#     4   9  20  39  61  84 115 151 188 231 283 341
#     4  11  21  35  59  83 114 150 189 227 285 333
#     4   9  20  38  55  81 115 146 188 236 278 329
#     4   9  18  37  60  81 111 150 183 224 282 336
#     4  10  22  37  60  87 117 148 187 234 287 338
#     4  10  21  39  59  77 108 154 191 232 281 326
#     4  10  22  38  56  84 115 145 185 232 276 338
#     4  10  20  35  57  84 113 145 188 235 277 330
#
# _framework density 18.352378999999999
#
# number of rings (size 3 to 8) (size 9 to 14) (size 15 to 20)
#    0.000    2.250    1.250    0.750    1.750    3.500 
#    2.250    0.000    0.000    0.000    0.000    0.000 
#    0.000    0.000    0.000    0.000    0.000    0.000 
#
# Total GULP energy -178589.472845 kJ/mol
# GULP energy per Si atom -5580.921026 kJ/mol
# Density = 1.831061 g / cm^3
# Si number density = 18.352379 Si / 1000 Ang^3
#
#
#
# Elastic Constant Matrix: (Units=GPa)
#
#
# Indices 1 2 3 4 5 6 
#
# 1 67.9066 26.3668 57.4764 0.0000 4.4802 0.0000
# 2 26.3668 61.9472 40.1357 0.0000 5.2907 0.0000
# 3 57.4764 40.1357 104.7670 0.0000 18.9666 0.0000
# 4 0.0000 0.0000 0.0000 26.3449 0.0000 -3.3863
# 5 4.4802 5.2907 18.9666 0.0000 22.8550 0.0000
# 6 0.0000 0.0000 0.0000 -3.3863 0.0000 24.3926
#
#
#
# Elastic Compliance Matrix: (Units=1/GPa)
#
#
# Indices 1 2 3 4 5 6 
#
# 1 0.029185 -0.002357 -0.016677 0.000000 0.008664 0.000000
# 2 -0.002357 0.021756 -0.007312 0.000000 0.001494 0.000000
# 3 -0.016677 -0.007312 0.024238 0.000000 -0.015153 0.000000
# 4 0.000000 0.000000 0.000000 0.038648 0.000000 0.005365
# 5 0.008664 0.001494 -0.015153 0.000000 0.054285 0.000000
# 6 0.000000 0.000000 0.000000 0.005365 0.000000 0.041741
#
#
# Mechanical properties :
#
#
# Convention : Reuss Voigt Hill
#
# Bulk Modulus (GPa) = 44.46851 53.61984 49.04417
# Shear Modulus (GPa) = 18.51584 22.09465 20.30525
#
# Velocity S-wave (km/s) = 3.17978 3.47351 3.32988
# Velocity P-wave (km/s) = 6.14526 6.73552 6.44715
#
# Compressibility (1/GPa) = 0.02248783
#
# Stress axis : x y z
#
# Youngs Moduli (GPa) = 34.26435 45.96477 41.25711
#
# Poissons Ratio (x) = 0.10835 0.68803
# Poissons Ratio (y) = 0.08077 0.30166
# Poissons Ratio (z) = 0.57141 0.33608
#
# Static dielectric constant tensor:
#      x y z
#    x 1.598120 0.000000 -0.015190 
#    y 0.000000 1.644370 0.000000 
#    z -0.015190 0.000000 1.617190 
# 
# From -- ./inp_files/61615.got.cif
#   From: 2010.05.17/outbox.cif.g08.bks.cpg/sg11_31_cif.got.tgz:61615.got - 2010.06.03 12:22:45.
