data_PCOD9162374
_publ_section_title
;
Structure prediction by ZEFSAII (Michael W. Deem and Ramdas Pophale) SiO2 
 PCOD9162374
Probable space group: P 21/M
;
_chemical_formula_sum "Si O2"
_cell_formula_units_Z 32
_cell_length_a 19.823510
_cell_length_b 8.769793
_cell_length_c 11.509357
_cell_angle_alpha 90.000000
_cell_angle_beta 55.526650
_cell_angle_gamma 90.000000
_cell_volume 1649.504244
_symmetry_space_group_name_H-M "P 21/M"
_symmetry_group_IT_number 11
_symmetry_cell_setting 'monoclinic'
loop_
_space_group_symop_operation_xyz
x,y,z
-x,1/2+y,-z
-x,-y,-z
x,1/2-y,z
loop_
_atom_site_type_symbol
_atom_site_label
_atom_site_fract_x
_atom_site_fract_y
_atom_site_fract_z
Si Si1 0.624934 0.928248 0.318356
Si Si2 0.173866 0.433885 0.604272
Si Si3 0.776933 0.430505 0.056775
Si Si4 0.247072 0.567327 0.183022
Si Si5 0.472852 0.431345 0.347341
Si Si6 0.914514 0.932644 0.542519
Si Si7 0.090440 0.432901 0.921920
Si Si8 0.335453 0.434528 0.309624
O O1 0.644678 0.750000 0.288551
O O2 0.586643 0.953146 0.483204
O O3 0.705689 0.023355 0.214997
O O4 0.554703 0.977516 0.296108
O O5 0.180654 0.250000 0.606007
O O6 0.106480 0.468238 0.571444
O O7 0.143367 0.487897 0.758628
O O8 0.261050 0.486089 0.467662
O O9 0.790406 0.250000 0.044213
O O10 0.860324 0.512069 0.013305
O O11 0.746268 0.475705 0.958343
O O12 0.247914 0.750000 0.191212
O O13 0.160413 0.503361 0.312553
O O14 0.315138 0.500028 0.203181
O O15 0.491571 0.250000 0.323208
O O16 0.421307 0.476973 0.284523
O O17 0.913843 0.750000 0.555885
O O18 0.000000 0.000000 0.500000
O O19 0.086371 0.250000 0.923869
O O20 0.000000 0.500000 0.000000
O O21 0.332065 0.250000 0.307880
#
# Coordination Sequence:
#
# PCOD9162374 Si02
#       8
#     4   4   4   4   4   4   4   4
#     4  10  20  35  58  88 117 150 189 229 276 333
#     4   8  17  34  54  76 107 140 173 220 276 327
#     4  11  24  41  58  78 113 154 189 231 285 336
#     4  10  22  38  55  78 109 147 188 233 283 331
#     4   9  18  34  58  88 121 149 180 228 284 335
#     4  10  20  35  56  80 105 138 180 227 279 331
#     4  11  23  39  58  82 111 146 186 228 279 338
#     4   9  17  34  59  83 108 144 185 228 280 332
#
# _framework density 19.399768000000002
#
# number of rings (size 3 to 8) (size 9 to 14) (size 15 to 20)
#    0.000    2.250    0.000    3.375    1.750    5.000 
#    0.000    8.750    0.000    0.000    0.000    0.000 
#    0.000    0.000    0.000    0.000    0.000    0.000 
#
# Total GULP energy -178659.030604 kJ/mol
# GULP energy per Si atom -5583.094706 kJ/mol
# Density = 1.935561 g / cm^3
# Si number density = 19.399768 Si / 1000 Ang^3
#
#
#
# Elastic Constant Matrix: (Units=GPa)
#
#
# Indices 1 2 3 4 5 6 
#
# 1 103.7752 27.7394 1.9199 0.0000 2.1191 0.0000
# 2 27.7394 35.1072 13.2586 0.0000 4.5742 0.0000
# 3 1.9199 13.2586 27.0566 0.0000 9.4479 0.0000
# 4 0.0000 0.0000 0.0000 25.5446 0.0000 -1.3900
# 5 2.1191 4.5742 9.4479 0.0000 17.7317 0.0000
# 6 0.0000 0.0000 0.0000 -1.3900 0.0000 31.8984
#
#
#
# Elastic Compliance Matrix: (Units=1/GPa)
#
#
# Indices 1 2 3 4 5 6 
#
# 1 0.012758 -0.011953 0.005415 0.000000 -0.001327 0.000000
# 2 -0.011953 0.046151 -0.022249 0.000000 0.001377 0.000000
# 3 0.005415 -0.022249 0.056146 0.000000 -0.024824 0.000000
# 4 0.000000 0.000000 0.000000 0.039240 0.000000 0.001710
# 5 -0.001327 0.001377 -0.024824 0.000000 0.069426 0.000000
# 6 0.000000 0.000000 0.000000 0.001710 0.000000 0.031424
#
#
# Mechanical properties :
#
#
# Convention : Reuss Voigt Hill
#
# Bulk Modulus (GPa) = 17.39636 27.97497 22.68567
# Shear Modulus (GPa) = 15.06570 23.23634 19.15102
#
# Velocity S-wave (km/s) = 2.78976 3.46463 3.14535
# Velocity P-wave (km/s) = 4.40043 5.51873 4.99100
#
# Compressibility (1/GPa) = 0.05748328
#
# Stress axis : x y z
#
# Youngs Moduli (GPa) = 78.38115 21.66778 17.81069
#
# Poissons Ratio (x) = 0.25899 -0.09645
# Poissons Ratio (y) = 0.93689 0.39626
# Poissons Ratio (z) = -0.42446 0.48208
#
# Static dielectric constant tensor:
#      x y z
#    x 1.682400 0.000000 0.022400 
#    y 0.000000 1.652850 0.000000 
#    z 0.022400 0.000000 1.678150 
# 
# From -- ./inp_files/42802.got.cif
#   From: 2010.05.17/outbox.cif.g08.bks.cpg/sg11_22_cif.got.tgz:42802.got - 2010.06.03 12:22:45.
