data_PCOD9162201
_publ_section_title
;
Structure prediction by ZEFSAII (Michael W. Deem and Ramdas Pophale) SiO2 
 PCOD9162201
Probable space group: P 21/M
;
_chemical_formula_sum "Si O2"
_cell_formula_units_Z 28
_cell_length_a 19.585331
_cell_length_b 9.174528
_cell_length_c 7.208900
_cell_angle_alpha 90.000000
_cell_angle_beta 107.805831
_cell_angle_gamma 90.000000
_cell_volume 1233.290615
_symmetry_space_group_name_H-M "P 21/M"
_symmetry_group_IT_number 11
_symmetry_cell_setting 'monoclinic'
loop_
_space_group_symop_operation_xyz
x,y,z
-x,1/2+y,-z
-x,-y,-z
x,1/2-y,z
loop_
_atom_site_type_symbol
_atom_site_label
_atom_site_fract_x
_atom_site_fract_y
_atom_site_fract_z
Si Si1 0.965450 0.588150 0.243376
Si Si2 0.806397 0.573252 0.235524
Si Si3 0.632731 0.580700 0.416147
Si Si4 0.089405 0.411622 0.217186
Si Si5 0.481332 0.925306 0.181839
Si Si6 0.341355 0.081118 0.011756
Si Si7 0.772832 0.077066 0.597313
O O1 0.982821 0.750000 0.330258
O O2 0.887562 0.540930 0.247923
O O3 0.033185 0.482030 0.314359
O O4 0.951149 0.602758 0.010964
O O5 0.800565 0.750000 0.259030
O O6 0.742130 0.539213 0.037839
O O7 0.790332 0.480716 0.404456
O O8 0.641349 0.750000 0.473856
O O9 0.549540 0.536815 0.367482
O O10 0.646431 0.572130 0.203156
O O11 0.693952 0.488231 0.566750
O O12 0.111867 0.250000 0.297211
O O13 0.159292 0.508952 0.241215
O O14 0.480464 0.750000 0.162653
O O15 0.500000 0.000000 0.000000
O O16 0.402389 0.985454 0.158674
O O17 0.351535 0.250000 0.071834
O O18 0.772057 0.250000 0.609750
#
# Coordination Sequence:
#
# PCOD9162201 Si02
#       7
#     4   4   4   4   4   4   4
#     4   9  19  36  56  74  92 120 159 196 232 280
#     4   9  18  33  50  70  98 127 156 194 237 279
#     4   8  15  27  40  58  88 124 157 191 232 273
#     4  10  20  35  54  73  95 123 154 193 239 282
#     4   9  15  22  35  56  85 120 154 187 225 270
#     4   8  14  24  39  60  88 120 150 184 228 274
#     4  11  21  31  47  72  99 127 159 194 234 280
#
# _framework density 22.703491
#
# number of rings (size 3 to 8) (size 9 to 14) (size 15 to 20)
#    0.000    2.857    0.000    3.857    0.000    7.429 
#    0.000    0.000    0.000    0.000    0.000    1.000 
#    0.000    0.000    0.000    0.000    0.000    0.000 
#
# Total GULP energy -156280.849578 kJ/mol
# GULP energy per Si atom -5581.458913 kJ/mol
# Density = 2.265182 g / cm^3
# Si number density = 22.703491 Si / 1000 Ang^3
#
#
#
# Elastic Constant Matrix: (Units=GPa)
#
#
# Indices 1 2 3 4 5 6 
#
# 1 123.0909 45.2557 34.6675 0.0000 29.9367 0.0000
# 2 45.2557 91.1059 47.6240 0.0000 35.4243 0.0000
# 3 34.6675 47.6240 83.0791 0.0000 32.4094 0.0000
# 4 0.0000 0.0000 0.0000 26.8084 0.0000 21.9109
# 5 29.9367 35.4243 32.4094 0.0000 36.1743 0.0000
# 6 0.0000 0.0000 0.0000 21.9109 0.0000 18.9252
#
#
#
# Elastic Compliance Matrix: (Units=1/GPa)
#
#
# Indices 1 2 3 4 5 6 
#
# 1 0.010685 -0.002815 -0.000724 0.000000 -0.005438 0.000000
# 2 -0.002815 0.020067 -0.005490 0.000000 -0.012402 0.000000
# 3 -0.000724 -0.005490 0.020223 0.000000 -0.012143 0.000000
# 4 0.000000 0.000000 0.000000 0.694054 0.000000 -0.803550
# 5 -0.005438 -0.012402 -0.012143 0.000000 0.055168 0.000000
# 6 0.000000 0.000000 0.000000 -0.803550 0.000000 0.983160
#
#
# Mechanical properties :
#
#
# Convention : Reuss Voigt Hill
#
# Bulk Modulus (GPa) = 30.37966 61.37447 45.87707
# Shear Modulus (GPa) = 2.75879 27.69682 15.22780
#
# Velocity S-wave (km/s) = 1.10353 3.49655 2.59265
# Velocity P-wave (km/s) = 3.87735 6.58733 5.40494
#
# Compressibility (1/GPa) = 0.03291676
#
# Stress axis : x y z
#
# Youngs Moduli (GPa) = 93.58524 49.83334 49.44895
#
# Poissons Ratio (x) = 0.14029 0.03579
# Poissons Ratio (y) = 0.26346 0.27148
# Poissons Ratio (z) = 0.06774 0.27359
#
# Static dielectric constant tensor:
#      x y z
#    x 1.902850 0.000000 -0.013260 
#    y 0.000000 1.791250 0.000000 
#    z -0.013260 0.000000 1.903480 
# 
# From -- ./inp_files/42602.got.cif
#   From: 2010.05.17/outbox.cif.g08.bks.cpg/sg11_22_cif.got.tgz:42602.got - 2010.06.03 12:22:45.
