data_PCOD9162307
_publ_section_title
;
Structure prediction by ZEFSAII (Michael W. Deem and Ramdas Pophale) SiO2 
 PCOD9162307
Probable space group: P 21/M
;
_chemical_formula_sum "Si O2"
_cell_formula_units_Z 24
_cell_length_a 16.323819
_cell_length_b 8.808610
_cell_length_c 16.292484
_cell_angle_alpha 90.000000
_cell_angle_beta 36.108773
_cell_angle_gamma 90.000000
_cell_volume 1380.599419
_symmetry_space_group_name_H-M "P 21/M"
_symmetry_group_IT_number 11
_symmetry_cell_setting 'monoclinic'
loop_
_space_group_symop_operation_xyz
x,y,z
-x,1/2+y,-z
-x,-y,-z
x,1/2-y,z
loop_
_atom_site_type_symbol
_atom_site_label
_atom_site_fract_x
_atom_site_fract_y
_atom_site_fract_z
Si Si1 0.102685 0.430989 0.798071
Si Si2 0.130879 0.432396 0.441219
Si Si3 0.481305 0.933495 0.752900
Si Si4 0.436152 0.431751 0.133442
Si Si5 0.773151 0.068951 0.467097
Si Si6 0.800935 0.067712 0.111904
O O1 0.115680 0.250000 0.778079
O O2 0.158905 0.512587 0.672033
O O3 0.185041 0.485830 0.812158
O O4 0.940805 0.467583 0.947561
O O5 0.122316 0.250000 0.452327
O O6 0.274711 0.473166 0.278339
O O7 0.146280 0.498538 0.520171
O O8 0.000000 0.500000 0.500000
O O9 0.497771 0.750000 0.735875
O O10 0.485609 0.977085 0.845653
O O11 0.338032 0.974126 0.824506
O O12 0.615241 0.008284 0.602478
O O13 0.443627 0.250000 0.121700
O O14 0.500000 0.500000 0.000000
O O15 0.774905 0.250000 0.470669
O O16 0.799707 0.250000 0.126235
#
# Coordination Sequence:
#
# PCOD9162307 Si02
#       6
#     4   4   4   4   4   4
#     4  10  20  35  55  80 110 142 175 218 270 319
#     4  10  21  38  57  80 109 141 178 220 265 313
#     4   9  19  37  56  76 105 139 177 222 268 314
#     4   9  19  34  53  78 107 138 174 217 264 314
#     4  11  22  36  55  80 108 141 180 219 262 315
#     4   9  19  36  57  79 104 138 180 223 268 319
#
# _framework density 17.383754
#
# number of rings (size 3 to 8) (size 9 to 14) (size 15 to 20)
#    0.000    2.333    0.000    3.500    0.000    6.667 
#    0.000    1.667    0.000    0.000    0.000    0.000 
#    0.000    0.000    0.000    0.000    0.000    0.000 
#
# Total GULP energy -133955.835113 kJ/mol
# GULP energy per Si atom -5581.493130 kJ/mol
# Density = 1.734419 g / cm^3
# Si number density = 17.383754 Si / 1000 Ang^3
#
#
#
# Elastic Constant Matrix: (Units=GPa)
#
#
# Indices 1 2 3 4 5 6 
#
# 1 178.4872 68.5944 111.0325 0.0000 -13.2150 0.0000
# 2 68.5944 62.3027 61.5077 0.0000 3.2864 0.0000
# 3 111.0325 61.5077 130.4853 0.0000 22.6132 0.0000
# 4 0.0000 0.0000 0.0000 32.1661 0.0000 4.5291
# 5 -13.2150 3.2864 22.6132 0.0000 27.1698 0.0000
# 6 0.0000 0.0000 0.0000 4.5291 0.0000 33.0316
#
#
#
# Elastic Compliance Matrix: (Units=1/GPa)
#
#
# Indices 1 2 3 4 5 6 
#
# 1 0.026631 -0.005128 -0.026404 0.000000 0.035549 0.000000
# 2 -0.005128 0.033275 -0.011910 0.000000 0.003393 0.000000
# 3 -0.026404 -0.011910 0.044079 0.000000 -0.048089 0.000000
# 4 0.000000 0.000000 0.000000 0.031701 0.000000 -0.004347
# 5 0.035549 0.003393 -0.048089 0.000000 0.093710 0.000000
# 6 0.000000 0.000000 0.000000 -0.004347 0.000000 0.030870
#
#
# Mechanical properties :
#
#
# Convention : Reuss Voigt Hill
#
# Bulk Modulus (GPa) = 58.47376 94.83827 76.65602
# Shear Modulus (GPa) = 14.17034 27.14953 20.65993
#
# Velocity S-wave (km/s) = 2.85818 3.95622 3.45115
# Velocity P-wave (km/s) = 6.67849 8.69155 7.75065
#
# Compressibility (1/GPa) = 0.01710169
#
# Stress axis : x y z
#
# Youngs Moduli (GPa) = 37.55062 30.05224 22.68647
#
# Poissons Ratio (x) = 0.15411 0.59901
# Poissons Ratio (y) = 0.19256 0.27019
# Poissons Ratio (z) = 0.99149 0.35791
#
# Static dielectric constant tensor:
#      x y z
#    x 1.570690 0.000000 -0.007120 
#    y 0.000000 1.582340 0.000000 
#    z -0.007120 0.000000 1.566450 
# 
# From -- ./inp_files/25751.got.cif
#   From: 2010.05.17/outbox.cif.g08.bks.cpg/sg11_13_cif.got.tgz:25751.got - 2010.06.03 12:22:45.
