data_PCOD9162827
_publ_section_title
;
Structure prediction by ZEFSAII (Michael W. Deem and Ramdas Pophale) SiO2 
 PCOD9162827
Probable space group: P 21/M
;
_chemical_formula_sum "Si O2"
_cell_formula_units_Z 32
_cell_length_a 12.049226
_cell_length_b 8.562605
_cell_length_c 29.255676
_cell_angle_alpha 90.000000
_cell_angle_beta 31.437412
_cell_angle_gamma 90.000000
_cell_volume 1574.291624
_symmetry_space_group_name_H-M "P 21/M"
_symmetry_group_IT_number 11
_symmetry_cell_setting 'monoclinic'
loop_
_space_group_symop_operation_xyz
x,y,z
-x,1/2+y,-z
-x,-y,-z
x,1/2-y,z
loop_
_atom_site_type_symbol
_atom_site_label
_atom_site_fract_x
_atom_site_fract_y
_atom_site_fract_z
Si Si1 0.963491 0.436215 0.280303
Si Si2 0.373291 0.440624 0.848385
Si Si3 0.639803 0.069582 0.909963
Si Si4 0.834605 0.934972 0.174193
Si Si5 0.598240 0.062577 0.345090
Si Si6 0.235005 0.068274 0.992313
Si Si7 0.112266 0.060712 0.506401
Si Si8 0.861851 0.438471 0.685835
O O1 0.957311 0.250000 0.286322
O O2 0.738067 0.493397 0.339117
O O3 0.147169 0.481414 0.179314
O O4 0.027378 0.505006 0.306761
O O5 0.370623 0.250000 0.850926
O O6 0.278446 0.487488 0.833173
O O7 0.237583 0.494218 0.939776
O O8 0.617035 0.491804 0.768377
O O9 0.691326 0.250000 0.901441
O O10 0.477598 0.064001 0.924162
O O11 0.500000 0.000000 0.000000
O O12 0.806361 0.750000 0.189218
O O13 0.729546 0.018008 0.253933
O O14 0.081204 0.975009 0.079797
O O15 0.587681 0.250000 0.352143
O O16 0.356534 0.005360 0.425213
O O17 0.167679 0.250000 0.016958
O O18 0.111335 0.250000 0.504872
O O19 0.984988 0.012935 0.596678
O O20 0.000000 0.000000 0.500000
O O21 0.859461 0.250000 0.687856
#
# Coordination Sequence:
#
# PCOD9162827 Si02
#       8
#     4   4   4   4   4   4   4   4
#     4  11  23  39  59  85 119 158 202 247 293 352
#     4   9  18  35  56  81 115 150 188 236 296 355
#     4  11  22  37  58  82 115 159 204 249 299 353
#     4  11  22  35  57  87 115 150 200 250 288 345
#     4  10  23  42  59  83 122 160 191 234 299 359
#     4  10  20  36  55  77 113 157 191 234 302 360
#     4  10  22  41  67  94 123 157 196 241 298 360
#     4  10  20  39  64  88 117 157 198 245 302 356
#
# _framework density 20.326602999999999
#
# number of rings (size 3 to 8) (size 9 to 14) (size 15 to 20)
#    0.000    1.750    1.250    3.000    0.000    7.500 
#    0.000    1.875    0.000    0.000    0.000    0.000 
#    0.000    0.000    0.000    0.000    0.000    0.000 
#
# Total GULP energy -178806.570082 kJ/mol
# GULP energy per Si atom -5587.705315 kJ/mol
# Density = 2.028034 g / cm^3
# Si number density = 20.326603 Si / 1000 Ang^3
#
#
#
# Elastic Constant Matrix: (Units=GPa)
#
#
# Indices 1 2 3 4 5 6 
#
# 1 87.7950 11.1030 33.0093 0.0000 -5.9225 0.0000
# 2 11.1030 8.9862 4.2708 0.0000 -2.8756 0.0000
# 3 33.0093 4.2708 108.9791 0.0000 -4.9216 0.0000
# 4 0.0000 0.0000 0.0000 15.0438 0.0000 -0.0868
# 5 -5.9225 -2.8756 -4.9216 0.0000 37.0131 0.0000
# 6 0.0000 0.0000 0.0000 -0.0868 0.0000 30.5889
#
#
#
# Elastic Compliance Matrix: (Units=1/GPa)
#
#
# Indices 1 2 3 4 5 6 
#
# 1 0.014964 -0.016462 -0.003860 0.000000 0.000602 0.000000
# 2 -0.016462 0.134075 0.000084 0.000000 0.007793 0.000000
# 3 -0.003860 0.000084 0.010377 0.000000 0.000769 0.000000
# 4 0.000000 0.000000 0.000000 0.066474 0.000000 0.000189
# 5 0.000602 0.007793 0.000769 0.000000 0.027821 0.000000
# 6 0.000000 0.000000 0.000000 0.000189 0.000000 0.032692
#
#
# Mechanical properties :
#
#
# Convention : Reuss Voigt Hill
#
# Bulk Modulus (GPa) = 8.40762 33.61407 21.01085
# Shear Modulus (GPa) = 13.64161 27.02097 20.33129
#
# Velocity S-wave (km/s) = 2.59341 3.64997 3.16607
# Velocity P-wave (km/s) = 3.62118 5.85968 4.87077
#
# Compressibility (1/GPa) = 0.11893967
#
# Stress axis : x y z
#
# Youngs Moduli (GPa) = 66.82714 7.45851 96.36942
#
# Poissons Ratio (x) = 0.12278 0.37201
# Poissons Ratio (y) = 1.10008 -0.00808
# Poissons Ratio (z) = 0.25797 -0.00062
#
# Static dielectric constant tensor:
#      x y z
#    x 1.748050 0.000000 -0.017380 
#    y 0.000000 1.701940 0.000000 
#    z -0.017380 0.000000 1.698860 
# 
# From -- ./inp_files/73126.got.cif
#   From: 2010.05.17/outbox.cif.g08.bks.cpg/sg11_37_cif.got.tgz:73126.got - 2010.06.03 12:22:45.
