data_PCOD9162894
_publ_section_title
;
Structure prediction by ZEFSAII (Michael W. Deem and Ramdas Pophale) SiO2 
 PCOD9162894
Probable space group: P 21/M
;
_chemical_formula_sum "Si O2"
_cell_formula_units_Z 28
_cell_length_a 23.286302
_cell_length_b 8.622435
_cell_length_c 9.412904
_cell_angle_alpha 90.000000
_cell_angle_beta 52.674881
_cell_angle_gamma 90.000000
_cell_volume 1502.915900
_symmetry_space_group_name_H-M "P 21/M"
_symmetry_group_IT_number 11
_symmetry_cell_setting 'monoclinic'
loop_
_space_group_symop_operation_xyz
x,y,z
-x,1/2+y,-z
-x,-y,-z
x,1/2-y,z
loop_
_atom_site_type_symbol
_atom_site_label
_atom_site_fract_x
_atom_site_fract_y
_atom_site_fract_z
Si Si1 0.065419 0.064217 0.993365
Si Si2 0.065419 0.564217 0.310377
Si Si3 0.365551 0.937046 0.041958
Si Si4 0.500000 0.435865 0.660262
Si Si5 0.772864 0.063210 0.931562
Si Si6 0.772863 0.936790 0.249848
Si Si7 0.634449 0.562953 0.638613
O O1 0.062446 0.250000 0.998735
O O2 0.058018 1.000000 0.162973
O O3 0.146323 0.016681 0.823382
O O4 0.000000 0.000000 0.000000
O O5 0.062446 0.750000 0.313929
O O6 0.146323 0.516681 0.237650
O O7 0.000000 0.500000 0.500000
O O8 0.369708 0.750000 0.037716
O O9 0.290144 0.984883 0.080919
O O10 0.370598 0.999998 0.194103
O O11 0.430211 0.002966 0.849430
O O12 0.500000 0.500000 0.500000
O O13 0.500002 0.250000 0.657222
O O14 0.569789 0.497039 0.640064
O O15 0.771478 0.250000 0.942194
O O16 0.760585 1.000000 0.109122
O O17 0.771477 0.750000 0.243375
O O18 0.709856 0.984883 0.451351
O O19 0.630293 0.750000 0.646845
#
# Coordination Sequence:
#
# PCOD9162894 Si02
#       7
#     4   4   4   4   4   4   4
#     4  10  20  36  56  82 113 149 189 234 283 336
#     4  10  20  36  56  82 113 149 189 234 283 336
#     4  11  23  40  60  86 117 151 188 232 281 332
#     4  12  25  42  63  88 116 150 188 230 277 334
#     4   9  20  37  58  82 111 146 189 233 280 335
#     4   9  20  37  58  82 111 146 189 233 280 335
#     4  11  23  40  60  86 117 151 188 232 281 332
#
# _framework density 18.63045
#
# number of rings (size 3 to 8) (size 9 to 14) (size 15 to 20)
#    0.000    1.714    0.000    4.286    0.000    6.857 
#    0.000    2.857    0.000    0.000    0.000    0.000 
#    0.000    0.000    0.000    0.000    0.000    0.000 
#
# Total GULP energy -156435.041026 kJ/mol
# GULP energy per Si atom -5586.965751 kJ/mol
# Density = 1.858805 g / cm^3
# Si number density = 18.630450 Si / 1000 Ang^3
#
#
#
# Elastic Constant Matrix: (Units=GPa)
#
#
# Indices 1 2 3 4 5 6 
#
# 1 201.1090 59.2996 115.8199 0.0000 -12.6239 0.0000
# 2 59.2996 76.0023 56.6909 0.0000 -7.4057 0.0000
# 3 115.8199 56.6909 190.4589 0.0000 -17.5982 0.0000
# 4 0.0000 0.0000 0.0000 32.8095 0.0000 5.9532
# 5 -12.6239 -7.4057 -17.5982 0.0000 26.3074 0.0000
# 6 0.0000 0.0000 0.0000 5.9532 0.0000 30.7106
#
#
#
# Elastic Compliance Matrix: (Units=1/GPa)
#
#
# Indices 1 2 3 4 5 6 
#
# 1 0.008319 -0.003480 -0.003991 0.000000 0.000342 0.000000
# 2 -0.003480 0.018423 -0.003243 0.000000 0.001347 0.000000
# 3 -0.003991 -0.003243 0.008934 0.000000 0.003148 0.000000
# 4 0.000000 0.000000 0.000000 0.031590 0.000000 -0.006124
# 5 0.000342 0.001347 0.003148 0.000000 0.040661 0.000000
# 6 0.000000 0.000000 0.000000 -0.006124 0.000000 0.033749
#
#
# Mechanical properties :
#
#
# Convention : Reuss Voigt Hill
#
# Bulk Modulus (GPa) = 70.19068 103.46566 86.82817
# Shear Modulus (GPa) = 29.78793 33.68280 31.73537
#
# Velocity S-wave (km/s) = 4.00294 4.25660 4.13172
# Velocity P-wave (km/s) = 7.68907 8.93390 8.33476
#
# Compressibility (1/GPa) = 0.01424691
#
# Stress axis : x y z
#
# Youngs Moduli (GPa) = 120.21307 54.28007 111.93599
#
# Poissons Ratio (x) = 0.18890 0.44675
# Poissons Ratio (y) = 0.41835 0.36301
# Poissons Ratio (z) = 0.47978 0.17603
#
# Static dielectric constant tensor:
#      x y z
#    x 1.630680 0.000000 -0.033450 
#    y 0.000000 1.632770 0.000000 
#    z -0.033450 0.000000 1.618890 
# 
# From -- ./inp_files/26078.got.cif
#   From: 2010.05.17/outbox.cif.g08.bks.cpg/sg11_14_cif.got.tgz:26078.got - 2010.06.03 12:22:45.
