data_PCOD9162471
_publ_section_title
;
Structure prediction by ZEFSAII (Michael W. Deem and Ramdas Pophale) SiO2 
 PCOD9162471
Probable space group: P 21/M
;
_chemical_formula_sum "Si O2"
_cell_formula_units_Z 32
_cell_length_a 25.886633
_cell_length_b 7.794711
_cell_length_c 15.996942
_cell_angle_alpha 90.000000
_cell_angle_beta 153.234855
_cell_angle_gamma 90.000000
_cell_volume 1453.609464
_symmetry_space_group_name_H-M "P 21/M"
_symmetry_group_IT_number 11
_symmetry_cell_setting 'monoclinic'
loop_
_space_group_symop_operation_xyz
x,y,z
-x,1/2+y,-z
-x,-y,-z
x,1/2-y,z
loop_
_atom_site_type_symbol
_atom_site_label
_atom_site_fract_x
_atom_site_fract_y
_atom_site_fract_z
Si Si1 0.373324 0.045182 0.348542
Si Si2 0.865549 0.047689 0.057659
Si Si3 0.901002 0.043057 0.290879
Si Si4 0.627279 0.455891 0.154691
Si Si5 0.407282 0.458032 0.585467
Si Si6 0.990795 0.440788 0.081266
Si Si7 0.763995 0.046527 0.512155
Si Si8 0.343961 0.540139 0.993326
O O1 0.360797 0.250000 0.328921
O O2 0.364147 0.985751 0.431926
O O3 0.500000 0.000000 0.500000
O O4 0.271743 0.969079 0.145638
O O5 0.895065 0.250000 0.099846
O O6 0.916098 0.977768 0.217574
O O7 0.915159 0.968602 0.043513
O O8 0.895962 0.250000 0.279886
O O9 0.775687 0.982639 0.140187
O O10 0.000000 0.000000 0.500000
O O11 0.636975 0.250000 0.166190
O O12 0.711887 0.516305 0.349411
O O13 0.500000 0.500000 0.000000
O O14 0.649501 0.518869 0.093414
O O15 0.404978 0.250000 0.583541
O O16 0.327683 0.519954 0.546105
O O17 0.539100 0.512833 0.791317
O O18 0.943158 0.250000 0.005218
O O19 0.119905 0.448660 0.300826
O O20 0.000000 0.500000 0.000000
O O21 0.788838 0.250000 0.542855
O O22 0.344024 0.750000 0.994058
#
# Coordination Sequence:
#
# PCOD9162471 Si02
#       8
#     4   4   4   4   4   4   4   4
#     4  11  23  38  62  92 119 153 196 243 297 357
#     4  10  23  43  63  87 122 160 202 252 303 355
#     4  10  22  41  63  87 116 155 201 248 300 356
#     4  10  20  35  56  85 118 157 196 241 294 350
#     4  10  20  37  61  86 115 156 199 240 295 360
#     4  11  24  42  64  89 121 162 203 250 301 357
#     4  11  23  36  56  89 123 154 195 245 298 358
#     4   9  18  35  59  82 113 154 195 239 292 350
#
# _framework density 22.014165999999999
#
# number of rings (size 3 to 8) (size 9 to 14) (size 15 to 20)
#    0.000    1.750    1.250    2.625    1.750    7.000 
#    0.000    1.250    0.000    0.000    0.000    0.000 
#    0.000    0.000    0.000    0.000    0.000    0.000 
#
# Total GULP energy -178817.822278 kJ/mol
# GULP energy per Si atom -5588.056946 kJ/mol
# Density = 2.196406 g / cm^3
# Si number density = 22.014166 Si / 1000 Ang^3
#
#
#
# Elastic Constant Matrix: (Units=GPa)
#
#
# Indices 1 2 3 4 5 6 
#
# 1 123.3898 7.0600 37.0330 0.0000 -17.2187 0.0000
# 2 7.0600 28.6784 -12.9134 0.0000 -7.6448 0.0000
# 3 37.0330 -12.9134 107.7674 0.0000 -18.3502 0.0000
# 4 0.0000 0.0000 0.0000 21.7119 0.0000 -0.1462
# 5 -17.2187 -7.6448 -18.3502 0.0000 46.8210 0.0000
# 6 0.0000 0.0000 0.0000 -0.1462 0.0000 17.4146
#
#
#
# Elastic Compliance Matrix: (Units=1/GPa)
#
#
# Indices 1 2 3 4 5 6 
#
# 1 0.009555 -0.003467 -0.003425 0.000000 0.001605 0.000000
# 2 -0.003467 0.041397 0.007592 0.000000 0.008460 0.000000
# 3 -0.003425 0.007592 0.012175 0.000000 0.004752 0.000000
# 4 0.000000 0.000000 0.000000 0.046060 0.000000 0.000387
# 5 0.001605 0.008460 0.004752 0.000000 0.025192 0.000000
# 6 0.000000 0.000000 0.000000 0.000387 0.000000 0.057426
#
#
# Mechanical properties :
#
#
# Convention : Reuss Voigt Hill
#
# Bulk Modulus (GPa) = 15.49744 35.79941 25.64842
# Shear Modulus (GPa) = 23.59447 32.43324 28.01385
#
# Velocity S-wave (km/s) = 3.27737 3.84251 3.57113
# Velocity P-wave (km/s) = 4.62348 5.99865 5.35539
#
# Compressibility (1/GPa) = 0.06452679
#
# Stress axis : x y z
#
# Youngs Moduli (GPa) = 104.65891 24.15655 82.13412
#
# Poissons Ratio (x) = 0.08374 0.28135
# Poissons Ratio (y) = 0.36282 -0.62358
# Poissons Ratio (z) = 0.35851 -0.18340
#
# Static dielectric constant tensor:
#      x y z
#    x 1.797430 0.000000 0.016330 
#    y 0.000000 1.842590 0.000000 
#    z 0.016330 0.000000 1.720660 
# 
# From -- ./inp_files/55771.got.cif
#   From: 2010.05.17/outbox.cif.g08.bks.cpg/sg11_28_cif.got.tgz:55771.got - 2010.06.03 12:22:45.
