data_PCOD9162115
_publ_section_title
;
Structure prediction by ZEFSAII (Michael W. Deem and Ramdas Pophale) SiO2 
 PCOD9162115
Probable space group: P 21/M
;
_chemical_formula_sum "Si O2"
_cell_formula_units_Z 32
_cell_length_a 10.861515
_cell_length_b 15.051442
_cell_length_c 14.550329
_cell_angle_alpha 90.000000
_cell_angle_beta 139.527559
_cell_angle_gamma 90.000000
_cell_volume 1543.977769
_symmetry_space_group_name_H-M "P 21/M"
_symmetry_group_IT_number 11
_symmetry_cell_setting 'monoclinic'
loop_
_space_group_symop_operation_xyz
x,y,z
-x,1/2+y,-z
-x,-y,-z
x,1/2-y,z
loop_
_atom_site_type_symbol
_atom_site_label
_atom_site_fract_x
_atom_site_fract_y
_atom_site_fract_z
Si Si1 0.136627 0.013318 0.914449
Si Si2 0.677331 0.644813 0.235434
Si Si3 0.778057 0.148064 0.710774
Si Si4 0.803504 0.344706 0.363080
Si Si5 0.970434 0.494727 0.344664
Si Si6 0.369249 0.575419 0.558505
Si Si7 0.558201 0.653183 0.968794
Si Si8 0.379945 0.564123 0.206858
O O1 0.108701 0.965391 0.800192
O O2 0.953718 0.078390 0.817222
O O3 0.316233 0.077330 0.003424
O O4 0.199981 0.955376 0.037937
O O5 0.711095 0.750000 0.271269
O O6 0.861955 0.587514 0.308561
O O7 0.558976 0.596298 0.247732
O O8 0.545218 0.639136 0.069778
O O9 0.839946 0.250000 0.731197
O O10 0.642490 0.119566 0.548366
O O11 0.670707 0.136739 0.745853
O O12 0.903129 0.250000 0.418458
O O13 0.930813 0.425209 0.402113
O O14 0.697814 0.357962 0.399516
O O15 0.639648 0.345462 0.193968
O O16 0.193070 0.507229 0.458591
O O17 0.554747 0.523650 0.698618
O O18 0.651423 0.750000 0.008611
#
# Coordination Sequence:
#
# PCOD9162115 Si02
#       8
#     4   4   4   4   4   4   4   4
#     4  10  20  38  65  83 114 151 197 243 302 351
#     4  10  20  34  59  90 125 159 195 240 300 362
#     4  11  25  43  60  84 115 156 207 252 298 354
#     4  11  20  33  56  88 122 155 194 243 297 355
#     4  10  21  38  58  88 122 157 192 241 297 364
#     4  11  23  40  60  83 119 160 200 242 294 354
#     4   9  17  31  54  88 118 147 186 238 294 350
#     4  12  22  39  62  87 117 154 203 249 301 347
#
# _framework density 20.725688000000002
#
# number of rings (size 3 to 8) (size 9 to 14) (size 15 to 20)
#    0.000    1.500    2.500    3.000    0.000    5.500 
#    0.000    1.250    0.000    0.000    0.000    0.000 
#    0.000    0.000    0.000    0.000    0.000    0.000 
#
# Total GULP energy -178603.019247 kJ/mol
# GULP energy per Si atom -5581.344351 kJ/mol
# Density = 2.067852 g / cm^3
# Si number density = 20.725688 Si / 1000 Ang^3
#
#
#
# Elastic Constant Matrix: (Units=GPa)
#
#
# Indices 1 2 3 4 5 6 
#
# 1 46.7855 4.4744 20.3888 0.0000 -22.4093 0.0000
# 2 4.4744 69.3702 21.3867 0.0000 -18.2071 0.0000
# 3 20.3888 21.3867 135.8241 0.0000 -27.8814 0.0000
# 4 0.0000 0.0000 0.0000 -2.7956 0.0000 -28.2134
# 5 -22.4093 -18.2071 -27.8814 0.0000 32.1088 0.0000
# 6 0.0000 0.0000 0.0000 -28.2134 0.0000 -14.4998
#
#
#
# Elastic Compliance Matrix: (Units=1/GPa)
#
#
# Indices 1 2 3 4 5 6 
#
# 1 0.033365 0.004700 -0.000513 0.000000 0.025506 0.000000
# 2 0.004700 0.017678 -0.000922 0.000000 0.012504 0.000000
# 3 -0.000513 -0.000922 0.009010 0.000000 0.006943 0.000000
# 4 0.000000 0.000000 0.000000 0.019193 0.000000 -0.037346
# 5 0.025506 0.012504 0.006943 0.000000 0.062064 0.000000
# 6 0.000000 0.000000 0.000000 -0.037346 0.000000 0.003701
#
#
# Mechanical properties :
#
#
# Convention : Reuss Voigt Hill
#
# Bulk Modulus (GPa) = 15.01873 38.27549 26.64711
# Shear Modulus (GPa) = 31.11866 16.67801 23.89834
#
# Velocity S-wave (km/s) = 3.87906 2.83981 3.39938
# Velocity P-wave (km/s) = 5.22733 5.40929 5.31909
#
# Compressibility (1/GPa) = 0.06658353
#
# Stress axis : x y z
#
# Youngs Moduli (GPa) = 29.97156 56.56612 110.98959
#
# Poissons Ratio (x) = -0.26589 0.05692
# Poissons Ratio (y) = -0.14088 0.10238
# Poissons Ratio (z) = 0.01537 0.05218
#
# Static dielectric constant tensor:
#      x y z
#    x 1.728070 0.000000 -0.016750 
#    y 0.000000 1.803050 0.000000 
#    z -0.016750 0.000000 1.777160 
# 
# From -- ./inp_files/50395.got.cif
#   From: 2010.05.17/outbox.cif.g08.bks.cpg/sg11_26_cif.got.tgz:50395.got - 2010.06.03 12:22:45.
