data_PCOD9162016
_publ_section_title
;
Structure prediction by ZEFSAII (Michael W. Deem and Ramdas Pophale) SiO2 
 PCOD9162016
Probable space group: P 21/M
;
_chemical_formula_sum "Si O2"
_cell_formula_units_Z 32
_cell_length_a 31.651972
_cell_length_b 8.008677
_cell_length_c 12.451565
_cell_angle_alpha 90.000000
_cell_angle_beta 151.684403
_cell_angle_gamma 90.000000
_cell_volume 1497.145945
_symmetry_space_group_name_H-M "P 21/M"
_symmetry_group_IT_number 11
_symmetry_cell_setting 'monoclinic'
loop_
_space_group_symop_operation_xyz
x,y,z
-x,1/2+y,-z
-x,-y,-z
x,1/2-y,z
loop_
_atom_site_type_symbol
_atom_site_label
_atom_site_fract_x
_atom_site_fract_y
_atom_site_fract_z
Si Si1 0.485492 0.547633 0.134707
Si Si2 0.759995 0.551221 0.973980
Si Si3 0.892946 0.452961 0.449011
Si Si4 0.170824 0.440448 0.255851
Si Si5 0.915906 0.442503 0.741297
Si Si6 0.088939 0.454167 0.853283
Si Si7 0.356834 0.945239 0.668373
Si Si8 0.444829 0.451350 0.481563
O O1 0.491055 0.750000 0.141427
O O2 0.564721 0.473923 0.240518
O O3 0.501252 0.494314 0.291637
O O4 0.395169 0.501571 0.870372
O O5 0.754279 0.750000 0.942704
O O6 0.808416 0.519221 0.195478
O O7 0.832058 0.485069 0.047709
O O8 0.658213 0.486616 0.743988
O O9 0.888241 0.250000 0.436313
O O10 0.898215 0.515738 0.584101
O O11 0.986800 0.503578 0.602915
O O12 0.144830 0.250000 0.217917
O O13 0.163481 0.533858 0.351996
O O14 0.271739 0.451211 0.443463
O O15 0.110822 0.506844 0.024544
O O16 0.931105 0.250000 0.753652
O O17 0.000000 0.500000 0.000000
O O18 0.091202 0.250000 0.857218
O O19 0.333471 0.750000 0.618654
O O20 0.500000 0.500000 0.500000
O O21 0.440430 0.250000 0.473916
#
# Coordination Sequence:
#
# PCOD9162016 Si02
#       8
#     4   4   4   4   4   4   4   4
#     4   9  19  38  60  80 111 152 188 231 294 350
#     4  10  21  37  59  86 112 143 192 241 281 337
#     4  10  21  38  58  82 116 153 189 230 284 339
#     4  11  21  36  58  83 116 157 193 228 282 339
#     4  11  22  38  57  80 112 149 190 232 276 332
#     4   9  18  36  59  82 113 152 190 230 280 339
#     4  10  20  34  56  89 118 143 187 239 285 340
#     4  10  22  40  60  82 111 151 195 238 289 346
#
# _framework density 21.374001
#
# number of rings (size 3 to 8) (size 9 to 14) (size 15 to 20)
#    0.000    2.000    1.250    2.250    0.000    5.500 
#    0.000    6.250    0.000    0.000    0.000    0.000 
#    0.000    0.000    0.000    0.000    0.000    0.000 
#
# Total GULP energy -178590.578710 kJ/mol
# GULP energy per Si atom -5580.955585 kJ/mol
# Density = 2.132535 g / cm^3
# Si number density = 21.374001 Si / 1000 Ang^3
#
#
#
# Elastic Constant Matrix: (Units=GPa)
#
#
# Indices 1 2 3 4 5 6 
#
# 1 64.8636 -7.0403 2.9414 0.0000 -25.5619 0.0000
# 2 -7.0403 9.8716 -1.9150 0.0000 -0.2324 0.0000
# 3 2.9414 -1.9150 64.0435 0.0000 -14.4203 0.0000
# 4 0.0000 0.0000 0.0000 20.8884 0.0000 1.9003
# 5 -25.5619 -0.2324 -14.4203 0.0000 37.1263 0.0000
# 6 0.0000 0.0000 0.0000 1.9003 0.0000 25.8847
#
#
#
# Elastic Compliance Matrix: (Units=1/GPa)
#
#
# Indices 1 2 3 4 5 6 
#
# 1 0.024521 0.018614 0.003570 0.000000 0.018386 0.000000
# 2 0.018614 0.116157 0.006211 0.000000 0.015955 0.000000
# 3 0.003570 0.006211 0.017751 0.000000 0.009392 0.000000
# 4 0.000000 0.000000 0.000000 0.048195 0.000000 -0.003538
# 5 0.018386 0.015955 0.009392 0.000000 0.043342 0.000000
# 6 0.000000 0.000000 0.000000 -0.003538 0.000000 0.038893
#
#
# Mechanical properties :
#
#
# Convention : Reuss Voigt Hill
#
# Bulk Modulus (GPa) = 4.64644 14.08344 9.36494
# Shear Modulus (GPa) = 16.45775 26.43271 21.44523
#
# Velocity S-wave (km/s) = 2.77788 3.52046 3.17098
# Velocity P-wave (km/s) = 3.53092 4.80918 4.21874
#
# Compressibility (1/GPa) = 0.21521876
#
# Stress axis : x y z
#
# Youngs Moduli (GPa) = 40.78088 8.60907 56.33547
#
# Poissons Ratio (x) = -0.16025 -0.20114
# Poissons Ratio (y) = -0.75909 -0.34989
# Poissons Ratio (z) = -0.14560 -0.05347
#
# Static dielectric constant tensor:
#      x y z
#    x 1.822290 0.000000 0.007260 
#    y 0.000000 1.780030 0.000000 
#    z 0.007260 0.000000 1.792180 
# 
# From -- ./inp_files/45361.got.cif
#   From: 2010.05.17/outbox.cif.g08.bks.cpg/sg11_23_cif.got.tgz:45361.got - 2010.06.03 12:22:45.
