data_PCOD9162190
_publ_section_title
;
Structure prediction by ZEFSAII (Michael W. Deem and Ramdas Pophale) SiO2 
 PCOD9162190
Probable space group: P 21/M
;
_chemical_formula_sum "Si O2"
_cell_formula_units_Z 24
_cell_length_a 12.124880
_cell_length_b 8.623795
_cell_length_c 23.679583
_cell_angle_alpha 90.000000
_cell_angle_beta 145.585138
_cell_angle_gamma 90.000000
_cell_volume 1399.385874
_symmetry_space_group_name_H-M "P 21/M"
_symmetry_group_IT_number 11
_symmetry_cell_setting 'monoclinic'
loop_
_space_group_symop_operation_xyz
x,y,z
-x,1/2+y,-z
-x,-y,-z
x,1/2-y,z
loop_
_atom_site_type_symbol
_atom_site_label
_atom_site_fract_x
_atom_site_fract_y
_atom_site_fract_z
Si Si1 0.194525 0.936296 0.110040
Si Si2 0.675428 0.063856 0.710038
Si Si3 0.991265 0.065277 0.368450
Si Si4 0.285979 0.436440 0.392305
Si Si5 0.726012 0.066925 0.420963
Si Si6 0.380553 0.434569 0.744888
O O1 0.191687 0.750000 0.106280
O O2 0.216454 0.977502 0.185730
O O3 0.393630 0.987895 0.162421
O O4 0.000000 0.000000 0.000000
O O5 0.646874 0.250000 0.697007
O O6 0.769506 0.007203 0.691808
O O7 0.466234 0.980104 0.625106
O O8 0.000394 0.250000 0.379035
O O9 0.123520 0.022496 0.370455
O O10 0.766810 0.012004 0.273243
O O11 0.092736 0.987050 0.465406
O O12 0.500000 0.500000 0.500000
O O13 0.297593 0.250000 0.393944
O O14 0.733183 0.250000 0.413480
O O15 0.700425 0.977631 0.351432
O O16 0.376809 0.250000 0.750484
#
# Coordination Sequence:
#
# PCOD9162190 Si02
#       6
#     4   4   4   4   4   4
#     4   9  20  37  59  83 105 132 168 221 276 322
#     4  10  20  35  53  78 110 140 179 223 263 313
#     4  11  22  34  49  73 107 144 180 218 258 309
#     4  11  22  34  52  76 108 148 186 220 258 307
#     4  11  20  31  50  74 104 143 180 215 262 312
#     4  10  21  36  52  75 106 137 174 218 268 319
#
# _framework density 17.150379999999998
#
# number of rings (size 3 to 8) (size 9 to 14) (size 15 to 20)
#    0.000    1.667    1.667    5.000    0.000    6.000 
#    0.000    0.000    0.000    1.000    0.000    0.000 
#    0.000    0.000    0.000    0.000    0.000    0.000 
#
# Total GULP energy -133968.849418 kJ/mol
# GULP energy per Si atom -5582.035392 kJ/mol
# Density = 1.711134 g / cm^3
# Si number density = 17.150380 Si / 1000 Ang^3
#
#
#
# Elastic Constant Matrix: (Units=GPa)
#
#
# Indices 1 2 3 4 5 6 
#
# 1 98.0868 7.5478 48.7487 0.0000 21.9774 0.0000
# 2 7.5478 23.2523 15.2108 0.0000 4.4941 0.0000
# 3 48.7487 15.2108 106.5397 0.0000 14.5155 0.0000
# 4 0.0000 0.0000 0.0000 27.9021 0.0000 1.3592
# 5 21.9774 4.4941 14.5155 0.0000 16.9699 0.0000
# 6 0.0000 0.0000 0.0000 1.3592 0.0000 30.0745
#
#
#
# Elastic Compliance Matrix: (Units=1/GPa)
#
#
# Indices 1 2 3 4 5 6 
#
# 1 0.016688 0.001524 -0.005494 0.000000 -0.017317 0.000000
# 2 0.001524 0.048473 -0.006339 0.000000 -0.009389 0.000000
# 3 -0.005494 -0.006339 0.013138 0.000000 -0.002444 0.000000
# 4 0.000000 0.000000 0.000000 0.035919 0.000000 -0.001623
# 5 -0.017317 -0.009389 -0.002444 0.000000 0.085931 0.000000
# 6 0.000000 0.000000 0.000000 -0.001623 0.000000 0.033324
#
#
# Mechanical properties :
#
#
# Convention : Reuss Voigt Hill
#
# Bulk Modulus (GPa) = 17.33660 41.21037 29.27349
# Shear Modulus (GPa) = 18.29365 25.41406 21.85385
#
# Velocity S-wave (km/s) = 3.26952 3.85364 3.57353
# Velocity P-wave (km/s) = 4.93797 6.62433 5.84231
#
# Compressibility (1/GPa) = 0.05768145
#
# Stress axis : x y z
#
# Youngs Moduli (GPa) = 59.92185 20.63004 76.11468
#
# Poissons Ratio (x) = -0.03144 0.41819
# Poissons Ratio (y) = -0.09131 0.48247
# Poissons Ratio (z) = 0.32923 0.13077
#
# Static dielectric constant tensor:
#      x y z
#    x 1.625540 0.000000 0.019270 
#    y 0.000000 1.573160 0.000000 
#    z 0.019270 0.000000 1.564720 
# 
# From -- ./inp_files/36988.got.cif
#   From: 2010.05.17/outbox.cif.g08.bks.cpg/sg11_19_cif.got.tgz:36988.got - 2010.06.03 12:22:45.
