data_PCOD9162623
_publ_section_title
;
Structure prediction by ZEFSAII (Michael W. Deem and Ramdas Pophale) SiO2 
 PCOD9162623
Probable space group: P 21/M
;
_chemical_formula_sum "Si O2"
_cell_formula_units_Z 32
_cell_length_a 11.313300
_cell_length_b 14.316270
_cell_length_c 18.521520
_cell_angle_alpha 90.000000
_cell_angle_beta 33.200262
_cell_angle_gamma 90.000000
_cell_volume 1642.604905
_symmetry_space_group_name_H-M "P 21/M"
_symmetry_group_IT_number 11
_symmetry_cell_setting 'monoclinic'
loop_
_space_group_symop_operation_xyz
x,y,z
-x,1/2+y,-z
-x,-y,-z
x,1/2-y,z
loop_
_atom_site_type_symbol
_atom_site_label
_atom_site_fract_x
_atom_site_fract_y
_atom_site_fract_z
Si Si1 0.929325 0.360655 0.179486
Si Si2 0.002269 0.140634 0.847900
Si Si3 0.228991 0.637811 0.886570
Si Si4 0.327721 0.463621 0.380319
Si Si5 0.596566 0.996984 0.372173
Si Si6 0.654801 0.357959 0.900010
Si Si7 0.127629 0.525188 0.332938
Si Si8 0.181202 0.137019 0.195686
O O1 0.949692 0.250000 0.169667
O O2 0.943456 0.391111 0.088146
O O3 0.690285 0.398245 0.316268
O O4 0.071366 0.392176 0.175235
O O5 0.063362 0.250000 0.825666
O O6 0.206105 0.074327 0.734679
O O7 0.850092 0.133580 0.856271
O O8 0.863578 0.111129 0.988515
O O9 0.242792 0.750000 0.877791
O O10 0.469965 0.599763 0.748640
O O11 0.434426 0.524018 0.389880
O O12 0.241501 0.511405 0.351769
O O13 0.105952 0.427628 0.531634
O O14 0.500000 0.000000 0.500000
O O15 0.627968 0.250000 0.892531
O O16 0.718597 0.416083 0.797722
O O17 0.434105 0.383169 0.053673
O O18 0.099020 0.426386 0.304203
O O19 0.152444 0.250000 0.221442
#
# Coordination Sequence:
#
# PCOD9162623 Si02
#       8
#     4   4   4   4   4   4   4   4
#     4   9  19  34  55  83 111 144 184 225 275 330
#     4  10  21  37  59  86 112 144 186 229 276 329
#     4   9  19  37  58  82 113 144 183 234 279 325
#     4  10  23  37  56  83 109 147 191 222 276 338
#     4  11  22  38  58  82 112 145 181 228 278 327
#     4  10  21  36  57  84 111 146 189 230 278 331
#     4  11  22  39  56  79 115 148 186 234 273 325
#     4  10  20  35  58  85 113 148 187 227 277 332
#
# _framework density 19.481252000000001
#
# number of rings (size 3 to 8) (size 9 to 14) (size 15 to 20)
#    0.000    2.000    0.000    3.375    0.000    6.500 
#    0.000    6.875    0.000    0.000    0.000    0.875 
#    0.000    0.000    0.000    0.000    0.000    0.000 
#
# Total GULP energy -178242.881267 kJ/mol
# GULP energy per Si atom -5570.090040 kJ/mol
# Density = 1.943691 g / cm^3
# Si number density = 19.481252 Si / 1000 Ang^3
#
#
#
# Elastic Constant Matrix: (Units=GPa)
#
#
# Indices 1 2 3 4 5 6 
#
# 1 104.2829 19.9648 33.3767 0.0000 0.3954 0.0000
# 2 19.9648 36.6471 26.6443 0.0000 3.1210 0.0000
# 3 33.3767 26.6443 106.0977 0.0000 9.1153 0.0000
# 4 0.0000 0.0000 0.0000 8.1009 0.0000 2.8737
# 5 0.3954 3.1210 9.1153 0.0000 35.5075 0.0000
# 6 0.0000 0.0000 0.0000 2.8737 0.0000 16.8674
#
#
#
# Elastic Compliance Matrix: (Units=1/GPa)
#
#
# Indices 1 2 3 4 5 6 
#
# 1 0.011226 -0.004366 -0.002513 0.000000 0.000904 0.000000
# 2 -0.004366 0.035102 -0.007343 0.000000 -0.001152 0.000000
# 3 -0.002513 -0.007343 0.012273 0.000000 -0.002477 0.000000
# 4 0.000000 0.000000 0.000000 0.131384 0.000000 -0.022384
# 5 0.000904 -0.001152 -0.002477 0.000000 0.028890 0.000000
# 6 0.000000 0.000000 0.000000 -0.022384 0.000000 0.063099
#
#
# Mechanical properties :
#
#
# Convention : Reuss Voigt Hill
#
# Bulk Modulus (GPa) = 33.15867 45.22217 39.19042
# Shear Modulus (GPa) = 15.60207 23.23128 19.41668
#
# Velocity S-wave (km/s) = 2.83305 3.45700 3.16046
# Velocity P-wave (km/s) = 5.26871 6.26083 5.78607
#
# Compressibility (1/GPa) = 0.03015802
#
# Stress axis : x y z
#
# Youngs Moduli (GPa) = 89.07940 28.48804 81.48226
#
# Poissons Ratio (x) = 0.12437 0.20475
# Poissons Ratio (y) = 0.38890 0.59832
# Poissons Ratio (z) = 0.22384 0.20919
#
# Static dielectric constant tensor:
#      x y z
#    x 1.734330 0.000000 0.022980 
#    y 0.000000 1.718330 0.000000 
#    z 0.022980 0.000000 1.696700 
# 
# From -- ./inp_files/59432.got.cif
#   From: 2010.05.17/outbox.cif.g08.bks.cpg/sg11_30_cif.got.tgz:59432.got - 2010.06.03 12:22:45.
