data_PCOD9162426
_publ_section_title
;
Structure prediction by ZEFSAII (Michael W. Deem and Ramdas Pophale) SiO2 
 PCOD9162426
Probable space group: P 21/M
;
_chemical_formula_sum "Si O2"
_cell_formula_units_Z 32
_cell_length_a 14.746966
_cell_length_b 8.568277
_cell_length_c 12.714087
_cell_angle_alpha 90.000000
_cell_angle_beta 90.389491
_cell_angle_gamma 90.000000
_cell_volume 1606.465197
_symmetry_space_group_name_H-M "P 21/M"
_symmetry_group_IT_number 11
_symmetry_cell_setting 'monoclinic'
loop_
_space_group_symop_operation_xyz
x,y,z
-x,1/2+y,-z
-x,-y,-z
x,1/2-y,z
loop_
_atom_site_type_symbol
_atom_site_label
_atom_site_fract_x
_atom_site_fract_y
_atom_site_fract_z
Si Si1 0.485927 0.435599 0.667039
Si Si2 0.234471 0.435133 0.180140
Si Si3 0.031825 0.061707 0.113993
Si Si4 0.148696 0.938400 0.786058
Si Si5 0.526812 0.070624 0.111500
Si Si6 0.277088 0.930603 0.968450
Si Si7 0.716515 0.936682 0.388652
Si Si8 0.679673 0.063112 0.606685
O O1 0.483002 0.250000 0.651447
O O2 0.504454 0.472664 0.789311
O O3 0.385393 0.497921 0.640554
O O4 0.574487 0.495754 0.606355
O O5 0.234054 0.250000 0.198286
O O6 0.132198 0.488613 0.149753
O O7 0.274983 0.516993 0.282688
O O8 0.290346 0.474155 0.074932
O O9 0.032927 0.250000 0.106887
O O10 0.956248 0.017705 0.200551
O O11 0.000000 0.000000 0.000000
O O12 0.155315 0.750000 0.783520
O O13 0.195939 0.991207 0.895551
O O14 0.206724 0.002037 0.689731
O O15 0.497204 0.250000 0.121609
O O16 0.635865 0.066728 0.105859
O O17 0.500000 0.000000 0.000000
O O18 0.260688 0.750000 0.998178
O O19 0.715100 0.750000 0.380702
O O20 0.731002 0.989023 0.508481
O O21 0.678968 0.250000 0.596569
#
# Coordination Sequence:
#
# PCOD9162426 Si02
#       8
#     4   4   4   4   4   4   4   4
#     4  10  22  39  59  85 116 152 197 243 290 346
#     4  11  23  38  59  90 122 153 195 248 297 343
#     4  10  21  37  61  90 121 155 193 239 292 352
#     4  10  20  38  61  87 118 154 194 235 288 354
#     4  11  22  34  51  79 116 157 196 237 286 345
#     4  10  20  35  56  82 116 156 194 233 287 352
#     4  11  23  40  63  90 119 151 196 253 295 337
#     4  11  24  42  62  84 116 160 201 239 292 357
#
# _framework density 19.919509999999999
#
# number of rings (size 3 to 8) (size 9 to 14) (size 15 to 20)
#    0.000    1.500    2.500    2.625    0.000    7.000 
#    0.000    0.625    0.000    0.000    0.000    0.000 
#    0.000    0.000    0.000    0.000    0.000    0.000 
#
# Total GULP energy -178728.046192 kJ/mol
# GULP energy per Si atom -5585.251444 kJ/mol
# Density = 1.987417 g / cm^3
# Si number density = 19.919510 Si / 1000 Ang^3
#
#
#
# Elastic Constant Matrix: (Units=GPa)
#
#
# Indices 1 2 3 4 5 6 
#
# 1 86.2787 16.7600 32.2200 0.0000 -16.5091 0.0000
# 2 16.7600 15.5117 4.3981 0.0000 -6.2621 0.0000
# 3 32.2200 4.3981 108.0105 0.0000 -22.7272 0.0000
# 4 0.0000 0.0000 0.0000 32.3632 0.0000 -1.4615
# 5 -16.5091 -6.2621 -22.7272 0.0000 28.5467 0.0000
# 6 0.0000 0.0000 0.0000 -1.4615 0.0000 22.8651
#
#
#
# Elastic Compliance Matrix: (Units=1/GPa)
#
#
# Indices 1 2 3 4 5 6 
#
# 1 0.016601 -0.015578 -0.003624 0.000000 0.003298 0.000000
# 2 -0.015578 0.085368 0.003863 0.000000 0.012793 0.000000
# 3 -0.003624 0.003863 0.011915 0.000000 0.008238 0.000000
# 4 0.000000 0.000000 0.000000 0.030989 0.000000 0.001981
# 5 0.003298 0.012793 0.008238 0.000000 0.046303 0.000000
# 6 0.000000 0.000000 0.000000 0.001981 0.000000 0.043861
#
#
# Mechanical properties :
#
#
# Convention : Reuss Voigt Hill
#
# Bulk Modulus (GPa) = 12.01826 35.17301 23.59563
# Shear Modulus (GPa) = 17.03867 27.18319 22.11093
#
# Velocity S-wave (km/s) = 2.92785 3.69813 3.33530
# Velocity P-wave (km/s) = 4.18046 5.99423 5.16754
#
# Compressibility (1/GPa) = 0.08320672
#
# Stress axis : x y z
#
# Youngs Moduli (GPa) = 60.23832 11.71399 83.92457
#
# Poissons Ratio (x) = 0.18248 0.30412
# Poissons Ratio (y) = 0.93837 -0.32417
# Poissons Ratio (z) = 0.21829 -0.04525
#
# Static dielectric constant tensor:
#      x y z
#    x 1.797310 0.000000 -0.016420 
#    y 0.000000 1.683100 0.000000 
#    z -0.016420 0.000000 1.680210 
# 
# From -- ./inp_files/38295.got.cif
#   From: 2010.05.17/outbox.cif.g08.bks.cpg/sg11_20_cif.got.tgz:38295.got - 2010.06.03 12:22:45.
