data_PCOD9162151
_publ_section_title
;
Structure prediction by ZEFSAII (Michael W. Deem and Ramdas Pophale) SiO2 
 PCOD9162151
Probable space group: P 21/M
;
_chemical_formula_sum "Si O2"
_cell_formula_units_Z 32
_cell_length_a 22.554301
_cell_length_b 8.566847
_cell_length_c 28.881168
_cell_angle_alpha 90.000000
_cell_angle_beta 16.933324
_cell_angle_gamma 90.000000
_cell_volume 1625.338987
_symmetry_space_group_name_H-M "P 21/M"
_symmetry_group_IT_number 11
_symmetry_cell_setting 'monoclinic'
loop_
_space_group_symop_operation_xyz
x,y,z
-x,1/2+y,-z
-x,-y,-z
x,1/2-y,z
loop_
_atom_site_type_symbol
_atom_site_label
_atom_site_fract_x
_atom_site_fract_y
_atom_site_fract_z
Si Si1 0.473979 0.937383 0.760005
Si Si2 0.268127 0.427476 0.265888
Si Si3 0.093279 0.062245 0.102895
Si Si4 0.388423 0.429845 0.040428
Si Si5 0.428367 0.561962 0.410787
Si Si6 0.632639 0.936890 0.443284
Si Si7 0.965051 0.939711 0.749999
Si Si8 0.130120 0.068207 0.476107
O O1 0.477273 0.750000 0.757504
O O2 0.686780 0.987756 0.626821
O O3 0.456884 0.999630 0.720150
O O4 0.276359 0.995053 0.935756
O O5 0.331794 0.250000 0.208168
O O6 0.453209 0.544071 0.119330
O O7 0.208539 0.434976 0.364238
O O8 0.079437 0.471881 0.373050
O O9 0.090264 0.250000 0.100969
O O10 0.126980 0.018896 0.131518
O O11 0.864303 0.000260 0.264567
O O12 0.354993 0.250000 0.074036
O O13 0.500000 0.500000 0.000000
O O14 0.174944 0.503853 0.185835
O O15 0.441191 0.750000 0.402759
O O16 0.463749 0.497203 0.436031
O O17 0.195831 0.510053 0.575025
O O18 0.636990 0.750000 0.440520
O O19 0.500000 0.000000 0.500000
O O20 0.967106 0.750000 0.746688
O O21 0.084386 0.250000 0.521450
#
# Coordination Sequence:
#
# PCOD9162151 Si02
#       8
#     4   4   4   4   4   4   4   4
#     4  11  22  36  56  87 122 155 194 245 301 351
#     4  10  20  35  52  73 101 140 190 241 296 355
#     4  10  20  38  63  91 118 155 199 241 287 347
#     4  11  22  35  50  73 104 141 187 243 297 351
#     4  10  21  39  61  89 121 158 200 243 291 352
#     4  11  22  41  68  97 127 161 195 235 281 340
#     4   8  18  36  57  78 107 146 196 245 293 352
#     4   9  20  36  54  76 106 144 187 238 293 351
#
# _framework density 19.688199999999998
#
# number of rings (size 3 to 8) (size 9 to 14) (size 15 to 20)
#    0.000    2.000    0.000    4.500    1.750    1.500 
#    0.000    6.875    0.000    0.000    0.000    0.000 
#    0.000    0.000    0.000    0.000    0.000    0.000 
#
# Total GULP energy -178547.920003 kJ/mol
# GULP energy per Si atom -5579.622500 kJ/mol
# Density = 1.964339 g / cm^3
# Si number density = 19.688200 Si / 1000 Ang^3
#
#
#
# Elastic Constant Matrix: (Units=GPa)
#
#
# Indices 1 2 3 4 5 6 
#
# 1 107.2034 31.4318 27.0058 0.0000 -10.6267 0.0000
# 2 31.4318 61.2830 3.4312 0.0000 0.4403 0.0000
# 3 27.0058 3.4312 36.5937 0.0000 8.9632 0.0000
# 4 0.0000 0.0000 0.0000 28.2482 0.0000 2.5539
# 5 -10.6267 0.4403 8.9632 0.0000 33.8469 0.0000
# 6 0.0000 0.0000 0.0000 2.5539 0.0000 27.7752
#
#
#
# Elastic Compliance Matrix: (Units=1/GPa)
#
#
# Indices 1 2 3 4 5 6 
#
# 1 0.015531 -0.007308 -0.012826 0.000000 0.008368 0.000000
# 2 -0.007308 0.019844 0.004446 0.000000 -0.003730 0.000000
# 3 -0.012826 0.004446 0.039969 0.000000 -0.014669 0.000000
# 4 0.000000 0.000000 0.000000 0.035697 0.000000 -0.003282
# 5 0.008368 -0.003730 -0.014669 0.000000 0.036105 0.000000
# 6 0.000000 0.000000 0.000000 -0.003282 0.000000 0.036305
#
#
# Mechanical properties :
#
#
# Convention : Reuss Voigt Hill
#
# Bulk Modulus (GPa) = 22.74389 36.53528 29.63958
# Shear Modulus (GPa) = 21.78800 27.52149 24.65475
#
# Velocity S-wave (km/s) = 3.33025 3.74286 3.54257
# Velocity P-wave (km/s) = 5.13464 6.10540 5.64094
#
# Compressibility (1/GPa) = 0.04396786
#
# Stress axis : x y z
#
# Youngs Moduli (GPa) = 64.38599 50.39359 25.01935
#
# Poissons Ratio (x) = 0.36827 0.32091
# Poissons Ratio (y) = 0.47053 -0.11124
# Poissons Ratio (z) = 0.82584 -0.22406
#
# Static dielectric constant tensor:
#      x y z
#    x 1.717080 0.000000 0.011700 
#    y 0.000000 1.677790 0.000000 
#    z 0.011700 0.000000 1.736860 
# 
# From -- ./inp_files/72003.got.cif
#   From: 2010.05.17/outbox.cif.g08.bks.cpg/sg11_37_cif.got.tgz:72003.got - 2010.06.03 12:22:45.
