data_PCOD9162002
_publ_section_title
;
Structure prediction by ZEFSAII (Michael W. Deem and Ramdas Pophale) SiO2 
 PCOD9162002
Probable space group: P 21/M
;
_chemical_formula_sum "Si O2"
_cell_formula_units_Z 28
_cell_length_a 30.812134
_cell_length_b 8.883935
_cell_length_c 10.467856
_cell_angle_alpha 90.000000
_cell_angle_beta 33.508033
_cell_angle_gamma 90.000000
_cell_volume 1581.853888
_symmetry_space_group_name_H-M "P 21/M"
_symmetry_group_IT_number 11
_symmetry_cell_setting 'monoclinic'
loop_
_space_group_symop_operation_xyz
x,y,z
-x,1/2+y,-z
-x,-y,-z
x,1/2-y,z
loop_
_atom_site_type_symbol
_atom_site_label
_atom_site_fract_x
_atom_site_fract_y
_atom_site_fract_z
Si Si1 0.503675 0.568883 0.132155
Si Si2 0.916460 0.429499 0.856391
Si Si3 0.769958 0.570060 0.333595
Si Si4 0.332198 0.931030 0.644263
Si Si5 0.096757 0.070273 0.391809
Si Si6 0.748391 0.430229 0.889805
Si Si7 0.327983 0.068581 0.172901
O O1 0.506518 0.750000 0.112671
O O2 0.423765 0.529302 0.402459
O O3 0.500000 0.500000 0.000000
O O4 0.583346 0.521834 0.007886
O O5 0.906003 0.250000 0.874833
O O6 0.897424 0.499472 0.764153
O O7 0.008215 0.461690 0.657007
O O8 0.855824 0.499011 0.105101
O O9 0.774822 0.750000 0.312694
O O10 0.717009 0.508421 0.347377
O O11 0.727723 0.530741 0.570049
O O12 0.324469 0.750000 0.649065
O O13 0.297709 0.972250 0.866796
O O14 0.106111 0.250000 0.359764
O O15 0.164909 0.000357 0.310221
O O16 0.753642 0.250000 0.871736
O O17 0.703536 0.492413 0.877166
O O18 0.326997 0.250000 0.160027
#
# Coordination Sequence:
#
# PCOD9162002 Si02
#       7
#     4   4   4   4   4   4   4
#     4  10  20  37  59  84 115 149 189 239 288 336
#     4  10  20  34  56  87 117 147 189 236 283 336
#     4  11  21  35  58  87 114 149 195 236 283 340
#     4  10  21  36  58  85 115 148 189 240 286 337
#     4  10  20  35  57  84 116 152 188 233 285 336
#     4  11  23  38  57  85 117 153 194 235 288 344
#     4  10  23  40  57  82 117 154 193 236 287 345
#
# _framework density 17.700748999999998
#
# number of rings (size 3 to 8) (size 9 to 14) (size 15 to 20)
#    0.000    1.714    2.857    1.714    0.000    4.571 
#    0.000    0.714    0.000    0.000    0.000    0.000 
#    0.000    0.000    0.000    0.000    0.000    0.000 
#
# Total GULP energy -156391.356878 kJ/mol
# GULP energy per Si atom -5585.405603 kJ/mol
# Density = 1.766046 g / cm^3
# Si number density = 17.700749 Si / 1000 Ang^3
#
#
#
# Elastic Constant Matrix: (Units=GPa)
#
#
# Indices 1 2 3 4 5 6 
#
# 1 143.8812 46.7830 68.4751 0.0000 -7.1698 0.0000
# 2 46.7830 39.8955 49.8644 0.0000 -1.7635 0.0000
# 3 68.4751 49.8644 127.3647 0.0000 -11.7930 0.0000
# 4 0.0000 0.0000 0.0000 25.8177 0.0000 0.0054
# 5 -7.1698 -1.7635 -11.7930 0.0000 29.8920 0.0000
# 6 0.0000 0.0000 0.0000 0.0054 0.0000 32.9197
#
#
#
# Elastic Compliance Matrix: (Units=1/GPa)
#
#
# Indices 1 2 3 4 5 6 
#
# 1 0.011492 -0.011472 -0.001551 0.000000 0.001468 0.000000
# 2 -0.011472 0.061228 -0.018396 0.000000 -0.006397 0.000000
# 3 -0.001551 -0.018396 0.016350 0.000000 0.004993 0.000000
# 4 0.000000 0.000000 0.000000 0.038733 0.000000 -0.000006
# 5 0.001468 -0.006397 0.004993 0.000000 0.035398 0.000000
# 6 0.000000 0.000000 0.000000 -0.000006 0.000000 0.030377
#
#
# Mechanical properties :
#
#
# Convention : Reuss Voigt Hill
#
# Bulk Modulus (GPa) = 38.12217 71.26517 54.69367
# Shear Modulus (GPa) = 18.85664 27.46049 23.15857
#
# Velocity S-wave (km/s) = 3.26744 3.94302 3.62102
# Velocity P-wave (km/s) = 5.98487 7.81527 6.96050
#
# Compressibility (1/GPa) = 0.02623146
#
# Stress axis : x y z
#
# Youngs Moduli (GPa) = 87.02021 16.33245 61.16342
#
# Poissons Ratio (x) = 0.18737 0.09486
# Poissons Ratio (y) = 0.99832 1.12514
# Poissons Ratio (z) = 0.13496 0.30045
#
# Static dielectric constant tensor:
#      x y z
#    x 1.567420 0.000000 -0.023210 
#    y 0.000000 1.591030 0.000000 
#    z -0.023210 0.000000 1.610490 
# 
# From -- ./inp_files/28305.got.cif
#   From: 2010.05.17/outbox.cif.g08.bks.cpg/sg11_15_cif.got.tgz:28305.got - 2010.06.03 12:22:45.
