data_PCOD9162984
_publ_section_title
;
Structure prediction by ZEFSAII (Michael W. Deem and Ramdas Pophale) SiO2 
 PCOD9162984
Probable space group: P 21/M
;
_chemical_formula_sum "Si O2"
_cell_formula_units_Z 20
_cell_length_a 9.804608
_cell_length_b 7.555847
_cell_length_c 12.514488
_cell_angle_alpha 90.000000
_cell_angle_beta 75.019053
_cell_angle_gamma 90.000000
_cell_volume 895.589360
_symmetry_space_group_name_H-M "P 21/M"
_symmetry_group_IT_number 11
_symmetry_cell_setting 'monoclinic'
loop_
_space_group_symop_operation_xyz
x,y,z
-x,1/2+y,-z
-x,-y,-z
x,1/2-y,z
loop_
_atom_site_type_symbol
_atom_site_label
_atom_site_fract_x
_atom_site_fract_y
_atom_site_fract_z
Si Si1 0.368506 0.038328 0.603279
Si Si2 0.265483 0.040633 0.220770
Si Si3 0.852117 0.537433 0.972453
Si Si4 0.585897 0.964289 0.165338
Si Si5 0.835640 0.537881 0.531130
O O1 0.354894 0.250000 0.617732
O O2 0.392697 0.969621 0.717437
O O3 0.235525 0.969137 0.562983
O O4 0.500000 0.000000 0.500000
O O5 0.237612 0.250000 0.233743
O O6 0.235155 0.967137 0.345339
O O7 0.430027 0.017583 0.159110
O O8 0.167698 0.969907 0.144841
O O9 0.840632 0.750000 0.970162
O O10 0.717153 0.473547 0.067681
O O11 0.000000 0.500000 0.000000
O O12 0.587659 0.750000 0.164825
O O13 0.814081 0.750000 0.534204
O O14 0.000000 0.500000 0.500000
#
# Coordination Sequence:
#
# PCOD9162984 Si02
#       5
#     4   4   4   4   4
#     4  10  20  36  57  83 113 144 182 226 273 327
#     4  10  21  39  59  82 112 146 186 229 274 328
#     4  10  23  40  58  83 113 145 185 230 277 328
#     4  10  21  37  59  85 111 144 186 229 273 328
#     4  10  22  37  55  82 115 148 183 226 273 326
#
# _framework density 22.331662000000001
#
# number of rings (size 3 to 8) (size 9 to 14) (size 15 to 20)
#    0.000    2.000    2.000    0.600    2.800    3.200 
#    0.000    0.000    0.000    0.000    0.000    0.000 
#    0.000    0.000    0.000    0.000    0.000    0.000 
#
# Total GULP energy -111741.256704 kJ/mol
# GULP energy per Si atom -5587.062835 kJ/mol
# Density = 2.228083 g / cm^3
# Si number density = 22.331662 Si / 1000 Ang^3
#
#
#
# Elastic Constant Matrix: (Units=GPa)
#
#
# Indices 1 2 3 4 5 6 
#
# 1 116.3083 -19.3067 21.2209 0.0000 28.8399 0.0000
# 2 -19.3067 50.3865 7.5659 0.0000 5.8836 0.0000
# 3 21.2209 7.5659 86.8473 0.0000 27.3802 0.0000
# 4 0.0000 0.0000 0.0000 9.0942 0.0000 -1.8457
# 5 28.8399 5.8836 27.3802 0.0000 47.2621 0.0000
# 6 0.0000 0.0000 0.0000 -1.8457 0.0000 31.7615
#
#
#
# Elastic Compliance Matrix: (Units=1/GPa)
#
#
# Indices 1 2 3 4 5 6 
#
# 1 0.011420 0.005353 -0.001040 0.000000 -0.007033 0.000000
# 2 0.005353 0.022748 -0.001673 0.000000 -0.005129 0.000000
# 3 -0.001040 -0.001673 0.014252 0.000000 -0.007414 0.000000
# 4 0.000000 0.000000 0.000000 0.111273 0.000000 0.006466
# 5 -0.007033 -0.005129 -0.007414 0.000000 0.030384 0.000000
# 6 0.000000 0.000000 0.000000 0.006466 0.000000 0.031860
#
#
# Mechanical properties :
#
#
# Convention : Reuss Voigt Hill
#
# Bulk Modulus (GPa) = 18.62158 30.27802 24.44980
# Shear Modulus (GPa) = 21.31701 33.89437 27.60569
#
# Velocity S-wave (km/s) = 3.09295 3.90009 3.51973
# Velocity P-wave (km/s) = 4.59477 5.81968 5.24312
#
# Compressibility (1/GPa) = 0.05370114
#
# Stress axis : x y z
#
# Youngs Moduli (GPa) = 87.56605 43.96016 70.16804
#
# Poissons Ratio (x) = -0.23532 0.07295
# Poissons Ratio (y) = -0.46875 0.11736
# Poissons Ratio (z) = 0.09103 0.07353
#
# Static dielectric constant tensor:
#      x y z
#    x 1.796460 0.000000 0.045630 
#    y 0.000000 1.888140 0.000000 
#    z 0.045630 0.000000 1.856790 
# 
# From -- ./inp_files/15874.got.cif
#   From: 2010.05.17/outbox.cif.g08.bks.cpg/sg11_8_cif.got.tgz:15874.got - 2010.06.03 12:22:45.
