data_PCOD9162336
_publ_section_title
;
Structure prediction by ZEFSAII (Michael W. Deem and Ramdas Pophale) SiO2 
 PCOD9162336
Probable space group: P 21/M
;
_chemical_formula_sum "Si O2"
_cell_formula_units_Z 24
_cell_length_a 9.216632
_cell_length_b 16.926939
_cell_length_c 12.213649
_cell_angle_alpha 90.000000
_cell_angle_beta 40.327222
_cell_angle_gamma 90.000000
_cell_volume 1233.111789
_symmetry_space_group_name_H-M "P 21/M"
_symmetry_group_IT_number 11
_symmetry_cell_setting 'monoclinic'
loop_
_space_group_symop_operation_xyz
x,y,z
-x,1/2+y,-z
-x,-y,-z
x,1/2-y,z
loop_
_atom_site_type_symbol
_atom_site_label
_atom_site_fract_x
_atom_site_fract_y
_atom_site_fract_z
Si Si1 0.556773 0.086903 0.836263
Si Si2 0.225257 0.656738 0.882377
Si Si3 0.944573 0.585685 0.481464
Si Si4 0.289137 0.156737 0.790746
Si Si5 0.421207 0.103868 0.149385
Si Si6 0.435435 0.416925 0.483633
O O1 0.440075 0.110789 0.791217
O O2 0.812621 0.117975 0.690271
O O3 0.559992 0.991403 0.845004
O O4 0.427072 0.118998 0.017216
O O5 0.226535 0.750000 0.859156
O O6 0.366798 0.640635 0.910901
O O7 0.358373 0.613353 0.708711
O O8 0.969256 0.630695 0.045645
O O9 0.802038 0.629866 0.657370
O O10 0.777978 0.577253 0.474705
O O11 0.000000 0.500000 0.500000
O O12 0.302394 0.250000 0.805182
O O13 0.372028 0.139549 0.620583
O O14 0.500000 0.500000 0.500000
#
# Coordination Sequence:
#
# PCOD9162336 Si02
#       6
#     4   4   4   4   4   4
#     4  10  20  35  55  82 113 146 188 237 281 334
#     4  10  22  39  57  81 115 152 190 232 282 343
#     4   9  18  34  55  83 111 139 183 237 286 332
#     4  11  24  39  56  84 121 156 190 232 288 349
#     4   9  19  35  57  80 107 145 190 235 279 331
#     4  11  22  38  64  88 112 150 194 242 290 338
#
# _framework density 19.462952999999999
#
# number of rings (size 3 to 8) (size 9 to 14) (size 15 to 20)
#    0.000    2.000    0.000    4.500    0.000    8.667 
#    0.000    4.167    0.000    0.000    0.000    0.000 
#    0.000    0.000    0.000    0.000    0.000    0.000 
#
# Total GULP energy -133983.559220 kJ/mol
# GULP energy per Si atom -5582.648301 kJ/mol
# Density = 1.941865 g / cm^3
# Si number density = 19.462953 Si / 1000 Ang^3
#
#
#
# Elastic Constant Matrix: (Units=GPa)
#
#
# Indices 1 2 3 4 5 6 
#
# 1 61.3475 -6.1714 31.8892 0.0000 14.6833 0.0000
# 2 -6.1714 17.6091 3.0659 0.0000 1.9246 0.0000
# 3 31.8892 3.0659 68.7258 0.0000 9.1668 0.0000
# 4 0.0000 0.0000 0.0000 21.6644 0.0000 1.4569
# 5 14.6833 1.9246 9.1668 0.0000 39.5902 0.0000
# 6 0.0000 0.0000 0.0000 1.4569 0.0000 12.8583
#
#
#
# Elastic Compliance Matrix: (Units=1/GPa)
#
#
# Indices 1 2 3 4 5 6 
#
# 1 0.024979 0.011485 -0.011136 0.000000 -0.007244 0.000000
# 2 0.011485 0.062711 -0.007380 0.000000 -0.005599 0.000000
# 3 -0.011136 -0.007380 0.020068 0.000000 -0.000158 0.000000
# 4 0.000000 0.000000 0.000000 0.046513 0.000000 -0.005270
# 5 -0.007244 -0.005599 -0.000158 0.000000 0.028254 0.000000
# 6 0.000000 0.000000 0.000000 -0.005270 0.000000 0.078368
#
#
# Mechanical properties :
#
#
# Convention : Reuss Voigt Hill
#
# Bulk Modulus (GPa) = 10.67291 22.80551 16.73921
# Shear Modulus (GPa) = 16.32989 22.74915 19.53952
#
# Velocity S-wave (km/s) = 2.89973 3.42254 3.17193
# Velocity P-wave (km/s) = 4.08741 5.23080 4.69405
#
# Compressibility (1/GPa) = 0.09369517
#
# Stress axis : x y z
#
# Youngs Moduli (GPa) = 40.03437 15.94618 49.83018
#
# Poissons Ratio (x) = -0.18314 0.55493
# Poissons Ratio (y) = -0.45979 0.36774
# Poissons Ratio (z) = 0.44584 0.11768
#
# Static dielectric constant tensor:
#      x y z
#    x 1.631470 0.000000 -0.011170 
#    y 0.000000 1.681460 0.000000 
#    z -0.011170 0.000000 1.710190 
# 
# From -- ./inp_files/32600.got.cif
#   From: 2010.05.17/outbox.cif.g08.bks.cpg/sg11_17_cif.got.tgz:32600.got - 2010.06.03 12:22:45.
