data_PCOD9162472
_publ_section_title
;
Structure prediction by ZEFSAII (Michael W. Deem and Ramdas Pophale) SiO2 
 PCOD9162472
Probable space group: P 21/M
;
_chemical_formula_sum "Si O2"
_cell_formula_units_Z 32
_cell_length_a 15.465103
_cell_length_b 8.607360
_cell_length_c 14.662657
_cell_angle_alpha 90.000000
_cell_angle_beta 120.525229
_cell_angle_gamma 90.000000
_cell_volume 1681.292002
_symmetry_space_group_name_H-M "P 21/M"
_symmetry_group_IT_number 11
_symmetry_cell_setting 'monoclinic'
loop_
_space_group_symop_operation_xyz
x,y,z
-x,1/2+y,-z
-x,-y,-z
x,1/2-y,z
loop_
_atom_site_type_symbol
_atom_site_label
_atom_site_fract_x
_atom_site_fract_y
_atom_site_fract_z
Si Si1 0.266395 0.938105 0.984857
Si Si2 0.822049 0.063978 0.255693
Si Si3 0.949000 0.063643 0.062972
Si Si4 0.549551 0.439806 0.797259
Si Si5 0.590102 0.063987 0.610849
Si Si6 0.323261 0.063015 0.671047
Si Si7 0.753841 0.564700 0.569694
Si Si8 0.025757 0.565153 0.295844
O O1 0.272573 0.750000 0.984841
O O2 0.169174 0.976343 0.993995
O O3 0.368102 0.995297 0.085975
O O4 0.239256 0.989449 0.867844
O O5 0.830964 0.250000 0.256558
O O6 0.760490 0.012648 0.310557
O O7 0.933311 0.993661 0.308014
O O8 0.957854 0.250000 0.072114
O O9 0.999471 0.991820 0.179719
O O10 0.000000 0.000000 0.000000
O O11 0.550650 0.250000 0.798382
O O12 0.577615 0.487444 0.709111
O O13 0.435728 0.487705 0.757283
O O14 0.584542 0.250000 0.606837
O O15 0.500000 0.000000 0.500000
O O16 0.694177 0.010180 0.621691
O O17 0.316798 0.250000 0.676834
O O18 0.304291 0.025911 0.554960
O O19 0.753124 0.750000 0.580240
O O20 0.867125 0.505834 0.621526
O O21 0.030777 0.750000 0.301610
#
# Coordination Sequence:
#
# PCOD9162472 Si02
#       8
#     4   4   4   4   4   4   4   4
#     4   8  17  34  56  81 114 151 190 236 289 342
#     4  10  21  39  61  86 116 150 190 248 301 347
#     4  10  20  35  56  85 120 157 197 244 293 347
#     4   9  18  35  57  84 116 154 195 233 284 349
#     4  11  21  36  59  85 119 160 198 241 291 347
#     4  10  21  38  60  84 114 155 195 238 294 356
#     4  11  23  40  59  87 121 154 196 246 296 354
#     4  11  23  40  61  85 114 155 199 243 299 358
#
# _framework density 19.032982000000001
#
# number of rings (size 3 to 8) (size 9 to 14) (size 15 to 20)
#    0.000    2.000    1.250    3.375    1.750    2.000 
#    0.000    0.000    0.000    6.000    0.000    0.000 
#    0.000    0.000    0.000    0.000    0.000    0.000 
#
# Total GULP energy -178706.406516 kJ/mol
# GULP energy per Si atom -5584.575204 kJ/mol
# Density = 1.898966 g / cm^3
# Si number density = 19.032982 Si / 1000 Ang^3
#
#
#
# Elastic Constant Matrix: (Units=GPa)
#
#
# Indices 1 2 3 4 5 6 
#
# 1 85.0724 12.3638 5.6880 0.0000 2.9409 0.0000
# 2 12.3638 29.7909 6.9381 0.0000 -0.5063 0.0000
# 3 5.6880 6.9381 19.0460 0.0000 23.9546 0.0000
# 4 0.0000 0.0000 0.0000 20.1018 0.0000 -0.3485
# 5 2.9409 -0.5063 23.9546 0.0000 38.1986 0.0000
# 6 0.0000 0.0000 0.0000 -0.3485 0.0000 31.1364
#
#
#
# Elastic Compliance Matrix: (Units=1/GPa)
#
#
# Indices 1 2 3 4 5 6 
#
# 1 0.012597 -0.004127 -0.004591 0.000000 0.001855 0.000000
# 2 -0.004127 0.061228 -0.106459 0.000000 0.067890 0.000000
# 3 -0.004591 -0.106459 0.444860 0.000000 -0.280032 0.000000
# 4 0.000000 0.000000 0.000000 0.049757 0.000000 0.000557
# 5 0.001855 0.067890 -0.280032 0.000000 0.202545 0.000000
# 6 0.000000 0.000000 0.000000 0.000557 0.000000 0.032123
#
#
# Mechanical properties :
#
#
# Convention : Reuss Voigt Hill
#
# Bulk Modulus (GPa) = 3.46825 20.43213 11.95019
# Shear Modulus (GPa) = 4.42644 25.14863 14.78754
#
# Velocity S-wave (km/s) = 1.52667 3.63894 2.79039
# Velocity P-wave (km/s) = 2.22122 5.33050 4.08338
#
# Compressibility (1/GPa) = 0.28833017
#
# Stress axis : x y z
#
# Youngs Moduli (GPa) = 79.38140 16.33248 2.24790
#
# Poissons Ratio (x) = 0.06741 0.01032
# Poissons Ratio (y) = 0.32764 0.23931
# Poissons Ratio (z) = 0.36447 1.73874
#
# Static dielectric constant tensor:
#      x y z
#    x 1.642160 0.000000 0.012910 
#    y 0.000000 1.671320 0.000000 
#    z 0.012910 0.000000 1.653710 
# 
# From -- ./inp_files/51774.got.cif
#   From: 2010.05.17/outbox.cif.g08.bks.cpg/sg11_26_cif.got.tgz:51774.got - 2010.06.03 12:22:45.
