data_PCOD9162101
_publ_section_title
;
Structure prediction by ZEFSAII (Michael W. Deem and Ramdas Pophale) SiO2 
 PCOD9162101
Probable space group: P 21/M
;
_chemical_formula_sum "Si O2"
_cell_formula_units_Z 28
_cell_length_a 10.377494
_cell_length_b 8.818645
_cell_length_c 23.340507
_cell_angle_alpha 90.000000
_cell_angle_beta 46.402406
_cell_angle_gamma 90.000000
_cell_volume 1546.905020
_symmetry_space_group_name_H-M "P 21/M"
_symmetry_group_IT_number 11
_symmetry_cell_setting 'monoclinic'
loop_
_space_group_symop_operation_xyz
x,y,z
-x,1/2+y,-z
-x,-y,-z
x,1/2-y,z
loop_
_atom_site_type_symbol
_atom_site_label
_atom_site_fract_x
_atom_site_fract_y
_atom_site_fract_z
Si Si1 0.575844 0.930771 0.267943
Si Si2 0.494318 0.568964 0.834050
Si Si3 0.218083 0.430947 0.596545
Si Si4 0.004026 0.430927 0.841579
Si Si5 0.891095 0.930920 0.754873
Si Si6 0.147892 0.431138 0.997326
Si Si7 0.478305 0.431047 0.415258
O O1 0.552911 0.750000 0.270813
O O2 0.786027 0.961392 0.213564
O O3 0.518253 0.009295 0.226929
O O4 0.473816 0.995818 0.354242
O O5 0.466182 0.750000 0.843620
O O6 0.688320 0.535797 0.800218
O O7 0.338781 0.489228 0.917652
O O8 0.208497 0.250000 0.607636
O O9 0.306725 0.461635 0.507664
O O10 0.354714 0.498954 0.601431
O O11 0.027950 0.504829 0.665937
O O12 0.978424 0.250000 0.852077
O O13 0.943234 0.493345 0.799041
O O14 0.897641 0.510391 0.925397
O O15 0.912759 0.750000 0.752642
O O16 0.139841 0.250000 0.997124
O O17 0.000000 0.500000 0.000000
O O18 0.501412 0.250000 0.403993
#
# Coordination Sequence:
#
# PCOD9162101 Si02
#       7
#     4   4   4   4   4   4   4
#     4  11  22  37  61  92 120 156 203 247 296 354
#     4  11  25  43  63  88 122 160 200 246 300 359
#     4  10  20  35  57  88 122 158 198 245 299 353
#     4  11  23  39  63  92 121 157 201 247 295 353
#     4  11  24  41  62  90 122 161 201 244 301 357
#     4  12  24  40  64  92 121 156 199 248 300 351
#     4  10  20  34  58  89 121 156 199 249 297 348
#
# _framework density 18.100657000000002
#
# number of rings (size 3 to 8) (size 9 to 14) (size 15 to 20)
#    0.000    1.143    2.857    3.857    0.000    5.714 
#    0.000    0.714    0.000    0.000    0.000    0.000 
#    0.000    0.000    0.000    0.000    0.000    0.000 
#
# Total GULP energy -156570.984382 kJ/mol
# GULP energy per Si atom -5591.820871 kJ/mol
# Density = 1.805946 g / cm^3
# Si number density = 18.100657 Si / 1000 Ang^3
#
#
#
# Elastic Constant Matrix: (Units=GPa)
#
#
# Indices 1 2 3 4 5 6 
#
# 1 90.9767 64.2039 49.0912 0.0000 -3.6354 0.0000
# 2 64.2039 97.1644 63.5688 0.0000 -7.4513 0.0000
# 3 49.0912 63.5688 131.2542 0.0000 -1.5896 0.0000
# 4 0.0000 0.0000 0.0000 36.8240 0.0000 1.4826
# 5 -3.6354 -7.4513 -1.5896 0.0000 30.0049 0.0000
# 6 0.0000 0.0000 0.0000 1.4826 0.0000 24.6308
#
#
#
# Elastic Compliance Matrix: (Units=1/GPa)
#
#
# Indices 1 2 3 4 5 6 
#
# 1 0.020852 -0.012774 -0.001621 0.000000 -0.000732 0.000000
# 2 -0.012774 0.023237 -0.006429 0.000000 0.003882 0.000000
# 3 -0.001621 -0.006429 0.011324 0.000000 -0.001193 0.000000
# 4 0.000000 0.000000 0.000000 0.027222 0.000000 -0.001639
# 5 -0.000732 0.003882 -0.001193 0.000000 0.034140 0.000000
# 6 0.000000 0.000000 0.000000 -0.001639 0.000000 0.040698
#
#
# Mechanical properties :
#
#
# Convention : Reuss Voigt Hill
#
# Bulk Modulus (GPa) = 72.65143 74.79147 73.72145
# Shear Modulus (GPa) = 24.54452 27.79400 26.16926
#
# Velocity S-wave (km/s) = 3.68639 3.92283 3.80644
# Velocity P-wave (km/s) = 7.63832 7.86941 7.75472
#
# Compressibility (1/GPa) = 0.01376435
#
# Stress axis : x y z
#
# Youngs Moduli (GPa) = 47.95612 43.03549 88.30434
#
# Poissons Ratio (x) = 0.54974 0.14316
# Poissons Ratio (y) = 0.61260 0.56772
# Poissons Ratio (z) = 0.07775 0.27668
#
# Static dielectric constant tensor:
#      x y z
#    x 1.585460 0.000000 -0.001940 
#    y 0.000000 1.602200 0.000000 
#    z -0.001940 0.000000 1.617500 
# 
# From -- ./inp_files/63374.got.cif
#   From: 2010.05.17/outbox.cif.g08.bks.cpg/sg11_32_cif.got.tgz:63374.got - 2010.06.03 12:22:45.
