data_PCOD9162330
_publ_section_title
;
Structure prediction by ZEFSAII (Michael W. Deem and Ramdas Pophale) SiO2 
 PCOD9162330
Probable space group: P 21/M
;
_chemical_formula_sum "Si O2"
_cell_formula_units_Z 32
_cell_length_a 15.020481
_cell_length_b 11.629366
_cell_length_c 15.014845
_cell_angle_alpha 90.000000
_cell_angle_beta 37.174741
_cell_angle_gamma 90.000000
_cell_volume 1584.805190
_symmetry_space_group_name_H-M "P 21/M"
_symmetry_group_IT_number 11
_symmetry_cell_setting 'monoclinic'
loop_
_space_group_symop_operation_xyz
x,y,z
-x,1/2+y,-z
-x,-y,-z
x,1/2-y,z
loop_
_atom_site_type_symbol
_atom_site_label
_atom_site_fract_x
_atom_site_fract_y
_atom_site_fract_z
Si Si1 0.355196 0.539917 0.808442
Si Si2 0.913181 0.615405 0.703263
Si Si3 0.291885 0.616887 0.150849
Si Si4 0.821543 0.385681 0.218869
Si Si5 0.389579 0.881100 0.457623
Si Si6 0.111860 0.381811 0.070683
Si Si7 0.450167 0.123111 0.191259
Si Si8 0.241538 0.922734 0.386551
O O1 0.250975 0.597976 0.818870
O O2 0.468293 0.459134 0.666010
O O3 0.450371 0.617133 0.798896
O O4 0.254797 0.459347 0.949924
O O5 0.861668 0.750000 0.725962
O O6 0.811871 0.499300 0.773062
O O7 0.947703 0.616476 0.781462
O O8 0.066590 0.595572 0.528944
O O9 0.244958 0.750000 0.158039
O O10 0.310581 0.629615 0.242008
O O11 0.438836 0.588795 0.977180
O O12 0.835305 0.250000 0.225771
O O13 0.715048 0.430091 0.381785
O O14 0.986188 0.429112 0.105058
O O15 0.429904 0.750000 0.448179
O O16 0.307500 0.879994 0.427530
O O17 0.150211 0.250000 0.017230
O O18 0.402969 0.250000 0.207620
O O19 0.304083 0.051167 0.327142
#
# Coordination Sequence:
#
# PCOD9162330 Si02
#       8
#     4   4   4   4   4   4   4   4
#     4  11  20  35  57  83 113 152 193 234 304 352
#     4  11  22  40  63  91 122 160 205 255 302 357
#     4  11  23  41  63  92 124 161 201 251 307 366
#     4  10  20  35  57  80 110 150 192 241 294 352
#     4  10  20  35  55  82 111 145 192 247 293 347
#     4  10  20  36  57  83 116 150 195 247 294 349
#     4  10  23  40  58  85 125 159 199 247 302 365
#     4  11  22  38  63  86 117 160 203 247 300 355
#
# _framework density 20.191756000000002
#
# number of rings (size 3 to 8) (size 9 to 14) (size 15 to 20)
#    0.000    1.500    2.500    3.375    0.000    1.000 
#    0.000    1.250    0.000    1.500    0.000    0.000 
#    0.000    0.000    0.000    0.000    0.000    0.000 
#
# Total GULP energy -178251.853146 kJ/mol
# GULP energy per Si atom -5570.370411 kJ/mol
# Density = 2.014580 g / cm^3
# Si number density = 20.191756 Si / 1000 Ang^3
#
#
#
# Elastic Constant Matrix: (Units=GPa)
#
#
# Indices 1 2 3 4 5 6 
#
# 1 60.4762 15.3778 -12.2605 0.0000 13.1315 0.0000
# 2 15.3778 95.7554 33.8238 0.0000 -14.8539 0.0000
# 3 -12.2605 33.8238 61.6266 0.0000 4.6805 0.0000
# 4 0.0000 0.0000 0.0000 15.7238 0.0000 0.0846
# 5 13.1315 -14.8539 4.6805 0.0000 28.7890 0.0000
# 6 0.0000 0.0000 0.0000 0.0846 0.0000 4.4541
#
#
#
# Elastic Compliance Matrix: (Units=1/GPa)
#
#
# Indices 1 2 3 4 5 6 
#
# 1 0.027107 -0.012521 0.013866 0.000000 -0.021079 0.000000
# 2 -0.012521 0.020818 -0.015356 0.000000 0.018949 0.000000
# 3 0.013866 -0.015356 0.028852 0.000000 -0.018939 0.000000
# 4 0.000000 0.000000 0.000000 0.063604 0.000000 -0.001208
# 5 -0.021079 0.018949 -0.018939 0.000000 0.057206 0.000000
# 6 0.000000 0.000000 0.000000 -0.001208 0.000000 0.224536
#
#
# Mechanical properties :
#
#
# Convention : Reuss Voigt Hill
#
# Bulk Modulus (GPa) = 20.51067 32.41559 26.46313
# Shear Modulus (GPa) = 10.72048 21.85452 16.28750
#
# Velocity S-wave (km/s) = 2.30670 3.29348 2.84322
# Velocity P-wave (km/s) = 4.15626 5.52733 4.89008
#
# Compressibility (1/GPa) = 0.04875512
#
# Stress axis : x y z
#
# Youngs Moduli (GPa) = 36.89022 48.03593 34.65968
#
# Poissons Ratio (x) = 0.60146 -0.48060
# Poissons Ratio (y) = 0.46191 0.53224
# Poissons Ratio (z) = -0.51153 0.73764
#
# Static dielectric constant tensor:
#      x y z
#    x 1.731880 0.000000 -0.005590 
#    y 0.000000 1.761080 0.000000 
#    z -0.005590 0.000000 1.696170 
# 
# From -- ./inp_files/52272.got.cif
#   From: 2010.05.17/outbox.cif.g08.bks.cpg/sg11_27_cif.got.tgz:52272.got - 2010.06.03 12:22:45.
