data_PCOD9162717
_publ_section_title
;
Structure prediction by ZEFSAII (Michael W. Deem and Ramdas Pophale) SiO2 
 PCOD9162717
Probable space group: P 21/M
;
_chemical_formula_sum "Si O2"
_cell_formula_units_Z 24
_cell_length_a 15.148338
_cell_length_b 8.755542
_cell_length_c 10.370019
_cell_angle_alpha 90.000000
_cell_angle_beta 99.732075
_cell_angle_gamma 90.000000
_cell_volume 1355.602096
_symmetry_space_group_name_H-M "P 21/M"
_symmetry_group_IT_number 11
_symmetry_cell_setting 'monoclinic'
loop_
_space_group_symop_operation_xyz
x,y,z
-x,1/2+y,-z
-x,-y,-z
x,1/2-y,z
loop_
_atom_site_type_symbol
_atom_site_label
_atom_site_fract_x
_atom_site_fract_y
_atom_site_fract_z
Si Si1 0.928605 0.933677 0.081947
Si Si2 0.451019 0.567890 0.611778
Si Si3 0.547027 0.067529 0.884947
Si Si4 0.264758 0.932194 0.955006
Si Si5 0.274566 0.433431 0.673760
Si Si6 0.069191 0.433402 0.619106
O O1 0.071859 0.250000 0.923441
O O2 0.829433 0.996024 0.026984
O O3 0.948193 0.979513 0.236018
O O4 0.000000 0.000000 0.000000
O O5 0.500000 0.500000 0.500000
O O6 0.449404 0.750000 0.606216
O O7 0.504905 0.511352 0.750547
O O8 0.350272 0.504636 0.602639
O O9 0.532165 0.250000 0.875297
O O10 0.653091 0.039770 0.928195
O O11 0.500000 0.000000 0.000000
O O12 0.255249 0.750000 0.936534
O O13 0.289027 0.005209 0.822569
O O14 0.281825 0.250000 0.676101
O O15 0.172323 0.475849 0.613713
O O16 0.063938 0.250000 0.613714
O O17 0.000000 0.500000 0.500000
#
# Coordination Sequence:
#
# PCOD9162717 Si02
#       6
#     4   4   4   4   4   4
#     4  10  21  38  59  85 117 152 189 239 293 344
#     4  12  25  41  60  85 118 157 196 241 297 348
#     4  11  22  37  61  90 119 152 195 241 284 344
#     4  10  20  35  59  89 116 150 194 237 286 344
#     4  10  20  37  60  85 116 152 194 240 287 346
#     4   9  20  37  59  86 113 147 190 234 282 340
#
# _framework density 17.70431
#
# number of rings (size 3 to 8) (size 9 to 14) (size 15 to 20)
#    0.000    1.667    1.667    4.500    0.000    6.000 
#    3.000    0.000    0.000    0.000    0.000    0.000 
#    0.000    0.000    0.000    0.000    0.000    0.000 
#
# Total GULP energy -134053.019829 kJ/mol
# GULP energy per Si atom -5585.542493 kJ/mol
# Density = 1.766401 g / cm^3
# Si number density = 17.704310 Si / 1000 Ang^3
#
#
#
# Elastic Constant Matrix: (Units=GPa)
#
#
# Indices 1 2 3 4 5 6 
#
# 1 168.2441 73.1718 94.8871 0.0000 -12.9446 0.0000
# 2 73.1718 99.9070 55.8861 0.0000 -0.3599 0.0000
# 3 94.8871 55.8861 118.1813 0.0000 -1.9528 0.0000
# 4 0.0000 0.0000 0.0000 34.1626 0.0000 0.5204
# 5 -12.9446 -0.3599 -1.9528 0.0000 36.1070 0.0000
# 6 0.0000 0.0000 0.0000 0.5204 0.0000 37.3458
#
#
#
# Elastic Compliance Matrix: (Units=1/GPa)
#
#
# Indices 1 2 3 4 5 6 
#
# 1 0.012914 -0.005006 -0.007933 0.000000 0.004151 0.000000
# 2 -0.005006 0.015551 -0.003365 0.000000 -0.001822 0.000000
# 3 -0.007933 -0.003365 0.016389 0.000000 -0.001991 0.000000
# 4 0.000000 0.000000 0.000000 0.029278 0.000000 -0.000408
# 5 0.004151 -0.001822 -0.001991 0.000000 0.029058 0.000000
# 6 0.000000 0.000000 0.000000 -0.000408 0.000000 0.026782
#
#
# Mechanical properties :
#
#
# Convention : Reuss Voigt Hill
#
# Bulk Modulus (GPa) = 81.65075 92.69140 87.17107
# Shear Modulus (GPa) = 30.00060 32.34891 31.17475
#
# Velocity S-wave (km/s) = 4.12094 4.27919 4.20081
# Velocity P-wave (km/s) = 8.29832 8.76836 8.53658
#
# Compressibility (1/GPa) = 0.01224728
#
# Stress axis : x y z
#
# Youngs Moduli (GPa) = 77.43295 64.30320 61.01549
#
# Poissons Ratio (x) = 0.32190 0.48404
# Poissons Ratio (y) = 0.38762 0.20531
# Poissons Ratio (z) = 0.61428 0.21637
#
# Static dielectric constant tensor:
#      x y z
#    x 1.606990 0.000000 0.012930 
#    y 0.000000 1.591190 0.000000 
#    z 0.012930 0.000000 1.562620 
# 
# From -- ./inp_files/20620.got.cif
#   From: 2010.05.17/outbox.cif.g08.bks.cpg/sg11_11_cif.got.tgz:20620.got - 2010.06.03 12:22:45.
