data_PCOD9162501
_publ_section_title
;
Structure prediction by ZEFSAII (Michael W. Deem and Ramdas Pophale) SiO2 
 PCOD9162501
Probable space group: P 21/M
;
_chemical_formula_sum "Si O2"
_cell_formula_units_Z 32
_cell_length_a 12.406643
_cell_length_b 8.573995
_cell_length_c 16.300363
_cell_angle_alpha 90.000000
_cell_angle_beta 100.598897
_cell_angle_gamma 90.000000
_cell_volume 1704.359893
_symmetry_space_group_name_H-M "P 21/M"
_symmetry_group_IT_number 11
_symmetry_cell_setting 'monoclinic'
loop_
_space_group_symop_operation_xyz
x,y,z
-x,1/2+y,-z
-x,-y,-z
x,1/2-y,z
loop_
_atom_site_type_symbol
_atom_site_label
_atom_site_fract_x
_atom_site_fract_y
_atom_site_fract_z
Si Si1 0.085414 0.438259 0.285742
Si Si2 0.430092 0.936872 0.110614
Si Si3 0.838544 0.059943 0.224722
Si Si4 0.891443 0.436804 0.529096
Si Si5 0.292258 0.938139 0.628692
Si Si6 0.655786 0.061779 0.077555
Si Si7 0.484196 0.564908 0.406136
Si Si8 0.685680 0.936809 0.743792
O O1 0.082071 0.250000 0.284838
O O2 0.111847 0.492727 0.381212
O O3 0.187363 0.487602 0.243844
O O4 0.963981 0.495234 0.244850
O O5 0.433943 0.750000 0.113153
O O6 0.552635 0.001047 0.115290
O O7 0.374160 0.998280 0.184578
O O8 0.363958 0.986996 0.019196
O O9 0.841615 0.250000 0.225457
O O10 0.772107 0.015431 0.297687
O O11 0.767797 0.009897 0.136360
O O12 0.897285 0.250000 0.534245
O O13 0.786249 0.477040 0.459028
O O14 0.000000 0.500000 0.500000
O O15 0.307389 0.750000 0.632910
O O16 0.409098 0.017130 0.631831
O O17 0.652927 0.250000 0.079078
O O18 0.500000 0.500000 0.500000
O O19 0.473522 0.750000 0.408505
O O20 0.379011 0.494916 0.345524
O O21 0.681262 0.750000 0.744812
#
# Coordination Sequence:
#
# PCOD9162501 Si02
#       8
#     4   4   4   4   4   4   4   4
#     4  10  21  38  57  79 107 146 194 236 277 332
#     4  10  20  35  57  87 117 146 185 230 282 341
#     4   9  17  34  57  81 108 140 182 230 280 330
#     4  11  21  34  54  80 111 148 187 229 276 329
#     4  10  20  35  57  82 111 146 186 233 284 336
#     4   9  18  34  60  87 113 146 183 231 286 340
#     4  12  25  40  58  82 114 147 186 234 281 335
#     4  11  23  39  60  82 111 152 193 231 279 339
#
# _framework density 18.775376000000001
#
# number of rings (size 3 to 8) (size 9 to 14) (size 15 to 20)
#    0.000    1.750    1.250    3.750    0.000    5.500 
#    0.000    1.250    0.000    0.000    0.000    0.000 
#    0.000    0.000    0.000    0.000    0.000    0.000 
#
# Total GULP energy -178782.433242 kJ/mol
# GULP energy per Si atom -5586.951039 kJ/mol
# Density = 1.873264 g / cm^3
# Si number density = 18.775376 Si / 1000 Ang^3
#
#
#
# Elastic Constant Matrix: (Units=GPa)
#
#
# Indices 1 2 3 4 5 6 
#
# 1 110.5012 14.4178 49.4695 0.0000 10.3359 0.0000
# 2 14.4178 12.7432 9.8951 0.0000 1.2773 0.0000
# 3 49.4695 9.8951 94.2238 0.0000 3.6301 0.0000
# 4 0.0000 0.0000 0.0000 25.1552 0.0000 -0.8156
# 5 10.3359 1.2773 3.6301 0.0000 32.5271 0.0000
# 6 0.0000 0.0000 0.0000 -0.8156 0.0000 20.4977
#
#
#
# Elastic Compliance Matrix: (Units=1/GPa)
#
#
# Indices 1 2 3 4 5 6 
#
# 1 0.013260 -0.010206 -0.005768 0.000000 -0.003169 0.000000
# 2 -0.010206 0.093478 -0.004461 0.000000 0.000070 0.000000
# 3 -0.005768 -0.004461 0.014093 0.000000 0.000435 0.000000
# 4 0.000000 0.000000 0.000000 0.039805 0.000000 0.001584
# 5 -0.003169 0.000070 0.000435 0.000000 0.031699 0.000000
# 6 0.000000 0.000000 0.000000 0.001584 0.000000 0.048849
#
#
# Mechanical properties :
#
#
# Convention : Reuss Voigt Hill
#
# Bulk Modulus (GPa) = 12.50613 40.55921 26.53267
# Shear Modulus (GPa) = 16.19660 25.21506 20.70583
#
# Velocity S-wave (km/s) = 2.94028 3.66865 3.32447
# Velocity P-wave (km/s) = 4.26642 6.29242 5.37573
#
# Compressibility (1/GPa) = 0.07996081
#
# Stress axis : x y z
#
# Youngs Moduli (GPa) = 75.41530 10.69773 70.95733
#
# Poissons Ratio (x) = 0.10918 0.40927
# Poissons Ratio (y) = 0.76970 0.31654
# Poissons Ratio (z) = 0.43498 0.04772
#
# Static dielectric constant tensor:
#      x y z
#    x 1.651780 0.000000 0.013600 
#    y 0.000000 1.636020 0.000000 
#    z 0.013600 0.000000 1.637570 
# 
# From -- ./inp_files/49393.got.cif
#   From: 2010.05.17/outbox.cif.g08.bks.cpg/sg11_25_cif.got.tgz:49393.got - 2010.06.03 12:22:45.
