data_PCOD9162546
_publ_section_title
;
Structure prediction by ZEFSAII (Michael W. Deem and Ramdas Pophale) SiO2 
 PCOD9162546
Probable space group: P 21/M
;
_chemical_formula_sum "Si O2"
_cell_formula_units_Z 28
_cell_length_a 12.614475
_cell_length_b 8.718126
_cell_length_c 16.999511
_cell_angle_alpha 90.000000
_cell_angle_beta 119.639282
_cell_angle_gamma 90.000000
_cell_volume 1624.899565
_symmetry_space_group_name_H-M "P 21/M"
_symmetry_group_IT_number 11
_symmetry_cell_setting 'monoclinic'
loop_
_space_group_symop_operation_xyz
x,y,z
-x,1/2+y,-z
-x,-y,-z
x,1/2-y,z
loop_
_atom_site_type_symbol
_atom_site_label
_atom_site_fract_x
_atom_site_fract_y
_atom_site_fract_z
Si Si1 0.514265 0.567219 0.716058
Si Si2 0.391583 0.933187 0.406700
Si Si3 0.691323 0.933058 0.096177
Si Si4 0.441706 0.932910 0.099621
Si Si5 0.146460 0.566616 0.414096
Si Si6 0.112322 0.933217 0.718824
Si Si7 0.758496 0.566426 0.389096
O O1 0.502339 0.750000 0.708959
O O2 0.595995 0.508278 0.674144
O O3 0.564688 0.513072 0.818570
O O4 0.380228 0.493005 0.656824
O O5 0.406472 0.750000 0.405855
O O6 0.263554 0.964598 0.402391
O O7 0.500000 0.000000 0.500000
O O8 0.705041 0.750000 0.095649
O O9 0.575646 0.964099 0.111325
O O10 0.809024 0.007995 0.178639
O O11 0.654159 0.002749 0.998645
O O12 0.429401 0.750000 0.103317
O O13 0.135848 0.750000 0.420593
O O14 0.171087 0.489720 0.507558
O O15 0.023509 0.500232 0.332202
O O16 0.110380 0.750000 0.716124
O O17 0.179160 0.996458 0.665240
O O18 0.759327 0.750000 0.384231
#
# Coordination Sequence:
#
# PCOD9162546 Si02
#       7
#     4   4   4   4   4   4   4
#     4  12  23  36  58  86 119 153 191 237 288 342
#     4  11  23  39  61  84 113 151 195 242 287 336
#     4  10  20  35  57  84 117 152 188 234 285 341
#     4  10  20  35  57  85 117 151 189 234 286 341
#     4  11  24  41  59  82 114 154 197 238 285 342
#     4  12  24  38  58  84 118 156 193 235 286 345
#     4  12  23  37  57  83 117 154 193 236 286 343
#
# _framework density 17.231835
#
# number of rings (size 3 to 8) (size 9 to 14) (size 15 to 20)
#    0.000    0.857    2.857    6.000    0.000    2.857 
#    0.000    0.000    0.000    0.857    0.000    0.000 
#    0.000    0.000    0.000    0.000    0.000    0.000 
#
# Total GULP energy -156628.837602 kJ/mol
# GULP energy per Si atom -5593.887057 kJ/mol
# Density = 1.719261 g / cm^3
# Si number density = 17.231835 Si / 1000 Ang^3
#
#
#
# Elastic Constant Matrix: (Units=GPa)
#
#
# Indices 1 2 3 4 5 6 
#
# 1 53.6336 36.8697 43.4934 0.0000 16.2863 0.0000
# 2 36.8697 94.7453 46.6054 0.0000 9.8119 0.0000
# 3 43.4934 46.6054 137.4408 0.0000 12.5574 0.0000
# 4 0.0000 0.0000 0.0000 36.4596 0.0000 -0.2293
# 5 16.2863 9.8119 12.5574 0.0000 26.3941 0.0000
# 6 0.0000 0.0000 0.0000 -0.2293 0.0000 25.9028
#
#
#
# Elastic Compliance Matrix: (Units=1/GPa)
#
#
# Indices 1 2 3 4 5 6 
#
# 1 0.034463 -0.008608 -0.006624 0.000000 -0.014914 0.000000
# 2 -0.008608 0.015017 -0.002450 0.000000 0.000895 0.000000
# 3 -0.006624 -0.002450 0.010189 0.000000 0.000151 0.000000
# 4 0.000000 0.000000 0.000000 0.027429 0.000000 0.000243
# 5 -0.014914 0.000895 0.000151 0.000000 0.046685 0.000000
# 6 0.000000 0.000000 0.000000 0.000243 0.000000 0.038608
#
#
# Mechanical properties :
#
#
# Convention : Reuss Voigt Hill
#
# Bulk Modulus (GPa) = 41.14480 59.97298 50.55889
# Shear Modulus (GPa) = 23.16341 28.34139 25.75240
#
# Velocity S-wave (km/s) = 3.67034 4.05990 3.87003
# Velocity P-wave (km/s) = 6.47232 7.54031 7.02663
#
# Compressibility (1/GPa) = 0.02430441
#
# Stress axis : x y z
#
# Youngs Moduli (GPa) = 29.01651 66.59185 98.14403
#
# Poissons Ratio (x) = 0.57324 0.65014
# Poissons Ratio (y) = 0.24978 0.24043
# Poissons Ratio (z) = 0.19222 0.16314
#
# Static dielectric constant tensor:
#      x y z
#    x 1.563430 0.000000 -0.000460 
#    y 0.000000 1.570930 0.000000 
#    z -0.000460 0.000000 1.568270 
# 
# From -- ./inp_files/37483.got.cif
#   From: 2010.05.17/outbox.cif.g08.bks.cpg/sg11_19_cif.got.tgz:37483.got - 2010.06.03 12:22:45.
