data_PCOD9162075
_publ_section_title
;
Structure prediction by ZEFSAII (Michael W. Deem and Ramdas Pophale) SiO2 
 PCOD9162075
Probable space group: P 21/M
;
_chemical_formula_sum "Si O2"
_cell_formula_units_Z 28
_cell_length_a 9.790511
_cell_length_b 12.733780
_cell_length_c 21.421656
_cell_angle_alpha 90.000000
_cell_angle_beta 27.572795
_cell_angle_gamma 90.000000
_cell_volume 1236.174140
_symmetry_space_group_name_H-M "P 21/M"
_symmetry_group_IT_number 11
_symmetry_cell_setting 'monoclinic'
loop_
_space_group_symop_operation_xyz
x,y,z
-x,1/2+y,-z
-x,-y,-z
x,1/2-y,z
loop_
_atom_site_type_symbol
_atom_site_label
_atom_site_fract_x
_atom_site_fract_y
_atom_site_fract_z
Si Si1 0.922760 0.864540 0.369140
Si Si2 0.668615 0.365542 0.531682
Si Si3 0.272840 0.631853 0.350209
Si Si4 0.735510 0.048230 0.174319
Si Si5 0.852171 0.578729 0.765182
Si Si6 0.198642 0.868239 0.987509
Si Si7 0.329547 0.579205 0.663812
O O1 0.006102 0.750000 0.312963
O O2 0.570610 0.874623 0.517939
O O3 0.016618 0.876461 0.403788
O O4 0.097086 0.953823 0.262429
O O5 0.534970 0.250000 0.581211
O O6 0.808152 0.376106 0.544399
O O7 0.425039 0.456015 0.623561
O O8 0.931265 0.377781 0.376422
O O9 0.401842 0.750000 0.289225
O O10 0.491737 0.535833 0.250269
O O11 0.797214 0.120179 0.089805
O O12 0.644267 0.108186 0.274172
O O13 0.999929 0.968516 0.086683
O O14 0.523616 0.615227 0.884727
O O15 0.009037 0.605619 0.766818
O O16 0.095669 0.750000 0.045680
#
# Coordination Sequence:
#
# PCOD9162075 Si02
#       7
#     4   4   4   4   4   4   4
#     4  10  20  34  57  89 124 157 189 231 286 342
#     4   9  18  32  55  85 119 156 191 233 285 344
#     4   9  17  32  58  88 117 149 191 239 285 337
#     4  10  22  42  61  84 113 148 196 247 287 336
#     4  11  22  37  55  88 122 155 192 232 284 343
#     4  11  24  41  64  85 110 151 196 244 293 339
#     4  10  23  36  58  85 120 155 191 236 284 346
#
# _framework density 22.650531999999998
#
# number of rings (size 3 to 8) (size 9 to 14) (size 15 to 20)
#    0.000    2.000    1.429    2.571    2.000    6.286 
#    0.000    0.000    0.000    0.000    0.000    0.000 
#    0.000    0.000    0.000    0.000    0.000    0.000 
#
# Total GULP energy -156378.118003 kJ/mol
# GULP energy per Si atom -5584.932786 kJ/mol
# Density = 2.259898 g / cm^3
# Si number density = 22.650532 Si / 1000 Ang^3
#
#
#
# Elastic Constant Matrix: (Units=GPa)
#
#
# Indices 1 2 3 4 5 6 
#
# 1 61.8695 -9.0088 3.8368 0.0000 -27.1438 0.0000
# 2 -9.0088 79.8084 -12.6569 0.0000 -5.0097 0.0000
# 3 3.8368 -12.6569 37.8154 0.0000 -20.2657 0.0000
# 4 0.0000 0.0000 0.0000 -10.9611 0.0000 9.9791
# 5 -27.1438 -5.0097 -20.2657 0.0000 39.7368 0.0000
# 6 0.0000 0.0000 0.0000 9.9791 0.0000 5.7693
#
#
#
# Elastic Compliance Matrix: (Units=1/GPa)
#
#
# Indices 1 2 3 4 5 6 
#
# 1 0.028474 0.007231 0.014371 0.000000 0.027691 0.000000
# 2 0.007231 0.015970 0.011473 0.000000 0.012804 0.000000
# 3 0.014371 0.011473 0.047974 0.000000 0.035730 0.000000
# 4 0.000000 0.000000 0.000000 -0.035434 0.000000 0.061289
# 5 0.027691 0.012804 0.035730 0.000000 0.063918 0.000000
# 6 0.000000 0.000000 0.000000 0.061289 0.000000 0.067320
#
#
# Mechanical properties :
#
#
# Convention : Reuss Voigt Hill
#
# Bulk Modulus (GPa) = 6.30635 15.98173 11.14404
# Shear Modulus (GPa) = 28.58350 20.06383 24.32366
#
# Velocity S-wave (km/s) = 3.55623 2.97947 3.28055
# Velocity P-wave (km/s) = 4.43312 4.34826 4.39090
#
# Compressibility (1/GPa) = 0.15857020
#
# Stress axis : x y z
#
# Youngs Moduli (GPa) = 35.12021 62.61883 20.84442
#
# Poissons Ratio (x) = -0.45283 -0.29956
# Poissons Ratio (y) = -0.25397 -0.23916
# Poissons Ratio (z) = -0.50472 -0.71845
#
# Static dielectric constant tensor:
#      x y z
#    x 1.851610 0.000000 -0.013990 
#    y 0.000000 1.883580 0.000000 
#    z -0.013990 0.000000 1.823310 
# 
# From -- ./inp_files/63868.got.cif
#   From: 2010.05.17/outbox.cif.g08.bks.cpg/sg11_32_cif.got.tgz:63868.got - 2010.06.03 12:22:45.
