data_PCOD9162898
_publ_section_title
;
Structure prediction by ZEFSAII (Michael W. Deem and Ramdas Pophale) SiO2 
 PCOD9162898
Probable space group: P 21/M
;
_chemical_formula_sum "Si O2"
_cell_formula_units_Z 32
_cell_length_a 12.697143
_cell_length_b 8.889052
_cell_length_c 14.661748
_cell_angle_alpha 90.000000
_cell_angle_beta 91.301924
_cell_angle_gamma 90.000000
_cell_volume 1654.379269
_symmetry_space_group_name_H-M "P 21/M"
_symmetry_group_IT_number 11
_symmetry_cell_setting 'monoclinic'
loop_
_space_group_symop_operation_xyz
x,y,z
-x,1/2+y,-z
-x,-y,-z
x,1/2-y,z
loop_
_atom_site_type_symbol
_atom_site_label
_atom_site_fract_x
_atom_site_fract_y
_atom_site_fract_z
Si Si1 0.111867 0.430062 0.782999
Si Si2 0.271934 0.924702 0.643678
Si Si3 0.446162 0.922781 0.793254
Si Si4 0.674284 0.569744 0.726792
Si Si5 0.393091 0.425548 0.966529
Si Si6 0.118543 0.930027 0.178155
Si Si7 0.613644 0.067452 0.530747
Si Si8 0.162757 0.432445 0.992557
O O1 0.123884 0.250000 0.782040
O O2 0.186943 0.496151 0.706665
O O3 0.138678 0.477967 0.887855
O O4 0.988309 0.466373 0.768886
O O5 0.241112 0.750000 0.637668
O O6 0.385019 0.931368 0.697055
O O7 0.298832 0.979665 0.542901
O O8 0.435219 0.750000 0.826355
O O9 0.569060 0.957497 0.784952
O O10 0.388416 0.034997 0.859966
O O11 0.682645 0.750000 0.716456
O O12 0.779097 0.505594 0.775303
O O13 0.649660 0.492604 0.629586
O O14 0.400549 0.250000 0.981550
O O15 0.285272 0.476040 0.010219
O O16 0.500000 0.500000 0.000000
O O17 0.130930 0.750000 0.176287
O O18 0.103014 0.989009 0.074200
O O19 0.606528 0.250000 0.530299
O O20 0.500000 0.000000 0.500000
O O21 0.151778 0.250000 0.998389
#
# Coordination Sequence:
#
# PCOD9162898 Si02
#       8
#     4   4   4   4   4   4   4   4
#     4  10  22  41  62  87 120 156 203 253 296 347
#     4  10  21  38  61  90 120 150 191 241 292 349
#     4  10  20  36  56  82 117 152 189 238 292 347
#     4  11  23  41  62  88 123 160 199 246 301 359
#     4  11  22  34  51  79 116 156 196 237 290 352
#     4  11  24  40  60  88 119 156 203 253 299 352
#     4  11  22  39  63  94 126 157 196 243 296 358
#     4  10  21  38  58  83 116 157 201 247 296 352
#
# _framework density 19.342600999999998
#
# number of rings (size 3 to 8) (size 9 to 14) (size 15 to 20)
#    0.000    1.500    2.500    2.625    0.000    7.500 
#    0.000    0.625    0.000    0.000    0.000    0.000 
#    0.000    0.000    0.000    0.000    0.000    0.000 
#
# Total GULP energy -178667.558210 kJ/mol
# GULP energy per Si atom -5583.361194 kJ/mol
# Density = 1.929858 g / cm^3
# Si number density = 19.342601 Si / 1000 Ang^3
#
#
#
# Elastic Constant Matrix: (Units=GPa)
#
#
# Indices 1 2 3 4 5 6 
#
# 1 119.0571 41.9083 34.7789 0.0000 -20.9423 0.0000
# 2 41.9083 35.9172 22.1595 0.0000 -10.3226 0.0000
# 3 34.7789 22.1595 83.8119 0.0000 -15.4021 0.0000
# 4 0.0000 0.0000 0.0000 33.1409 0.0000 -1.0485
# 5 -20.9423 -10.3226 -15.4021 0.0000 31.2894 0.0000
# 6 0.0000 0.0000 0.0000 -1.0485 0.0000 25.6811
#
#
#
# Elastic Compliance Matrix: (Units=1/GPa)
#
#
# Indices 1 2 3 4 5 6 
#
# 1 0.014967 -0.015401 -0.001354 0.000000 0.004270 0.000000
# 2 -0.015401 0.050708 -0.006417 0.000000 0.003262 0.000000
# 3 -0.001354 -0.006417 0.014990 0.000000 0.004356 0.000000
# 4 0.000000 0.000000 0.000000 0.030213 0.000000 0.001234
# 5 0.004270 0.003262 0.004356 0.000000 0.038038 0.000000
# 6 0.000000 0.000000 0.000000 0.001234 0.000000 0.038989
#
#
# Mechanical properties :
#
#
# Convention : Reuss Voigt Hill
#
# Bulk Modulus (GPa) = 29.13575 48.49776 38.81675
# Shear Modulus (GPa) = 20.35073 27.35157 23.85115
#
# Velocity S-wave (km/s) = 3.24716 3.76448 3.51535
# Velocity P-wave (km/s) = 5.39948 6.63495 6.04884
#
# Compressibility (1/GPa) = 0.03432209
#
# Stress axis : x y z
#
# Youngs Moduli (GPa) = 66.81245 19.72064 66.70942
#
# Poissons Ratio (x) = 0.30372 0.09033
# Poissons Ratio (y) = 1.02899 0.42805
# Poissons Ratio (z) = 0.09047 0.12654
#
# Static dielectric constant tensor:
#      x y z
#    x 1.704480 0.000000 0.007350 
#    y 0.000000 1.653320 0.000000 
#    z 0.007350 0.000000 1.711900 
# 
# From -- ./inp_files/38100.got.cif
#   From: 2010.05.17/outbox.cif.g08.bks.cpg/sg11_20_cif.got.tgz:38100.got - 2010.06.03 12:22:45.
