data_PCOD9162692
_publ_section_title
;
Structure prediction by ZEFSAII (Michael W. Deem and Ramdas Pophale) SiO2 
 PCOD9162692
Probable space group: P 21/M
;
_chemical_formula_sum "Si O2"
_cell_formula_units_Z 32
_cell_length_a 12.870170
_cell_length_b 13.478610
_cell_length_c 16.647940
_cell_angle_alpha 90.000000
_cell_angle_beta 154.245657
_cell_angle_gamma 90.000000
_cell_volume 1254.853989
_symmetry_space_group_name_H-M "P 21/M"
_symmetry_group_IT_number 11
_symmetry_cell_setting 'monoclinic'
loop_
_space_group_symop_operation_xyz
x,y,z
-x,1/2+y,-z
-x,-y,-z
x,1/2-y,z
loop_
_atom_site_type_symbol
_atom_site_label
_atom_site_fract_x
_atom_site_fract_y
_atom_site_fract_z
Si Si1 0.537295 0.137674 0.893789
Si Si2 0.714992 0.871507 0.943588
Si Si3 0.974604 0.135715 0.104144
Si Si4 0.261597 0.870325 0.308084
Si Si5 0.533953 0.137048 0.069522
Si Si6 0.301887 0.133973 0.492131
Si Si7 0.938270 0.912835 0.518738
Si Si8 0.421114 0.371386 0.320407
O O1 0.632893 0.250000 0.973175
O O2 0.275182 0.142128 0.675183
O O3 0.720737 0.093797 0.955912
O O4 0.521522 0.092581 0.971674
O O5 0.716544 0.750000 0.946430
O O6 0.988381 0.902668 0.119479
O O7 0.613773 0.904810 0.958568
O O8 0.551394 0.897800 0.753308
O O9 0.929000 0.250000 0.046240
O O10 0.137997 0.134894 0.298377
O O11 0.156268 0.095721 0.164188
O O12 0.262804 0.750000 0.308371
O O13 0.433583 0.896718 0.353144
O O14 0.388218 0.902860 0.479541
O O15 0.443326 0.250000 0.996854
O O16 0.809871 0.138527 0.288251
O O17 0.311651 0.250000 0.526693
O O18 0.175388 0.069641 0.472324
O O19 0.000000 0.000000 0.500000
O O20 0.422388 0.250000 0.325703
#
# Coordination Sequence:
#
# PCOD9162692 Si02
#       8
#     4   4   4   4   4   4   4   4
#     4  10  20  35  59  84 105 141 187 226 274 329
#     4   9  17  28  48  77 109 141 169 211 270 324
#     4   8  14  27  50  80 110 133 166 223 279 321
#     4   8  15  26  45  76 105 130 167 218 274 324
#     4  10  21  39  57  79 114 148 184 226 268 325
#     4   9  16  32  55  78 109 138 172 229 280 319
#     4  12  25  37  53  80 113 148 187 229 278 330
#     4   8  14  24  41  74 112 134 156 208 274 322
#
# _framework density 25.500976000000001
#
# number of rings (size 3 to 8) (size 9 to 14) (size 15 to 20)
#    0.000    2.750    1.250    2.625    1.750    1.500 
#    0.000    3.750    0.000    0.750    0.000    2.625 
#    0.000    0.000    0.000    0.000    0.000    0.000 
#
# Total GULP energy -179007.975367 kJ/mol
# GULP energy per Si atom -5593.999230 kJ/mol
# Density = 2.544293 g / cm^3
# Si number density = 25.500976 Si / 1000 Ang^3
#
#
#
# Elastic Constant Matrix: (Units=GPa)
#
#
# Indices 1 2 3 4 5 6 
#
# 1 150.7946 21.1656 40.7764 0.0000 -6.5815 0.0000
# 2 21.1656 71.7871 -4.3294 0.0000 0.2430 0.0000
# 3 40.7764 -4.3294 90.0106 0.0000 5.1749 0.0000
# 4 0.0000 0.0000 0.0000 -324.7336 0.0000 -233.4274
# 5 -6.5815 0.2430 5.1749 0.0000 47.2705 0.0000
# 6 0.0000 0.0000 0.0000 -233.4274 0.0000 -123.1403
#
#
#
# Elastic Compliance Matrix: (Units=1/GPa)
#
#
# Indices 1 2 3 4 5 6 
#
# 1 0.008124 -0.002636 -0.003897 0.000000 0.001571 0.000000
# 2 -0.002636 0.014827 0.001945 0.000000 -0.000656 0.000000
# 3 -0.003897 0.001945 0.013083 0.000000 -0.001985 0.000000
# 4 0.000000 0.000000 0.000000 0.008492 0.000000 -0.016098
# 5 0.001571 -0.000656 -0.001985 0.000000 0.021594 0.000000
# 6 0.000000 0.000000 0.000000 -0.016098 0.000000 0.022395
#
#
# Mechanical properties :
#
#
# Convention : Reuss Voigt Hill
#
# Bulk Modulus (GPa) = 37.23381 47.53531 42.38456
# Shear Modulus (GPa) = 46.88520 -63.12204 -8.11842
#
# Velocity S-wave (km/s) = 4.29250 -4.98062 -1.78619
# Velocity P-wave (km/s) = 6.26099 3.79398 3.52177
#
# Compressibility (1/GPa) = 0.02685731
#
# Stress axis : x y z
#
# Youngs Moduli (GPa) = 123.09277 67.44599 76.43476
#
# Poissons Ratio (x) = 0.17776 0.29790
# Poissons Ratio (y) = 0.32443 -0.14865
# Poissons Ratio (z) = 0.47974 -0.13117
#
# Static dielectric constant tensor:
#      x y z
#    x 1.975370 0.000000 -0.003370 
#    y 0.000000 2.222820 0.000000 
#    z -0.003370 0.000000 1.931900 
# 
# From -- ./inp_files/40017.got.cif
#   From: 2010.05.17/outbox.cif.g08.bks.cpg/sg11_21_cif.got.tgz:40017.got - 2010.06.03 12:22:45.
