data_PCOD9162867
_publ_section_title
;
Structure prediction by ZEFSAII (Michael W. Deem and Ramdas Pophale) SiO2 
 PCOD9162867
Probable space group: P 21/M
;
_chemical_formula_sum "Si O2"
_cell_formula_units_Z 32
_cell_length_a 29.245031
_cell_length_b 7.769831
_cell_length_c 12.065663
_cell_angle_alpha 90.000000
_cell_angle_beta 148.488166
_cell_angle_gamma 90.000000
_cell_volume 1433.000345
_symmetry_space_group_name_H-M "P 21/M"
_symmetry_group_IT_number 11
_symmetry_cell_setting 'monoclinic'
loop_
_space_group_symop_operation_xyz
x,y,z
-x,1/2+y,-z
-x,-y,-z
x,1/2-y,z
loop_
_atom_site_type_symbol
_atom_site_label
_atom_site_fract_x
_atom_site_fract_y
_atom_site_fract_z
Si Si1 0.513837 0.546775 0.400033
Si Si2 0.848023 0.048128 0.144382
Si Si3 0.828254 0.948750 0.349880
Si Si4 0.348548 0.458343 0.907241
Si Si5 0.285889 0.451754 0.549609
Si Si6 0.692966 0.960467 0.658072
Si Si7 0.906945 0.045099 0.861913
Si Si8 0.979077 0.038911 0.240171
O O1 0.500000 0.500000 0.500000
O O2 0.523197 0.750000 0.417686
O O3 0.602998 0.478321 0.529278
O O4 0.431604 0.502065 0.153036
O O5 0.858008 0.250000 0.190667
O O6 0.771893 0.025418 0.897053
O O7 0.935540 0.982383 0.264545
O O8 0.825129 0.955150 0.210515
O O9 0.831308 0.750000 0.392683
O O10 0.740261 0.024923 0.218070
O O11 0.922606 0.025250 0.575511
O O12 0.344828 0.250000 0.897003
O O13 0.344289 0.521673 0.771295
O O14 0.305971 0.250000 0.582604
O O15 0.299261 0.522434 0.453348
O O16 0.183228 0.469225 0.370202
O O17 0.696463 0.750000 0.665536
O O18 0.897380 0.250000 0.838675
O O19 0.918243 0.986667 0.012471
O O20 0.000000 0.000000 0.000000
O O21 0.980749 0.250000 0.245307
#
# Coordination Sequence:
#
# PCOD9162867 Si02
#       8
#     4   4   4   4   4   4   4   4
#     4  11  24  42  64  91 121 155 196 246 300 359
#     4  11  21  35  56  85 117 150 194 245 293 345
#     4  10  20  36  56  79 113 156 194 235 292 353
#     4  10  22  40  62  87 118 155 195 241 298 357
#     4  10  21  40  63  87 117 156 199 243 297 359
#     4  10  22  40  62  87 118 155 197 244 300 360
#     4  11  21  36  57  84 119 160 204 248 294 347
#     4   9  19  35  54  79 114 152 193 240 291 345
#
# _framework density 22.330770000000001
#
# number of rings (size 3 to 8) (size 9 to 14) (size 15 to 20)
#    0.000    1.750    1.250    3.000    0.000    7.500 
#    0.000    3.125    0.000    0.000    0.000    0.000 
#    0.000    0.000    0.000    0.000    0.000    0.000 
#
# Total GULP energy -178821.472830 kJ/mol
# GULP energy per Si atom -5588.171026 kJ/mol
# Density = 2.227994 g / cm^3
# Si number density = 22.330770 Si / 1000 Ang^3
#
#
#
# Elastic Constant Matrix: (Units=GPa)
#
#
# Indices 1 2 3 4 5 6 
#
# 1 60.2800 -6.8206 14.4603 0.0000 2.9026 0.0000
# 2 -6.8206 38.6156 -11.5542 0.0000 -0.4482 0.0000
# 3 14.4603 -11.5542 117.4990 0.0000 -5.8072 0.0000
# 4 0.0000 0.0000 0.0000 19.5200 0.0000 1.1531
# 5 2.9026 -0.4482 -5.8072 0.0000 41.7311 0.0000
# 6 0.0000 0.0000 0.0000 1.1531 0.0000 11.0154
#
#
#
# Elastic Compliance Matrix: (Units=1/GPa)
#
#
# Indices 1 2 3 4 5 6 
#
# 1 0.017412 0.002468 -0.001972 0.000000 -0.001459 0.000000
# 2 0.002468 0.027049 0.002378 0.000000 0.000450 0.000000
# 3 -0.001972 0.002378 0.009058 0.000000 0.001423 0.000000
# 4 0.000000 0.000000 0.000000 0.051548 0.000000 -0.005396
# 5 -0.001459 0.000450 0.001423 0.000000 0.024267 0.000000
# 6 0.000000 0.000000 0.000000 -0.005396 0.000000 0.091347
#
#
# Mechanical properties :
#
#
# Convention : Reuss Voigt Hill
#
# Bulk Modulus (GPa) = 16.87263 23.17397 20.02330
# Shear Modulus (GPa) = 21.30486 29.14056 25.22271
#
# Velocity S-wave (km/s) = 3.09213 3.61633 3.36446
# Velocity P-wave (km/s) = 4.50784 5.27610 4.90703
#
# Compressibility (1/GPa) = 0.05926758
#
# Stress axis : x y z
#
# Youngs Moduli (GPa) = 57.43196 36.96981 110.40408
#
# Poissons Ratio (x) = -0.09126 0.21774
# Poissons Ratio (y) = -0.14176 -0.26257
# Poissons Ratio (z) = 0.11327 -0.08793
#
# Static dielectric constant tensor:
#      x y z
#    x 1.724040 0.000000 0.154640 
#    y 0.000000 1.819640 0.000000 
#    z 0.154640 0.000000 1.633290 
# 
# From -- ./inp_files/45270.got.cif
#   From: 2010.05.17/outbox.cif.g08.bks.cpg/sg11_23_cif.got.tgz:45270.got - 2010.06.03 12:22:45.
