data_PCOD9162720
_publ_section_title
;
Structure prediction by ZEFSAII (Michael W. Deem and Ramdas Pophale) SiO2 
 PCOD9162720
Probable space group: P 21/M
;
_chemical_formula_sum "Si O2"
_cell_formula_units_Z 28
_cell_length_a 22.052470
_cell_length_b 8.953123
_cell_length_c 14.869050
_cell_angle_alpha 90.000000
_cell_angle_beta 150.258000
_cell_angle_gamma 90.000000
_cell_volume 1456.398100
_symmetry_space_group_name_H-M "P 21/M"
_symmetry_group_IT_number 11
_symmetry_cell_setting 'monoclinic'
loop_
_space_group_symop_operation_xyz
x,y,z
-x,1/2+y,-z
-x,-y,-z
x,1/2-y,z
loop_
_atom_site_type_symbol
_atom_site_label
_atom_site_fract_x
_atom_site_fract_y
_atom_site_fract_z
Si Si1 0.892171 0.929609 0.918257
Si Si2 0.380761 0.926884 0.731744
Si Si3 0.658527 0.571887 0.498115
Si Si4 0.547053 0.571859 0.653217
Si Si5 0.644781 0.071588 0.095168
Si Si6 0.164762 0.429129 0.955121
Si Si7 0.889422 0.071092 0.302190
O O1 0.901845 0.750000 0.929024
O O2 0.764142 0.967859 0.705203
O O3 0.891161 0.976225 0.021094
O O4 0.000000 0.000000 0.000000
O O5 0.377585 0.750000 0.711667
O O6 0.329814 0.956107 0.766232
O O7 0.312807 0.011320 0.564030
O O8 0.520867 0.984467 0.912575
O O9 0.644827 0.750000 0.479163
O O10 0.534183 0.496705 0.372252
O O11 0.500000 0.500000 0.500000
O O12 0.531161 0.750000 0.628471
O O13 0.689963 0.541006 0.851567
O O14 0.621958 0.250000 0.055649
O O15 0.760074 0.029871 0.182698
O O16 0.148878 0.250000 0.924945
O O17 0.111212 0.511174 0.800077
O O18 0.898687 0.250000 0.315973
O O19 0.000000 0.000000 0.500000
#
# Coordination Sequence:
#
# PCOD9162720 Si02
#       7
#     4   4   4   4   4   4   4
#     4  10  23  42  60  82 116 157 198 243 292 347
#     4  10  20  35  59  89 117 151 193 239 298 356
#     4  11  22  38  57  85 122 157 195 241 295 352
#     4  11  21  36  61  91 123 157 195 241 296 353
#     4   9  20  39  59  83 118 154 192 242 299 354
#     4  10  22  42  62  86 122 157 193 246 301 349
#     4  11  24  41  62  88 117 155 201 248 297 352
#
# _framework density 19.225511999999998
#
# number of rings (size 3 to 8) (size 9 to 14) (size 15 to 20)
#    0.000    1.714    1.429    2.571    0.000    8.000 
#    0.000    4.286    0.000    0.000    0.000    0.000 
#    0.000    0.000    0.000    0.000    0.000    0.000 
#
# Total GULP energy -156500.419459 kJ/mol
# GULP energy per Si atom -5589.300695 kJ/mol
# Density = 1.918175 g / cm^3
# Si number density = 19.225512 Si / 1000 Ang^3
#
#
#
# Elastic Constant Matrix: (Units=GPa)
#
#
# Indices 1 2 3 4 5 6 
#
# 1 145.5902 42.4275 61.0639 0.0000 -13.8926 0.0000
# 2 42.4275 41.8514 41.1444 0.0000 -9.3211 0.0000
# 3 61.0639 41.1444 72.3585 0.0000 -21.5339 0.0000
# 4 0.0000 0.0000 0.0000 33.2305 0.0000 -5.4569
# 5 -13.8926 -9.3211 -21.5339 0.0000 37.4038 0.0000
# 6 0.0000 0.0000 0.0000 -5.4569 0.0000 35.3110
#
#
#
# Elastic Compliance Matrix: (Units=1/GPa)
#
#
# Indices 1 2 3 4 5 6 
#
# 1 0.011046 -0.004436 -0.007128 0.000000 -0.001107 0.000000
# 2 -0.004436 0.056787 -0.029958 0.000000 -0.004744 0.000000
# 3 -0.007128 -0.029958 0.040862 0.000000 0.013411 0.000000
# 4 0.000000 0.000000 0.000000 0.030876 0.000000 0.004772
# 5 -0.001107 -0.004744 0.013411 0.000000 0.032863 0.000000
# 6 0.000000 0.000000 0.000000 0.004772 0.000000 0.029057
#
#
# Mechanical properties :
#
#
# Convention : Reuss Voigt Hill
#
# Bulk Modulus (GPa) = 38.98788 61.00797 49.99793
# Shear Modulus (GPa) = 17.05986 28.86665 22.96325
#
# Velocity S-wave (km/s) = 2.98208 3.87909 3.45978
# Velocity P-wave (km/s) = 5.67277 7.20173 6.48248
#
# Compressibility (1/GPa) = 0.02564899
#
# Stress axis : x y z
#
# Youngs Moduli (GPa) = 90.53420 17.60971 24.47281
#
# Poissons Ratio (x) = 0.07812 0.17445
# Poissons Ratio (y) = 0.40163 0.73316
# Poissons Ratio (z) = 0.64536 0.52755
#
# Static dielectric constant tensor:
#      x y z
#    x 1.677380 0.000000 -0.013800 
#    y 0.000000 1.637080 0.000000 
#    z -0.013800 0.000000 1.650690 
# 
# From -- ./inp_files/54579.got.cif
#   From: 2010.05.17/outbox.cif.g08.bks.cpg/sg11_28_cif.got.tgz:54579.got - 2010.06.03 12:22:45.
