data_PCOD9162175
_publ_section_title
;
Structure prediction by ZEFSAII (Michael W. Deem and Ramdas Pophale) SiO2 
 PCOD9162175
Probable space group: P 21/M
;
_chemical_formula_sum "Si O2"
_cell_formula_units_Z 28
_cell_length_a 14.489058
_cell_length_b 7.367949
_cell_length_c 12.470635
_cell_angle_alpha 90.000000
_cell_angle_beta 125.791151
_cell_angle_gamma 90.000000
_cell_volume 1079.888027
_symmetry_space_group_name_H-M "P 21/M"
_symmetry_group_IT_number 11
_symmetry_cell_setting 'monoclinic'
loop_
_space_group_symop_operation_xyz
x,y,z
-x,1/2+y,-z
-x,-y,-z
x,1/2-y,z
loop_
_atom_site_type_symbol
_atom_site_label
_atom_site_fract_x
_atom_site_fract_y
_atom_site_fract_z
Si Si1 0.583531 0.540660 0.177258
Si Si2 0.314504 0.530419 0.531470
Si Si3 0.806756 0.536136 0.219650
Si Si4 0.072126 0.964518 0.152184
Si Si5 0.330508 0.529616 0.305033
Si Si6 0.949173 0.470355 0.627157
Si Si7 0.653897 0.469524 0.926297
O O1 0.579398 0.750000 0.142195
O O2 0.607720 0.535698 0.320576
O O3 0.696735 0.454020 0.203925
O O4 0.455949 0.466278 0.080352
O O5 0.311511 0.750000 0.527052
O O6 0.365514 0.472695 0.449867
O O7 0.183512 0.472329 0.472026
O O8 0.810686 0.750000 0.247297
O O9 0.930709 0.466544 0.343203
O O10 0.768393 0.522326 0.068217
O O11 0.082511 0.750000 0.173023
O O12 0.198863 0.028965 0.220598
O O13 0.024956 0.028965 0.232464
O O14 0.000000 0.000000 0.000000
O O15 0.340896 0.750000 0.310299
O O16 0.363187 0.466637 0.207944
O O17 0.947440 0.250000 0.615248
O O18 0.653842 0.250000 0.923835
#
# Coordination Sequence:
#
# PCOD9162175 Si02
#       7
#     4   4   4   4   4   4   4
#     4  10  22  36  50  72 104 136 165 208 253 284
#     4   9  18  35  56  75  97 131 171 202 242 303
#     4  10  20  35  53  74 102 133 166 205 250 295
#     4   9  15  25  43  67  94 123 156 194 240 291
#     4   8  16  31  50  71  97 128 160 200 247 292
#     4   8  16  31  50  71  97 128 160 200 247 292
#     4  10  20  35  53  74 102 133 166 205 250 295
#
# _framework density 25.928616000000002
#
# number of rings (size 3 to 8) (size 9 to 14) (size 15 to 20)
#    0.000    2.857    0.000    3.000    0.000    2.286 
#    0.000    4.286    0.000    0.000    0.000    0.000 
#    0.000    0.000    0.000    0.000    0.000    0.000 
#
# Total GULP energy -156154.776982 kJ/mol
# GULP energy per Si atom -5576.956321 kJ/mol
# Density = 2.586960 g / cm^3
# Si number density = 25.928616 Si / 1000 Ang^3
#
#
#
# Elastic Constant Matrix: (Units=GPa)
#
#
# Indices 1 2 3 4 5 6 
#
# 1 111.3713 10.6128 14.3325 0.0000 23.1221 0.0000
# 2 10.6128 101.1944 0.6519 0.0000 -1.4026 0.0000
# 3 14.3325 0.6519 103.3583 0.0000 4.5389 0.0000
# 4 0.0000 0.0000 0.0000 20.3540 0.0000 -10.0767
# 5 23.1221 -1.4026 4.5389 0.0000 45.9276 0.0000
# 6 0.0000 0.0000 0.0000 -10.0767 0.0000 0.6216
#
#
#
# Elastic Compliance Matrix: (Units=1/GPa)
#
#
# Indices 1 2 3 4 5 6 
#
# 1 0.010301 -0.001143 -0.001197 0.000000 -0.005103 0.000000
# 2 -0.001143 0.010014 0.000057 0.000000 0.000876 0.000000
# 3 -0.001197 0.000057 0.009857 0.000000 -0.000370 0.000000
# 4 0.000000 0.000000 0.000000 -0.006993 0.000000 -0.113363
# 5 -0.005103 0.000876 -0.000370 0.000000 0.024406 0.000000
# 6 0.000000 0.000000 0.000000 -0.113363 0.000000 -0.228982
#
#
# Mechanical properties :
#
#
# Convention : Reuss Voigt Hill
#
# Bulk Modulus (GPa) = 39.05522 40.79094 39.92308
# Shear Modulus (GPa) = -29.70977 32.73575 1.51299
#
# Velocity S-wave (km/s) = -3.38868 3.55707 0.76472
# Velocity P-wave (km/s) = 0.46433 5.71284 4.02622
#
# Compressibility (1/GPa) = 0.02560477
#
# Stress axis : x y z
#
# Youngs Moduli (GPa) = 97.07415 99.86359 101.45111
#
# Poissons Ratio (x) = 0.11418 0.12145
# Poissons Ratio (y) = 0.11099 -0.00578
# Poissons Ratio (z) = 0.11621 -0.00568
#
# Static dielectric constant tensor:
#      x y z
#    x 2.152860 0.000000 -0.082060 
#    y 0.000000 1.998020 0.000000 
#    z -0.082060 0.000000 2.060750 
# 
# From -- ./inp_files/51797.got.cif
#   From: 2010.05.17/outbox.cif.g08.bks.cpg/sg11_26_cif.got.tgz:51797.got - 2010.06.03 12:22:45.
