data_PCOD9162924
_publ_section_title
;
Structure prediction by ZEFSAII (Michael W. Deem and Ramdas Pophale) SiO2 
 PCOD9162924
Probable space group: P 21/M
;
_chemical_formula_sum "Si O2"
_cell_formula_units_Z 32
_cell_length_a 13.161650
_cell_length_b 16.378790
_cell_length_c 18.381508
_cell_angle_alpha 90.000000
_cell_angle_beta 23.753624
_cell_angle_gamma 90.000000
_cell_volume 1596.127916
_symmetry_space_group_name_H-M "P 21/M"
_symmetry_group_IT_number 11
_symmetry_cell_setting 'monoclinic'
loop_
_space_group_symop_operation_xyz
x,y,z
-x,1/2+y,-z
-x,-y,-z
x,1/2-y,z
loop_
_atom_site_type_symbol
_atom_site_label
_atom_site_fract_x
_atom_site_fract_y
_atom_site_fract_z
Si Si1 0.400074 0.990192 0.146413
Si Si2 0.402069 0.338398 0.219770
Si Si3 0.737843 0.348026 0.354652
Si Si4 0.234454 0.154300 0.606102
Si Si5 0.982485 0.340861 0.616702
Si Si6 0.766271 0.931713 0.034472
Si Si7 0.585052 0.654976 0.294747
Si Si8 0.924636 0.393998 0.939805
O O1 0.188182 0.920262 0.281714
O O2 0.349847 0.083153 0.204519
O O3 0.594289 0.957507 0.079431
O O4 0.500000 0.000000 0.000000
O O5 0.423224 0.250000 0.167624
O O6 0.171739 0.336105 0.425902
O O7 0.659146 0.350337 0.098191
O O8 0.760658 0.250000 0.344575
O O9 0.520901 0.367035 0.437290
O O10 0.617390 0.376324 0.511631
O O11 0.998359 0.383291 0.154204
O O12 0.200822 0.250000 0.650186
O O13 0.148838 0.147428 0.580074
O O14 0.054662 0.101711 0.775183
O O15 0.856171 0.250000 0.706012
O O16 0.868457 0.015234 0.002714
O O17 0.607890 0.886895 0.201301
O O18 0.529200 0.750000 0.320565
O O19 0.863897 0.646934 0.148475
#
# Coordination Sequence:
#
# PCOD9162924 Si02
#       8
#     4   4   4   4   4   4   4   4
#     4  11  25  45  63  89 123 165 213 262 319 375
#     4  10  21  39  64  93 121 159 209 263 320 375
#     4   9  20  39  61  92 127 165 209 250 311 380
#     4   9  18  35  61  90 122 160 203 252 302 367
#     4  10  21  38  63  94 125 161 208 260 313 372
#     4  11  23  39  60  90 122 162 207 258 315 376
#     4  10  21  38  60  87 127 168 202 250 308 378
#     4  10  20  36  56  92 124 157 201 250 314 375
#
# _framework density 20.048518000000001
#
# number of rings (size 3 to 8) (size 9 to 14) (size 15 to 20)
#    0.000    2.000    0.000    4.500    1.750    4.500 
#   11.250    0.000    0.000    0.000    0.000    0.000 
#    0.000    0.000    0.000    0.000    0.000    0.000 
#
# Total GULP energy -178487.183018 kJ/mol
# GULP energy per Si atom -5577.724469 kJ/mol
# Density = 2.000289 g / cm^3
# Si number density = 20.048518 Si / 1000 Ang^3
#
#
#
# Elastic Constant Matrix: (Units=GPa)
#
#
# Indices 1 2 3 4 5 6 
#
# 1 83.3834 42.2409 27.7140 0.0000 -17.4745 0.0000
# 2 42.2409 109.5600 46.6234 0.0000 -4.8483 0.0000
# 3 27.7140 46.6234 64.3434 0.0000 11.6578 0.0000
# 4 0.0000 0.0000 0.0000 33.5130 0.0000 1.6983
# 5 -17.4745 -4.8483 11.6578 0.0000 -71.6970 0.0000
# 6 0.0000 0.0000 0.0000 1.6983 0.0000 31.9030
#
#
#
# Elastic Compliance Matrix: (Units=1/GPa)
#
#
# Indices 1 2 3 4 5 6 
#
# 1 0.014386 -0.004824 -0.002064 0.000000 -0.003516 0.000000
# 2 -0.004824 0.014410 -0.008160 0.000000 -0.001126 0.000000
# 3 -0.002064 -0.008160 0.021518 0.000000 0.004554 0.000000
# 4 0.000000 0.000000 0.000000 0.029920 0.000000 -0.001593
# 5 -0.003516 -0.001126 0.004554 0.000000 -0.012274 0.000000
# 6 0.000000 0.000000 0.000000 -0.001593 0.000000 0.031430
#
#
# Mechanical properties :
#
#
# Convention : Reuss Voigt Hill
#
# Bulk Modulus (GPa) = 49.45908 54.49370 51.97639
# Shear Modulus (GPa) = 36.70439 8.12437 22.41438
#
# Velocity S-wave (km/s) = 4.28340 2.01523 3.34729
# Velocity P-wave (km/s) = 7.01332 5.71444 6.39693
#
# Compressibility (1/GPa) = 0.02021874
#
# Stress axis : x y z
#
# Youngs Moduli (GPa) = 69.51387 69.39737 46.47229
#
# Poissons Ratio (x) = 0.33475 0.09592
# Poissons Ratio (y) = 0.33531 0.37920
# Poissons Ratio (z) = 0.14348 0.56627
#
# Static dielectric constant tensor:
#      x y z
#    x 1.694210 0.000000 -0.007800 
#    y 0.000000 1.917770 0.000000 
#    z -0.007800 0.000000 1.708360 
# 
# From -- ./inp_files/65769.got.cif
#   From: 2010.05.17/outbox.cif.g08.bks.cpg/sg11_33_cif.got.tgz:65769.got - 2010.06.03 12:22:45.
