data_PCOD9162977
_publ_section_title
;
Structure prediction by ZEFSAII (Michael W. Deem and Ramdas Pophale) SiO2 
 PCOD9162977
Probable space group: P 21/M
;
_chemical_formula_sum "Si O2"
_cell_formula_units_Z 28
_cell_length_a 20.812216
_cell_length_b 7.623377
_cell_length_c 9.933680
_cell_angle_alpha 90.000000
_cell_angle_beta 132.586762
_cell_angle_gamma 90.000000
_cell_volume 1160.388016
_symmetry_space_group_name_H-M "P 21/M"
_symmetry_group_IT_number 11
_symmetry_cell_setting 'monoclinic'
loop_
_space_group_symop_operation_xyz
x,y,z
-x,1/2+y,-z
-x,-y,-z
x,1/2-y,z
loop_
_atom_site_type_symbol
_atom_site_label
_atom_site_fract_x
_atom_site_fract_y
_atom_site_fract_z
Si Si1 0.365446 0.953064 0.829463
Si Si2 0.098154 0.046485 0.760101
Si Si3 0.449899 0.537070 0.216914
Si Si4 0.641234 0.453965 0.475317
Si Si5 0.280993 0.963561 0.149100
Si Si6 0.170089 0.042457 0.589996
Si Si7 0.029644 0.541638 0.193223
O O1 0.391807 0.750000 0.852296
O O2 0.363968 0.037172 0.679719
O O3 0.265249 0.959030 0.736077
O O4 0.427187 0.026486 0.033203
O O5 0.073442 0.250000 0.709692
O O6 0.107833 0.972780 0.622507
O O7 0.035811 0.965553 0.785529
O O8 0.195193 0.035347 0.958313
O O9 0.454454 0.750000 0.224221
O O10 0.542958 0.464482 0.392784
O O11 0.367884 0.485736 0.191348
O O12 0.665794 0.250000 0.491999
O O13 0.706400 0.525451 0.679566
O O14 0.276172 0.750000 0.140606
O O15 0.181263 0.250000 0.625622
O O16 0.124965 0.012721 0.381786
O O17 0.026697 0.750000 0.196883
O O18 0.000000 0.500000 0.000000
#
# Coordination Sequence:
#
# PCOD9162977 Si02
#       7
#     4   4   4   4   4   4   4
#     4  10  21  38  58  85 121 158 201 250 300 357
#     4  10  23  42  64  91 122 158 203 249 297 356
#     4  10  20  36  57  82 115 158 204 249 300 355
#     4  10  22  36  55  84 118 157 201 249 304 358
#     4  10  21  37  58  86 119 157 201 247 300 359
#     4  11  23  41  65  93 122 159 204 247 300 359
#     4  11  25  44  66  95 128 159 196 245 300 359
#
# _framework density 24.129857999999999
#
# number of rings (size 3 to 8) (size 9 to 14) (size 15 to 20)
#    0.000    1.714    1.429    2.143    2.000    4.000 
#    0.000    0.000    0.000    0.000    0.000    0.000 
#    0.000    0.000    0.000    0.000    0.000    0.000 
#
# Total GULP energy -156572.279245 kJ/mol
# GULP energy per Si atom -5591.867116 kJ/mol
# Density = 2.407494 g / cm^3
# Si number density = 24.129858 Si / 1000 Ang^3
#
#
#
# Elastic Constant Matrix: (Units=GPa)
#
#
# Indices 1 2 3 4 5 6 
#
# 1 50.9703 -5.0715 6.2606 0.0000 -6.4135 0.0000
# 2 -5.0715 61.8749 -3.2861 0.0000 -6.9834 0.0000
# 3 6.2606 -3.2861 155.9557 0.0000 -16.2901 0.0000
# 4 0.0000 0.0000 0.0000 11.1358 0.0000 4.5952
# 5 -6.4135 -6.9834 -16.2901 0.0000 29.8357 0.0000
# 6 0.0000 0.0000 0.0000 4.5952 0.0000 16.8217
#
#
#
# Elastic Compliance Matrix: (Units=1/GPa)
#
#
# Indices 1 2 3 4 5 6 
#
# 1 0.020472 0.002201 -0.000278 0.000000 0.004764 0.000000
# 2 0.002201 0.016932 0.000776 0.000000 0.004860 0.000000
# 3 -0.000278 0.000776 0.006843 0.000000 0.003858 0.000000
# 4 0.000000 0.000000 0.000000 0.101209 0.000000 -0.027647
# 5 0.004764 0.004860 0.003858 0.000000 0.037785 0.000000
# 6 0.000000 0.000000 0.000000 -0.027647 0.000000 0.067000
#
#
# Mechanical properties :
#
#
# Convention : Reuss Voigt Hill
#
# Bulk Modulus (GPa) = 20.14325 29.40077 24.77201
# Shear Modulus (GPa) = 19.12851 29.61850 24.37350
#
# Velocity S-wave (km/s) = 2.81860 3.50732 3.18165
# Velocity P-wave (km/s) = 4.35416 5.34907 4.87705
#
# Compressibility (1/GPa) = 0.04964441
#
# Stress axis : x y z
#
# Youngs Moduli (GPa) = 48.84763 59.06062 146.14425
#
# Poissons Ratio (x) = -0.12999 0.04060
# Poissons Ratio (y) = -0.10751 -0.11342
# Poissons Ratio (z) = 0.01357 -0.04583
#
# Static dielectric constant tensor:
#      x y z
#    x 1.977000 0.000000 -0.052280 
#    y 0.000000 1.881510 0.000000 
#    z -0.052280 0.000000 1.919280 
# 
# From -- ./inp_files/26173.got.cif
#   From: 2010.05.17/outbox.cif.g08.bks.cpg/sg11_14_cif.got.tgz:26173.got - 2010.06.03 12:22:45.
