data_PCOD9162745
_publ_section_title
;
Structure prediction by ZEFSAII (Michael W. Deem and Ramdas Pophale) SiO2 
 PCOD9162745
Probable space group: P 21/M
;
_chemical_formula_sum "Si O2"
_cell_formula_units_Z 28
_cell_length_a 16.485097
_cell_length_b 14.740768
_cell_length_c 8.191562
_cell_angle_alpha 90.000000
_cell_angle_beta 40.602659
_cell_angle_gamma 90.000000
_cell_volume 1295.484416
_symmetry_space_group_name_H-M "P 21/M"
_symmetry_group_IT_number 11
_symmetry_cell_setting 'monoclinic'
loop_
_space_group_symop_operation_xyz
x,y,z
-x,1/2+y,-z
-x,-y,-z
x,1/2-y,z
loop_
_atom_site_type_symbol
_atom_site_label
_atom_site_fract_x
_atom_site_fract_y
_atom_site_fract_z
Si Si1 0.023216 0.857094 0.200609
Si Si2 0.774447 0.507541 0.096705
Si Si3 0.155533 0.847117 0.600510
Si Si4 0.194233 0.041317 0.600707
Si Si5 0.623836 0.515969 0.991966
Si Si6 0.551958 0.351927 0.895766
Si Si7 0.957602 0.852988 0.654307
O O1 0.043819 0.750000 0.183422
O O2 0.963895 0.889073 0.463064
O O3 0.910914 0.881465 0.248819
O O4 0.152509 0.912001 0.993874
O O5 0.682627 0.506000 0.081278
O O6 0.876878 0.582135 0.888820
O O7 0.729746 0.538721 0.345328
O O8 0.111129 0.750000 0.740273
O O9 0.303976 0.845488 0.377204
O O10 0.098241 0.848454 0.507236
O O11 0.119875 0.945614 0.718260
O O12 0.278368 0.036854 0.307683
O O13 0.556474 0.422826 0.038895
O O14 0.528469 0.599486 0.121025
O O15 0.507745 0.250000 0.000603
O O16 0.907740 0.750000 0.732134
#
# Coordination Sequence:
#
# PCOD9162745 Si02
#       7
#     4   4   4   4   4   4   4
#     4  11  22  36  55  85 124 161 198 241 289 351
#     4  12  23  38  60  89 122 158 196 240 298 356
#     4   9  18  35  60  87 116 154 201 245 292 348
#     4  11  22  38  59  87 122 159 198 238 293 355
#     4  10  22  40  64  87 119 154 197 249 291 351
#     4   9  19  39  65  88 113 155 200 245 300 345
#     4  10  20  35  60  87 118 158 195 242 297 349
#
# _framework density 21.613536
#
# number of rings (size 3 to 8) (size 9 to 14) (size 15 to 20)
#    0.000    1.714    2.857    2.571    0.000    4.000 
#    0.000    6.429    0.000    3.429    0.000    0.000 
#    0.000    0.000    0.000    0.000    0.000    0.000 
#
# Total GULP energy -156046.968815 kJ/mol
# GULP energy per Si atom -5573.106029 kJ/mol
# Density = 2.156434 g / cm^3
# Si number density = 21.613536 Si / 1000 Ang^3
#
#
#
# Elastic Constant Matrix: (Units=GPa)
#
#
# Indices 1 2 3 4 5 6 
#
# 1 156.0204 33.4700 14.9738 0.0000 13.3731 0.0000
# 2 33.4700 88.4009 2.1964 0.0000 -20.1747 0.0000
# 3 14.9738 2.1964 34.6905 0.0000 12.2282 0.0000
# 4 0.0000 0.0000 0.0000 -18.0718 0.0000 -8.2829
# 5 13.3731 -20.1747 12.2282 0.0000 30.2296 0.0000
# 6 0.0000 0.0000 0.0000 -8.2829 0.0000 25.9815
#
#
#
# Elastic Compliance Matrix: (Units=1/GPa)
#
#
# Indices 1 2 3 4 5 6 
#
# 1 0.007960 -0.004359 -0.001041 0.000000 -0.006009 0.000000
# 2 -0.004359 0.016407 -0.004311 0.000000 0.014622 0.000000
# 3 -0.001041 -0.004311 0.035456 0.000000 -0.016759 0.000000
# 4 0.000000 0.000000 0.000000 -0.048280 0.000000 -0.015392
# 5 -0.006009 0.014622 -0.016759 0.000000 0.052276 0.000000
# 6 0.000000 0.000000 0.000000 -0.015392 0.000000 0.033582
#
#
# Mechanical properties :
#
#
# Convention : Reuss Voigt Hill
#
# Bulk Modulus (GPa) = 24.75334 42.26580 33.50957
# Shear Modulus (GPa) = 38.37572 22.85929 30.61751
#
# Velocity S-wave (km/s) = 4.21829 3.25566 3.76784
# Velocity P-wave (km/s) = 5.93320 5.80777 5.87082
#
# Compressibility (1/GPa) = 0.04039859
#
# Stress axis : x y z
#
# Youngs Moduli (GPa) = 125.63480 60.95087 28.20371
#
# Poissons Ratio (x) = 0.26569 0.02937
# Poissons Ratio (y) = 0.54766 0.12160
# Poissons Ratio (z) = 0.13085 0.26278
#
# Static dielectric constant tensor:
#      x y z
#    x 1.817680 0.000000 0.039890 
#    y 0.000000 1.827620 0.000000 
#    z 0.039890 0.000000 1.855480 
# 
# From -- ./inp_files/22095.got.cif
#   From: 2010.05.17/outbox.cif.g08.bks.cpg/sg11_12_cif.got.tgz:22095.got - 2010.06.03 12:22:45.
