data_PCOD9162630
_publ_section_title
;
Structure prediction by ZEFSAII (Michael W. Deem and Ramdas Pophale) SiO2 
 PCOD9162630
Probable space group: P 21/M
;
_chemical_formula_sum "Si O2"
_cell_formula_units_Z 28
_cell_length_a 16.566771
_cell_length_b 11.953541
_cell_length_c 20.340264
_cell_angle_alpha 90.000000
_cell_angle_beta 159.752243
_cell_angle_gamma 90.000000
_cell_volume 1394.016598
_symmetry_space_group_name_H-M "P 21/M"
_symmetry_group_IT_number 11
_symmetry_cell_setting 'monoclinic'
loop_
_space_group_symop_operation_xyz
x,y,z
-x,1/2+y,-z
-x,-y,-z
x,1/2-y,z
loop_
_atom_site_type_symbol
_atom_site_label
_atom_site_fract_x
_atom_site_fract_y
_atom_site_fract_z
Si Si1 0.279404 0.375843 0.060796
Si Si2 0.093451 0.127656 0.065952
Si Si3 0.392913 0.374164 0.425940
Si Si4 0.777537 0.122189 0.482396
Si Si5 0.834538 0.959195 0.314805
Si Si6 0.946865 0.961193 0.725524
Si Si7 0.665062 0.374891 0.072472
O O1 0.256336 0.250000 0.015722
O O2 0.219483 0.372307 0.092090
O O3 0.550449 0.409791 0.265925
O O4 0.099866 0.456638 0.888065
O O5 0.958471 0.250000 0.964150
O O6 0.256653 0.135341 0.253656
O O7 0.000000 0.000000 0.000000
O O8 0.500000 0.500000 0.500000
O O9 0.516495 0.250000 0.527054
O O10 0.223452 0.389255 0.359105
O O11 0.742020 0.250000 0.478153
O O12 0.810239 0.038137 0.568226
O O13 0.004395 0.116480 0.609490
O O14 0.745015 0.054196 0.196380
O O15 0.000000 0.000000 0.500000
O O16 0.589703 0.906598 0.150071
O O17 0.135274 0.890272 0.829131
O O18 0.648630 0.250000 0.083440
#
# Coordination Sequence:
#
# PCOD9162630 Si02
#       7
#     4   4   4   4   4   4   4
#     4  10  20  35  58  85 117 157 200 250 303 353
#     4  10  20  37  57  83 115 151 198 251 299 357
#     4  11  24  40  62  88 120 160 205 255 312 370
#     4  10  21  36  57  88 121 154 201 252 297 364
#     4  10  21  39  61  86 118 158 198 243 299 363
#     4  11  21  38  61  83 120 158 200 245 309 358
#     4  10  22  38  59  88 119 152 195 246 298 360
#
# _framework density 20.085844999999999
#
# number of rings (size 3 to 8) (size 9 to 14) (size 15 to 20)
#    0.000    1.714    1.429    3.000    0.000    4.000 
#    0.000    3.571    0.000    4.286    0.000    0.000 
#    0.000    0.000    0.000    0.000    0.000    0.000 
#
# Total GULP energy -155934.208178 kJ/mol
# GULP energy per Si atom -5569.078864 kJ/mol
# Density = 2.004013 g / cm^3
# Si number density = 20.085845 Si / 1000 Ang^3
#
#
#
# Elastic Constant Matrix: (Units=GPa)
#
#
# Indices 1 2 3 4 5 6 
#
# 1 34.2058 5.9042 3.6709 0.0000 -0.2415 0.0000
# 2 5.9042 138.1572 39.7470 0.0000 8.6787 0.0000
# 3 3.6709 39.7470 57.9231 0.0000 -5.6055 0.0000
# 4 0.0000 0.0000 0.0000 28.7244 0.0000 -1.4515
# 5 -0.2415 8.6787 -5.6055 0.0000 27.9705 0.0000
# 6 0.0000 0.0000 0.0000 -1.4515 0.0000 10.4684
#
#
#
# Elastic Compliance Matrix: (Units=1/GPa)
#
#
# Indices 1 2 3 4 5 6 
#
# 1 0.029527 -0.000936 -0.001200 0.000000 0.000305 0.000000
# 2 -0.000936 0.009539 -0.006907 0.000000 -0.004352 0.000000
# 3 -0.001200 -0.006907 0.022727 0.000000 0.006688 0.000000
# 4 0.000000 0.000000 0.000000 0.035059 0.000000 0.004861
# 5 0.000305 -0.004352 0.006688 0.000000 0.038445 0.000000
# 6 0.000000 0.000000 0.000000 0.004861 0.000000 0.096200
#
#
# Mechanical properties :
#
#
# Convention : Reuss Voigt Hill
#
# Bulk Modulus (GPa) = 22.87928 36.54781 29.71354
# Shear Modulus (GPa) = 18.92846 25.49691 22.21269
#
# Velocity S-wave (km/s) = 3.07315 3.56673 3.32910
# Velocity P-wave (km/s) = 4.89978 5.93273 5.44082
#
# Compressibility (1/GPa) = 0.04370766
#
# Stress axis : x y z
#
# Youngs Moduli (GPa) = 33.86700 104.83583 43.99988
#
# Poissons Ratio (x) = 0.09812 0.05278
# Poissons Ratio (y) = 0.03170 0.30392
# Poissons Ratio (z) = 0.04063 0.72414
#
# Static dielectric constant tensor:
#      x y z
#    x 1.696610 0.000000 0.047180 
#    y 0.000000 1.773870 0.000000 
#    z 0.047180 0.000000 1.719180 
# 
# From -- ./inp_files/66213.got.cif
#   From: 2010.05.17/outbox.cif.g08.bks.cpg/sg11_34_cif.got.tgz:66213.got - 2010.06.03 12:22:45.
