data_PCOD9162239
_publ_section_title
;
Structure prediction by ZEFSAII (Michael W. Deem and Ramdas Pophale) SiO2 
 PCOD9162239
Probable space group: P 21/M
;
_chemical_formula_sum "Si O2"
_cell_formula_units_Z 32
_cell_length_a 28.457052
_cell_length_b 8.815347
_cell_length_c 23.412966
_cell_angle_alpha 90.000000
_cell_angle_beta 162.403571
_cell_angle_gamma 90.000000
_cell_volume 1775.574747
_symmetry_space_group_name_H-M "P 21/M"
_symmetry_group_IT_number 11
_symmetry_cell_setting 'monoclinic'
loop_
_space_group_symop_operation_xyz
x,y,z
-x,1/2+y,-z
-x,-y,-z
x,1/2-y,z
loop_
_atom_site_type_symbol
_atom_site_label
_atom_site_fract_x
_atom_site_fract_y
_atom_site_fract_z
Si Si1 0.357811 0.933752 0.799505
Si Si2 0.611113 0.074068 0.797433
Si Si3 0.852366 0.566337 0.796829
Si Si4 0.466675 0.568560 0.523300
Si Si5 0.730200 0.574889 0.538150
Si Si6 0.973606 0.066822 0.532037
Si Si7 0.263016 0.066806 0.946150
Si Si8 0.591131 0.431730 0.270794
O O1 0.366218 0.750000 0.810108
O O2 0.193639 0.978841 0.636852
O O3 0.371246 0.984901 0.749264
O O4 0.500000 0.000000 0.000000
O O5 0.647353 0.250000 0.828888
O O6 0.439804 0.067227 0.628523
O O7 0.591824 0.985655 0.715728
O O8 0.723913 0.002597 0.975490
O O9 0.847147 0.750000 0.793566
O O10 0.698152 0.498177 0.646816
O O11 0.846394 0.522813 0.722617
O O12 0.000000 0.500000 0.000000
O O13 0.500000 0.500000 0.500000
O O14 0.461411 0.750000 0.515319
O O15 0.762496 0.750000 0.562387
O O16 0.712868 0.484822 0.459636
O O17 0.977336 0.250000 0.532641
O O18 0.111606 0.021138 0.735069
O O19 0.000000 0.000000 0.500000
O O20 0.265154 0.250000 0.953435
O O21 0.418608 0.019826 0.091532
O O22 0.590472 0.250000 0.269346
#
# Coordination Sequence:
#
# PCOD9162239 Si02
#       8
#     4   4   4   4   4   4   4   4
#     4  10  21  36  53  76 104 136 171 211 256 306
#     4   9  17  31  51  76 103 133 173 219 263 315
#     4  10  20  35  54  79 109 143 182 224 270 321
#     4  11  21  35  55  79 108 143 182 225 270 320
#     4   8  16  30  49  73 101 131 169 214 258 306
#     4  10  21  36  54  76 105 138 175 216 261 312
#     4   9  17  31  51  74  99 131 169 212 261 315
#     4   9  17  30  50  73  97 127 167 209 255 309
#
# _framework density 18.022334000000001
#
# number of rings (size 3 to 8) (size 9 to 14) (size 15 to 20)
#    0.000    2.500    0.000    3.375    0.000    6.000 
#    0.000    3.750    0.000    4.500    0.000    0.000 
#    0.000    0.000    0.000    0.000    0.000    0.000 
#
# Total GULP energy -178466.312719 kJ/mol
# GULP energy per Si atom -5577.072272 kJ/mol
# Density = 1.798131 g / cm^3
# Si number density = 18.022334 Si / 1000 Ang^3
#
#
#
# Elastic Constant Matrix: (Units=GPa)
#
#
# Indices 1 2 3 4 5 6 
#
# 1 144.8866 49.2416 83.8355 0.0000 -33.8114 0.0000
# 2 49.2416 55.9839 45.2840 0.0000 -14.5025 0.0000
# 3 83.8355 45.2840 158.7420 0.0000 -35.3879 0.0000
# 4 0.0000 0.0000 0.0000 29.4801 0.0000 -9.0019
# 5 -33.8114 -14.5025 -35.3879 0.0000 31.1826 0.0000
# 6 0.0000 0.0000 0.0000 -9.0019 0.0000 28.5146
#
#
#
# Elastic Compliance Matrix: (Units=1/GPa)
#
#
# Indices 1 2 3 4 5 6 
#
# 1 0.012683 -0.006747 -0.003223 0.000000 0.006957 0.000000
# 2 -0.006747 0.027268 -0.004042 0.000000 0.000779 0.000000
# 3 -0.003223 -0.004042 0.010651 0.000000 0.006713 0.000000
# 4 0.000000 0.000000 0.000000 0.037540 0.000000 0.011851
# 5 0.006957 0.000779 0.006713 0.000000 0.047594 0.000000
# 6 0.000000 0.000000 0.000000 0.011851 0.000000 0.038811
#
#
# Mechanical properties :
#
#
# Convention : Reuss Voigt Hill
#
# Bulk Modulus (GPa) = 44.28765 79.59274 61.94020
# Shear Modulus (GPa) = 23.79861 29.91888 26.85874
#
# Velocity S-wave (km/s) = 3.63782 4.07885 3.86463
# Velocity P-wave (km/s) = 6.50170 8.15120 7.37272
#
# Compressibility (1/GPa) = 0.02257966
#
# Stress axis : x y z
#
# Youngs Moduli (GPa) = 78.84399 36.67354 93.88700
#
# Poissons Ratio (x) = 0.24743 0.30257
# Poissons Ratio (y) = 0.53194 0.37946
# Poissons Ratio (z) = 0.25409 0.14822
#
# Static dielectric constant tensor:
#      x y z
#    x 1.610510 0.000000 -0.000260 
#    y 0.000000 1.601440 0.000000 
#    z -0.000260 0.000000 1.621960 
# 
# From -- ./inp_files/67225.got.cif
#   From: 2010.05.17/outbox.cif.g08.bks.cpg/sg11_34_cif.got.tgz:67225.got - 2010.06.03 12:22:45.
