data_PCOD9162314
_publ_section_title
;
Structure prediction by ZEFSAII (Michael W. Deem and Ramdas Pophale) SiO2 
 PCOD9162314
Probable space group: P 21/M
;
_chemical_formula_sum "Si O2"
_cell_formula_units_Z 20
_cell_length_a 9.866276
_cell_length_b 14.295943
_cell_length_c 6.652541
_cell_angle_alpha 90.000000
_cell_angle_beta 88.071235
_cell_angle_gamma 90.000000
_cell_volume 937.794122
_symmetry_space_group_name_H-M "P 21/M"
_symmetry_group_IT_number 11
_symmetry_cell_setting 'monoclinic'
loop_
_space_group_symop_operation_xyz
x,y,z
-x,1/2+y,-z
-x,-y,-z
x,1/2-y,z
loop_
_atom_site_type_symbol
_atom_site_label
_atom_site_fract_x
_atom_site_fract_y
_atom_site_fract_z
Si Si1 0.470478 0.394302 0.439921
Si Si2 0.740586 0.961151 0.846850
Si Si3 0.034548 0.140720 0.415158
Si Si4 0.761363 0.646410 0.235806
Si Si5 0.251566 0.644792 0.406349
O O1 0.500000 0.500000 0.500000
O O2 0.385573 0.401342 0.239005
O O3 0.367045 0.353970 0.609083
O O4 0.617556 0.350468 0.456193
O O5 0.878241 0.920931 0.741025
O O6 0.725861 0.067520 0.769162
O O7 0.746706 0.937182 0.079584
O O8 0.041177 0.250000 0.353737
O O9 0.109463 0.133618 0.626866
O O10 0.879077 0.114335 0.458108
O O11 0.770150 0.750000 0.138165
O O12 0.225141 0.750000 0.329259
#
# Coordination Sequence:
#
# PCOD9162314 Si02
#       5
#     4   4   4   4   4
#     4   9  20  37  56  78 108 142 181 225 274 327
#     4  10  20  36  60  82 107 147 190 224 269 331
#     4   9  19  36  56  81 112 144 183 229 275 324
#     4  10  20  35  57  82 107 142 188 230 268 322
#     4  10  20  35  55  80 114 148 179 228 282 323
#
# _framework density 21.326643000000001
#
# number of rings (size 3 to 8) (size 9 to 14) (size 15 to 20)
#    0.000    2.400    0.000    1.800    0.000    6.400 
#    0.000    2.000    0.000   21.600    0.000    0.000 
#    0.000    0.000    0.000    0.000    0.000    0.000 
#
# Total GULP energy -111619.124322 kJ/mol
# GULP energy per Si atom -5580.956216 kJ/mol
# Density = 2.127810 g / cm^3
# Si number density = 21.326643 Si / 1000 Ang^3
#
#
#
# Elastic Constant Matrix: (Units=GPa)
#
#
# Indices 1 2 3 4 5 6 
#
# 1 155.8102 4.2277 18.3143 0.0000 5.6435 0.0000
# 2 4.2277 85.4063 2.4321 0.0000 -1.8950 0.0000
# 3 18.3143 2.4321 32.2834 0.0000 5.0669 0.0000
# 4 0.0000 0.0000 0.0000 24.3978 0.0000 -5.3801
# 5 5.6435 -1.8950 5.0669 0.0000 -6.7430 0.0000
# 6 0.0000 0.0000 0.0000 -5.3801 0.0000 27.5851
#
#
#
# Elastic Compliance Matrix: (Units=1/GPa)
#
#
# Indices 1 2 3 4 5 6 
#
# 1 0.006831 -0.000160 -0.004265 0.000000 0.002558 0.000000
# 2 -0.000160 0.011644 -0.000225 0.000000 -0.003575 0.000000
# 3 -0.004265 -0.000225 0.030379 0.000000 0.019322 0.000000
# 4 0.000000 0.000000 0.000000 0.042829 0.000000 0.008353
# 5 0.002558 -0.003575 0.019322 0.000000 -0.130638 0.000000
# 6 0.000000 0.000000 0.000000 0.008353 0.000000 0.037881
#
#
# Mechanical properties :
#
#
# Convention : Reuss Voigt Hill
#
# Bulk Modulus (GPa) = 25.28164 35.93867 30.61015
# Shear Modulus (GPa) = 233.52922 25.61638 129.57280
#
# Velocity S-wave (km/s) = 10.47563 3.46951 7.80309
# Velocity P-wave (km/s) = 12.57771 5.73918 9.77591
#
# Compressibility (1/GPa) = 0.03955440
#
# Stress axis : x y z
#
# Youngs Moduli (GPa) = 146.39064 85.88302 32.91718
#
# Poissons Ratio (x) = 0.01374 0.14038
# Poissons Ratio (y) = 0.02342 0.00742
# Poissons Ratio (z) = 0.62430 0.01935
#
# Static dielectric constant tensor:
#      x y z
#    x 1.799860 0.000000 0.012020 
#    y 0.000000 1.839610 0.000000 
#    z 0.012020 0.000000 1.730490 
# 
# From -- ./inp_files/1935.got.cif
#   From: 2010.05.17/outbox.cif.g08.bks.cpg/sg11_1_cif.got.tgz:1935.got - 2010.06.03 12:22:45.
