data_PCOD9162503
_publ_section_title
;
Structure prediction by ZEFSAII (Michael W. Deem and Ramdas Pophale) SiO2 
 PCOD9162503
Probable space group: P 21/M
;
_chemical_formula_sum "Si O2"
_cell_formula_units_Z 28
_cell_length_a 18.062002
_cell_length_b 14.075156
_cell_length_c 10.791393
_cell_angle_alpha 90.000000
_cell_angle_beta 32.714582
_cell_angle_gamma 90.000000
_cell_volume 1482.708324
_symmetry_space_group_name_H-M "P 21/M"
_symmetry_group_IT_number 11
_symmetry_cell_setting 'monoclinic'
loop_
_space_group_symop_operation_xyz
x,y,z
-x,1/2+y,-z
-x,-y,-z
x,1/2-y,z
loop_
_atom_site_type_symbol
_atom_site_label
_atom_site_fract_x
_atom_site_fract_y
_atom_site_fract_z
Si Si1 0.841262 0.502107 0.763930
Si Si2 0.129777 0.858788 0.068864
Si Si3 0.378454 0.433388 0.122895
Si Si4 0.237342 0.498304 0.711164
Si Si5 0.451596 0.646270 0.330156
Si Si6 0.835823 0.642483 0.387517
Si Si7 0.295072 0.140251 0.850528
O O1 0.815963 0.409099 0.883980
O O2 0.737034 0.511370 0.795799
O O3 0.000000 0.500000 0.500000
O O4 0.805449 0.588892 0.908618
O O5 0.175467 0.750000 0.993121
O O6 0.964627 0.860628 0.298947
O O7 0.170805 0.922294 0.893209
O O8 0.299924 0.381347 0.344202
O O9 0.500000 0.500000 0.000000
O O10 0.450887 0.361680 0.925970
O O11 0.349998 0.557846 0.477275
O O12 0.148532 0.437643 0.739608
O O13 0.295287 0.420045 0.724792
O O14 0.383419 0.750000 0.428538
O O15 0.553773 0.637861 0.302735
O O16 0.831021 0.750000 0.342974
O O17 0.256286 0.250000 0.886602
#
# Coordination Sequence:
#
# PCOD9162503 Si02
#       7
#     4   4   4   4   4   4   4
#     4  10  20  37  63  86 114 152 197 242 290 348
#     4  10  22  39  60  88 118 156 199 242 294 353
#     4  11  21  39  61  86 119 152 193 244 299 346
#     4  11  20  36  58  84 119 152 195 246 296 339
#     4  10  20  35  57  82 113 156 194 236 295 357
#     4  11  22  37  61  85 117 160 200 240 293 359
#     4   9  20  35  56  85 115 151 198 240 289 354
#
# _framework density 18.884360999999998
#
# number of rings (size 3 to 8) (size 9 to 14) (size 15 to 20)
#    0.000    1.714    2.857    2.143    0.000    1.143 
#    0.000    1.429    0.000    0.857    0.000    0.000 
#    0.000    0.000    0.000    0.000    0.000    0.000 
#
# Total GULP energy -156151.869197 kJ/mol
# GULP energy per Si atom -5576.852471 kJ/mol
# Density = 1.884138 g / cm^3
# Si number density = 18.884361 Si / 1000 Ang^3
#
#
#
# Elastic Constant Matrix: (Units=GPa)
#
#
# Indices 1 2 3 4 5 6 
#
# 1 68.5715 41.7018 -0.5548 0.0000 -1.5018 0.0000
# 2 41.7018 153.7051 23.2727 0.0000 -2.4316 0.0000
# 3 -0.5548 23.2727 43.1920 0.0000 -1.0062 0.0000
# 4 0.0000 0.0000 0.0000 20.3249 0.0000 -5.5734
# 5 -1.5018 -2.4316 -1.0062 0.0000 22.2262 0.0000
# 6 0.0000 0.0000 0.0000 -5.5734 0.0000 20.6424
#
#
#
# Elastic Compliance Matrix: (Units=1/GPa)
#
#
# Indices 1 2 3 4 5 6 
#
# 1 0.017849 -0.005300 0.003103 0.000000 0.000767 0.000000
# 2 -0.005300 0.008666 -0.004729 0.000000 0.000376 0.000000
# 3 0.003103 -0.004729 0.025760 0.000000 0.000859 0.000000
# 4 0.000000 0.000000 0.000000 0.053135 0.000000 0.014346
# 5 0.000767 0.000376 0.000859 0.000000 0.045124 0.000000
# 6 0.000000 0.000000 0.000000 0.014346 0.000000 0.052317
#
#
# Mechanical properties :
#
#
# Convention : Reuss Voigt Hill
#
# Bulk Modulus (GPa) = 26.02618 43.81198 34.91908
# Shear Modulus (GPa) = 21.78557 26.04198 23.91378
#
# Velocity S-wave (km/s) = 3.40020 3.71755 3.56241
# Velocity P-wave (km/s) = 5.40619 6.45580 5.95417
#
# Compressibility (1/GPa) = 0.03842285
#
# Stress axis : x y z
#
# Youngs Moduli (GPa) = 56.02704 115.39505 38.81954
#
# Poissons Ratio (x) = 0.61162 -0.12046
# Poissons Ratio (y) = 0.29695 0.18357
# Poissons Ratio (z) = -0.17385 0.54567
#
# Static dielectric constant tensor:
#      x y z
#    x 1.643250 0.000000 0.012100 
#    y 0.000000 1.648260 0.000000 
#    z 0.012100 0.000000 1.674430 
# 
# From -- ./inp_files/17777.got.cif
#   From: 2010.05.17/outbox.cif.g08.bks.cpg/sg11_9_cif.got.tgz:17777.got - 2010.06.03 12:22:45.
