data_PCOD9162381
_publ_section_title
;
Structure prediction by ZEFSAII (Michael W. Deem and Ramdas Pophale) SiO2 
 PCOD9162381
Probable space group: P 21/M
;
_chemical_formula_sum "Si O2"
_cell_formula_units_Z 24
_cell_length_a 9.938021
_cell_length_b 14.653112
_cell_length_c 7.035624
_cell_angle_alpha 90.000000
_cell_angle_beta 94.141514
_cell_angle_gamma 90.000000
_cell_volume 1021.872830
_symmetry_space_group_name_H-M "P 21/M"
_symmetry_group_IT_number 11
_symmetry_cell_setting 'monoclinic'
loop_
_space_group_symop_operation_xyz
x,y,z
-x,1/2+y,-z
-x,-y,-z
x,1/2-y,z
loop_
_atom_site_type_symbol
_atom_site_label
_atom_site_fract_x
_atom_site_fract_y
_atom_site_fract_z
Si Si1 0.226233 0.250000 0.844874
Si Si2 0.428570 0.440410 0.262197
Si Si3 0.087309 0.750000 0.269092
Si Si4 0.677956 0.750000 0.704588
Si Si5 0.343680 0.441572 0.832460
Si Si6 0.094039 0.942841 0.764787
Si Si7 0.165035 0.555962 0.322008
Si Si8 0.007652 0.250000 0.305784
O O1 0.064006 0.250000 0.830423
O O2 0.279425 0.345248 0.761113
O O3 0.281777 0.250000 0.066465
O O4 0.408268 0.340389 0.348903
O O5 0.559094 0.504215 0.301542
O O6 0.296667 0.497800 0.298352
O O7 0.425317 0.421667 0.033725
O O8 0.169038 0.657923 0.241627
O O9 0.057823 0.750000 0.492639
O O10 0.831150 0.750000 0.640255
O O11 0.222988 0.511033 0.872828
O O12 0.134936 0.942871 0.545041
O O13 0.044515 0.840940 0.802678
O O14 0.965952 0.007384 0.777598
#
# Coordination Sequence:
#
# PCOD9162381 Si02
#       8
#     2   4   2   2   4   4   4   2
#     4  10  20  35  56  80 108 146 186 223 274 330
#     4  10  22  38  56  81 114 148 184 227 274 327
#     4  10  20  35  56  84 114 142 180 229 276 322
#     4  10  20  35  56  80 108 146 186 223 274 330
#     4  10  22  38  56  81 114 148 184 227 274 327
#     4  10  20  35  57  83 110 142 182 227 273 323
#     4  10  20  35  57  83 110 142 182 227 273 323
#     4  10  20  35  56  84 114 142 180 229 276 322
#
# _framework density 23.486291000000001
#
# number of rings (size 3 to 8) (size 9 to 14) (size 15 to 20)
#    0.000    2.000    3.333    0.000    0.000    4.000 
#    0.000    1.667    0.000    0.000    0.000    0.000 
#    0.000    0.000    0.000    0.000    0.000    0.000 
#
# Total GULP energy -134204.420478 kJ/mol
# GULP energy per Si atom -5591.850853 kJ/mol
# Density = 2.343283 g / cm^3
# Si number density = 23.486291 Si / 1000 Ang^3
#
#
#
# Elastic Constant Matrix: (Units=GPa)
#
#
# Indices 1 2 3 4 5 6 
#
# 1 100.6690 59.3869 -9.1857 0.0000 -20.6881 0.0000
# 2 59.3869 221.3894 -2.7238 0.0000 -16.7886 0.0000
# 3 -9.1857 -2.7238 56.6014 0.0000 1.6809 0.0000
# 4 0.0000 0.0000 0.0000 12.4154 0.0000 1.3751
# 5 -20.6881 -16.7886 1.6809 0.0000 32.3553 0.0000
# 6 0.0000 0.0000 0.0000 1.3751 0.0000 28.0543
#
#
#
# Elastic Compliance Matrix: (Units=1/GPa)
#
#
# Indices 1 2 3 4 5 6 
#
# 1 0.013286 -0.003024 0.001808 0.000000 0.006832 0.000000
# 2 -0.003024 0.005391 -0.000257 0.000000 0.000878 0.000000
# 3 0.001808 -0.000257 0.017946 0.000000 0.000090 0.000000
# 4 0.000000 0.000000 0.000000 0.080985 0.000000 -0.003970
# 5 0.006832 0.000878 0.000090 0.000000 0.035726 0.000000
# 6 0.000000 0.000000 0.000000 -0.003970 0.000000 0.035840
#
#
# Mechanical properties :
#
#
# Convention : Reuss Voigt Hill
#
# Bulk Modulus (GPa) = 29.69376 52.62384 41.15880
# Shear Modulus (GPa) = 24.58858 36.64382 30.61620
#
# Velocity S-wave (km/s) = 3.23915 3.95425 3.61443
# Velocity P-wave (km/s) = 5.16332 6.58050 5.91451
#
# Compressibility (1/GPa) = 0.03367711
#
# Stress axis : x y z
#
# Youngs Moduli (GPa) = 75.26537 185.48098 55.72356
#
# Poissons Ratio (x) = 0.56083 -0.10074
# Poissons Ratio (y) = 0.22758 0.01434
# Poissons Ratio (z) = -0.13606 0.04773
#
# Static dielectric constant tensor:
#      x y z
#    x 1.811390 0.000000 -0.005240 
#    y 0.000000 1.909750 0.000000 
#    z -0.005240 0.000000 2.024010 
# 
# From -- ./inp_files/12597.got.cif
#   From: 2010.05.17/outbox.cif.g08.bks.cpg/sg11_7_cif.got.tgz:12597.got - 2010.06.03 12:22:45.
