data_PCOD9162791
_publ_section_title
;
Structure prediction by ZEFSAII (Michael W. Deem and Ramdas Pophale) SiO2 
 PCOD9162791
Probable space group: P 21/M
;
_chemical_formula_sum "Si O2"
_cell_formula_units_Z 24
_cell_length_a 10.801762
_cell_length_b 11.144653
_cell_length_c 9.544269
_cell_angle_alpha 90.000000
_cell_angle_beta 117.931415
_cell_angle_gamma 90.000000
_cell_volume 1015.113892
_symmetry_space_group_name_H-M "P 21/M"
_symmetry_group_IT_number 11
_symmetry_cell_setting 'monoclinic'
loop_
_space_group_symop_operation_xyz
x,y,z
-x,1/2+y,-z
-x,-y,-z
x,1/2-y,z
loop_
_atom_site_type_symbol
_atom_site_label
_atom_site_fract_x
_atom_site_fract_y
_atom_site_fract_z
Si Si1 0.851680 0.551843 0.097274
Si Si2 0.663496 0.036907 0.585824
Si Si3 0.407225 0.976180 0.157561
Si Si4 0.397089 0.250000 0.789981
Si Si5 0.888760 0.879927 0.800853
Si Si6 0.767610 0.250000 0.439290
Si Si7 0.092686 0.250000 0.643001
Si Si8 0.506802 0.750000 0.842951
O O1 0.888276 0.636361 0.244668
O O2 0.981978 0.465669 0.151550
O O3 0.702203 0.484934 0.028662
O O4 0.845826 0.618085 0.942713
O O5 0.720738 0.135550 0.509907
O O6 0.500000 0.000000 0.500000
O O7 0.681709 0.075324 0.757874
O O8 0.760947 0.920925 0.635835
O O9 0.456039 0.116723 0.202256
O O10 0.526358 0.875918 0.205896
O O11 0.241638 0.250000 0.643732
O O12 0.410237 0.250000 0.966907
O O13 0.935711 0.750000 0.786001
O O14 0.662481 0.250000 0.251422
O O15 0.934391 0.250000 0.500236
#
# Coordination Sequence:
#
# PCOD9162791 Si02
#       8
#     4   4   4   2   4   2   2   2
#     4  10  20  35  62  93 127 165 217 268 332 391
#     4  11  23  38  67  98 135 168 211 271 339 419
#     4  11  24  43  69 103 126 177 227 284 327 396
#     4  12  27  46  72  95 131 177 246 282 319 376
#     4  10  21  34  56  95 136 167 202 265 341 405
#     4  12  25  44  66 103 135 177 216 268 359 404
#     4  12  22  42  66  92 130 178 220 282 314 402
#     4  12  24  44  70  92 136 178 228 270 334 404
#
# _framework density 23.642669000000001
#
# number of rings (size 3 to 8) (size 9 to 14) (size 15 to 20)
#    0.000    1.000    5.833    1.000    5.833    0.000 
#    0.000    0.833    3.667    0.000    0.000    0.000 
#    0.000    0.000    0.000    0.000    0.000    0.000 
#
# Total GULP energy -133834.070990 kJ/mol
# GULP energy per Si atom -5576.419625 kJ/mol
# Density = 2.358886 g / cm^3
# Si number density = 23.642669 Si / 1000 Ang^3
#
#
#
# Elastic Constant Matrix: (Units=GPa)
#
#
# Indices 1 2 3 4 5 6 
#
# 1 83.0508 42.4202 28.1253 0.0000 38.8726 0.0000
# 2 42.4202 108.1524 8.1740 0.0000 10.0494 0.0000
# 3 28.1253 8.1740 78.7899 0.0000 42.3026 0.0000
# 4 0.0000 0.0000 0.0000 14.6503 0.0000 5.2167
# 5 38.8726 10.0494 42.3026 0.0000 58.0034 0.0000
# 6 0.0000 0.0000 0.0000 5.2167 0.0000 16.9360
#
#
#
# Elastic Compliance Matrix: (Units=1/GPa)
#
#
# Indices 1 2 3 4 5 6 
#
# 1 0.022209 -0.007450 0.000236 0.000000 -0.013765 0.000000
# 2 -0.007450 0.011898 -0.000245 0.000000 0.003110 0.000000
# 3 0.000236 -0.000245 0.020866 0.000000 -0.015333 0.000000
# 4 0.000000 0.000000 0.000000 0.076667 0.000000 -0.023615
# 5 -0.013765 0.003110 -0.015333 0.000000 0.037109 0.000000
# 6 0.000000 0.000000 0.000000 -0.023615 0.000000 0.066320
#
#
# Mechanical properties :
#
#
# Convention : Reuss Voigt Hill
#
# Bulk Modulus (GPa) = 24.96581 47.49247 36.22914
# Shear Modulus (GPa) = 18.98704 30.66952 24.82828
#
# Velocity S-wave (km/s) = 2.83695 3.60559 3.24411
# Velocity P-wave (km/s) = 4.61666 6.12086 5.42119
#
# Compressibility (1/GPa) = 0.04005478
#
# Stress axis : x y z
#
# Youngs Moduli (GPa) = 45.02662 84.04959 47.92562
#
# Poissons Ratio (x) = 0.62615 -0.01129
# Poissons Ratio (y) = 0.33544 0.01173
# Poissons Ratio (z) = -0.01061 0.02056
#
# Static dielectric constant tensor:
#      x y z
#    x 1.976200 0.000000 -0.024090 
#    y 0.000000 1.909450 0.000000 
#    z -0.024090 0.000000 1.957050 
# 
# From -- ./inp_files/34941.got.cif
#   From: 2010.05.17/outbox.cif.g08.bks.cpg/sg11_18_cif.got.tgz:34941.got - 2010.06.03 12:22:45.
