data_PCOD9162579
_publ_section_title
;
Structure prediction by ZEFSAII (Michael W. Deem and Ramdas Pophale) SiO2 
 PCOD9162579
Probable space group: P 21/M
;
_chemical_formula_sum "Si O2"
_cell_formula_units_Z 28
_cell_length_a 20.132344
_cell_length_b 9.197496
_cell_length_c 17.924992
_cell_angle_alpha 90.000000
_cell_angle_beta 156.267435
_cell_angle_gamma 90.000000
_cell_volume 1335.839962
_symmetry_space_group_name_H-M "P 21/M"
_symmetry_group_IT_number 11
_symmetry_cell_setting 'monoclinic'
loop_
_space_group_symop_operation_xyz
x,y,z
-x,1/2+y,-z
-x,-y,-z
x,1/2-y,z
loop_
_atom_site_type_symbol
_atom_site_label
_atom_site_fract_x
_atom_site_fract_y
_atom_site_fract_z
Si Si1 0.823387 0.076817 0.328447
Si Si2 0.449479 0.423830 0.526467
Si Si3 0.311857 0.925115 0.647027
Si Si4 0.155263 0.910293 0.184170
Si Si5 0.774474 0.410555 0.916235
Si Si6 0.043350 0.077078 0.784851
Si Si7 0.339385 0.575415 0.995816
O O1 0.853693 0.250000 0.361313
O O2 0.737450 0.037962 0.318088
O O3 0.706685 0.045217 0.138066
O O4 0.000000 0.000000 0.500000
O O5 0.500000 0.500000 0.500000
O O6 0.432961 0.250000 0.500559
O O7 0.274038 0.498644 0.359525
O O8 0.582665 0.453704 0.728364
O O9 0.335432 0.750000 0.665374
O O10 0.144350 0.963216 0.429113
O O11 0.482660 0.005244 0.803418
O O12 0.123743 0.750000 0.181994
O O13 0.226971 0.893135 0.174048
O O14 0.000000 0.000000 0.000000
O O15 0.808876 0.250000 0.983213
O O16 0.903977 0.525939 0.078552
O O17 0.059462 0.250000 0.791196
O O18 0.185627 0.994952 0.883138
O O19 0.344398 0.750000 0.011642
#
# Coordination Sequence:
#
# PCOD9162579 Si02
#       7
#     4   4   4   4   4   4   4
#     4  10  20  36  60  88 118 153 195 246 302 354
#     4   9  17  32  55  80 107 140 178 224 276 330
#     4  10  22  40  60  86 120 156 198 249 300 350
#     4  10  20  35  57  86 117 149 186 236 287 338
#     4   9  20  38  58  82 114 151 189 231 285 344
#     4  11  23  40  62  85 118 161 200 246 297 352
#     4  11  23  38  61  90 117 155 200 245 301 360
#
# _framework density 20.960595000000001
#
# number of rings (size 3 to 8) (size 9 to 14) (size 15 to 20)
#    0.000    2.000    1.429    3.000    0.000    5.714 
#    2.571    0.000    0.000    0.000    0.000    0.000 
#    0.000    0.000    0.000    0.000    0.000    0.000 
#
# Total GULP energy -156058.846117 kJ/mol
# GULP energy per Si atom -5573.530218 kJ/mol
# Density = 2.091289 g / cm^3
# Si number density = 20.960595 Si / 1000 Ang^3
#
#
#
# Elastic Constant Matrix: (Units=GPa)
#
#
# Indices 1 2 3 4 5 6 
#
# 1 33.6906 14.1524 20.6999 0.0000 1.7018 0.0000
# 2 14.1524 102.2935 93.6177 0.0000 4.1747 0.0000
# 3 20.6999 93.6177 178.1122 0.0000 19.2598 0.0000
# 4 0.0000 0.0000 0.0000 41.6993 0.0000 2.7747
# 5 1.7018 4.1747 19.2598 0.0000 23.6501 0.0000
# 6 0.0000 0.0000 0.0000 2.7747 0.0000 25.8775
#
#
#
# Elastic Compliance Matrix: (Units=1/GPa)
#
#
# Indices 1 2 3 4 5 6 
#
# 1 0.032173 -0.001954 -0.002740 0.000000 0.000261 0.000000
# 2 -0.001954 0.019556 -0.010630 0.000000 0.005345 0.000000
# 3 -0.002740 -0.010630 0.012387 0.000000 -0.008014 0.000000
# 4 0.000000 0.000000 0.000000 0.024154 0.000000 -0.002590
# 5 0.000261 0.005345 -0.008014 0.000000 0.047847 0.000000
# 6 0.000000 0.000000 0.000000 -0.002590 0.000000 0.038921
#
#
# Mechanical properties :
#
#
# Convention : Reuss Voigt Hill
#
# Bulk Modulus (GPa) = 29.87952 63.44849 46.66400
# Shear Modulus (GPa) = 23.05825 30.62048 26.83936
#
# Velocity S-wave (km/s) = 3.32034 3.82627 3.58224
# Velocity P-wave (km/s) = 5.38382 7.06091 6.27862
#
# Compressibility (1/GPa) = 0.03346774
#
# Stress axis : x y z
#
# Youngs Moduli (GPa) = 31.08183 51.13433 80.73197
#
# Poissons Ratio (x) = 0.09991 0.22124
# Poissons Ratio (y) = 0.06073 0.85818
# Poissons Ratio (z) = 0.08518 0.54355
#
# Static dielectric constant tensor:
#      x y z
#    x 1.959310 0.000000 0.104090 
#    y 0.000000 1.745820 0.000000 
#    z 0.104090 0.000000 1.853270 
# 
# From -- ./inp_files/66757.got.cif
#   From: 2010.05.17/outbox.cif.g08.bks.cpg/sg11_34_cif.got.tgz:66757.got - 2010.06.03 12:22:45.
