data_PCOD9162849
_publ_section_title
;
Structure prediction by ZEFSAII (Michael W. Deem and Ramdas Pophale) SiO2 
 PCOD9162849
Probable space group: P 21/M
;
_chemical_formula_sum "Si O2"
_cell_formula_units_Z 32
_cell_length_a 21.484920
_cell_length_b 9.262988
_cell_length_c 27.143570
_cell_angle_alpha 90.000000
_cell_angle_beta 18.991065
_cell_angle_gamma 90.000000
_cell_volume 1757.911414
_symmetry_space_group_name_H-M "P 21/M"
_symmetry_group_IT_number 11
_symmetry_cell_setting 'monoclinic'
loop_
_space_group_symop_operation_xyz
x,y,z
-x,1/2+y,-z
-x,-y,-z
x,1/2-y,z
loop_
_atom_site_type_symbol
_atom_site_label
_atom_site_fract_x
_atom_site_fract_y
_atom_site_fract_z
Si Si1 0.420305 0.424366 0.787891
Si Si2 0.048647 0.078546 0.230489
Si Si3 0.625901 0.915936 0.834753
Si Si4 0.621245 0.422353 0.538164
Si Si5 0.789738 0.415571 0.799846
Si Si6 0.448181 0.423468 0.878199
Si Si7 0.026763 0.422271 0.032174
Si Si8 0.395764 0.578927 0.622466
O O1 0.408373 0.250000 0.800784
O O2 0.573329 0.456253 0.630879
O O3 0.467090 0.474916 0.807815
O O4 0.214142 0.472948 0.921351
O O5 0.051009 0.250000 0.239285
O O6 0.842702 0.044894 0.361656
O O7 0.229936 0.048605 0.059807
O O8 0.077732 0.994179 0.259623
O O9 0.682377 0.750000 0.785167
O O10 0.767804 0.998974 0.765267
O O11 0.420590 0.915942 0.016848
O O12 0.586552 0.997764 0.813184
O O13 0.589695 0.250000 0.554497
O O14 0.480737 0.510952 0.608645
O O15 0.844661 0.250000 0.750661
O O16 0.477783 0.250000 0.858971
O O17 0.047652 0.250000 0.007726
O O18 0.831970 0.444582 0.208158
O O19 0.000000 0.500000 0.000000
O O20 0.500000 0.500000 0.500000
O O21 0.430298 0.750000 0.595137
#
# Coordination Sequence:
#
# PCOD9162849 Si02
#       8
#     4   4   4   4   4   4   4   4
#     4   9  18  33  54  76 101 135 172 212 258 311
#     4   9  18  30  49  75 102 135 172 210 253 305
#     4   9  16  27  45  71 103 131 164 209 255 303
#     4  10  20  36  56  76 105 141 175 212 262 317
#     4   9  16  27  46  71 101 135 167 206 255 304
#     4   9  17  30  49  73 100 132 171 210 252 304
#     4  10  20  36  58  80 104 136 178 221 264 315
#     4  11  24  38  56  81 109 140 177 221 269 318
#
# _framework density 18.203419
#
# number of rings (size 3 to 8) (size 9 to 14) (size 15 to 20)
#    0.000    2.500    1.250    1.125    1.750    4.000 
#    0.000    1.250    0.000    0.750    0.000    0.000 
#    0.000    0.000    0.000    0.000    0.000    0.000 
#
# Total GULP energy -178453.867308 kJ/mol
# GULP energy per Si atom -5576.683353 kJ/mol
# Density = 1.816199 g / cm^3
# Si number density = 18.203419 Si / 1000 Ang^3
#
#
#
# Elastic Constant Matrix: (Units=GPa)
#
#
# Indices 1 2 3 4 5 6 
#
# 1 78.2242 15.6179 -8.0988 0.0000 23.6467 0.0000
# 2 15.6179 32.5941 10.5613 0.0000 9.7124 0.0000
# 3 -8.0988 10.5613 18.7617 0.0000 8.9691 0.0000
# 4 0.0000 0.0000 0.0000 14.5700 0.0000 -1.7498
# 5 23.6467 9.7124 8.9691 0.0000 21.2333 0.0000
# 6 0.0000 0.0000 0.0000 -1.7498 0.0000 32.7160
#
#
#
# Elastic Compliance Matrix: (Units=1/GPa)
#
#
# Indices 1 2 3 4 5 6 
#
# 1 0.042055 -0.020896 0.059816 0.000000 -0.062544 0.000000
# 2 -0.020896 0.049807 -0.046727 0.000000 0.020227 0.000000
# 3 0.059816 -0.046727 0.159199 0.000000 -0.112488 0.000000
# 4 0.000000 0.000000 0.000000 0.069078 0.000000 0.003695
# 5 -0.062544 0.020227 -0.112488 0.000000 0.155012 0.000000
# 6 0.000000 0.000000 0.000000 0.003695 0.000000 0.030764
#
#
# Mechanical properties :
#
#
# Convention : Reuss Voigt Hill
#
# Bulk Modulus (GPa) = 4.24725 18.41564 11.33144
# Shear Modulus (GPa) = 8.33318 21.13716 14.73517
#
# Velocity S-wave (km/s) = 2.14190 3.41128 2.84821
# Velocity P-wave (km/s) = 2.90780 5.06501 4.12975
#
# Compressibility (1/GPa) = 0.23544670
#
# Stress axis : x y z
#
# Youngs Moduli (GPa) = 23.77821 20.07769 6.28144
#
# Poissons Ratio (x) = 0.41955 -0.37573
# Poissons Ratio (y) = 0.49688 0.29351
# Poissons Ratio (z) = -1.42232 0.93817
#
# Static dielectric constant tensor:
#      x y z
#    x 1.613040 0.000000 0.006060 
#    y 0.000000 1.605250 0.000000 
#    z 0.006060 0.000000 1.623700 
# 
# From -- ./inp_files/72001.got.cif
#   From: 2010.05.17/outbox.cif.g08.bks.cpg/sg11_37_cif.got.tgz:72001.got - 2010.06.03 12:22:45.
