data_PCOD9162167
_publ_section_title
;
Structure prediction by ZEFSAII (Michael W. Deem and Ramdas Pophale) SiO2 
 PCOD9162167
Probable space group: P 21/M
;
_chemical_formula_sum "Si O2"
_cell_formula_units_Z 32
_cell_length_a 7.645955
_cell_length_b 29.822834
_cell_length_c 12.241225
_cell_angle_alpha 90.000000
_cell_angle_beta 35.590988
_cell_angle_gamma 90.000000
_cell_volume 1624.519153
_symmetry_space_group_name_H-M "P 21/M"
_symmetry_group_IT_number 11
_symmetry_cell_setting 'monoclinic'
loop_
_space_group_symop_operation_xyz
x,y,z
-x,1/2+y,-z
-x,-y,-z
x,1/2-y,z
loop_
_atom_site_type_symbol
_atom_site_label
_atom_site_fract_x
_atom_site_fract_y
_atom_site_fract_z
Si Si1 0.904567 0.146703 0.712972
Si Si2 0.655629 0.026490 0.543719
Si Si3 0.433182 0.402585 0.827365
Si Si4 0.310651 0.455199 0.114174
Si Si5 0.622375 0.640386 0.860914
Si Si6 0.093702 0.860875 0.822584
Si Si7 0.397883 0.197894 0.346312
Si Si8 0.623848 0.932222 0.517760
O O1 0.671886 0.135786 0.734460
O O2 0.136077 0.185156 0.564909
O O3 0.092271 0.100337 0.627926
O O4 0.689681 0.155202 0.924518
O O5 0.592653 0.062731 0.667914
O O6 0.407666 0.041438 0.580493
O O7 0.979809 0.032181 0.323253
O O8 0.630187 0.974926 0.595356
O O9 0.340060 0.431199 0.981636
O O10 0.120535 0.376679 0.968322
O O11 0.406651 0.413444 0.142876
O O12 0.500000 0.500000 0.000000
O O13 0.666420 0.667295 0.727581
O O14 0.890590 0.646740 0.815808
O O15 0.289713 0.818515 0.759081
O O16 0.336646 0.900246 0.677890
O O17 0.399783 0.250000 0.318621
#
# Coordination Sequence:
#
# PCOD9162167 Si02
#       8
#     4   4   4   4   4   4   4   4
#     4   9  21  39  59  84 116 151 195 245 299 354
#     4  11  20  32  55  82 122 156 204 241 274 347
#     4  10  21  37  58  83 112 162 198 232 302 347
#     4  10  20  36  56  87 121 159 206 242 287 353
#     4  10  21  41  63  87 124 159 193 248 305 349
#     4   9  21  43  58  86 123 152 198 244 298 360
#     4  11  24  41  66  91 111 152 201 246 314 369
#     4  10  20  35  52  84 122 158 195 244 288 331
#
# _framework density 19.698136999999999
#
# number of rings (size 3 to 8) (size 9 to 14) (size 15 to 20)
#    0.000    2.250    2.500    2.250    1.750    5.500 
#    0.000    1.875    0.000    0.000    0.000    0.000 
#    0.000    0.000    0.000    0.000    0.000    0.000 
#
# Total GULP energy -178279.233611 kJ/mol
# GULP energy per Si atom -5571.226050 kJ/mol
# Density = 1.965330 g / cm^3
# Si number density = 19.698137 Si / 1000 Ang^3
#
#
#
# Elastic Constant Matrix: (Units=GPa)
#
#
# Indices 1 2 3 4 5 6 
#
# 1 33.3766 17.8480 19.3236 0.0000 -8.4499 0.0000
# 2 17.8480 102.8650 26.7296 0.0000 -2.3820 0.0000
# 3 19.3236 26.7296 102.2693 0.0000 -22.1471 0.0000
# 4 0.0000 0.0000 0.0000 16.7229 0.0000 2.2346
# 5 -8.4499 -2.3820 -22.1471 0.0000 18.0910 0.0000
# 6 0.0000 0.0000 0.0000 2.2346 0.0000 21.4544
#
#
#
# Elastic Compliance Matrix: (Units=1/GPa)
#
#
# Indices 1 2 3 4 5 6 
#
# 1 0.037985 -0.005554 -0.002779 0.000000 0.013609 0.000000
# 2 -0.005554 0.011338 -0.002929 0.000000 -0.004687 0.000000
# 3 -0.002779 -0.002929 0.014565 0.000000 0.016148 0.000000
# 4 0.000000 0.000000 0.000000 0.060642 0.000000 -0.006316
# 5 0.013609 -0.004687 0.016148 0.000000 0.080784 0.000000
# 6 0.000000 0.000000 0.000000 -0.006316 0.000000 0.047268
#
#
# Mechanical properties :
#
#
# Convention : Reuss Voigt Hill
#
# Bulk Modulus (GPa) = 24.17434 40.70150 32.43792
# Shear Modulus (GPa) = 17.30745 22.89430 20.10087
#
# Velocity S-wave (km/s) = 2.96739 3.41289 3.19791
# Velocity P-wave (km/s) = 4.90302 6.01979 5.48988
#
# Compressibility (1/GPa) = 0.04136617
#
# Stress axis : x y z
#
# Youngs Moduli (GPa) = 26.32620 88.20192 68.65546
#
# Poissons Ratio (x) = 0.48984 0.19076
# Poissons Ratio (y) = 0.14621 0.20108
# Poissons Ratio (z) = 0.07315 0.25833
#
# Static dielectric constant tensor:
#      x y z
#    x 1.794960 0.000000 0.002450 
#    y 0.000000 1.730560 0.000000 
#    z 0.002450 0.000000 1.710150 
# 
# From -- ./inp_files/48519.got.cif
#   From: 2010.05.17/outbox.cif.g08.bks.cpg/sg11_25_cif.got.tgz:48519.got - 2010.06.03 12:22:45.
