data_PCOD9162323
_publ_section_title
;
Structure prediction by ZEFSAII (Michael W. Deem and Ramdas Pophale) SiO2 
 PCOD9162323
Probable space group: P 21/M
;
_chemical_formula_sum "Si O2"
_cell_formula_units_Z 32
_cell_length_a 13.875919
_cell_length_b 7.558102
_cell_length_c 13.881577
_cell_angle_alpha 90.000000
_cell_angle_beta 90.000000
_cell_angle_gamma 90.000000
_cell_volume 1455.838872
_symmetry_space_group_name_H-M "P 21/M"
_symmetry_group_IT_number 11
_symmetry_cell_setting 'monoclinic'
loop_
_space_group_symop_operation_xyz
x,y,z
-x,1/2+y,-z
-x,-y,-z
x,1/2-y,z
loop_
_atom_site_type_symbol
_atom_site_label
_atom_site_fract_x
_atom_site_fract_y
_atom_site_fract_z
Si Si1 0.710221 0.039423 0.387289
Si Si2 0.000000 0.962777 0.113205
Si Si3 0.802372 0.043841 0.798606
Si Si4 0.500000 0.461669 0.385332
Si Si5 0.802372 0.956159 0.201395
Si Si6 0.604555 0.962313 0.113994
Si Si7 0.710221 0.539424 0.612711
Si Si8 0.395445 0.537686 0.113991
O O1 0.708450 0.250000 0.377380
O O2 0.604451 0.968183 0.353786
O O3 0.791035 0.967813 0.316185
O O4 0.723292 0.999999 0.500000
O O5 0.000000 0.750000 0.127510
O O6 0.901424 0.032628 0.160735
O O7 0.098576 0.032628 0.160735
O O8 0.000000 0.000000 0.000000
O O9 0.801754 0.250000 0.827317
O O10 0.702854 0.964941 0.840382
O O11 0.791035 0.032187 0.683816
O O12 0.500000 0.500000 0.500000
O O13 0.500000 0.250000 0.371926
O O14 0.395549 0.531817 0.353786
O O15 0.801753 0.750000 0.172683
O O16 0.702854 0.035060 0.159619
O O17 0.603280 0.750000 0.127331
O O18 0.500000 0.030696 0.150153
O O19 0.608071 0.999996 0.000001
O O20 0.708450 0.750000 0.622622
O O21 0.396720 0.750000 0.127325
#
# Coordination Sequence:
#
# PCOD9162323 Si02
#       8
#     4   4   4   4   4   4   4   4
#     4  10  20  35  55  81 113 148 186 227 273 326
#     4  10  22  40  61  84 111 144 185 234 280 328
#     4  10  21  36  55  80 110 144 185 228 276 327
#     4   8  16  30  48  74 107 142 179 218 263 316
#     4  10  21  36  55  80 110 144 185 228 276 327
#     4   9  18  32  50  75 106 139 174 217 271 328
#     4  10  20  35  55  81 113 148 186 227 273 326
#     4   9  18  32  50  75 106 139 174 217 271 328
#
# _framework density 21.980454000000002
#
# number of rings (size 3 to 8) (size 9 to 14) (size 15 to 20)
#    0.000    2.500    0.000    1.500    1.750    3.000 
#    0.000    0.625    0.000    0.000    0.000    0.000 
#    0.000    0.000    0.000    0.000    0.000    0.000 
#
# Total GULP energy -178640.702865 kJ/mol
# GULP energy per Si atom -5582.521965 kJ/mol
# Density = 2.193043 g / cm^3
# Si number density = 21.980454 Si / 1000 Ang^3
#
#
#
# Elastic Constant Matrix: (Units=GPa)
#
#
# Indices 1 2 3 4 5 6 
#
# 1 217.3853 13.4851 99.6945 0.0000 0.0006 0.0000
# 2 13.4851 66.9409 -14.2111 0.0000 0.0001 0.0000
# 3 99.6945 -14.2111 106.1072 0.0000 -0.0001 0.0000
# 4 0.0000 0.0000 0.0000 26.6908 0.0000 -0.0001
# 5 0.0006 0.0001 -0.0001 0.0000 42.9231 0.0000
# 6 0.0000 0.0000 0.0000 -0.0001 0.0000 0.8466
#
#
#
# Elastic Compliance Matrix: (Units=1/GPa)
#
#
# Indices 1 2 3 4 5 6 
#
# 1 0.008878 -0.003663 -0.008832 0.000000 0.000000 0.000000
# 2 -0.003663 0.016887 0.005704 0.000000 0.000000 0.000000
# 3 -0.008832 0.005704 0.018486 0.000000 0.000000 0.000000
# 4 0.000000 0.000000 0.000000 0.037466 0.000000 0.000004
# 5 0.000000 0.000000 0.000000 0.000000 0.023297 0.000000
# 6 0.000000 0.000000 0.000000 0.000004 0.000000 1.181233
#
#
# Mechanical properties :
#
#
# Convention : Reuss Voigt Hill
#
# Bulk Modulus (GPa) = 32.60664 65.37449 48.99057
# Shear Modulus (GPa) = 3.81664 33.52308 18.66986
#
# Velocity S-wave (km/s) = 1.31915 3.90953 2.91758
# Velocity P-wave (km/s) = 4.14569 7.08420 5.80399
#
# Compressibility (1/GPa) = 0.03066860
#
# Stress axis : x y z
#
# Youngs Moduli (GPa) = 112.64152 59.21576 54.09376
#
# Poissons Ratio (x) = 0.21693 0.47775
# Poissons Ratio (y) = 0.41264 -0.30854
# Poissons Ratio (z) = 0.99483 -0.33775
#
# Static dielectric constant tensor:
#      x y z
#    x 1.849210 0.000000 0.000000 
#    y 0.000000 1.803690 0.000000 
#    z 0.000000 0.000000 1.792590 
# 
# From -- ./inp_files/49356.got.cif
#   From: 2010.05.17/outbox.cif.g08.bks.cpg/sg11_25_cif.got.tgz:49356.got - 2010.06.03 12:22:45.
