data_PCOD9162653
_publ_section_title
;
Structure prediction by ZEFSAII (Michael W. Deem and Ramdas Pophale) SiO2 
 PCOD9162653
Probable space group: P 21/M
;
_chemical_formula_sum "Si O2"
_cell_formula_units_Z 32
_cell_length_a 9.089804
_cell_length_b 11.420154
_cell_length_c 14.219858
_cell_angle_alpha 90.000000
_cell_angle_beta 86.716916
_cell_angle_gamma 90.000000
_cell_volume 1473.697597
_symmetry_space_group_name_H-M "P 21/M"
_symmetry_group_IT_number 11
_symmetry_cell_setting 'monoclinic'
loop_
_space_group_symop_operation_xyz
x,y,z
-x,1/2+y,-z
-x,-y,-z
x,1/2-y,z
loop_
_atom_site_type_symbol
_atom_site_label
_atom_site_fract_x
_atom_site_fract_y
_atom_site_fract_z
Si Si1 0.349023 0.887296 0.168927
Si Si2 0.315639 0.622093 0.631605
Si Si3 0.763245 0.553582 0.514984
Si Si4 0.972407 0.123088 0.618011
Si Si5 0.619912 0.879492 0.709789
Si Si6 0.867750 0.531840 0.934544
Si Si7 0.690482 0.881939 0.106714
Si Si8 0.915079 0.472058 0.224891
O O1 0.336807 0.750000 0.200392
O O2 0.515198 0.900021 0.121437
O O3 0.335660 0.998645 0.241300
O O4 0.222951 0.918643 0.097861
O O5 0.319480 0.750000 0.586274
O O6 0.333520 0.520822 0.554544
O O7 0.444015 0.616030 0.703571
O O8 0.161651 0.605141 0.691967
O O9 0.865942 0.462577 0.566811
O O10 0.678964 0.618652 0.600464
O O11 0.874895 0.625079 0.445619
O O12 0.905041 0.250000 0.624043
O O13 0.008285 0.076063 0.719773
O O14 0.658797 0.750000 0.749549
O O15 0.957878 0.585224 0.843214
O O16 0.750902 0.606173 0.998221
O O17 0.000000 0.500000 0.000000
O O18 0.721257 0.750000 0.139907
O O19 0.785959 0.972344 0.165449
#
# Coordination Sequence:
#
# PCOD9162653 Si02
#       8
#     4   4   4   4   4   4   4   4
#     4  11  24  44  68  98 132 169 213 266 325 388
#     4  10  21  38  60  87 127 169 215 270 324 381
#     4  10  21  36  56  87 123 168 217 263 318 377
#     4  10  20  35  58  86 123 165 209 263 318 374
#     4  11  23  41  64  92 128 170 218 268 319 384
#     4  10  23  40  64  94 127 164 212 263 319 386
#     4  10  21  40  64  90 127 166 211 263 322 387
#     4  10  20  38  60  91 123 163 214 262 325 382
#
# _framework density 21.714089999999999
#
# number of rings (size 3 to 8) (size 9 to 14) (size 15 to 20)
#    0.000    1.750    1.250    2.625    0.000    5.500 
#    0.000    7.500    0.000    0.000    0.000    0.000 
#    0.000    0.000    0.000    0.000    0.000    0.000 
#
# Total GULP energy -178446.220487 kJ/mol
# GULP energy per Si atom -5576.444390 kJ/mol
# Density = 2.166467 g / cm^3
# Si number density = 21.714090 Si / 1000 Ang^3
#
#
#
# Elastic Constant Matrix: (Units=GPa)
#
#
# Indices 1 2 3 4 5 6 
#
# 1 80.2504 31.8778 31.3251 0.0000 -2.2689 0.0000
# 2 31.8778 125.1293 31.9103 0.0000 7.2745 0.0000
# 3 31.3251 31.9103 81.8852 0.0000 -14.1445 0.0000
# 4 0.0000 0.0000 0.0000 54.1696 0.0000 21.7952
# 5 -2.2689 7.2745 -14.1445 0.0000 36.5267 0.0000
# 6 0.0000 0.0000 0.0000 21.7952 0.0000 11.1031
#
#
#
# Elastic Compliance Matrix: (Units=1/GPa)
#
#
# Indices 1 2 3 4 5 6 
#
# 1 0.015430 -0.002644 -0.004947 0.000000 -0.000430 0.000000
# 2 -0.002644 0.009721 -0.003365 0.000000 -0.003403 0.000000
# 3 -0.004947 -0.003365 0.016588 0.000000 0.006786 0.000000
# 4 0.000000 0.000000 0.000000 0.087829 0.000000 -0.172406
# 5 -0.000430 -0.003403 0.006786 0.000000 0.030656 0.000000
# 6 0.000000 0.000000 0.000000 -0.172406 0.000000 0.428497
#
#
# Mechanical properties :
#
#
# Convention : Reuss Voigt Hill
#
# Bulk Modulus (GPa) = 50.43343 53.05460 51.74402
# Shear Modulus (GPa) = 8.10056 33.16999 20.63527
#
# Velocity S-wave (km/s) = 1.93356 3.91267 3.08607
# Velocity P-wave (km/s) = 5.31615 6.70061 6.04813
#
# Compressibility (1/GPa) = 0.01982812
#
# Stress axis : x y z
#
# Youngs Moduli (GPa) = 64.80819 102.86677 60.28479
#
# Poissons Ratio (x) = 0.27203 0.29820
# Poissons Ratio (y) = 0.17138 0.20283
# Poissons Ratio (z) = 0.32058 0.34610
#
# Static dielectric constant tensor:
#      x y z
#    x 1.800470 0.000000 -0.027310 
#    y 0.000000 1.792570 0.000000 
#    z -0.027310 0.000000 1.822340 
# 
# From -- ./inp_files/47201.got.cif
#   From: 2010.05.17/outbox.cif.g08.bks.cpg/sg11_24_cif.got.tgz:47201.got - 2010.06.03 12:22:45.
