data_PCOD9162520
_publ_section_title
;
Structure prediction by ZEFSAII (Michael W. Deem and Ramdas Pophale) SiO2 
 PCOD9162520
Probable space group: P 21/M
;
_chemical_formula_sum "Si O2"
_cell_formula_units_Z 20
_cell_length_a 21.396629
_cell_length_b 9.482027
_cell_length_c 5.168912
_cell_angle_alpha 90.000000
_cell_angle_beta 59.532380
_cell_angle_gamma 90.000000
_cell_volume 903.879529
_symmetry_space_group_name_H-M "P 21/M"
_symmetry_group_IT_number 11
_symmetry_cell_setting 'monoclinic'
loop_
_space_group_symop_operation_xyz
x,y,z
-x,1/2+y,-z
-x,-y,-z
x,1/2-y,z
loop_
_atom_site_type_symbol
_atom_site_label
_atom_site_fract_x
_atom_site_fract_y
_atom_site_fract_z
Si Si1 0.462303 0.099410 0.375536
Si Si2 0.746076 0.083333 0.845813
Si Si3 0.799344 0.915382 0.232057
Si Si4 0.387687 0.899124 0.217070
Si Si5 0.027562 0.415240 0.192278
O O1 0.444990 0.250000 0.530438
O O2 0.500000 0.000000 0.500000
O O3 0.391997 0.032088 0.393066
O O4 0.528401 0.117058 0.035164
O O5 0.766736 0.250000 0.814592
O O6 0.662202 0.080016 0.927053
O O7 0.784906 0.998651 0.530068
O O8 0.762622 0.003282 0.076456
O O9 0.776332 0.750000 0.294615
O O10 0.885241 0.915401 0.996657
O O11 0.363787 0.750000 0.391586
O O12 0.003933 0.250000 0.242420
O O13 0.000000 0.500000 0.500000
O O14 0.000000 0.500000 0.000000
#
# Coordination Sequence:
#
# PCOD9162520 Si02
#       5
#     4   4   4   4   4
#     4  10  20  35  57  83 113 149 196 253 309 367
#     4  11  24  42  66  93 126 171 217 261 313 379
#     4  11  25  44  64  95 134 168 207 262 317 372
#     4   9  21  39  56  80 114 153 200 254 307 363
#     4  11  24  42  67  97 131 168 210 260 313 370
#
# _framework density 22.126843999999998
#
# number of rings (size 3 to 8) (size 9 to 14) (size 15 to 20)
#    0.000    1.600    0.000    3.600    2.800   10.400 
#    0.000    0.000    0.000    0.000    0.000    0.000 
#    0.000    0.000    0.000    0.000    0.000    0.000 
#
# Total GULP energy -111683.516836 kJ/mol
# GULP energy per Si atom -5584.175842 kJ/mol
# Density = 2.207648 g / cm^3
# Si number density = 22.126844 Si / 1000 Ang^3
#
#
#
# Elastic Constant Matrix: (Units=GPa)
#
#
# Indices 1 2 3 4 5 6 
#
# 1 87.5674 63.6611 14.6125 0.0000 8.9496 0.0000
# 2 63.6611 224.7270 55.4370 0.0000 25.1573 0.0000
# 3 14.6125 55.4370 102.2378 0.0000 8.1662 0.0000
# 4 0.0000 0.0000 0.0000 29.5303 0.0000 6.3407
# 5 8.9496 25.1573 8.1662 0.0000 34.2455 0.0000
# 6 0.0000 0.0000 0.0000 6.3407 0.0000 35.9736
#
#
#
# Elastic Compliance Matrix: (Units=1/GPa)
#
#
# Indices 1 2 3 4 5 6 
#
# 1 0.014407 -0.004035 0.000196 0.000000 -0.000848 0.000000
# 2 -0.004035 0.006628 -0.002765 0.000000 -0.003155 0.000000
# 3 0.000196 -0.002765 0.011310 0.000000 -0.000717 0.000000
# 4 0.000000 0.000000 0.000000 0.035196 0.000000 -0.006204
# 5 -0.000848 -0.003155 -0.000717 0.000000 0.031911 0.000000
# 6 0.000000 0.000000 0.000000 -0.006204 0.000000 0.028892
#
#
# Mechanical properties :
#
#
# Convention : Reuss Voigt Hill
#
# Bulk Modulus (GPa) = 52.25357 75.77260 64.01308
# Shear Modulus (GPa) = 33.79978 38.67132 36.23555
#
# Velocity S-wave (km/s) = 3.91262 4.18510 4.05115
# Velocity P-wave (km/s) = 6.63914 7.59423 7.13269
#
# Compressibility (1/GPa) = 0.01913745
#
# Stress axis : x y z
#
# Youngs Moduli (GPa) = 69.41124 150.87023 88.41907
#
# Poissons Ratio (x) = 0.60872 -0.01736
# Poissons Ratio (y) = 0.28006 0.24451
# Poissons Ratio (z) = -0.01363 0.41721
#
# Static dielectric constant tensor:
#      x y z
#    x 1.771730 0.000000 -0.032240 
#    y 0.000000 1.808680 0.000000 
#    z -0.032240 0.000000 1.860630 
# 
# From -- ./inp_files/8475.got.cif
#   From: 2010.05.17/outbox.cif.g08.bks.cpg/sg11_5_cif.got.tgz:8475.got - 2010.06.03 12:22:45.
