data_PCOD9162741
_publ_section_title
;
Structure prediction by ZEFSAII (Michael W. Deem and Ramdas Pophale) SiO2 
 PCOD9162741
Probable space group: P 21/M
;
_chemical_formula_sum "Si O2"
_cell_formula_units_Z 32
_cell_length_a 12.991989
_cell_length_b 14.512185
_cell_length_c 8.334988
_cell_angle_alpha 90.000000
_cell_angle_beta 52.820071
_cell_angle_gamma 90.000000
_cell_volume 1252.076767
_symmetry_space_group_name_H-M "P 21/M"
_symmetry_group_IT_number 11
_symmetry_cell_setting 'monoclinic'
loop_
_space_group_symop_operation_xyz
x,y,z
-x,1/2+y,-z
-x,-y,-z
x,1/2-y,z
loop_
_atom_site_type_symbol
_atom_site_label
_atom_site_fract_x
_atom_site_fract_y
_atom_site_fract_z
Si Si1 0.664164 0.348837 0.582732
Si Si2 0.938784 0.006662 0.838423
Si Si3 0.832703 0.640734 0.346419
Si Si4 0.152104 0.141337 0.279840
Si Si5 0.551920 0.351151 0.229456
Si Si6 0.687326 0.500370 0.299293
Si Si7 0.437226 0.402070 0.016615
Si Si8 0.811937 0.346931 0.771877
O O1 0.679242 0.250000 0.488114
O O2 0.698910 0.430915 0.436087
O O3 0.755176 0.350901 0.650265
O O4 0.522937 0.358833 0.795099
O O5 0.951572 0.907036 0.742068
O O6 0.898805 0.067353 0.722546
O O7 0.050663 0.069840 0.811280
O O8 0.812899 0.007541 0.068956
O O9 0.848830 0.750000 0.295365
O O10 0.838226 0.629662 0.535384
O O11 0.706852 0.600426 0.368200
O O12 0.150118 0.250000 0.251477
O O13 0.291003 0.098659 0.098850
O O14 0.534578 0.250000 0.325940
O O15 0.569547 0.447377 0.312461
O O16 0.451927 0.353664 0.175506
O O17 0.689617 0.346802 0.005802
O O18 0.500000 0.500000 0.000000
O O19 0.884046 0.250000 0.728019
#
# Coordination Sequence:
#
# PCOD9162741 Si02
#       8
#     4   4   4   4   4   4   4   4
#     4  10  20  35  59  93 130 169 211 257 315 384
#     4  11  22  41  65  91 125 165 212 265 323 383
#     4  11  25  44  66  92 126 168 215 268 327 383
#     4  11  24  43  67  94 124 164 216 271 321 376
#     4   9  18  34  58  89 123 163 208 253 307 372
#     4  11  22  39  62  95 132 168 211 258 314 387
#     4  11  20  38  66  93 129 173 217 267 316 375
#     4   8  15  30  55  85 115 152 203 257 303 354
#
# _framework density 25.557538000000001
#
# number of rings (size 3 to 8) (size 9 to 14) (size 15 to 20)
#    0.000    1.750    0.000    7.125    0.000    2.000 
#    0.000    8.125    0.000    3.000    0.000    0.000 
#    0.000    0.000    0.000    0.000    0.000    0.000 
#
# Total GULP energy -178678.702694 kJ/mol
# GULP energy per Si atom -5583.709459 kJ/mol
# Density = 2.549937 g / cm^3
# Si number density = 25.557538 Si / 1000 Ang^3
#
#
#
# Elastic Constant Matrix: (Units=GPa)
#
#
# Indices 1 2 3 4 5 6 
#
# 1 92.6643 53.3459 14.4527 0.0000 3.5540 0.0000
# 2 53.3459 169.0892 32.1046 0.0000 13.0182 0.0000
# 3 14.4527 32.1046 75.0244 0.0000 6.5429 0.0000
# 4 0.0000 0.0000 0.0000 8.2160 0.0000 -22.4280
# 5 3.5540 13.0182 6.5429 0.0000 38.2877 0.0000
# 6 0.0000 0.0000 0.0000 -22.4280 0.0000 -24.1372
#
#
#
# Elastic Compliance Matrix: (Units=1/GPa)
#
#
# Indices 1 2 3 4 5 6 
#
# 1 0.013237 -0.004038 -0.000847 0.000000 0.000289 0.000000
# 2 -0.004038 0.007785 -0.002391 0.000000 -0.001864 0.000000
# 3 -0.000847 -0.002391 0.014656 0.000000 -0.001613 0.000000
# 4 0.000000 0.000000 0.000000 0.034417 0.000000 -0.031979
# 5 0.000289 -0.001864 -0.001613 0.000000 0.027001 0.000000
# 6 0.000000 0.000000 0.000000 -0.031979 0.000000 -0.011715
#
#
# Mechanical properties :
#
#
# Convention : Reuss Voigt Hill
#
# Bulk Modulus (GPa) = 47.33443 59.62047 53.47745
# Shear Modulus (GPa) = 46.73986 20.26494 33.50240
#
# Velocity S-wave (km/s) = 4.28110 2.81893 3.62451
# Velocity P-wave (km/s) = 6.55729 5.82870 6.20370
#
# Compressibility (1/GPa) = 0.02112627
#
# Stress axis : x y z
#
# Youngs Moduli (GPa) = 75.54527 128.44671 68.23071
#
# Poissons Ratio (x) = 0.51860 0.05782
# Poissons Ratio (y) = 0.30501 0.16315
# Poissons Ratio (z) = 0.06402 0.30714
#
# Static dielectric constant tensor:
#      x y z
#    x 2.069980 0.000000 -0.044300 
#    y 0.000000 2.077810 0.000000 
#    z -0.044300 0.000000 2.043520 
# 
# From -- ./inp_files/22176.got.cif
#   From: 2010.05.17/outbox.cif.g08.bks.cpg/sg11_12_cif.got.tgz:22176.got - 2010.06.03 12:22:45.
