data_PCOD9162403
_publ_section_title
;
Structure prediction by ZEFSAII (Michael W. Deem and Ramdas Pophale) SiO2 
 PCOD9162403
Probable space group: P 21/M
;
_chemical_formula_sum "Si O2"
_cell_formula_units_Z 28
_cell_length_a 23.356969
_cell_length_b 8.256204
_cell_length_c 25.618694
_cell_angle_alpha 90.000000
_cell_angle_beta 16.850490
_cell_angle_gamma 90.000000
_cell_volume 1432.072757
_symmetry_space_group_name_H-M "P 21/M"
_symmetry_group_IT_number 11
_symmetry_cell_setting 'monoclinic'
loop_
_space_group_symop_operation_xyz
x,y,z
-x,1/2+y,-z
-x,-y,-z
x,1/2-y,z
loop_
_atom_site_type_symbol
_atom_site_label
_atom_site_fract_x
_atom_site_fract_y
_atom_site_fract_z
Si Si1 0.131865 0.054018 0.457934
Si Si2 0.339075 0.447829 0.383117
Si Si3 0.630016 0.931094 0.433031
Si Si4 0.232277 0.948798 0.955356
Si Si5 0.292592 0.443756 0.205595
Si Si6 0.943233 0.431114 0.993680
Si Si7 0.822524 0.551229 0.364985
O O1 0.133173 0.250000 0.456631
O O2 0.239010 0.996626 0.416998
O O3 0.248003 0.999697 0.304182
O O4 0.903845 0.999926 0.653718
O O5 0.337471 0.250000 0.383359
O O6 0.565334 0.498389 0.194311
O O7 0.224445 0.498126 0.535452
O O8 0.555310 0.750000 0.506769
O O9 0.662344 0.008335 0.461783
O O10 0.851860 0.924738 0.216936
O O11 0.500000 0.000000 0.500000
O O12 0.231244 0.750000 0.953457
O O13 0.205111 0.008192 0.919135
O O14 0.040226 0.996816 0.156031
O O15 0.295896 0.250000 0.203302
O O16 0.500000 0.500000 0.000000
O O17 0.871388 0.250000 0.066493
O O18 0.000000 0.500000 0.000000
O O19 0.814956 0.750000 0.369597
#
# Coordination Sequence:
#
# PCOD9162403 Si02
#       7
#     4   4   4   4   4   4   4
#     4   9  19  34  53  83 113 136 175 223 263 309
#     4   9  16  27  48  73  97 129 164 204 258 304
#     4   9  18  30  44  66  92 119 156 202 251 303
#     4   8  15  27  41  63  94 122 154 201 249 297
#     4  10  20  35  56  81 113 148 178 213 257 305
#     4   9  18  30  44  65  91 118 155 200 247 299
#     4   8  15  27  42  64  94 123 157 204 252 300
#
# _framework density 19.552078999999999
#
# number of rings (size 3 to 8) (size 9 to 14) (size 15 to 20)
#    0.000    3.143    0.000    2.143    2.000    2.286 
#    0.000    4.286    0.000    1.714    0.000    2.000 
#    0.000    0.000    0.000    0.000    0.000    0.000 
#
# Total GULP energy -155929.628837 kJ/mol
# GULP energy per Si atom -5568.915316 kJ/mol
# Density = 1.950758 g / cm^3
# Si number density = 19.552079 Si / 1000 Ang^3
#
#
#
# Elastic Constant Matrix: (Units=GPa)
#
#
# Indices 1 2 3 4 5 6 
#
# 1 220.9573 20.0170 101.5159 0.0000 -26.5883 0.0000
# 2 20.0170 5.8227 12.1202 0.0000 -2.3232 0.0000
# 3 101.5159 12.1202 143.6003 0.0000 -9.1906 0.0000
# 4 0.0000 0.0000 0.0000 16.5895 0.0000 -3.3052
# 5 -26.5883 -2.3232 -9.1906 0.0000 26.7447 0.0000
# 6 0.0000 0.0000 0.0000 -3.3052 0.0000 18.7922
#
#
#
# Elastic Compliance Matrix: (Units=1/GPa)
#
#
# Indices 1 2 3 4 5 6 
#
# 1 0.008977 -0.019562 -0.004328 0.000000 0.005738 0.000000
# 2 -0.019562 0.255026 -0.007692 0.000000 0.000063 0.000000
# 3 -0.004328 -0.007692 0.010587 0.000000 -0.001332 0.000000
# 4 0.000000 0.000000 0.000000 0.062468 0.000000 0.010987
# 5 0.005738 0.000063 -0.001332 0.000000 0.042642 0.000000
# 6 0.000000 0.000000 0.000000 0.010987 0.000000 0.055146
#
#
# Mechanical properties :
#
#
# Convention : Reuss Voigt Hill
#
# Bulk Modulus (GPa) = 4.72976 70.85405 37.79191
# Shear Modulus (GPa) = 8.79532 28.20711 18.50122
#
# Velocity S-wave (km/s) = 2.12325 3.80236 3.07946
# Velocity P-wave (km/s) = 2.90434 7.45618 5.65817
#
# Compressibility (1/GPa) = 0.21142708
#
# Stress axis : x y z
#
# Youngs Moduli (GPa) = 111.40083 3.92117 94.45549
#
# Poissons Ratio (x) = 0.07671 0.40876
# Poissons Ratio (y) = 2.17922 0.72652
# Poissons Ratio (z) = 0.48209 0.03016
#
# Static dielectric constant tensor:
#      x y z
#    x 1.717140 0.000000 0.002100 
#    y 0.000000 1.714270 0.000000 
#    z 0.002100 0.000000 1.682170 
# 
# From -- ./inp_files/69771.got.cif
#   From: 2010.05.17/outbox.cif.g08.bks.cpg/sg11_35_cif.got.tgz:69771.got - 2010.06.03 12:22:45.
