data_PCOD9162106
_publ_section_title
;
Structure prediction by ZEFSAII (Michael W. Deem and Ramdas Pophale) SiO2 
 PCOD9162106
Probable space group: P 21/M
;
_chemical_formula_sum "Si O2"
_cell_formula_units_Z 32
_cell_length_a 14.794540
_cell_length_b 8.648254
_cell_length_c 24.211220
_cell_angle_alpha 90.000000
_cell_angle_beta 147.755568
_cell_angle_gamma 90.000000
_cell_volume 1652.750565
_symmetry_space_group_name_H-M "P 21/M"
_symmetry_group_IT_number 11
_symmetry_cell_setting 'monoclinic'
loop_
_space_group_symop_operation_xyz
x,y,z
-x,1/2+y,-z
-x,-y,-z
x,1/2-y,z
loop_
_atom_site_type_symbol
_atom_site_label
_atom_site_fract_x
_atom_site_fract_y
_atom_site_fract_z
Si Si1 0.524098 0.064804 0.951330
Si Si2 0.212336 0.562872 0.720140
Si Si3 0.477253 0.063094 0.549445
Si Si4 0.200469 0.934908 0.209820
Si Si5 0.154032 0.565114 0.953791
Si Si6 0.693967 0.434957 0.354444
Si Si7 0.837885 0.564006 0.541913
Si Si8 0.706811 0.565541 0.859751
O O1 0.523480 0.250000 0.952667
O O2 0.701234 0.015474 0.014670
O O3 0.370175 0.006899 0.833909
O O4 0.500000 0.000000 0.000000
O O5 0.224062 0.750000 0.729241
O O6 0.223961 0.519869 0.661529
O O7 0.030930 0.511966 0.650177
O O8 0.475299 0.250000 0.546663
O O9 0.634367 0.017077 0.669853
O O10 0.301994 0.008418 0.486762
O O11 0.500000 0.000000 0.500000
O O12 0.202195 0.750000 0.205026
O O13 0.209559 0.008980 0.153740
O O14 0.028064 0.988699 0.149633
O O15 0.137327 0.750000 0.942815
O O16 0.216735 0.515650 0.047048
O O17 0.711539 0.250000 0.369920
O O18 0.776814 0.515829 0.449584
O O19 0.493656 0.470056 0.247795
O O20 0.839172 0.750000 0.545013
O O21 0.727330 0.750000 0.876144
#
# Coordination Sequence:
#
# PCOD9162106 Si02
#       8
#     4   4   4   4   4   4   4   4
#     4  11  25  43  64  87 117 157 201 250 300 353
#     4  10  21  39  62  90 123 156 194 242 297 354
#     4  10  23  41  60  84 114 154 199 243 293 343
#     4  11  23  40  62  89 122 159 198 245 297 355
#     4  11  24  41  62  90 120 156 199 245 299 356
#     4  10  20  34  58  91 123 156 193 238 293 351
#     4  10  21  38  61  88 121 157 194 241 294 353
#     4  11  21  36  61  91 123 159 195 242 297 353
#
# _framework density 19.361663
#
# number of rings (size 3 to 8) (size 9 to 14) (size 15 to 20)
#    0.000    1.500    2.500    2.250    0.000    5.500 
#    0.000    3.750    0.000    0.000    0.000    0.000 
#    0.000    0.000    0.000    0.000    0.000    0.000 
#
# Total GULP energy -178890.497558 kJ/mol
# GULP energy per Si atom -5590.328049 kJ/mol
# Density = 1.931760 g / cm^3
# Si number density = 19.361663 Si / 1000 Ang^3
#
#
#
# Elastic Constant Matrix: (Units=GPa)
#
#
# Indices 1 2 3 4 5 6 
#
# 1 164.2369 18.1778 55.8381 0.0000 18.2015 0.0000
# 2 18.1778 9.1577 5.2822 0.0000 9.5098 0.0000
# 3 55.8381 5.2822 29.4351 0.0000 28.7772 0.0000
# 4 0.0000 0.0000 0.0000 29.4433 0.0000 -4.9487
# 5 18.2015 9.5098 28.7772 0.0000 39.3724 0.0000
# 6 0.0000 0.0000 0.0000 -4.9487 0.0000 30.1325
#
#
#
# Elastic Compliance Matrix: (Units=1/GPa)
#
#
# Indices 1 2 3 4 5 6 
#
# 1 -0.007397 0.025183 0.042451 0.000000 -0.033690 0.000000
# 2 0.025183 0.067422 -0.114102 0.000000 0.055470 0.000000
# 3 0.042451 -0.114102 -0.118545 0.000000 0.094580 0.000000
# 4 0.000000 0.000000 0.000000 0.034928 0.000000 0.005736
# 5 -0.033690 0.055470 0.094580 0.000000 -0.041553 0.000000
# 6 0.000000 0.000000 0.000000 0.005736 0.000000 0.034129
#
#
# Mechanical properties :
#
#
# Convention : Reuss Voigt Hill
#
# Bulk Modulus (GPa) = -6.60254 40.15844 16.77795
# Shear Modulus (GPa) = 437.35557 28.02506 232.69032
#
# Velocity S-wave (km/s) = 15.04586 3.80867 10.97460
# Velocity P-wave (km/s) = 17.27482 6.33463 13.01052
#
# Compressibility (1/GPa) = -0.15145676
#
# Stress axis : x y z
#
# Youngs Moduli (GPa) = -135.18213 14.83203 -8.43558
#
# Poissons Ratio (x) = -0.37352 0.35810
# Poissons Ratio (y) = 3.40431 -0.96251
# Poissons Ratio (z) = 5.73858 1.69236
#
# Static dielectric constant tensor:
#      x y z
#    x 1.669650 0.000000 0.034930 
#    y 0.000000 1.652390 0.000000 
#    z 0.034930 0.000000 1.654190 
# 
# From -- ./inp_files/69157.got.cif
#   From: 2010.05.17/outbox.cif.g08.bks.cpg/sg11_35_cif.got.tgz:69157.got - 2010.06.03 12:22:45.
