data_PCOD9162313
_publ_section_title
;
Structure prediction by ZEFSAII (Michael W. Deem and Ramdas Pophale) SiO2 
 PCOD9162313
Probable space group: P 21/M
;
_chemical_formula_sum "Si O2"
_cell_formula_units_Z 22
_cell_length_a 9.233163
_cell_length_b 8.227853
_cell_length_c 16.386428
_cell_angle_alpha 90.000000
_cell_angle_beta 85.432656
_cell_angle_gamma 90.000000
_cell_volume 1240.909165
_symmetry_space_group_name_H-M "P 21/M"
_symmetry_group_IT_number 11
_symmetry_cell_setting 'monoclinic'
loop_
_space_group_symop_operation_xyz
x,y,z
-x,1/2+y,-z
-x,-y,-z
x,1/2-y,z
loop_
_atom_site_type_symbol
_atom_site_label
_atom_site_fract_x
_atom_site_fract_y
_atom_site_fract_z
Si Si1 0.296659 0.427989 0.313517
Si Si2 0.483884 0.750000 0.113442
Si Si3 0.184962 0.250000 0.664457
Si Si4 0.983703 0.750000 0.160185
Si Si5 0.236739 0.002049 0.131578
Si Si6 0.210446 0.250000 0.990841
Si Si7 0.978401 0.057290 0.408020
Si Si8 0.514759 0.250000 0.691396
O O1 0.352802 0.250000 0.338807
O O2 0.281559 0.421380 0.215979
O O3 0.393398 0.585771 0.330290
O O4 0.135776 0.449949 0.357417
O O5 0.378508 0.900312 0.100289
O O6 0.630399 0.750000 0.056514
O O7 0.511924 0.750000 0.209436
O O8 0.127415 0.250000 0.760202
O O9 0.122927 0.417165 0.627411
O O10 0.359255 0.250000 0.655190
O O11 0.902335 0.750000 0.077710
O O12 0.094807 0.898996 0.160218
O O13 0.195503 0.102880 0.054328
O O14 0.931481 0.250000 0.405904
O O15 0.000000 0.000000 0.500000
#
# Coordination Sequence:
#
# PCOD9162313 Si02
#       8
#     4   2   2   2   4   2   4   2
#     4  10  20  39  64  89 118 162 210 244 297 370
#     4   9  20  35  54  80 110 155 202 243 297 357
#     4  12  22  42  64  91 130 159 199 259 308 363
#     4  11  22  37  54  81 121 157 197 252 314 354
#     4  10  20  35  55  80 112 158 199 249 300 350
#     4  12  20  34  55  83 116 151 205 252 301 357
#     4  11  23  40  71  98 119 157 206 251 299 367
#     4  10  22  38  63  87 125 168 195 248 318 357
#
# _framework density 17.728936000000001
#
# number of rings (size 3 to 8) (size 9 to 14) (size 15 to 20)
#    0.000    1.455    4.545    2.182    0.000    0.727 
#    0.000    0.909    0.000    0.000    0.000    0.000 
#    0.000    0.000    0.000    0.000    0.000    0.000 
#
# Total GULP energy -122559.698705 kJ/mol
# GULP energy per Si atom -5570.895396 kJ/mol
# Density = 1.768858 g / cm^3
# Si number density = 17.728936 Si / 1000 Ang^3
#
#
#
# Elastic Constant Matrix: (Units=GPa)
#
#
# Indices 1 2 3 4 5 6 
#
# 1 99.8960 72.1032 13.4591 0.0000 7.8562 0.0000
# 2 72.1032 160.8874 33.5995 0.0000 9.7039 0.0000
# 3 13.4591 33.5995 48.3267 0.0000 4.8092 0.0000
# 4 0.0000 0.0000 0.0000 70.5582 0.0000 -1.0296
# 5 7.8562 9.7039 4.8092 0.0000 12.7776 0.0000
# 6 0.0000 0.0000 0.0000 -1.0296 0.0000 22.4404
#
#
#
# Elastic Compliance Matrix: (Units=1/GPa)
#
#
# Indices 1 2 3 4 5 6 
#
# 1 0.015053 -0.006658 0.000888 0.000000 -0.004533 0.000000
# 2 -0.006658 0.010394 -0.005189 0.000000 -0.001847 0.000000
# 3 0.000888 -0.005189 0.024638 0.000000 -0.005878 0.000000
# 4 0.000000 0.000000 0.000000 0.014182 0.000000 0.000651
# 5 -0.004533 -0.001847 -0.005878 0.000000 0.084664 0.000000
# 6 0.000000 0.000000 0.000000 0.000651 0.000000 0.044592
#
#
# Mechanical properties :
#
#
# Convention : Reuss Voigt Hill
#
# Bulk Modulus (GPa) = 35.50218 60.82598 48.16408
# Shear Modulus (GPa) = 22.23894 33.81846 28.02870
#
# Velocity S-wave (km/s) = 3.54557 4.37227 3.98044
# Velocity P-wave (km/s) = 6.06877 7.73772 6.95350
#
# Compressibility (1/GPa) = 0.02816728
#
# Stress axis : x y z
#
# Youngs Moduli (GPa) = 66.43181 96.20488 40.58830
#
# Poissons Ratio (x) = 0.64055 -0.03604
# Poissons Ratio (y) = 0.44232 0.21060
# Poissons Ratio (z) = -0.05899 0.49918
#
# Static dielectric constant tensor:
#      x y z
#    x 1.559260 0.000000 0.003300 
#    y 0.000000 1.644390 0.000000 
#    z 0.003300 0.000000 1.577650 
# 
# From -- ./inp_files/20464.got.cif
#   From: 2010.05.17/outbox.cif.g08.bks.cpg/sg11_11_cif.got.tgz:20464.got - 2010.06.03 12:22:45.
