data_PCOD9162063
_publ_section_title
;
Structure prediction by ZEFSAII (Michael W. Deem and Ramdas Pophale) SiO2 
 PCOD9162063
Probable space group: P 21/M
;
_chemical_formula_sum "Si O2"
_cell_formula_units_Z 32
_cell_length_a 5.630729
_cell_length_b 13.033357
_cell_length_c 21.565591
_cell_angle_alpha 90.000000
_cell_angle_beta 71.289514
_cell_angle_gamma 90.000000
_cell_volume 1499.000479
_symmetry_space_group_name_H-M "P 21/M"
_symmetry_group_IT_number 11
_symmetry_cell_setting 'monoclinic'
loop_
_space_group_symop_operation_xyz
x,y,z
-x,1/2+y,-z
-x,-y,-z
x,1/2-y,z
loop_
_atom_site_type_symbol
_atom_site_label
_atom_site_fract_x
_atom_site_fract_y
_atom_site_fract_z
Si Si1 0.195311 0.867305 0.321022
Si Si2 0.604275 0.634653 0.805649
Si Si3 0.251506 0.943994 0.044994
Si Si4 0.637604 0.993192 0.270829
Si Si5 0.120600 0.938154 0.185105
Si Si6 0.104329 0.860324 0.931008
Si Si7 0.365602 0.629651 0.619944
Si Si8 0.056897 0.041501 0.427112
O O1 0.134642 0.750000 0.338559
O O2 0.166784 0.888915 0.249108
O O3 0.483355 0.898152 0.310181
O O4 0.060317 0.946063 0.378430
O O5 0.694452 0.750000 0.789174
O O6 0.535071 0.577459 0.748022
O O7 0.798171 0.557230 0.819338
O O8 0.356302 0.636410 0.869046
O O9 0.258216 0.895292 0.113109
O O10 0.173258 0.866611 0.997801
O O11 0.052513 0.037047 0.066212
O O12 0.500000 0.000000 0.000000
O O13 0.756431 0.060462 0.315155
O O14 0.822375 0.943904 0.205477
O O15 0.977133 0.750000 0.927962
O O16 0.365553 0.750000 0.634520
O O17 0.660398 0.592202 0.593239
O O18 0.177671 0.610458 0.577561
O O19 0.000000 0.000000 0.500000
#
# Coordination Sequence:
#
# PCOD9162063 Si02
#       8
#     4   4   4   4   4   4   4   4
#     4  10  24  43  65  92 128 175 222 266 318 384
#     4  10  20  34  57  88 118 152 199 255 325 393
#     4  11  22  38  58  81 117 156 198 263 322 377
#     4  10  21  40  59  91 127 165 209 267 320 388
#     4  11  21  39  61  87 119 160 210 264 323 386
#     4  10  22  37  55  82 112 149 200 253 318 392
#     4  11  23  42  69 104 140 175 219 274 339 398
#     4  11  24  46  70 104 144 179 224 279 326 398
#
# _framework density 21.347559
#
# number of rings (size 3 to 8) (size 9 to 14) (size 15 to 20)
#    0.000    1.500    3.750    1.125    0.000    4.000 
#    0.000    1.250    0.000    0.000    0.000    0.000 
#    0.000    0.000    0.000    0.000    0.000    0.000 
#
# Total GULP energy -178331.373497 kJ/mol
# GULP energy per Si atom -5572.855422 kJ/mol
# Density = 2.129897 g / cm^3
# Si number density = 21.347559 Si / 1000 Ang^3
#
#
#
# Elastic Constant Matrix: (Units=GPa)
#
#
# Indices 1 2 3 4 5 6 
#
# 1 55.2860 21.7320 18.5415 0.0000 4.7909 0.0000
# 2 21.7320 92.0947 9.1294 0.0000 -2.7814 0.0000
# 3 18.5415 9.1294 112.7317 0.0000 10.3616 0.0000
# 4 0.0000 0.0000 0.0000 16.4992 0.0000 2.8456
# 5 4.7909 -2.7814 10.3616 0.0000 35.7624 0.0000
# 6 0.0000 0.0000 0.0000 2.8456 0.0000 15.3476
#
#
#
# Elastic Compliance Matrix: (Units=1/GPa)
#
#
# Indices 1 2 3 4 5 6 
#
# 1 0.021133 -0.004774 -0.002871 0.000000 -0.002370 0.000000
# 2 -0.004774 0.012070 -0.000347 0.000000 0.001679 0.000000
# 3 -0.002871 -0.000347 0.009594 0.000000 -0.002422 0.000000
# 4 0.000000 0.000000 0.000000 0.062611 0.000000 -0.011609
# 5 -0.002370 0.001679 -0.002422 0.000000 0.029112 0.000000
# 6 0.000000 0.000000 0.000000 -0.011609 0.000000 0.067309
#
#
# Mechanical properties :
#
#
# Convention : Reuss Voigt Hill
#
# Bulk Modulus (GPa) = 37.29558 39.87979 38.58768
# Shear Modulus (GPa) = 22.05080 27.56915 24.80997
#
# Velocity S-wave (km/s) = 3.21743 3.59756 3.41279
# Velocity P-wave (km/s) = 5.59563 5.99820 5.80041
#
# Compressibility (1/GPa) = 0.02681283
#
# Stress axis : x y z
#
# Youngs Moduli (GPa) = 47.32029 82.85058 104.23674
#
# Poissons Ratio (x) = 0.39550 0.29930
# Poissons Ratio (y) = 0.22589 0.03613
# Poissons Ratio (z) = 0.13587 0.02872
#
# Static dielectric constant tensor:
#      x y z
#    x 1.870970 0.000000 0.007530 
#    y 0.000000 1.774790 0.000000 
#    z 0.007530 0.000000 1.839790 
# 
# From -- ./inp_files/67619.got.cif
#   From: 2010.05.17/outbox.cif.g08.bks.cpg/sg11_34_cif.got.tgz:67619.got - 2010.06.03 12:22:45.
