data_PCOD9162547
_publ_section_title
;
Structure prediction by ZEFSAII (Michael W. Deem and Ramdas Pophale) SiO2 
 PCOD9162547
Probable space group: P 21/M
;
_chemical_formula_sum "Si O2"
_cell_formula_units_Z 32
_cell_length_a 13.286050
_cell_length_b 8.803911
_cell_length_c 30.188598
_cell_angle_alpha 90.000000
_cell_angle_beta 28.273764
_cell_angle_gamma 90.000000
_cell_volume 1672.646202
_symmetry_space_group_name_H-M "P 21/M"
_symmetry_group_IT_number 11
_symmetry_cell_setting 'monoclinic'
loop_
_space_group_symop_operation_xyz
x,y,z
-x,1/2+y,-z
-x,-y,-z
x,1/2-y,z
loop_
_atom_site_type_symbol
_atom_site_label
_atom_site_fract_x
_atom_site_fract_y
_atom_site_fract_z
Si Si1 0.937541 0.067868 0.388482
Si Si2 0.763484 0.430826 0.216972
Si Si3 0.581076 0.067956 0.904143
Si Si4 0.620754 0.431506 0.784593
Si Si5 0.210109 0.932882 0.895963
Si Si6 0.508114 0.068083 0.606385
Si Si7 0.833940 0.430216 0.889944
Si Si8 0.713414 0.932523 0.395490
O O1 0.943312 0.250000 0.384854
O O2 0.734982 0.022187 0.497400
O O3 0.159394 0.000329 0.318527
O O4 0.894241 0.004469 0.355741
O O5 0.757461 0.250000 0.220386
O O6 0.779994 0.479090 0.159495
O O7 0.558258 0.494686 0.321957
O O8 0.969125 0.487589 0.163949
O O9 0.542448 0.250000 0.923754
O O10 0.612831 0.035417 0.840348
O O11 0.778495 0.032233 0.860191
O O12 0.377938 0.978370 0.001334
O O13 0.618017 0.250000 0.780155
O O14 0.417400 0.504843 0.840358
O O15 0.203929 0.750000 0.900771
O O16 0.000000 0.000000 0.000000
O O17 0.511242 0.250000 0.609391
O O18 0.323577 0.031040 0.641700
O O19 0.869140 0.250000 0.878981
O O20 0.721922 0.750000 0.396242
O O21 0.500000 0.000000 0.500000
#
# Coordination Sequence:
#
# PCOD9162547 Si02
#       8
#     4   4   4   4   4   4   4   4
#     4  10  21  37  57  86 122 160 201 247 295 351
#     4  11  24  39  59  87 118 152 197 248 297 353
#     4   9  20  37  55  82 119 152 187 237 292 350
#     4  11  23  39  62  89 118 156 201 248 299 356
#     4  11  25  45  66  90 119 152 197 253 303 357
#     4   9  20  37  57  83 119 159 201 246 292 347
#     4  10  20  35  57  84 117 154 189 233 293 358
#     4   9  17  31  52  80 116 157 199 243 289 342
#
# _framework density 19.131361999999999
#
# number of rings (size 3 to 8) (size 9 to 14) (size 15 to 20)
#    0.000    2.000    0.000    3.750    1.750    9.500 
#    0.000    0.625    0.000    0.000    0.000    0.000 
#    0.000    0.000    0.000    0.000    0.000    0.000 
#
# Total GULP energy -178704.534416 kJ/mol
# GULP energy per Si atom -5584.516700 kJ/mol
# Density = 1.908782 g / cm^3
# Si number density = 19.131362 Si / 1000 Ang^3
#
#
#
# Elastic Constant Matrix: (Units=GPa)
#
#
# Indices 1 2 3 4 5 6 
#
# 1 135.1814 52.7613 87.6308 0.0000 3.1303 0.0000
# 2 52.7613 44.4720 46.1784 0.0000 5.7201 0.0000
# 3 87.6308 46.1784 130.1643 0.0000 -2.0425 0.0000
# 4 0.0000 0.0000 0.0000 31.4591 0.0000 -3.5104
# 5 3.1303 5.7201 -2.0425 0.0000 38.5430 0.0000
# 6 0.0000 0.0000 0.0000 -3.5104 0.0000 30.8878
#
#
#
# Elastic Compliance Matrix: (Units=1/GPa)
#
#
# Indices 1 2 3 4 5 6 
#
# 1 0.016819 -0.013025 -0.006699 0.000000 0.000212 0.000000
# 2 -0.013025 0.047110 -0.008044 0.000000 -0.006360 0.000000
# 3 -0.006699 -0.008044 0.015086 0.000000 0.002537 0.000000
# 4 0.000000 0.000000 0.000000 0.032196 0.000000 0.003659
# 5 0.000212 -0.006360 0.002537 0.000000 0.027006 0.000000
# 6 0.000000 0.000000 0.000000 0.003659 0.000000 0.032791
#
#
# Mechanical properties :
#
#
# Convention : Reuss Voigt Hill
#
# Bulk Modulus (GPa) = 42.59160 75.88431 59.23796
# Shear Modulus (GPa) = 21.33391 28.39446 24.86418
#
# Velocity S-wave (km/s) = 3.34298 3.85669 3.60898
# Velocity P-wave (km/s) = 6.10014 7.71901 6.95682
#
# Compressibility (1/GPa) = 0.02347881
#
# Stress axis : x y z
#
# Youngs Moduli (GPa) = 59.45800 21.22700 66.28746
#
# Poissons Ratio (x) = 0.27649 0.44403
# Poissons Ratio (y) = 0.77446 0.53321
# Poissons Ratio (z) = 0.39828 0.17075
#
# Static dielectric constant tensor:
#      x y z
#    x 1.665000 0.000000 0.009580 
#    y 0.000000 1.634720 0.000000 
#    z 0.009580 0.000000 1.664070 
# 
# From -- ./inp_files/49377.got.cif
#   From: 2010.05.17/outbox.cif.g08.bks.cpg/sg11_25_cif.got.tgz:49377.got - 2010.06.03 12:22:45.
