data_PCOD9162249
_publ_section_title
;
Structure prediction by ZEFSAII (Michael W. Deem and Ramdas Pophale) SiO2 
 PCOD9162249
Probable space group: P 21/M
;
_chemical_formula_sum "Si O2"
_cell_formula_units_Z 28
_cell_length_a 12.405055
_cell_length_b 7.662709
_cell_length_c 16.085603
_cell_angle_alpha 90.000000
_cell_angle_beta 56.088224
_cell_angle_gamma 90.000000
_cell_volume 1268.945295
_symmetry_space_group_name_H-M "P 21/M"
_symmetry_group_IT_number 11
_symmetry_cell_setting 'monoclinic'
loop_
_space_group_symop_operation_xyz
x,y,z
-x,1/2+y,-z
-x,-y,-z
x,1/2-y,z
loop_
_atom_site_type_symbol
_atom_site_label
_atom_site_fract_x
_atom_site_fract_y
_atom_site_fract_z
Si Si1 0.142701 0.954403 0.649349
Si Si2 0.597596 0.040076 0.383649
Si Si3 0.136465 0.043368 0.179977
Si Si4 0.865343 0.042292 0.012304
Si Si5 0.851569 0.542180 0.540714
Si Si6 0.334861 0.036738 0.227936
Si Si7 0.591933 0.463681 0.200624
O O1 0.134077 0.750000 0.675538
O O2 0.259853 0.029370 0.653156
O O3 0.999910 0.030895 0.726885
O O4 0.177130 0.967280 0.537619
O O5 0.605441 0.250000 0.376051
O O6 0.557371 0.980261 0.309285
O O7 0.500000 0.000000 0.500000
O O8 0.134536 0.250000 0.199325
O O9 0.261475 0.975316 0.176388
O O10 0.138349 0.020797 0.080847
O O11 0.856136 0.250000 0.013882
O O12 0.736555 0.977157 0.114917
O O13 0.000000 0.000000 0.000000
O O14 0.837911 0.750000 0.540317
O O15 0.756079 0.483951 0.655145
O O16 0.000000 0.500000 0.500000
O O17 0.339041 0.250000 0.225237
O O18 0.481032 0.978263 0.184078
O O19 0.592220 0.250000 0.199834
#
# Coordination Sequence:
#
# PCOD9162249 Si02
#       7
#     4   4   4   4   4   4   4
#     4  10  20  35  54  80 114 154 193 234 286 337
#     4  10  20  35  56  80 112 149 188 233 281 335
#     4  10  20  37  59  83 113 148 187 232 283 338
#     4  11  23  40  62  86 111 144 189 237 284 337
#     4  11  20  33  55  83 115 152 190 231 278 336
#     4   9  18  34  57  83 113 151 190 226 278 343
#     4   9  19  37  59  82 111 150 189 228 279 338
#
# _framework density 22.065567000000001
#
# number of rings (size 3 to 8) (size 9 to 14) (size 15 to 20)
#    0.000    2.000    1.429    2.571    0.000    5.143 
#    0.000    2.857    0.000    5.143    0.000    0.000 
#    0.000    0.000    0.000    0.000    0.000    0.000 
#
# Total GULP energy -156429.733834 kJ/mol
# GULP energy per Si atom -5586.776208 kJ/mol
# Density = 2.201534 g / cm^3
# Si number density = 22.065567 Si / 1000 Ang^3
#
#
#
# Elastic Constant Matrix: (Units=GPa)
#
#
# Indices 1 2 3 4 5 6 
#
# 1 213.6075 3.1362 72.6081 0.0000 2.9454 0.0000
# 2 3.1362 34.8992 -13.0351 0.0000 -7.7204 0.0000
# 3 72.6081 -13.0351 98.5678 0.0000 2.1296 0.0000
# 4 0.0000 0.0000 0.0000 24.2588 0.0000 5.8241
# 5 2.9454 -7.7204 2.1296 0.0000 36.3706 0.0000
# 6 0.0000 0.0000 0.0000 5.8241 0.0000 11.0892
#
#
#
# Elastic Compliance Matrix: (Units=1/GPa)
#
#
# Indices 1 2 3 4 5 6 
#
# 1 0.006464 -0.002659 -0.005096 0.000000 -0.000789 0.000000
# 2 -0.002659 0.032687 0.006134 0.000000 0.006795 0.000000
# 3 -0.005096 0.006134 0.014692 0.000000 0.000855 0.000000
# 4 0.000000 0.000000 0.000000 0.047170 0.000000 -0.024774
# 5 -0.000789 0.006795 0.000855 0.000000 0.028951 0.000000
# 6 0.000000 0.000000 0.000000 -0.024774 0.000000 0.103189
#
#
# Mechanical properties :
#
#
# Convention : Reuss Voigt Hill
#
# Bulk Modulus (GPa) = 19.76194 52.49923 36.13059
# Shear Modulus (GPa) = 19.74254 33.30141 26.52197
#
# Velocity S-wave (km/s) = 2.99443 3.88906 3.47069
# Velocity P-wave (km/s) = 4.57504 6.63403 5.69831
#
# Compressibility (1/GPa) = 0.05060231
#
# Stress axis : x y z
#
# Youngs Moduli (GPa) = 154.71405 30.59298 68.06515
#
# Poissons Ratio (x) = 0.08134 0.34685
# Poissons Ratio (y) = 0.41135 -0.41754
# Poissons Ratio (z) = 0.78839 -0.18767
#
# Static dielectric constant tensor:
#      x y z
#    x 1.810250 0.000000 -0.023360 
#    y 0.000000 1.841820 0.000000 
#    z -0.023360 0.000000 1.766330 
# 
# From -- ./inp_files/37317.got.cif
#   From: 2010.05.17/outbox.cif.g08.bks.cpg/sg11_19_cif.got.tgz:37317.got - 2010.06.03 12:22:45.
