data_PCOD9162498
_publ_section_title
;
Structure prediction by ZEFSAII (Michael W. Deem and Ramdas Pophale) SiO2 
 PCOD9162498
Probable space group: P 21/M
;
_chemical_formula_sum "Si O2"
_cell_formula_units_Z 24
_cell_length_a 15.665792
_cell_length_b 19.597488
_cell_length_c 8.717057
_cell_angle_alpha 90.000000
_cell_angle_beta 153.971202
_cell_angle_gamma 90.000000
_cell_volume 1174.388733
_symmetry_space_group_name_H-M "P 21/M"
_symmetry_group_IT_number 11
_symmetry_cell_setting 'monoclinic'
loop_
_space_group_symop_operation_xyz
x,y,z
-x,1/2+y,-z
-x,-y,-z
x,1/2-y,z
loop_
_atom_site_type_symbol
_atom_site_label
_atom_site_fract_x
_atom_site_fract_y
_atom_site_fract_z
Si Si1 0.986673 0.577512 0.920400
Si Si2 0.821547 0.425981 0.079354
Si Si3 0.757809 0.925980 0.079358
Si Si4 0.166280 0.327403 0.079803
Si Si5 0.586473 0.172597 0.920189
Si Si6 0.433725 0.077512 0.920395
O O1 0.982141 0.629152 0.055483
O O2 0.778033 0.584567 0.500002
O O3 0.148232 0.589350 0.051059
O O4 0.000000 0.500000 0.000000
O O5 0.724411 0.500000 0.948823
O O6 0.036929 0.430926 0.499999
O O7 0.710337 0.368912 0.995817
O O8 0.597175 0.910650 0.948947
O O9 0.785484 0.868912 0.995824
O O10 0.101720 0.250000 0.946467
O O11 0.368402 0.324248 0.499996
O O12 0.655250 0.250000 0.053525
O O13 0.573340 0.129152 0.055476
O O14 0.500000 0.000000 0.000000
#
# Coordination Sequence:
#
# PCOD9162498 Si02
#       6
#     4   4   4   4   4   4
#     4  10  20  35  57  82 110 144 183 226 271 326
#     4  10  20  35  57  85 111 141 185 229 272 326
#     4  10  20  35  57  85 111 141 185 229 272 326
#     4  10  22  38  55  80 113 147 183 225 276 330
#     4  10  22  38  55  80 113 147 183 225 276 330
#     4  10  20  35  57  82 110 144 183 226 271 326
#
# _framework density 20.436163000000001
#
# number of rings (size 3 to 8) (size 9 to 14) (size 15 to 20)
#    0.000    2.000    3.333    0.000    0.000    4.000 
#    0.000    3.333    0.000    0.000    0.000    0.000 
#    0.000    0.000    0.000    0.000    0.000    0.000 
#
# Total GULP energy -134058.352001 kJ/mol
# GULP energy per Si atom -5585.764667 kJ/mol
# Density = 2.038965 g / cm^3
# Si number density = 20.436163 Si / 1000 Ang^3
#
#
#
# Elastic Constant Matrix: (Units=GPa)
#
#
# Indices 1 2 3 4 5 6 
#
# 1 251.9091 138.1648 6.7540 0.0000 7.5210 0.0000
# 2 138.1648 208.0142 -2.2528 0.0000 5.0669 0.0000
# 3 6.7540 -2.2528 35.5585 0.0000 0.2849 0.0000
# 4 0.0000 0.0000 0.0000 20.6537 0.0000 0.5147
# 5 7.5210 5.0669 0.2849 0.0000 18.6277 0.0000
# 6 0.0000 0.0000 0.0000 0.5147 0.0000 34.9202
#
#
#
# Elastic Compliance Matrix: (Units=1/GPa)
#
#
# Indices 1 2 3 4 5 6 
#
# 1 0.006356 -0.004204 -0.001462 0.000000 -0.001401 0.000000
# 2 -0.004204 0.007623 0.001285 0.000000 -0.000396 0.000000
# 3 -0.001462 0.001285 0.028483 0.000000 -0.000195 0.000000
# 4 0.000000 0.000000 0.000000 0.048435 0.000000 -0.000714
# 5 -0.001401 -0.000396 -0.000195 0.000000 0.054360 0.000000
# 6 0.000000 0.000000 0.000000 -0.000714 0.000000 0.028647
#
#
# Mechanical properties :
#
#
# Convention : Reuss Voigt Hill
#
# Bulk Modulus (GPa) = 29.67385 86.75709 58.21547
# Shear Modulus (GPa) = 25.78638 38.36138 32.07388
#
# Velocity S-wave (km/s) = 3.55604 4.33729 3.96595
# Velocity P-wave (km/s) = 5.60467 8.22360 7.03704
#
# Compressibility (1/GPa) = 0.03369970
#
# Stress axis : x y z
#
# Youngs Moduli (GPa) = 157.32502 131.18205 35.10823
#
# Poissons Ratio (x) = 0.55144 0.05134
# Poissons Ratio (y) = 0.66133 -0.04510
# Poissons Ratio (z) = 0.23007 -0.16851
#
# Static dielectric constant tensor:
#      x y z
#    x 1.726890 0.000000 -0.001710 
#    y 0.000000 1.685630 0.000000 
#    z -0.001710 0.000000 1.774230 
# 
# From -- ./inp_files/13116.got.cif
#   From: 2010.05.17/outbox.cif.g08.bks.cpg/sg11_7_cif.got.tgz:13116.got - 2010.06.03 12:22:45.
