data_PCOD9162088
_publ_section_title
;
Structure prediction by ZEFSAII (Michael W. Deem and Ramdas Pophale) SiO2 
 PCOD9162088
Probable space group: P 21/M
;
_chemical_formula_sum "Si O2"
_cell_formula_units_Z 28
_cell_length_a 9.042662
_cell_length_b 19.363280
_cell_length_c 13.329103
_cell_angle_alpha 90.000000
_cell_angle_beta 29.376244
_cell_angle_gamma 90.000000
_cell_volume 1144.861042
_symmetry_space_group_name_H-M "P 21/M"
_symmetry_group_IT_number 11
_symmetry_cell_setting 'monoclinic'
loop_
_space_group_symop_operation_xyz
x,y,z
-x,1/2+y,-z
-x,-y,-z
x,1/2-y,z
loop_
_atom_site_type_symbol
_atom_site_label
_atom_site_fract_x
_atom_site_fract_y
_atom_site_fract_z
Si Si1 0.395098 0.622844 0.371520
Si Si2 0.829500 0.871297 0.302539
Si Si3 0.642213 0.080966 0.118951
Si Si4 0.137692 0.030652 0.545495
Si Si5 0.303639 0.675979 0.734475
Si Si6 0.880415 0.824603 0.788652
Si Si7 0.447364 0.436236 0.916627
O O1 0.646985 0.633892 0.307061
O O2 0.270876 0.545039 0.456896
O O3 0.112401 0.671240 0.559584
O O4 0.523747 0.623341 0.184382
O O5 0.779900 0.942431 0.392748
O O6 0.648495 0.824235 0.488707
O O7 0.182802 0.869800 0.063801
O O8 0.293346 0.074165 0.361747
O O9 0.761254 0.111480 0.154856
O O10 0.712951 0.003222 0.037863
O O11 0.781338 0.039091 0.747217
O O12 0.247868 0.750000 0.818843
O O13 0.097873 0.672333 0.757740
O O14 0.721750 0.750000 0.881905
O O15 0.698691 0.896048 0.904255
#
# Coordination Sequence:
#
# PCOD9162088 Si02
#       7
#     4   4   4   4   4   4   4
#     4  10  20  36  59  87 115 150 194 240 291 353
#     4  10  20  34  58  86 114 150 195 239 290 350
#     4  10  20  35  59  88 117 153 194 241 296 349
#     4  10  22  37  56  86 123 153 187 240 294 349
#     4   9  20  38  57  85 122 154 194 249 300 350
#     4  10  22  39  60  86 118 157 200 247 297 351
#     4  11  23  38  60  89 122 156 196 244 296 351
#
# _framework density 24.457118000000001
#
# number of rings (size 3 to 8) (size 9 to 14) (size 15 to 20)
#    0.000    2.000    0.000    3.857    0.000   12.000 
#    0.000    5.714    0.000    9.429    0.000    0.000 
#    0.000    0.000    0.000    0.000    0.000    0.000 
#
# Total GULP energy -156014.469871 kJ/mol
# GULP energy per Si atom -5571.945353 kJ/mol
# Density = 2.440145 g / cm^3
# Si number density = 24.457118 Si / 1000 Ang^3
#
#
#
# Elastic Constant Matrix: (Units=GPa)
#
#
# Indices 1 2 3 4 5 6 
#
# 1 28.7318 11.3057 -6.1447 0.0000 0.8151 0.0000
# 2 11.3057 68.8782 28.4565 0.0000 -20.0270 0.0000
# 3 -6.1447 28.4565 136.0192 0.0000 -5.7045 0.0000
# 4 0.0000 0.0000 0.0000 26.0644 0.0000 0.2563
# 5 0.8151 -20.0270 -5.7045 0.0000 22.1168 0.0000
# 6 0.0000 0.0000 0.0000 0.2563 0.0000 7.2044
#
#
#
# Elastic Compliance Matrix: (Units=1/GPa)
#
#
# Indices 1 2 3 4 5 6 
#
# 1 0.040351 -0.011291 0.003734 0.000000 -0.010748 0.000000
# 2 -0.011291 0.024567 -0.004751 0.000000 0.021437 0.000000
# 3 0.003734 -0.004751 0.008419 0.000000 -0.002268 0.000000
# 4 0.000000 0.000000 0.000000 0.038380 0.000000 -0.001365
# 5 -0.010748 0.021437 -0.002268 0.000000 0.064437 0.000000
# 6 0.000000 0.000000 0.000000 -0.001365 0.000000 0.138852
#
#
# Mechanical properties :
#
#
# Convention : Reuss Voigt Hill
#
# Bulk Modulus (GPa) = 20.52435 33.42936 26.97685
# Shear Modulus (GPa) = 14.05035 24.41126 19.23081
#
# Velocity S-wave (km/s) = 2.39945 3.16274 2.80716
# Velocity P-wave (km/s) = 4.01082 5.19956 4.64339
#
# Compressibility (1/GPa) = 0.04872263
#
# Stress axis : x y z
#
# Youngs Moduli (GPa) = 24.78244 40.70433 118.77338
#
# Poissons Ratio (x) = 0.45960 -0.44354
# Poissons Ratio (y) = 0.27982 0.56427
# Poissons Ratio (z) = -0.09255 0.19338
#
# Static dielectric constant tensor:
#      x y z
#    x 1.967890 0.000000 -0.005900 
#    y 0.000000 1.994430 0.000000 
#    z -0.005900 0.000000 2.013040 
# 
# From -- ./inp_files/53827.got.cif
#   From: 2010.05.17/outbox.cif.g08.bks.cpg/sg11_27_cif.got.tgz:53827.got - 2010.06.03 12:22:45.
