data_PCOD9162950
_publ_section_title
;
Structure prediction by ZEFSAII (Michael W. Deem and Ramdas Pophale) SiO2 
 PCOD9162950
Probable space group: P 21/M
;
_chemical_formula_sum "Si O2"
_cell_formula_units_Z 28
_cell_length_a 25.158033
_cell_length_b 7.663326
_cell_length_c 8.348514
_cell_angle_alpha 90.000000
_cell_angle_beta 136.736722
_cell_angle_gamma 90.000000
_cell_volume 1103.104613
_symmetry_space_group_name_H-M "P 21/M"
_symmetry_group_IT_number 11
_symmetry_cell_setting 'monoclinic'
loop_
_space_group_symop_operation_xyz
x,y,z
-x,1/2+y,-z
-x,-y,-z
x,1/2-y,z
loop_
_atom_site_type_symbol
_atom_site_label
_atom_site_fract_x
_atom_site_fract_y
_atom_site_fract_z
Si Si1 0.669920 0.039266 0.440744
Si Si2 0.902989 0.451327 0.453923
Si Si3 0.612416 0.963538 0.805076
Si Si4 0.814524 0.464807 0.945639
Si Si5 0.047364 0.554360 0.949287
Si Si6 0.474669 0.951578 0.711361
Si Si7 0.241558 0.043742 0.691872
O O1 0.665498 0.250000 0.437577
O O2 0.582605 0.971581 0.279790
O O3 0.713025 0.991481 0.372299
O O4 0.728495 0.978834 0.709896
O O5 0.922362 0.250000 0.467778
O O6 0.853527 0.521865 0.196580
O O7 0.983164 0.544712 0.668043
O O8 0.842589 0.461804 0.469326
O O9 0.608699 0.750000 0.789800
O O10 0.556097 0.025233 0.827410
O O11 0.577618 0.037799 0.565627
O O12 0.699146 0.017685 0.039214
O O13 0.813541 0.250000 0.947675
O O14 0.873959 0.531931 0.939064
O O15 0.070743 0.750000 0.031671
O O16 0.000000 0.500000 0.000000
O O17 0.489072 0.750000 0.782687
O O18 0.230975 0.250000 0.683694
#
# Coordination Sequence:
#
# PCOD9162950 Si02
#       7
#     4   4   4   4   4   4   4
#     4  10  20  36  57  81 109 144 187 231 274 325
#     4  11  22  39  61  83 108 143 187 232 278 327
#     4   9  19  35  54  79 112 146 183 230 279 328
#     4   9  20  37  58  82 109 142 183 229 272 320
#     4  11  22  38  59  86 118 150 184 224 273 327
#     4   9  18  34  57  82 108 143 187 230 274 328
#     4  11  23  37  53  79 114 148 183 227 279 332
#
# _framework density 25.382908
#
# number of rings (size 3 to 8) (size 9 to 14) (size 15 to 20)
#    0.000    2.000    0.000    3.429    0.000    4.571 
#    0.000    4.286    0.000    0.000    0.000    0.000 
#    0.000    0.000    0.000    0.000    0.000    0.000 
#
# Total GULP energy -156596.136970 kJ/mol
# GULP energy per Si atom -5592.719177 kJ/mol
# Density = 2.532514 g / cm^3
# Si number density = 25.382908 Si / 1000 Ang^3
#
#
#
# Elastic Constant Matrix: (Units=GPa)
#
#
# Indices 1 2 3 4 5 6 
#
# 1 116.7899 -1.6712 -0.7683 0.0000 17.9187 0.0000
# 2 -1.6712 61.5147 -0.1492 0.0000 1.5260 0.0000
# 3 -0.7683 -0.1492 74.6775 0.0000 13.3867 0.0000
# 4 0.0000 0.0000 0.0000 22.0789 0.0000 -4.5728
# 5 17.9187 1.5260 13.3867 0.0000 49.9676 0.0000
# 6 0.0000 0.0000 0.0000 -4.5728 0.0000 18.0140
#
#
#
# Elastic Compliance Matrix: (Units=1/GPa)
#
#
# Indices 1 2 3 4 5 6 
#
# 1 0.009104 0.000335 0.000716 0.000000 -0.003467 0.000000
# 2 0.000335 0.016282 0.000154 0.000000 -0.000659 0.000000
# 3 0.000716 0.000154 0.014124 0.000000 -0.004045 0.000000
# 4 0.000000 0.000000 0.000000 0.047805 0.000000 0.012135
# 5 -0.003467 -0.000659 -0.004045 0.000000 0.022360 0.000000
# 6 0.000000 0.000000 0.000000 0.012135 0.000000 0.058593
#
#
# Mechanical properties :
#
#
# Convention : Reuss Voigt Hill
#
# Bulk Modulus (GPa) = 23.85535 27.53387 25.69461
# Shear Modulus (GPa) = 27.80385 35.05015 31.42700
#
# Velocity S-wave (km/s) = 3.31324 3.72002 3.52251
# Velocity P-wave (km/s) = 4.90462 5.41501 5.16612
#
# Compressibility (1/GPa) = 0.04191932
#
# Stress axis : x y z
#
# Youngs Moduli (GPa) = 109.84464 61.41718 70.80282
#
# Poissons Ratio (x) = -0.02058 -0.05068
# Poissons Ratio (y) = -0.03680 -0.01091
# Poissons Ratio (z) = -0.07862 -0.00946
#
# Static dielectric constant tensor:
#      x y z
#    x 2.115960 0.000000 -0.048910 
#    y 0.000000 1.928030 0.000000 
#    z -0.048910 0.000000 1.997160 
# 
# From -- ./inp_files/28422.got.cif
#   From: 2010.05.17/outbox.cif.g08.bks.cpg/sg11_15_cif.got.tgz:28422.got - 2010.06.03 12:22:45.
