data_PCOD9162856
_publ_section_title
;
Structure prediction by ZEFSAII (Michael W. Deem and Ramdas Pophale) SiO2 
 PCOD9162856
Probable space group: P 21/M
;
_chemical_formula_sum "Si O2"
_cell_formula_units_Z 32
_cell_length_a 21.059045
_cell_length_b 7.521035
_cell_length_c 27.386998
_cell_angle_alpha 90.000000
_cell_angle_beta 18.929913
_cell_angle_gamma 90.000000
_cell_volume 1407.202813
_symmetry_space_group_name_H-M "P 21/M"
_symmetry_group_IT_number 11
_symmetry_cell_setting 'monoclinic'
loop_
_space_group_symop_operation_xyz
x,y,z
-x,1/2+y,-z
-x,-y,-z
x,1/2-y,z
loop_
_atom_site_type_symbol
_atom_site_label
_atom_site_fract_x
_atom_site_fract_y
_atom_site_fract_z
Si Si1 0.469935 0.036084 0.214191
Si Si2 0.846230 0.465223 0.318054
Si Si3 0.255060 0.540465 0.067285
Si Si4 0.731216 0.036758 0.834768
Si Si5 0.967339 0.536704 0.466523
Si Si6 0.485493 0.456645 0.635934
Si Si7 0.251482 0.462652 0.897549
Si Si8 0.809815 0.034202 0.234811
O O1 0.458025 0.250000 0.219029
O O2 0.252773 0.970134 0.384612
O O3 0.625461 0.995437 0.143229
O O4 0.559227 0.967585 0.097917
O O5 0.842175 0.250000 0.320711
O O6 0.693978 0.533735 0.468937
O O7 0.779445 0.522512 0.312819
O O8 0.065082 0.519154 0.171796
O O9 0.292133 0.750000 0.046784
O O10 0.212089 0.467650 0.152448
O O11 0.755557 0.250000 0.816408
O O12 0.865426 0.968218 0.692394
O O13 0.500000 0.000000 0.000000
O O14 0.965814 0.750000 0.462383
O O15 0.000000 0.500000 0.500000
O O16 0.520623 0.250000 0.622586
O O17 0.371246 0.536984 0.764591
O O18 0.347369 0.465505 0.689057
O O19 0.233873 0.250000 0.904560
O O20 0.028909 0.527340 0.061781
O O21 0.802779 0.250000 0.238276
#
# Coordination Sequence:
#
# PCOD9162856 Si02
#       8
#     4   4   4   4   4   4   4   4
#     4  10  21  37  58  84 114 149 190 234 280 334
#     4  10  21  37  55  80 113 147 187 233 282 337
#     4  10  21  37  58  84 114 149 190 234 280 334
#     4  10  22  40  62  90 122 154 192 236 282 338
#     4  10  22  40  62  90 122 154 192 236 282 338
#     4  10  22  36  54  80 111 144 185 236 285 338
#     4  10  21  37  55  80 113 147 187 233 282 337
#     4  10  20  36  56  78 107 146 189 234 281 336
#
# _framework density 22.74015
#
# number of rings (size 3 to 8) (size 9 to 14) (size 15 to 20)
#    0.000    2.000    1.250    1.500    1.750    4.500 
#    0.000    0.000    0.000    0.000    0.000    0.000 
#    0.000    0.000    0.000    0.000    0.000    0.000 
#
# Total GULP energy -178792.605390 kJ/mol
# GULP energy per Si atom -5587.268918 kJ/mol
# Density = 2.268839 g / cm^3
# Si number density = 22.740150 Si / 1000 Ang^3
#
#
#
# Elastic Constant Matrix: (Units=GPa)
#
#
# Indices 1 2 3 4 5 6 
#
# 1 71.2416 -17.1806 24.2998 0.0000 21.6425 0.0000
# 2 -17.1806 59.1809 -1.7274 0.0000 11.1059 0.0000
# 3 24.2998 -1.7274 158.4969 0.0000 26.6072 0.0000
# 4 0.0000 0.0000 0.0000 4.4737 0.0000 -8.2595
# 5 21.6425 11.1059 26.6072 0.0000 42.8350 0.0000
# 6 0.0000 0.0000 0.0000 -8.2595 0.0000 21.6539
#
#
#
# Elastic Compliance Matrix: (Units=1/GPa)
#
#
# Indices 1 2 3 4 5 6 
#
# 1 0.019726 0.007827 -0.001033 0.000000 -0.011354 0.000000
# 2 0.007827 0.021034 0.000679 0.000000 -0.009830 0.000000
# 3 -0.001033 0.000679 0.007164 0.000000 -0.004104 0.000000
# 4 0.000000 0.000000 0.000000 0.755728 0.000000 0.288260
# 5 -0.011354 -0.009830 -0.004104 0.000000 0.034180 0.000000
# 6 0.000000 0.000000 0.000000 0.288260 0.000000 0.156133
#
#
# Mechanical properties :
#
#
# Convention : Reuss Voigt Hill
#
# Bulk Modulus (GPa) = 15.90536 33.30035 24.60285
# Shear Modulus (GPa) = 5.00012 32.69436 18.84724
#
# Velocity S-wave (km/s) = 1.48445 3.79586 2.88203
# Velocity P-wave (km/s) = 3.15400 5.82126 4.68160
#
# Compressibility (1/GPa) = 0.06287188
#
# Stress axis : x y z
#
# Youngs Moduli (GPa) = 50.69445 47.54156 139.58635
#
# Poissons Ratio (x) = -0.37212 0.14418
# Poissons Ratio (y) = -0.39680 -0.09484
# Poissons Ratio (z) = 0.05236 -0.03230
#
# Static dielectric constant tensor:
#      x y z
#    x 1.809330 0.000000 0.038280 
#    y 0.000000 1.851030 0.000000 
#    z 0.038280 0.000000 1.851610 
# 
# From -- ./inp_files/72027.got.cif
#   From: 2010.05.17/outbox.cif.g08.bks.cpg/sg11_37_cif.got.tgz:72027.got - 2010.06.03 12:22:45.
