data_PCOD9162629
_publ_section_title
;
Structure prediction by ZEFSAII (Michael W. Deem and Ramdas Pophale) SiO2 
 PCOD9162629
Probable space group: P 21/M
;
_chemical_formula_sum "Si O2"
_cell_formula_units_Z 32
_cell_length_a 11.409341
_cell_length_b 17.811199
_cell_length_c 15.557649
_cell_angle_alpha 90.000000
_cell_angle_beta 155.201941
_cell_angle_gamma 90.000000
_cell_volume 1326.014271
_symmetry_space_group_name_H-M "P 21/M"
_symmetry_group_IT_number 11
_symmetry_cell_setting 'monoclinic'
loop_
_space_group_symop_operation_xyz
x,y,z
-x,1/2+y,-z
-x,-y,-z
x,1/2-y,z
loop_
_atom_site_type_symbol
_atom_site_label
_atom_site_fract_x
_atom_site_fract_y
_atom_site_fract_z
Si Si1 0.657474 0.121756 0.572874
Si Si2 0.123159 0.336367 0.021660
Si Si3 0.359099 0.059390 0.055278
Si Si4 0.737842 0.079564 0.890290
Si Si5 0.932848 0.459439 0.348539
Si Si6 0.998362 0.119664 0.654451
Si Si7 0.726092 0.553234 0.570226
Si Si8 0.720576 0.666857 0.325044
O O1 0.866021 0.157734 0.781121
O O2 0.354734 0.116612 0.414770
O O3 0.734835 0.153741 0.530783
O O4 0.712941 0.031570 0.597524
O O5 0.162785 0.250000 0.071833
O O6 0.010940 0.388374 0.024580
O O7 0.376024 0.372542 0.135195
O O8 0.634545 0.029048 0.192090
O O9 0.228353 0.993737 0.027816
O O10 0.195406 0.094460 0.865121
O O11 0.514486 0.060393 0.664549
O O12 0.586723 0.140630 0.850669
O O13 0.079176 0.541003 0.443823
O O14 0.977272 0.435118 0.279240
O O15 0.082623 0.394417 0.499773
O O16 0.184904 0.164420 0.711358
O O17 0.770301 0.750000 0.391997
#
# Coordination Sequence:
#
# PCOD9162629 Si02
#       8
#     4   4   4   4   4   4   4   4
#     4   8  16  31  55  82 110 145 181 226 283 334
#     4  10  21  37  55  82 117 151 190 239 293 348
#     4  11  22  35  62  87 116 152 197 238 291 342
#     4  10  20  36  61  84 110 151 203 242 275 344
#     4  10  20  35  59  85 116 148 187 243 285 337
#     4  10  20  35  58  85 117 152 193 243 279 341
#     4   8  16  31  55  88 112 135 183 237 280 323
#     4  11  23  37  58  86 116 155 195 238 296 347
#
# _framework density 24.132470999999999
#
# number of rings (size 3 to 8) (size 9 to 14) (size 15 to 20)
#    0.000    2.250    1.250    1.500    3.500    2.500 
#    0.000    0.000    0.000    0.000    0.000    0.000 
#    0.000    0.000    0.000    0.000    0.000    0.000 
#
# Total GULP energy -178462.506243 kJ/mol
# GULP energy per Si atom -5576.953320 kJ/mol
# Density = 2.407754 g / cm^3
# Si number density = 24.132471 Si / 1000 Ang^3
#
#
#
# Elastic Constant Matrix: (Units=GPa)
#
#
# Indices 1 2 3 4 5 6 
#
# 1 164.1413 40.7054 29.6899 0.0000 24.8856 0.0000
# 2 40.7054 87.9000 13.0765 0.0000 -1.4888 0.0000
# 3 29.6899 13.0765 31.8542 0.0000 -18.6677 0.0000
# 4 0.0000 0.0000 0.0000 15.5635 0.0000 3.3167
# 5 24.8856 -1.4888 -18.6677 0.0000 52.8933 0.0000
# 6 0.0000 0.0000 0.0000 3.3167 0.0000 9.5170
#
#
#
# Elastic Compliance Matrix: (Units=1/GPa)
#
#
# Indices 1 2 3 4 5 6 
#
# 1 0.011395 -0.003112 -0.015805 0.000000 -0.011027 0.000000
# 2 -0.003112 0.013101 -0.001769 0.000000 0.001209 0.000000
# 3 -0.015805 -0.001769 0.064525 0.000000 0.030159 0.000000
# 4 0.000000 0.000000 0.000000 0.069408 0.000000 -0.024189
# 5 -0.011027 0.001209 0.030159 0.000000 0.034772 0.000000
# 6 0.000000 0.000000 0.000000 -0.024189 0.000000 0.113504
#
#
# Mechanical properties :
#
#
# Convention : Reuss Voigt Hill
#
# Bulk Modulus (GPa) = 20.98719 50.09322 35.54020
# Shear Modulus (GPa) = 13.73775 28.95634 21.34705
#
# Velocity S-wave (km/s) = 2.38851 3.46770 2.97741
# Velocity P-wave (km/s) = 4.04008 6.06926 5.15549
#
# Compressibility (1/GPa) = 0.04764812
#
# Stress axis : x y z
#
# Youngs Moduli (GPa) = 87.76014 76.32724 15.49795
#
# Poissons Ratio (x) = 0.23755 0.24494
# Poissons Ratio (y) = 0.27313 0.02742
# Poissons Ratio (z) = 1.38704 0.13503
#
# Static dielectric constant tensor:
#      x y z
#    x 2.056890 0.000000 0.026680 
#    y 0.000000 1.860820 0.000000 
#    z 0.026680 0.000000 2.078470 
# 
# From -- ./inp_files/59632.got.cif
#   From: 2010.05.17/outbox.cif.g08.bks.cpg/sg11_30_cif.got.tgz:59632.got - 2010.06.03 12:22:45.
