data_PCOD9162886
_publ_section_title
;
Structure prediction by ZEFSAII (Michael W. Deem and Ramdas Pophale) SiO2 
 PCOD9162886
Probable space group: P 21/M
;
_chemical_formula_sum "Si O2"
_cell_formula_units_Z 32
_cell_length_a 25.381670
_cell_length_b 8.689763
_cell_length_c 15.764720
_cell_angle_alpha 90.000000
_cell_angle_beta 31.077157
_cell_angle_gamma 90.000000
_cell_volume 1794.839330
_symmetry_space_group_name_H-M "P 21/M"
_symmetry_group_IT_number 11
_symmetry_cell_setting 'monoclinic'
loop_
_space_group_symop_operation_xyz
x,y,z
-x,1/2+y,-z
-x,-y,-z
x,1/2-y,z
loop_
_atom_site_type_symbol
_atom_site_label
_atom_site_fract_x
_atom_site_fract_y
_atom_site_fract_z
Si Si1 0.190955 0.433335 0.415582
Si Si2 0.695158 0.067033 0.902600
Si Si3 0.983126 0.566228 0.762028
Si Si4 0.562149 0.565843 0.335507
Si Si5 0.227952 0.933910 0.014196
Si Si6 0.487498 0.934685 0.250522
Si Si7 0.263984 0.564869 0.492103
Si Si8 0.944648 0.934178 0.158849
O O1 0.185921 0.250000 0.431058
O O2 0.248703 0.481602 0.250964
O O3 0.248023 0.503551 0.418823
O O4 0.076827 0.501974 0.576894
O O5 0.700867 0.250000 0.881323
O O6 0.747570 0.030623 0.920959
O O7 0.577788 0.015326 0.074016
O O8 0.989368 0.750000 0.757671
O O9 0.000876 0.496753 0.831245
O O10 0.875501 0.512634 0.873498
O O11 0.500000 0.500000 0.500000
O O12 0.569751 0.750000 0.331337
O O13 0.674844 0.494332 0.172425
O O14 0.505691 0.528067 0.324465
O O15 0.219800 0.750000 0.016618
O O16 0.498759 0.750000 0.225697
O O17 0.374933 0.977349 0.374707
O O18 0.254306 0.750000 0.505822
O O19 0.171717 0.493560 0.673676
O O20 0.946602 0.750000 0.156040
O O21 0.000000 0.000000 0.000000
#
# Coordination Sequence:
#
# PCOD9162886 Si02
#       8
#     4   4   4   4   4   4   4   4
#     4  11  22  37  57  81 111 145 181 225 275 327
#     4  10  21  37  58  82 110 144 183 226 270 323
#     4  11  22  38  59  83 111 144 183 227 276 328
#     4  10  20  36  56  81 112 146 185 227 274 325
#     4  10  21  38  58  82 111 144 183 227 276 327
#     4   9  20  37  57  80 109 144 181 225 273 322
#     4  10  20  37  58  81 110 144 184 229 276 325
#     4  11  22  38  58  82 113 147 185 228 274 325
#
# _framework density 17.828893999999998
#
# number of rings (size 3 to 8) (size 9 to 14) (size 15 to 20)
#    0.000    1.750    0.000    6.375    0.000    5.000 
#    0.000    3.750    0.000    0.000    0.000    0.000 
#    0.000    0.000    0.000    0.000    0.000    0.000 
#
# Total GULP energy -178799.283437 kJ/mol
# GULP energy per Si atom -5587.477607 kJ/mol
# Density = 1.778831 g / cm^3
# Si number density = 17.828894 Si / 1000 Ang^3
#
#
#
# Elastic Constant Matrix: (Units=GPa)
#
#
# Indices 1 2 3 4 5 6 
#
# 1 86.4913 60.8720 99.3247 0.0000 -22.8066 0.0000
# 2 60.8720 122.8283 83.6956 0.0000 -4.7135 0.0000
# 3 99.3247 83.6956 169.0082 0.0000 0.4951 0.0000
# 4 0.0000 0.0000 0.0000 38.9406 0.0000 -0.5356
# 5 -22.8066 -4.7135 0.4951 0.0000 39.3433 0.0000
# 6 0.0000 0.0000 0.0000 -0.5356 0.0000 28.3502
#
#
#
# Elastic Compliance Matrix: (Units=1/GPa)
#
#
# Indices 1 2 3 4 5 6 
#
# 1 0.073501 -0.007985 -0.039365 0.000000 0.042146 0.000000
# 2 -0.007985 0.013251 -0.001860 0.000000 -0.003018 0.000000
# 3 -0.039365 -0.001860 0.030041 0.000000 -0.023420 0.000000
# 4 0.000000 0.000000 0.000000 0.025687 0.000000 0.000485
# 5 0.042146 -0.003018 -0.023420 0.000000 0.049782 0.000000
# 6 0.000000 0.000000 0.000000 0.000485 0.000000 0.035282
#
#
# Mechanical properties :
#
#
# Convention : Reuss Voigt Hill
#
# Bulk Modulus (GPa) = 54.43097 96.23471 75.33284
# Shear Modulus (GPa) = 15.05618 30.28917 22.67267
#
# Velocity S-wave (km/s) = 2.90915 4.12622 3.56993
# Velocity P-wave (km/s) = 6.47148 8.76327 7.70309
#
# Compressibility (1/GPa) = 0.01837190
#
# Stress axis : x y z
#
# Youngs Moduli (GPa) = 13.60517 75.46849 33.28767
#
# Poissons Ratio (x) = 0.60265 1.31037
# Poissons Ratio (y) = 0.10864 0.06192
# Poissons Ratio (z) = 0.53557 0.14038
#
# Static dielectric constant tensor:
#      x y z
#    x 1.590070 0.000000 -0.002550 
#    y 0.000000 1.595310 0.000000 
#    z -0.002550 0.000000 1.577890 
# 
# From -- ./inp_files/55590.got.cif
#   From: 2010.05.17/outbox.cif.g08.bks.cpg/sg11_28_cif.got.tgz:55590.got - 2010.06.03 12:22:45.
