data_PCOD9162138
_publ_section_title
;
Structure prediction by ZEFSAII (Michael W. Deem and Ramdas Pophale) SiO2 
 PCOD9162138
Probable space group: P 21/M
;
_chemical_formula_sum "Si O2"
_cell_formula_units_Z 32
_cell_length_a 22.584162
_cell_length_b 9.028781
_cell_length_c 29.030989
_cell_angle_alpha 90.000000
_cell_angle_beta 163.254083
_cell_angle_gamma 90.000000
_cell_volume 1705.612771
_symmetry_space_group_name_H-M "P 21/M"
_symmetry_group_IT_number 11
_symmetry_cell_setting 'monoclinic'
loop_
_space_group_symop_operation_xyz
x,y,z
-x,1/2+y,-z
-x,-y,-z
x,1/2-y,z
loop_
_atom_site_type_symbol
_atom_site_label
_atom_site_fract_x
_atom_site_fract_y
_atom_site_fract_z
Si Si1 0.060949 0.079104 0.763988
Si Si2 0.609011 0.423218 0.038580
Si Si3 0.428319 0.577849 0.589703
Si Si4 0.105761 0.430009 0.901166
Si Si5 0.725259 0.080552 0.261302
Si Si6 0.367590 0.569684 0.441853
Si Si7 0.487391 0.431686 0.248134
Si Si8 0.883581 0.421739 0.484363
O O1 0.125639 0.250000 0.806353
O O2 0.130173 0.025459 0.866122
O O3 0.815554 0.076012 0.581679
O O4 0.164424 0.983599 0.801823
O O5 0.606585 0.250000 0.041831
O O6 0.468910 0.477077 0.891703
O O7 0.500000 0.500000 0.000000
O O8 0.493222 0.750000 0.635322
O O9 0.447304 0.518137 0.551884
O O10 0.527901 0.514621 0.710381
O O11 0.109417 0.250000 0.903591
O O12 0.873773 0.471812 0.742685
O O13 0.292082 0.479605 0.072269
O O14 0.676940 0.250000 0.212911
O O15 0.788235 0.078215 0.361726
O O16 0.913742 0.020487 0.370735
O O17 0.500000 0.500000 0.500000
O O18 0.377146 0.750000 0.448165
O O19 0.488306 0.250000 0.249387
O O20 0.704081 0.471973 0.385392
O O21 0.939086 0.250000 0.536931
#
# Coordination Sequence:
#
# PCOD9162138 Si02
#       8
#     4   4   4   4   4   4   4   4
#     4   9  17  33  53  73  97 129 166 212 261 313
#     4  12  25  37  50  70  97 132 175 222 270 318
#     4   8  16  29  49  76 103 130 167 208 253 304
#     4   8  15  29  51  76 103 133 168 204 249 304
#     4  10  20  35  50  70 100 133 172 217 264 315
#     4   9  17  32  53  77 104 137 170 203 242 296
#     4   9  15  26  48  76  99 126 168 213 251 299
#     4   9  18  31  52  76  99 130 168 212 264 319
#
# _framework density 18.761585
#
# number of rings (size 3 to 8) (size 9 to 14) (size 15 to 20)
#    0.000    2.750    0.000    3.750    1.750    2.500 
#    0.000    3.125    0.000    1.500    0.000    0.000 
#    0.000    0.000    0.000    0.000    0.000    0.000 
#
# Total GULP energy -178411.091984 kJ/mol
# GULP energy per Si atom -5575.346625 kJ/mol
# Density = 1.871888 g / cm^3
# Si number density = 18.761585 Si / 1000 Ang^3
#
#
#
# Elastic Constant Matrix: (Units=GPa)
#
#
# Indices 1 2 3 4 5 6 
#
# 1 113.5439 25.1049 30.9477 0.0000 7.3207 0.0000
# 2 25.1049 49.2526 1.7606 0.0000 7.8639 0.0000
# 3 30.9477 1.7606 41.5359 0.0000 -6.6906 0.0000
# 4 0.0000 0.0000 0.0000 17.7985 0.0000 6.7567
# 5 7.3207 7.8639 -6.6906 0.0000 31.7146 0.0000
# 6 0.0000 0.0000 0.0000 6.7567 0.0000 23.7337
#
#
#
# Elastic Compliance Matrix: (Units=1/GPa)
#
#
# Indices 1 2 3 4 5 6 
#
# 1 0.013057 -0.005700 -0.010088 0.000000 -0.003729 0.000000
# 2 -0.005700 0.023759 0.002591 0.000000 -0.004029 0.000000
# 3 -0.010088 0.002591 0.032871 0.000000 0.008621 0.000000
# 4 0.000000 0.000000 0.000000 0.062992 0.000000 -0.017933
# 5 -0.003729 -0.004029 0.008621 0.000000 0.035210 0.000000
# 6 0.000000 0.000000 0.000000 -0.017933 0.000000 0.047240
#
#
# Mechanical properties :
#
#
# Convention : Reuss Voigt Hill
#
# Bulk Modulus (GPa) = 23.09812 35.55097 29.32455
# Shear Modulus (GPa) = 19.53477 24.41730 21.97603
#
# Velocity S-wave (km/s) = 3.23028 3.61148 3.42618
# Velocity P-wave (km/s) = 5.12358 6.03161 5.59604
#
# Compressibility (1/GPa) = 0.04329357
#
# Stress axis : x y z
#
# Youngs Moduli (GPa) = 76.58531 42.08863 30.42232
#
# Poissons Ratio (x) = 0.23989 0.30690
# Poissons Ratio (y) = 0.43650 -0.07881
# Poissons Ratio (z) = 0.77258 -0.10903
#
# Static dielectric constant tensor:
#      x y z
#    x 1.675460 0.000000 -0.048900 
#    y 0.000000 1.624670 0.000000 
#    z -0.048900 0.000000 1.695170 
# 
# From -- ./inp_files/72199.got.cif
#   From: 2010.05.17/outbox.cif.g08.bks.cpg/sg11_37_cif.got.tgz:72199.got - 2010.06.03 12:22:45.
