data_PCOD9162535
_publ_section_title
;
Structure prediction by ZEFSAII (Michael W. Deem and Ramdas Pophale) SiO2 
 PCOD9162535
Probable space group: P 21/M
;
_chemical_formula_sum "Si O2"
_cell_formula_units_Z 28
_cell_length_a 11.807180
_cell_length_b 9.513088
_cell_length_c 14.272392
_cell_angle_alpha 90.000000
_cell_angle_beta 123.988371
_cell_angle_gamma 90.000000
_cell_volume 1329.223833
_symmetry_space_group_name_H-M "P 21/M"
_symmetry_group_IT_number 11
_symmetry_cell_setting 'monoclinic'
loop_
_space_group_symop_operation_xyz
x,y,z
-x,1/2+y,-z
-x,-y,-z
x,1/2-y,z
loop_
_atom_site_type_symbol
_atom_site_label
_atom_site_fract_x
_atom_site_fract_y
_atom_site_fract_z
Si Si1 0.404810 0.588669 0.587491
Si Si2 0.136283 0.583899 0.586691
Si Si3 0.597147 0.411415 0.916945
Si Si4 0.661923 0.088519 0.167356
Si Si5 0.070107 0.407710 0.168538
Si Si6 0.662650 0.087851 0.665109
Si Si7 0.842856 0.905710 0.002970
O O1 0.444292 0.750000 0.631505
O O2 0.267385 0.551087 0.580912
O O3 0.370030 0.589978 0.460952
O O4 0.531665 0.482209 0.655390
O O5 0.109133 0.750000 0.563487
O O6 0.193049 0.557981 0.718050
O O7 0.000000 0.500000 0.500000
O O8 0.596427 0.250000 0.887687
O O9 0.450128 0.482396 0.844445
O O10 0.646530 0.418248 0.048705
O O11 0.708984 0.505283 0.918489
O O12 0.627832 0.250000 0.178251
O O13 0.057034 0.250000 0.203110
O O14 0.204690 0.490240 0.262138
O O15 0.938758 0.507140 0.117556
O O16 0.083139 0.389711 0.062348
O O17 0.686657 0.250000 0.705863
O O18 0.809450 0.750000 0.023903
#
# Coordination Sequence:
#
# PCOD9162535 Si02
#       7
#     4   4   4   4   4   4   4
#     4   9  20  38  57  81 112 148 187 229 278 333
#     4  10  22  40  60  82 113 150 191 234 282 338
#     4  10  20  35  57  84 113 145 186 232 279 332
#     4   9  20  38  57  81 112 148 187 229 278 333
#     4  10  21  36  54  78 110 146 183 224 274 331
#     4  10  20  35  57  84 113 145 186 232 279 332
#     4  10  21  36  54  78 110 146 183 224 274 331
#
# _framework density 21.064926
#
# number of rings (size 3 to 8) (size 9 to 14) (size 15 to 20)
#    0.000    2.286    0.000    1.714    2.000    5.143 
#    0.000    2.857    0.000    0.000    0.000    0.000 
#    0.000    0.000    0.000    0.000    0.000    0.000 
#
# Total GULP energy -156322.992946 kJ/mol
# GULP energy per Si atom -5582.964034 kJ/mol
# Density = 2.101698 g / cm^3
# Si number density = 21.064926 Si / 1000 Ang^3
#
#
#
# Elastic Constant Matrix: (Units=GPa)
#
#
# Indices 1 2 3 4 5 6 
#
# 1 47.6780 37.5212 20.8025 0.0000 14.8801 0.0000
# 2 37.5212 151.9332 43.7596 0.0000 35.6756 0.0000
# 3 20.8025 43.7596 90.1681 0.0000 23.7131 0.0000
# 4 0.0000 0.0000 0.0000 27.6868 0.0000 9.1436
# 5 14.8801 35.6756 23.7131 0.0000 40.1186 0.0000
# 6 0.0000 0.0000 0.0000 9.1436 0.0000 29.1433
#
#
#
# Elastic Compliance Matrix: (Units=1/GPa)
#
#
# Indices 1 2 3 4 5 6 
#
# 1 0.027409 -0.005004 -0.002832 0.000000 -0.004042 0.000000
# 2 -0.005004 0.009727 -0.002107 0.000000 -0.005549 0.000000
# 3 -0.002832 -0.002107 0.014206 0.000000 -0.005472 0.000000
# 4 0.000000 0.000000 0.000000 0.040293 0.000000 -0.012642
# 5 -0.004042 -0.005549 -0.005472 0.000000 0.034594 0.000000
# 6 0.000000 0.000000 0.000000 -0.012642 0.000000 0.038280
#
#
# Mechanical properties :
#
#
# Convention : Reuss Voigt Hill
#
# Bulk Modulus (GPa) = 31.79045 54.88288 43.33667
# Shear Modulus (GPa) = 25.65669 31.90279 28.77974
#
# Velocity S-wave (km/s) = 3.49375 3.89588 3.70028
# Velocity P-wave (km/s) = 5.60352 6.80793 6.23487
#
# Compressibility (1/GPa) = 0.03145599
#
# Stress axis : x y z
#
# Youngs Moduli (GPa) = 36.48394 102.80222 70.39519
#
# Poissons Ratio (x) = 0.51444 0.19935
# Poissons Ratio (y) = 0.18257 0.14833
# Poissons Ratio (z) = 0.10332 0.21662
#
# Static dielectric constant tensor:
#      x y z
#    x 1.773960 0.000000 -0.051450 
#    y 0.000000 1.759240 0.000000 
#    z -0.051450 0.000000 1.780860 
# 
# From -- ./inp_files/49492.got.cif
#   From: 2010.05.17/outbox.cif.g08.bks.cpg/sg11_25_cif.got.tgz:49492.got - 2010.06.03 12:22:45.
