data_PCOD9162944
_publ_section_title
;
Structure prediction by ZEFSAII (Michael W. Deem and Ramdas Pophale) SiO2 
 PCOD9162944
Probable space group: P 21/M
;
_chemical_formula_sum "Si O2"
_cell_formula_units_Z 20
_cell_length_a 7.128793
_cell_length_b 18.277324
_cell_length_c 9.204446
_cell_angle_alpha 90.000000
_cell_angle_beta 48.872687
_cell_angle_gamma 90.000000
_cell_volume 903.369392
_symmetry_space_group_name_H-M "P 21/M"
_symmetry_group_IT_number 11
_symmetry_cell_setting 'monoclinic'
loop_
_space_group_symop_operation_xyz
x,y,z
-x,1/2+y,-z
-x,-y,-z
x,1/2-y,z
loop_
_atom_site_type_symbol
_atom_site_label
_atom_site_fract_x
_atom_site_fract_y
_atom_site_fract_z
Si Si1 0.142150 0.445859 0.088009
Si Si2 0.490644 0.057771 0.184083
Si Si3 0.824588 0.835940 0.506383
Si Si4 0.745583 0.663877 0.218953
Si Si5 0.761444 0.422416 0.522525
O O1 0.363598 0.428100 0.092230
O O2 0.890609 0.449182 0.308492
O O3 0.237426 0.522674 0.973235
O O4 0.141808 0.382126 0.970190
O O5 0.437150 0.128282 0.309209
O O6 0.335161 0.992362 0.339884
O O7 0.827362 0.750000 0.536716
O O8 0.872112 0.846140 0.311326
O O9 0.032899 0.878780 0.490575
O O10 0.738811 0.750000 0.189700
O O11 0.469500 0.631155 0.381710
#
# Coordination Sequence:
#
# PCOD9162944 Si02
#       5
#     4   4   4   4   4
#     4   9  18  34  58  81 108 143 182 229 273 322
#     4   9  19  37  58  85 112 142 188 231 273 333
#     4  10  20  36  57  80 113 150 182 226 281 331
#     4  10  22  37  54  83 115 145 188 231 271 330
#     4  10  20  39  62  80 110 151 185 227 281 328
#
# _framework density 22.139337000000001
#
# number of rings (size 3 to 8) (size 9 to 14) (size 15 to 20)
#    0.000    2.400    0.000    3.000    0.000    7.200 
#    0.000   17.000    0.000   15.600    0.000    0.000 
#    0.000    0.000    0.000    0.000    0.000    0.000 
#
# Total GULP energy -111897.213607 kJ/mol
# GULP energy per Si atom -5594.860680 kJ/mol
# Density = 2.208895 g / cm^3
# Si number density = 22.139337 Si / 1000 Ang^3
#
#
#
# Elastic Constant Matrix: (Units=GPa)
#
#
# Indices 1 2 3 4 5 6 
#
# 1 53.3090 44.2612 35.4602 0.0000 2.7827 0.0000
# 2 44.2612 140.7675 73.3169 0.0000 8.3323 0.0000
# 3 35.4602 73.3169 156.5860 0.0000 3.0834 0.0000
# 4 0.0000 0.0000 0.0000 30.5635 0.0000 13.7525
# 5 2.7827 8.3323 3.0834 0.0000 26.7378 0.0000
# 6 0.0000 0.0000 0.0000 13.7525 0.0000 21.2672
#
#
#
# Elastic Compliance Matrix: (Units=1/GPa)
#
#
# Indices 1 2 3 4 5 6 
#
# 1 0.026255 -0.006803 -0.002754 0.000000 -0.000295 0.000000
# 2 -0.006803 0.011318 -0.003711 0.000000 -0.002391 0.000000
# 3 -0.002754 -0.003711 0.008739 0.000000 0.000435 0.000000
# 4 0.000000 0.000000 0.000000 0.046146 0.000000 -0.029840
# 5 -0.000295 -0.002391 0.000435 0.000000 0.038126 0.000000
# 6 0.000000 0.000000 0.000000 -0.029840 0.000000 0.066317
#
#
# Mechanical properties :
#
#
# Convention : Reuss Voigt Hill
#
# Bulk Modulus (GPa) = 50.57278 72.97103 61.77190
# Shear Modulus (GPa) = 21.73635 28.88863 25.31249
#
# Velocity S-wave (km/s) = 3.13676 3.61620 3.38498
# Velocity P-wave (km/s) = 6.00097 7.10403 6.57567
#
# Compressibility (1/GPa) = 0.01977348
#
# Stress axis : x y z
#
# Youngs Moduli (GPa) = 38.08855 88.35814 114.42669
#
# Poissons Ratio (x) = 0.60111 0.31518
# Poissons Ratio (y) = 0.25912 0.42469
# Poissons Ratio (z) = 0.10491 0.32793
#
# Static dielectric constant tensor:
#      x y z
#    x 1.876820 0.000000 -0.006940 
#    y 0.000000 1.757290 0.000000 
#    z -0.006940 0.000000 1.828250 
# 
# From -- ./inp_files/13419.got.cif
#   From: 2010.05.17/outbox.cif.g08.bks.cpg/sg11_7_cif.got.tgz:13419.got - 2010.06.03 12:22:45.
