data_PCOD9162897
_publ_section_title
;
Structure prediction by ZEFSAII (Michael W. Deem and Ramdas Pophale) SiO2 
 PCOD9162897
Probable space group: P 21/M
;
_chemical_formula_sum "Si O2"
_cell_formula_units_Z 32
_cell_length_a 19.953729
_cell_length_b 14.362626
_cell_length_c 8.210465
_cell_angle_alpha 90.000000
_cell_angle_beta 134.138408
_cell_angle_gamma 90.000000
_cell_volume 1688.667693
_symmetry_space_group_name_H-M "P 21/M"
_symmetry_group_IT_number 11
_symmetry_cell_setting 'monoclinic'
loop_
_space_group_symop_operation_xyz
x,y,z
-x,1/2+y,-z
-x,-y,-z
x,1/2-y,z
loop_
_atom_site_type_symbol
_atom_site_label
_atom_site_fract_x
_atom_site_fract_y
_atom_site_fract_z
Si Si1 0.690573 0.852334 0.578883
Si Si2 0.572636 0.582481 0.659859
Si Si3 0.934619 0.471241 0.240446
Si Si4 0.098739 0.144049 0.415121
Si Si5 0.761947 0.991381 0.149953
Si Si6 0.106410 0.147282 0.038409
Si Si7 0.650092 0.007873 0.265008
Si Si8 0.502702 0.856171 0.873326
O O1 0.686316 0.750000 0.487817
O O2 0.601668 0.865439 0.544177
O O3 0.786674 0.849574 0.842181
O O4 0.698837 0.944411 0.483501
O O5 0.500000 0.500000 0.500000
O O6 0.524607 0.642906 0.718651
O O7 0.671275 0.545540 0.899743
O O8 0.831648 0.457481 0.142039
O O9 0.000000 0.500000 0.500000
O O10 0.991412 0.385967 0.261326
O O11 0.937143 0.557942 0.119925
O O12 0.112986 0.250000 0.487120
O O13 0.171762 0.084884 0.647040
O O14 0.113375 0.136234 0.245419
O O15 0.716128 0.041304 0.230046
O O16 0.064045 0.250000 0.933155
O O17 0.594374 0.093537 0.247875
O O18 0.578071 0.929173 0.073973
O O19 0.508318 0.750000 0.943281
#
# Coordination Sequence:
#
# PCOD9162897 Si02
#       8
#     4   4   4   4   4   4   4   4
#     4  11  20  33  56  86 115 147 188 241 300 346
#     4  11  21  36  57  85 120 158 197 244 298 356
#     4  10  21  37  56  86 120 156 188 238 302 357
#     4  10  21  37  62  90 118 151 197 247 301 359
#     4  10  21  36  57  85 117 157 193 245 300 344
#     4  10  20  36  60  90 117 149 191 245 300 357
#     4  10  20  36  56  82 115 148 194 245 292 354
#     4  10  21  36  56  80 112 154 197 243 296 352
#
# _framework density 18.949850000000001
#
# number of rings (size 3 to 8) (size 9 to 14) (size 15 to 20)
#    0.000    1.750    3.750    1.125    0.000    4.500 
#    0.000    0.625    0.000    4.500    0.000    0.000 
#    0.000    0.000    0.000    0.000    0.000    0.000 
#
# Total GULP energy -178153.863521 kJ/mol
# GULP energy per Si atom -5567.308235 kJ/mol
# Density = 1.890672 g / cm^3
# Si number density = 18.949850 Si / 1000 Ang^3
#
#
#
# Elastic Constant Matrix: (Units=GPa)
#
#
# Indices 1 2 3 4 5 6 
#
# 1 116.3020 26.1260 7.9189 0.0000 19.8257 0.0000
# 2 26.1260 44.9856 19.9695 0.0000 7.5474 0.0000
# 3 7.9189 19.9695 55.6692 0.0000 9.2527 0.0000
# 4 0.0000 0.0000 0.0000 18.1465 0.0000 3.8260
# 5 19.8257 7.5474 9.2527 0.0000 23.9778 0.0000
# 6 0.0000 0.0000 0.0000 3.8260 0.0000 15.5920
#
#
#
# Elastic Compliance Matrix: (Units=1/GPa)
#
#
# Indices 1 2 3 4 5 6 
#
# 1 0.011195 -0.005986 0.001902 0.000000 -0.008107 0.000000
# 2 -0.005986 0.030209 -0.009860 0.000000 -0.000755 0.000000
# 3 0.001902 -0.009860 0.022413 0.000000 -0.007118 0.000000
# 4 0.000000 0.000000 0.000000 0.058114 0.000000 -0.014260
# 5 -0.008107 -0.000755 -0.007118 0.000000 0.051392 0.000000
# 6 0.000000 0.000000 0.000000 -0.014260 0.000000 0.067635
#
#
# Mechanical properties :
#
#
# Convention : Reuss Voigt Hill
#
# Bulk Modulus (GPa) = 27.83189 36.10949 31.97069
# Shear Modulus (GPa) = 17.80489 22.40610 20.10550
#
# Velocity S-wave (km/s) = 3.06858 3.44232 3.26081
# Velocity P-wave (km/s) = 5.22245 5.90729 5.57539
#
# Compressibility (1/GPa) = 0.03593001
#
# Stress axis : x y z
#
# Youngs Moduli (GPa) = 89.32220 33.10243 44.61782
#
# Poissons Ratio (x) = 0.19816 -0.08487
# Poissons Ratio (y) = 0.53470 0.43991
# Poissons Ratio (z) = -0.16991 0.32638
#
# Static dielectric constant tensor:
#      x y z
#    x 1.752900 0.000000 -0.010860 
#    y 0.000000 1.643640 0.000000 
#    z -0.010860 0.000000 1.693330 
# 
# From -- ./inp_files/26836.got.cif
#   From: 2010.05.17/outbox.cif.g08.bks.cpg/sg11_14_cif.got.tgz:26836.got - 2010.06.03 12:22:45.
