data_PCOD9162433
_publ_section_title
;
Structure prediction by ZEFSAII (Michael W. Deem and Ramdas Pophale) SiO2 
 PCOD9162433
Probable space group: P 21/M
;
_chemical_formula_sum "Si O2"
_cell_formula_units_Z 32
_cell_length_a 21.651255
_cell_length_b 8.098844
_cell_length_c 27.673921
_cell_angle_alpha 90.000000
_cell_angle_beta 160.232335
_cell_angle_gamma 90.000000
_cell_volume 1641.191433
_symmetry_space_group_name_H-M "P 21/M"
_symmetry_group_IT_number 11
_symmetry_cell_setting 'monoclinic'
loop_
_space_group_symop_operation_xyz
x,y,z
-x,1/2+y,-z
-x,-y,-z
x,1/2-y,z
loop_
_atom_site_type_symbol
_atom_site_label
_atom_site_fract_x
_atom_site_fract_y
_atom_site_fract_z
Si Si1 0.131065 0.950273 0.838555
Si Si2 0.826096 0.946861 0.019715
Si Si3 0.209963 0.550526 0.272285
Si Si4 0.498559 0.949288 0.054425
Si Si5 0.254643 0.449696 0.490363
Si Si6 0.209116 0.054487 0.654569
Si Si7 0.457336 0.050339 0.544732
Si Si8 0.416446 0.553582 0.710603
O O1 0.131216 0.750000 0.842340
O O2 0.947854 0.999771 0.675590
O O3 0.134834 0.020554 0.895187
O O4 0.312479 0.003408 0.943816
O O5 0.820206 0.750000 0.007152
O O6 0.002231 0.012322 0.120327
O O7 0.624122 0.013844 0.860057
O O8 0.205059 0.750000 0.266631
O O9 0.345661 0.492409 0.329728
O O10 0.309654 0.502759 0.395767
O O11 0.500026 0.750000 0.057195
O O12 0.670897 0.013118 0.212329
O O13 0.500000 0.000000 0.000000
O O14 0.258218 0.250000 0.494522
O O15 0.393783 0.505891 0.550652
O O16 0.309951 0.513703 0.583266
O O17 0.207523 0.250000 0.658498
O O18 0.313019 0.013141 0.681443
O O19 0.000000 0.000000 0.500000
O O20 0.458406 0.250000 0.546002
O O21 0.426928 0.750000 0.724313
#
# Coordination Sequence:
#
# PCOD9162433 Si02
#       8
#     4   4   4   4   4   4   4   4
#     4  10  20  37  59  83 111 143 187 234 278 330
#     4  10  20  35  56  83 112 148 188 232 283 331
#     4   9  17  30  52  81 112 145 183 231 286 337
#     4  10  23  40  60  87 115 146 182 228 276 327
#     4  10  21  36  56  83 114 150 189 235 285 334
#     4  11  24  43  64  87 116 151 189 229 279 337
#     4   9  17  31  52  80 112 145 185 232 283 338
#     4  11  24  40  58  82 114 153 193 232 278 335
#
# _framework density 19.49803
#
# number of rings (size 3 to 8) (size 9 to 14) (size 15 to 20)
#    0.000    2.000    2.500    0.750    1.750    3.000 
#    0.000    0.625    0.000    0.000    0.000    0.000 
#    0.000    0.000    0.000    0.000    0.000    0.000 
#
# Total GULP energy -178635.013410 kJ/mol
# GULP energy per Si atom -5582.344169 kJ/mol
# Density = 1.945365 g / cm^3
# Si number density = 19.498030 Si / 1000 Ang^3
#
#
#
# Elastic Constant Matrix: (Units=GPa)
#
#
# Indices 1 2 3 4 5 6 
#
# 1 93.3487 6.0887 60.0572 0.0000 8.2528 0.0000
# 2 6.0887 10.9926 11.4898 0.0000 6.6859 0.0000
# 3 60.0572 11.4898 146.4398 0.0000 13.0175 0.0000
# 4 0.0000 0.0000 0.0000 19.7215 0.0000 -3.9737
# 5 8.2528 6.6859 13.0175 0.0000 36.8949 0.0000
# 6 0.0000 0.0000 0.0000 -3.9737 0.0000 22.4160
#
#
#
# Elastic Compliance Matrix: (Units=1/GPa)
#
#
# Indices 1 2 3 4 5 6 
#
# 1 0.014622 -0.001455 -0.005797 0.000000 -0.000962 0.000000
# 2 -0.001455 0.108920 -0.006425 0.000000 -0.017145 0.000000
# 3 -0.005797 -0.006425 0.009799 0.000000 -0.000996 0.000000
# 4 0.000000 0.000000 0.000000 0.052584 0.000000 0.009322
# 5 -0.000962 -0.017145 -0.000996 0.000000 0.030778 0.000000
# 6 0.000000 0.000000 0.000000 0.009322 0.000000 0.046264
#
#
# Mechanical properties :
#
#
# Convention : Reuss Voigt Hill
#
# Bulk Modulus (GPa) = 9.43514 45.11694 27.27604
# Shear Modulus (GPa) = 15.35392 27.34950 21.35171
#
# Velocity S-wave (km/s) = 2.80922 3.74930 3.31277
# Velocity P-wave (km/s) = 3.92069 6.47553 5.35277
#
# Compressibility (1/GPa) = 0.10598676
#
# Stress axis : x y z
#
# Youngs Moduli (GPa) = 68.38974 9.18105 102.05210
#
# Poissons Ratio (x) = 0.01336 0.59161
# Poissons Ratio (y) = 0.09949 0.65571
# Poissons Ratio (z) = 0.39646 0.05899
#
# Static dielectric constant tensor:
#      x y z
#    x 1.657100 0.000000 0.053240 
#    y 0.000000 1.689730 0.000000 
#    z 0.053240 0.000000 1.507360 
# 
# From -- ./inp_files/72226.got.cif
#   From: 2010.05.17/outbox.cif.g08.bks.cpg/sg11_37_cif.got.tgz:72226.got - 2010.06.03 12:22:45.
