data_PCOD9162597
_publ_section_title
;
Structure prediction by ZEFSAII (Michael W. Deem and Ramdas Pophale) SiO2 
 PCOD9162597
Probable space group: P 21/M
;
_chemical_formula_sum "Si O2"
_cell_formula_units_Z 28
_cell_length_a 11.935254
_cell_length_b 13.181130
_cell_length_c 9.615580
_cell_angle_alpha 90.000000
_cell_angle_beta 111.538839
_cell_angle_gamma 90.000000
_cell_volume 1407.089157
_symmetry_space_group_name_H-M "P 21/M"
_symmetry_group_IT_number 11
_symmetry_cell_setting 'monoclinic'
loop_
_space_group_symop_operation_xyz
x,y,z
-x,1/2+y,-z
-x,-y,-z
x,1/2-y,z
loop_
_atom_site_type_symbol
_atom_site_label
_atom_site_fract_x
_atom_site_fract_y
_atom_site_fract_z
Si Si1 0.295524 0.957076 0.152085
Si Si2 0.242753 0.368585 0.342004
Si Si3 0.260152 0.871183 0.840947
Si Si4 0.997295 0.043436 0.342042
Si Si5 0.884919 0.133594 0.725109
Si Si6 0.335724 0.628079 0.580557
Si Si7 0.511419 0.628478 0.417187
O O1 0.192468 0.883296 0.171048
O O2 0.426404 0.921775 0.264591
O O3 0.264114 0.063024 0.214355
O O4 0.289741 0.940485 0.986198
O O5 0.254137 0.250000 0.313862
O O6 0.114814 0.392381 0.353069
O O7 0.348236 0.394720 0.501007
O O8 0.279391 0.750000 0.876266
O O9 0.333291 0.906372 0.737489
O O10 0.121123 0.891023 0.737662
O O11 0.007180 0.944959 0.245459
O O12 0.000000 0.000000 0.500000
O O13 0.920336 0.250000 0.726012
O O14 0.786532 0.105150 0.560573
O O15 0.335884 0.750000 0.588853
O O16 0.448285 0.601323 0.535743
O O17 0.499881 0.750000 0.393964
#
# Coordination Sequence:
#
# PCOD9162597 Si02
#       7
#     4   4   4   4   4   4   4
#     4  10  20  35  57  90 115 150 198 244 285 342
#     4  10  22  38  60  86 118 158 197 240 295 349
#     4  11  21  35  57  88 120 152 194 244 295 342
#     4  11  22  36  57  82 114 150 194 235 287 357
#     4   9  17  32  53  78 108 146 192 238 278 334
#     4   8  15  29  53  80 109 149 192 233 277 330
#     4   9  17  35  62  88 116 152 199 244 285 343
#
# _framework density 19.899235999999998
#
# number of rings (size 3 to 8) (size 9 to 14) (size 15 to 20)
#    0.000    2.286    1.429    3.000    0.000    2.857 
#    0.000    2.857    0.000    0.000    0.000    0.000 
#    0.000    0.000    0.000    0.000    0.000    0.000 
#
# Total GULP energy -156253.423556 kJ/mol
# GULP energy per Si atom -5580.479413 kJ/mol
# Density = 1.985394 g / cm^3
# Si number density = 19.899236 Si / 1000 Ang^3
#
#
#
# Elastic Constant Matrix: (Units=GPa)
#
#
# Indices 1 2 3 4 5 6 
#
# 1 67.1873 4.8557 28.3666 0.0000 5.1035 0.0000
# 2 4.8557 75.0038 -3.5582 0.0000 6.5425 0.0000
# 3 28.3666 -3.5582 101.7023 0.0000 -17.9737 0.0000
# 4 0.0000 0.0000 0.0000 20.5754 0.0000 4.1705
# 5 5.1035 6.5425 -17.9737 0.0000 19.4501 0.0000
# 6 0.0000 0.0000 0.0000 4.1705 0.0000 21.9361
#
#
#
# Elastic Compliance Matrix: (Units=1/GPa)
#
#
# Indices 1 2 3 4 5 6 
#
# 1 0.018896 -0.000564 -0.007330 0.000000 -0.011542 0.000000
# 2 -0.000564 0.013766 -0.000183 0.000000 -0.004652 0.000000
# 3 -0.007330 -0.000183 0.014607 0.000000 0.015483 0.000000
# 4 0.000000 0.000000 0.000000 0.050550 0.000000 -0.009611
# 5 -0.011542 -0.004652 0.015483 0.000000 0.070314 0.000000
# 6 0.000000 0.000000 0.000000 -0.009611 0.000000 0.047414
#
#
# Mechanical properties :
#
#
# Convention : Reuss Voigt Hill
#
# Bulk Modulus (GPa) = 32.13921 33.69129 32.91525
# Shear Modulus (GPa) = 20.65486 26.67427 23.66457
#
# Velocity S-wave (km/s) = 3.22525 3.66521 3.45225
# Velocity P-wave (km/s) = 5.48231 5.90588 5.69803
#
# Compressibility (1/GPa) = 0.03111464
#
# Stress axis : x y z
#
# Youngs Moduli (GPa) = 52.92137 72.64132 68.46054
#
# Poissons Ratio (x) = 0.04099 0.50181
# Poissons Ratio (y) = 0.02986 0.01253
# Poissons Ratio (z) = 0.38791 0.01330
#
# Static dielectric constant tensor:
#      x y z
#    x 1.704940 0.000000 0.000500 
#    y 0.000000 1.751130 0.000000 
#    z 0.000500 0.000000 1.699520 
# 
# From -- ./inp_files/17785.got.cif
#   From: 2010.05.17/outbox.cif.g08.bks.cpg/sg11_9_cif.got.tgz:17785.got - 2010.06.03 12:22:45.
