data_PCOD9162875
_publ_section_title
;
Structure prediction by ZEFSAII (Michael W. Deem and Ramdas Pophale) SiO2 
 PCOD9162875
Probable space group: P 21/M
;
_chemical_formula_sum "Si O2"
_cell_formula_units_Z 28
_cell_length_a 26.316294
_cell_length_b 8.560926
_cell_length_c 9.729717
_cell_angle_alpha 90.000000
_cell_angle_beta 139.896012
_cell_angle_gamma 90.000000
_cell_volume 1412.052382
_symmetry_space_group_name_H-M "P 21/M"
_symmetry_group_IT_number 11
_symmetry_cell_setting 'monoclinic'
loop_
_space_group_symop_operation_xyz
x,y,z
-x,1/2+y,-z
-x,-y,-z
x,1/2-y,z
loop_
_atom_site_type_symbol
_atom_site_label
_atom_site_fract_x
_atom_site_fract_y
_atom_site_fract_z
Si Si1 0.584610 0.438773 0.720475
Si Si2 0.997196 0.933434 0.647446
Si Si3 0.831561 0.434853 0.310762
Si Si4 0.323792 0.935506 0.828784
Si Si5 0.734806 0.938047 0.865648
Si Si6 0.927064 0.564884 0.935667
Si Si7 0.752556 0.937671 0.585935
O O1 0.500000 0.500000 0.500000
O O2 0.588270 0.250000 0.721374
O O3 0.652599 0.508232 0.763407
O O4 0.607457 0.486194 0.924314
O O5 0.013342 0.750000 0.682587
O O6 0.907991 0.968735 0.511938
O O7 0.000000 0.000000 0.500000
O O8 0.055570 0.021911 0.870381
O O9 0.849354 0.250000 0.350954
O O10 0.757068 0.466708 0.254296
O O11 0.802903 0.484481 0.099523
O O12 0.330381 0.750000 0.824826
O O13 0.313008 0.010364 0.658117
O O14 0.742366 0.750000 0.890032
O O15 0.738442 0.986388 0.714019
O O16 0.927092 0.750000 0.918358
O O17 0.839576 0.503607 0.720237
O O18 0.000000 0.500000 0.000000
O O19 0.755254 0.750000 0.591360
#
# Coordination Sequence:
#
# PCOD9162875 Si02
#       7
#     4   4   4   4   4   4   4
#     4  10  21  39  62  90 117 146 183 226 275 334
#     4  12  24  37  54  78 107 145 191 243 298 348
#     4  10  20  36  56  80 108 143 189 238 284 340
#     4   9  20  36  57  83 111 141 179 224 272 327
#     4  10  20  36  58  85 115 150 188 232 281 334
#     4  11  23  39  56  80 114 153 197 245 292 345
#     4  10  22  37  55  80 112 148 190 232 277 334
#
# _framework density 19.829291000000001
#
# number of rings (size 3 to 8) (size 9 to 14) (size 15 to 20)
#    0.000    1.714    0.000    5.571    0.000    9.143 
#    0.000    0.714    0.000    0.000    0.000    0.000 
#    0.000    0.000    0.000    0.000    0.000    0.000 
#
# Total GULP energy -156483.383136 kJ/mol
# GULP energy per Si atom -5588.692255 kJ/mol
# Density = 1.978416 g / cm^3
# Si number density = 19.829291 Si / 1000 Ang^3
#
#
#
# Elastic Constant Matrix: (Units=GPa)
#
#
# Indices 1 2 3 4 5 6 
#
# 1 37.5399 1.4232 22.8847 0.0000 -11.5738 0.0000
# 2 1.4232 27.4720 -1.5811 0.0000 -1.1617 0.0000
# 3 22.8847 -1.5811 124.5448 0.0000 -9.3484 0.0000
# 4 0.0000 0.0000 0.0000 32.4763 0.0000 -4.0887
# 5 -11.5738 -1.1617 -9.3484 0.0000 37.1659 0.0000
# 6 0.0000 0.0000 0.0000 -4.0887 0.0000 29.7598
#
#
#
# Elastic Compliance Matrix: (Units=1/GPa)
#
#
# Indices 1 2 3 4 5 6 
#
# 1 0.032677 -0.001631 -0.005366 0.000000 0.008775 0.000000
# 2 -0.001631 0.036568 0.000827 0.000000 0.000843 0.000000
# 3 -0.005366 0.000827 0.009074 0.000000 0.000637 0.000000
# 4 0.000000 0.000000 0.000000 0.031334 0.000000 0.004305
# 5 0.008775 0.000843 0.000637 0.000000 0.029826 0.000000
# 6 0.000000 0.000000 0.000000 0.004305 0.000000 0.034194
#
#
# Mechanical properties :
#
#
# Convention : Reuss Voigt Hill
#
# Bulk Modulus (GPa) = 15.15625 26.11225 20.63425
# Shear Modulus (GPa) = 24.03789 31.00238 27.52013
#
# Velocity S-wave (km/s) = 3.48550 3.95836 3.72943
# Velocity P-wave (km/s) = 4.88449 5.83854 5.38270
#
# Compressibility (1/GPa) = 0.06597938
#
# Stress axis : x y z
#
# Youngs Moduli (GPa) = 30.60262 27.34599 110.20984
#
# Poissons Ratio (x) = 0.04459 0.59142
# Poissons Ratio (y) = 0.04990 -0.09116
# Poissons Ratio (z) = 0.16422 -0.02262
#
# Static dielectric constant tensor:
#      x y z
#    x 1.718180 0.000000 -0.000540 
#    y 0.000000 1.671000 0.000000 
#    z -0.000540 0.000000 1.688300 
# 
# From -- ./inp_files/28220.got.cif
#   From: 2010.05.17/outbox.cif.g08.bks.cpg/sg11_15_cif.got.tgz:28220.got - 2010.06.03 12:22:45.
