data_PCOD9162618
_publ_section_title
;
Structure prediction by ZEFSAII (Michael W. Deem and Ramdas Pophale) SiO2 
 PCOD9162618
Probable space group: P 21/M
;
_chemical_formula_sum "Si O2"
_cell_formula_units_Z 24
_cell_length_a 15.099866
_cell_length_b 8.789382
_cell_length_c 19.668349
_cell_angle_alpha 90.000000
_cell_angle_beta 31.490082
_cell_angle_gamma 90.000000
_cell_volume 1363.520712
_symmetry_space_group_name_H-M "P 21/M"
_symmetry_group_IT_number 11
_symmetry_cell_setting 'monoclinic'
loop_
_space_group_symop_operation_xyz
x,y,z
-x,1/2+y,-z
-x,-y,-z
x,1/2-y,z
loop_
_atom_site_type_symbol
_atom_site_label
_atom_site_fract_x
_atom_site_fract_y
_atom_site_fract_z
Si Si1 0.279103 0.931829 0.462761
Si Si2 0.528494 0.068652 0.406848
Si Si3 0.437598 0.068353 0.111211
Si Si4 0.811586 0.933350 0.122999
Si Si5 0.437906 0.430559 0.834673
Si Si6 0.945708 0.566554 0.607658
O O1 0.288675 0.750000 0.470455
O O2 0.393055 0.959313 0.320839
O O3 0.087431 0.975693 0.570575
O O4 0.368879 0.020796 0.464550
O O5 0.544679 0.250000 0.399587
O O6 0.500000 0.000000 0.500000
O O7 0.693024 0.999225 0.260735
O O8 0.439553 0.250000 0.106199
O O9 0.243647 0.017179 0.250674
O O10 0.547404 0.015214 0.103862
O O11 0.500000 0.000000 0.000000
O O12 0.814142 0.750000 0.126637
O O13 0.716246 0.972967 0.114514
O O14 0.000000 0.000000 0.000000
O O15 0.428394 0.250000 0.853618
O O16 0.948570 0.750000 0.601083
O O17 0.000000 0.500000 0.500000
#
# Coordination Sequence:
#
# PCOD9162618 Si02
#       6
#     4   4   4   4   4   4
#     4   9  18  35  58  84 113 146 185 234 285 338
#     4  11  22  38  60  86 117 152 189 238 291 342
#     4  11  23  37  55  81 114 152 189 230 280 334
#     4  10  21  39  62  88 116 150 192 235 284 343
#     4   9  18  35  59  82 111 148 183 227 282 335
#     4  10  20  35  58  85 111 144 187 233 278 333
#
# _framework density 17.601492
#
# number of rings (size 3 to 8) (size 9 to 14) (size 15 to 20)
#    0.000    2.000    1.667    3.500    0.000    4.667 
#    3.000    0.000    0.000    0.000    0.000    0.000 
#    0.000    0.000    0.000    0.000    0.000    0.000 
#
# Total GULP energy -133973.954605 kJ/mol
# GULP energy per Si atom -5582.248109 kJ/mol
# Density = 1.756143 g / cm^3
# Si number density = 17.601492 Si / 1000 Ang^3
#
#
#
# Elastic Constant Matrix: (Units=GPa)
#
#
# Indices 1 2 3 4 5 6 
#
# 1 146.0400 66.1786 98.2162 0.0000 4.7650 0.0000
# 2 66.1786 68.6534 54.6364 0.0000 8.2338 0.0000
# 3 98.2162 54.6364 130.7077 0.0000 1.3029 0.0000
# 4 0.0000 0.0000 0.0000 27.8007 0.0000 2.6588
# 5 4.7650 8.2338 1.3029 0.0000 33.7138 0.0000
# 6 0.0000 0.0000 0.0000 2.6588 0.0000 35.2824
#
#
#
# Elastic Compliance Matrix: (Units=1/GPa)
#
#
# Indices 1 2 3 4 5 6 
#
# 1 0.017107 -0.009419 -0.008920 0.000000 0.000227 0.000000
# 2 -0.009419 0.027882 -0.004524 0.000000 -0.005303 0.000000
# 3 -0.008920 -0.004524 0.016227 0.000000 0.001738 0.000000
# 4 0.000000 0.000000 0.000000 0.036231 0.000000 -0.002730
# 5 0.000227 -0.005303 0.001738 0.000000 0.030857 0.000000
# 6 0.000000 0.000000 0.000000 -0.002730 0.000000 0.028548
#
#
# Mechanical properties :
#
#
# Convention : Reuss Voigt Hill
#
# Bulk Modulus (GPa) = 64.55762 87.05149 75.80456
# Shear Modulus (GPa) = 24.06826 27.78405 25.92615
#
# Velocity S-wave (km/s) = 3.70185 3.97735 3.84207
# Velocity P-wave (km/s) = 7.41812 8.40575 7.92733
#
# Compressibility (1/GPa) = 0.01549004
#
# Stress axis : x y z
#
# Youngs Moduli (GPa) = 58.45552 35.86521 61.62646
#
# Poissons Ratio (x) = 0.33782 0.54968
# Poissons Ratio (y) = 0.55060 0.27881
# Poissons Ratio (z) = 0.52140 0.16226
#
# Static dielectric constant tensor:
#      x y z
#    x 1.593580 0.000000 -0.021670 
#    y 0.000000 1.593010 0.000000 
#    z -0.021670 0.000000 1.577950 
# 
# From -- ./inp_files/53140.got.cif
#   From: 2010.05.17/outbox.cif.g08.bks.cpg/sg11_27_cif.got.tgz:53140.got - 2010.06.03 12:22:45.
