data_PCOD9162771
_publ_section_title
;
Structure prediction by ZEFSAII (Michael W. Deem and Ramdas Pophale) SiO2 
 PCOD9162771
Probable space group: P 21/M
;
_chemical_formula_sum "Si O2"
_cell_formula_units_Z 26
_cell_length_a 23.363019
_cell_length_b 8.828674
_cell_length_c 10.196040
_cell_angle_alpha 90.000000
_cell_angle_beta 35.307526
_cell_angle_gamma 90.000000
_cell_volume 1215.506762
_symmetry_space_group_name_H-M "P 21/M"
_symmetry_group_IT_number 11
_symmetry_cell_setting 'monoclinic'
loop_
_space_group_symop_operation_xyz
x,y,z
-x,1/2+y,-z
-x,-y,-z
x,1/2-y,z
loop_
_atom_site_type_symbol
_atom_site_label
_atom_site_fract_x
_atom_site_fract_y
_atom_site_fract_z
Si Si1 0.831806 0.985787 0.564146
Si Si2 0.385231 0.573575 0.090016
Si Si3 0.055555 0.750000 0.563554
Si Si4 0.412805 0.928468 0.346557
Si Si5 0.840806 0.250000 0.897121
Si Si6 0.069125 0.250000 0.446840
Si Si7 0.239003 0.437045 0.825235
Si Si8 0.899447 0.916715 0.159046
O O1 0.720926 0.046711 0.777097
O O2 0.920038 0.106602 0.398044
O O3 0.865484 0.887502 0.624856
O O4 0.839630 0.910677 0.407259
O O5 0.413147 0.750000 0.025524
O O6 0.379736 0.541832 0.257067
O O7 0.471560 0.471302 0.868415
O O8 0.142694 0.750000 0.289999
O O9 0.958843 0.750000 0.654101
O O10 0.397259 0.750000 0.401501
O O11 0.349141 0.027727 0.566025
O O12 0.958995 0.250000 0.720277
O O13 0.791714 0.413903 0.027059
O O14 0.233880 0.250000 0.866063
O O15 0.168668 0.471889 0.831406
O O16 0.927206 0.750000 0.066364
O O17 0.000000 0.000000 0.000000
#
# Coordination Sequence:
#
# PCOD9162771 Si02
#       8
#     4   4   2   4   2   2   4   4
#     4  12  21  42  64  88 128 168 214 270 331 381
#     4  10  21  35  58  94 129 167 211 261 322 404
#     4  10  26  43  65  89 119 177 228 277 323 372
#     4  10  20  35  60  94 135 168 201 258 331 404
#     4  10  24  47  62  91 132 169 230 277 316 380
#     4  10  24  42  59  88 123 170 216 280 313 378
#     4  11  22  40  65  95 133 177 212 263 336 405
#     4  11  25  37  58  96 130 169 211 262 330 411
#
# _framework density 21.390256000000001
#
# number of rings (size 3 to 8) (size 9 to 14) (size 15 to 20)
#    0.462    0.923    3.846    1.846    3.231    0.615 
#    2.769    0.000    0.000    0.923    0.000    0.000 
#    0.000    0.000    0.000    0.000    0.000    0.000 
#
# Total GULP energy -144801.942004 kJ/mol
# GULP energy per Si atom -5569.305462 kJ/mol
# Density = 2.134157 g / cm^3
# Si number density = 21.390256 Si / 1000 Ang^3
#
#
#
# Elastic Constant Matrix: (Units=GPa)
#
#
# Indices 1 2 3 4 5 6 
#
# 1 60.2395 19.3872 21.4126 0.0000 -14.6364 0.0000
# 2 19.3872 88.9324 35.6838 0.0000 10.3835 0.0000
# 3 21.4126 35.6838 95.3870 0.0000 3.4120 0.0000
# 4 0.0000 0.0000 0.0000 31.4910 0.0000 -16.3955
# 5 -14.6364 10.3835 3.4120 0.0000 23.1540 0.0000
# 6 0.0000 0.0000 0.0000 -16.3955 0.0000 14.8348
#
#
#
# Elastic Compliance Matrix: (Units=1/GPa)
#
#
# Indices 1 2 3 4 5 6 
#
# 1 0.024453 -0.005934 -0.003938 0.000000 0.018699 0.000000
# 2 -0.005934 0.015332 -0.004045 0.000000 -0.010031 0.000000
# 3 -0.003938 -0.004045 0.012973 0.000000 -0.002587 0.000000
# 4 0.000000 0.000000 0.000000 0.074791 0.000000 0.082659
# 5 0.018699 -0.010031 -0.002587 0.000000 0.059889 0.000000
# 6 0.000000 0.000000 0.000000 0.082659 0.000000 0.158764
#
#
# Mechanical properties :
#
#
# Convention : Reuss Voigt Hill
#
# Bulk Modulus (GPa) = 40.12059 44.16956 42.14507
# Shear Modulus (GPa) = 13.07717 25.10099 19.08908
#
# Velocity S-wave (km/s) = 2.47525 3.42932 2.99058
# Velocity P-wave (km/s) = 5.19292 6.03113 5.62765
#
# Compressibility (1/GPa) = 0.02492486
#
# Stress axis : x y z
#
# Youngs Moduli (GPa) = 40.89412 65.22210 77.08067
#
# Poissons Ratio (x) = 0.38702 0.30357
# Poissons Ratio (y) = 0.24266 0.31178
# Poissons Ratio (z) = 0.16106 0.26382
#
# Static dielectric constant tensor:
#      x y z
#    x 1.605950 0.000000 0.056010 
#    y 0.000000 1.858400 0.000000 
#    z 0.056010 0.000000 1.780440 
# 
# From -- ./inp_files/44637.got.cif
#   From: 2010.05.17/outbox.cif.g08.bks.cpg/sg11_23_cif.got.tgz:44637.got - 2010.06.03 12:22:45.
