data_PCOD9162365
_publ_section_title
;
Structure prediction by ZEFSAII (Michael W. Deem and Ramdas Pophale) SiO2 
 PCOD9162365
Probable space group: P 21/M
;
_chemical_formula_sum "Si O2"
_cell_formula_units_Z 32
_cell_length_a 7.739569
_cell_length_b 20.434344
_cell_length_c 11.136751
_cell_angle_alpha 90.000000
_cell_angle_beta 120.353967
_cell_angle_gamma 90.000000
_cell_volume 1519.870190
_symmetry_space_group_name_H-M "P 21/M"
_symmetry_group_IT_number 11
_symmetry_cell_setting 'monoclinic'
loop_
_space_group_symop_operation_xyz
x,y,z
-x,1/2+y,-z
-x,-y,-z
x,1/2-y,z
loop_
_atom_site_type_symbol
_atom_site_label
_atom_site_fract_x
_atom_site_fract_y
_atom_site_fract_z
Si Si1 0.229425 0.929159 0.377000
Si Si2 0.252460 0.825569 0.586412
Si Si3 0.967011 0.676988 0.722308
Si Si4 0.475053 0.082643 0.176725
Si Si5 0.385263 0.062773 0.763575
Si Si6 0.744785 0.401304 0.031122
Si Si7 0.708097 0.928705 0.518757
Si Si8 0.883955 0.953735 0.092735
O O1 0.180831 0.870030 0.450112
O O2 0.468230 0.928550 0.443821
O O3 0.100302 0.928933 0.209429
O O4 0.193197 0.000859 0.421827
O O5 0.285991 0.750000 0.564791
O O6 0.100947 0.826070 0.646946
O O7 0.449585 0.862174 0.707092
O O8 0.888051 0.750000 0.707572
O O9 0.107336 0.656721 0.882932
O O10 0.801874 0.622266 0.642857
O O11 0.609367 0.088990 0.103510
O O12 0.531840 0.009795 0.242546
O O13 0.245262 0.083099 0.054064
O O14 0.260836 0.089639 0.608978
O O15 0.245709 0.054700 0.830245
O O16 0.578227 0.104778 0.869851
O O17 0.866791 0.469082 0.056741
#
# Coordination Sequence:
#
# PCOD9162365 Si02
#       8
#     4   4   4   4   4   4   4   4
#     4  11  22  34  50  77 110 144 179 217 261 310
#     4  10  20  35  56  79 103 136 177 220 268 319
#     4  10  20  35  56  79 103 136 177 220 268 319
#     4   8  15  29  51  79 104 129 167 218 268 311
#     4   9  16  30  54  78 103 134 170 217 266 307
#     4   8  15  29  51  79 104 129 167 218 268 311
#     4  11  22  34  50  77 110 144 179 217 261 310
#     4   9  16  30  54  78 103 134 170 217 266 307
#
# _framework density 21.054428999999999
#
# number of rings (size 3 to 8) (size 9 to 14) (size 15 to 20)
#    0.000    2.500    2.500    2.250    0.000    1.500 
#    0.000    5.000    0.000    4.500    0.000    0.000 
#    0.000    0.000    0.000    0.000    0.000    0.000 
#
# Total GULP energy -178673.276690 kJ/mol
# GULP energy per Si atom -5583.539897 kJ/mol
# Density = 2.100651 g / cm^3
# Si number density = 21.054429 Si / 1000 Ang^3
#
#
#
# Elastic Constant Matrix: (Units=GPa)
#
#
# Indices 1 2 3 4 5 6 
#
# 1 53.8482 15.0312 13.1403 0.0000 6.2456 0.0000
# 2 15.0312 106.9425 41.1863 0.0000 14.1926 0.0000
# 3 13.1403 41.1863 90.5324 0.0000 29.1390 0.0000
# 4 0.0000 0.0000 0.0000 28.4040 0.0000 1.4655
# 5 6.2456 14.1926 29.1390 0.0000 28.7122 0.0000
# 6 0.0000 0.0000 0.0000 1.4655 0.0000 11.4626
#
#
#
# Elastic Compliance Matrix: (Units=1/GPa)
#
#
# Indices 1 2 3 4 5 6 
#
# 1 0.019677 -0.001999 -0.001317 0.000000 -0.001955 0.000000
# 2 -0.001999 0.011546 -0.004850 0.000000 -0.000351 0.000000
# 3 -0.001317 -0.004850 0.018682 0.000000 -0.016276 0.000000
# 4 0.000000 0.000000 0.000000 0.035440 0.000000 -0.004531
# 5 -0.001955 -0.000351 -0.016276 0.000000 0.051945 0.000000
# 6 0.000000 0.000000 0.000000 -0.004531 0.000000 0.087820
#
#
# Mechanical properties :
#
#
# Convention : Reuss Voigt Hill
#
# Bulk Modulus (GPa) = 29.78580 43.33763 36.56171
# Shear Modulus (GPa) = 19.79164 25.84677 22.81921
#
# Velocity S-wave (km/s) = 3.06931 3.50754 3.29571
# Velocity P-wave (km/s) = 5.17094 6.08540 5.64671
#
# Compressibility (1/GPa) = 0.03357305
#
# Stress axis : x y z
#
# Youngs Moduli (GPa) = 50.82094 86.60968 53.52804
#
# Poissons Ratio (x) = 0.17312 0.07051
# Poissons Ratio (y) = 0.10158 0.25959
# Poissons Ratio (z) = 0.06695 0.42003
#
# Static dielectric constant tensor:
#      x y z
#    x 1.852640 0.000000 -0.019720 
#    y 0.000000 1.715270 0.000000 
#    z -0.019720 0.000000 1.772100 
# 
# From -- ./inp_files/23060.got.cif
#   From: 2010.05.17/outbox.cif.g08.bks.cpg/sg11_12_cif.got.tgz:23060.got - 2010.06.03 12:22:45.
