data_PCOD9162679
_publ_section_title
;
Structure prediction by ZEFSAII (Michael W. Deem and Ramdas Pophale) SiO2 
 PCOD9162679
Probable space group: P 21/M
;
_chemical_formula_sum "Si O2"
_cell_formula_units_Z 32
_cell_length_a 20.569056
_cell_length_b 9.231412
_cell_length_c 21.750350
_cell_angle_alpha 90.000000
_cell_angle_beta 158.090464
_cell_angle_gamma 90.000000
_cell_volume 1541.072654
_symmetry_space_group_name_H-M "P 21/M"
_symmetry_group_IT_number 11
_symmetry_cell_setting 'monoclinic'
loop_
_space_group_symop_operation_xyz
x,y,z
-x,1/2+y,-z
-x,-y,-z
x,1/2-y,z
loop_
_atom_site_type_symbol
_atom_site_label
_atom_site_fract_x
_atom_site_fract_y
_atom_site_fract_z
Si Si1 0.509222 0.923962 0.724408
Si Si2 0.146718 0.574726 0.347366
Si Si3 0.154632 0.922665 0.214479
Si Si4 0.121548 0.922790 0.555188
Si Si5 0.773913 0.422684 0.048581
Si Si6 0.144763 0.090243 0.768372
Si Si7 0.628848 0.590193 0.153779
Si Si8 0.758410 0.921845 0.828553
O O1 0.518620 0.750000 0.744641
O O2 0.307619 0.961312 0.533661
O O3 0.614599 0.953437 0.753550
O O4 0.618067 0.008037 0.871991
O O5 0.121208 0.750000 0.327057
O O6 0.201311 0.538490 0.325120
O O7 0.962500 0.495446 0.197669
O O8 0.171803 0.750000 0.223139
O O9 0.259573 0.998610 0.252092
O O10 0.949737 0.959792 0.023836
O O11 0.130650 0.750000 0.573445
O O12 0.050850 0.948842 0.424414
O O13 0.304031 0.998498 0.729906
O O14 0.000000 0.000000 0.500000
O O15 0.779213 0.250000 0.046322
O O16 0.759281 0.473097 0.106697
O O17 0.151035 0.250000 0.803510
O O18 0.225681 0.107460 0.771988
O O19 0.570973 0.750000 0.121305
O O20 0.500000 0.500000 0.000000
O O21 0.757105 0.750000 0.816552
#
# Coordination Sequence:
#
# PCOD9162679 Si02
#       8
#     4   4   4   4   4   4   4   4
#     4  10  21  40  64  85 112 156 203 245 294 360
#     4  10  21  40  64  85 111 155 203 244 294 361
#     4   9  17  31  53  82 114 147 189 238 294 358
#     4   9  17  32  56  83 110 144 184 226 275 333
#     4  12  25  40  61  87 120 156 196 253 306 346
#     4   9  20  39  61  83 112 155 198 228 276 349
#     4  10  20  35  58  89 122 155 189 234 285 340
#     4   9  17  31  53  82 114 147 188 238 295 357
#
# _framework density 20.764755999999998
#
# number of rings (size 3 to 8) (size 9 to 14) (size 15 to 20)
#    0.000    2.250    1.250    2.625    0.000    5.000 
#    2.250    0.000    0.000    0.000    0.000    0.000 
#    0.000    0.000    0.000    0.000    0.000    0.000 
#
# Total GULP energy -178362.424328 kJ/mol
# GULP energy per Si atom -5573.825760 kJ/mol
# Density = 2.071749 g / cm^3
# Si number density = 20.764756 Si / 1000 Ang^3
#
#
#
# Elastic Constant Matrix: (Units=GPa)
#
#
# Indices 1 2 3 4 5 6 
#
# 1 44.8464 24.6509 22.8746 0.0000 -7.5577 0.0000
# 2 24.6509 96.1559 72.2672 0.0000 -19.0072 0.0000
# 3 22.8746 72.2672 134.6201 0.0000 -26.5446 0.0000
# 4 0.0000 0.0000 0.0000 27.4690 0.0000 -6.7808
# 5 -7.5577 -19.0072 -26.5446 0.0000 15.5189 0.0000
# 6 0.0000 0.0000 0.0000 -6.7808 0.0000 26.2462
#
#
#
# Elastic Compliance Matrix: (Units=1/GPa)
#
#
# Indices 1 2 3 4 5 6 
#
# 1 0.026400 -0.005246 -0.000606 0.000000 0.005395 0.000000
# 2 -0.005246 0.019171 -0.007958 0.000000 0.007314 0.000000
# 3 -0.000606 -0.007958 0.014822 0.000000 0.015312 0.000000
# 4 0.000000 0.000000 0.000000 0.038885 0.000000 0.010046
# 5 0.005395 0.007314 0.015312 0.000000 0.102212 0.000000
# 6 0.000000 0.000000 0.000000 0.010046 0.000000 0.040696
#
#
# Mechanical properties :
#
#
# Convention : Reuss Voigt Hill
#
# Bulk Modulus (GPa) = 30.51206 57.24532 43.87869
# Shear Modulus (GPa) = 17.81055 24.23546 21.02301
#
# Velocity S-wave (km/s) = 2.93188 3.42006 3.18533
# Velocity P-wave (km/s) = 5.11735 6.57450 5.89115
#
# Compressibility (1/GPa) = 0.03277392
#
# Stress axis : x y z
#
# Youngs Moduli (GPa) = 37.87832 52.16084 67.46508
#
# Poissons Ratio (x) = 0.27366 0.04086
# Poissons Ratio (y) = 0.19872 0.53689
# Poissons Ratio (z) = 0.02294 0.41510
#
# Static dielectric constant tensor:
#      x y z
#    x 1.825480 0.000000 0.106600 
#    y 0.000000 1.719290 0.000000 
#    z 0.106600 0.000000 1.913600 
# 
# From -- ./inp_files/70001.got.cif
#   From: 2010.05.17/outbox.cif.g08.bks.cpg/sg11_36_cif.got.tgz:70001.got - 2010.06.03 12:22:45.
