data_PCOD9162465
_publ_section_title
;
Structure prediction by ZEFSAII (Michael W. Deem and Ramdas Pophale) SiO2 
 PCOD9162465
Probable space group: P 21/M
;
_chemical_formula_sum "Si O2"
_cell_formula_units_Z 28
_cell_length_a 30.868738
_cell_length_b 8.563958
_cell_length_c 10.507691
_cell_angle_alpha 90.000000
_cell_angle_beta 146.140024
_cell_angle_gamma 90.000000
_cell_volume 1547.692414
_symmetry_space_group_name_H-M "P 21/M"
_symmetry_group_IT_number 11
_symmetry_cell_setting 'monoclinic'
loop_
_space_group_symop_operation_xyz
x,y,z
-x,1/2+y,-z
-x,-y,-z
x,1/2-y,z
loop_
_atom_site_type_symbol
_atom_site_label
_atom_site_fract_x
_atom_site_fract_y
_atom_site_fract_z
Si Si1 0.497104 0.063940 0.137088
Si Si2 0.236163 0.561302 0.349300
Si Si3 0.333363 0.562834 0.831527
Si Si4 0.658832 0.937279 0.625706
Si Si5 0.906057 0.938704 0.401172
Si Si6 0.739795 0.938727 0.088929
Si Si7 0.921308 0.438509 0.152580
O O1 0.499991 0.250000 0.139533
O O2 0.572283 0.000520 0.394169
O O3 0.500000 0.000000 0.000000
O O4 0.417563 0.008386 0.007697
O O5 0.237708 0.750000 0.350440
O O6 0.275099 0.510976 0.576262
O O7 0.287918 0.501160 0.358547
O O8 0.147318 0.509809 0.108727
O O9 0.339668 0.750000 0.842095
O O10 0.300159 0.510614 0.885604
O O11 0.658141 0.750000 0.616892
O O12 0.695292 0.982781 0.850339
O O13 0.904840 0.750000 0.391911
O O14 0.829815 0.988147 0.291957
O O15 0.990163 0.988345 0.660522
O O16 0.901946 0.001224 0.246945
O O17 0.737501 0.750000 0.093343
O O18 0.920850 0.250000 0.154574
#
# Coordination Sequence:
#
# PCOD9162465 Si02
#       7
#     4   4   4   4   4   4   4
#     4  12  24  40  62  88 117 148 188 236 286 339
#     4  10  20  35  56  85 115 148 191 239 286 339
#     4  11  24  40  59  83 115 154 194 237 288 343
#     4  11  22  37  61  87 114 150 192 238 284 339
#     4   9  17  32  53  81 115 149 187 234 285 339
#     4  10  22  39  57  83 118 155 193 235 289 345
#     4   9  17  30  54  84 113 146 188 237 287 334
#
# _framework density 18.091449000000001
#
# number of rings (size 3 to 8) (size 9 to 14) (size 15 to 20)
#    0.000    1.714    2.857    2.143    0.000    2.857 
#    0.000    0.714    0.000    0.000    0.000    0.000 
#    0.000    0.000    0.000    0.000    0.000    0.000 
#
# Total GULP energy -156348.259271 kJ/mol
# GULP energy per Si atom -5583.866403 kJ/mol
# Density = 1.805027 g / cm^3
# Si number density = 18.091449 Si / 1000 Ang^3
#
#
#
# Elastic Constant Matrix: (Units=GPa)
#
#
# Indices 1 2 3 4 5 6 
#
# 1 122.5723 15.9908 73.0578 0.0000 6.8670 0.0000
# 2 15.9908 16.9608 27.5252 0.0000 -0.8974 0.0000
# 3 73.0578 27.5252 153.7251 0.0000 15.6691 0.0000
# 4 0.0000 0.0000 0.0000 21.1635 0.0000 -0.7050
# 5 6.8670 -0.8974 15.6691 0.0000 33.6580 0.0000
# 6 0.0000 0.0000 0.0000 -0.7050 0.0000 30.1765
#
#
#
# Elastic Compliance Matrix: (Units=1/GPa)
#
#
# Indices 1 2 3 4 5 6 
#
# 1 0.011475 -0.002811 -0.004938 0.000000 -0.000117 0.000000
# 2 -0.002811 0.086861 -0.015235 0.000000 0.009982 0.000000
# 3 -0.004938 -0.015235 0.012092 0.000000 -0.005028 0.000000
# 4 0.000000 0.000000 0.000000 0.047288 0.000000 0.001105
# 5 -0.000117 0.009982 -0.005028 0.000000 0.032341 0.000000
# 6 0.000000 0.000000 0.000000 0.001105 0.000000 0.033164
#
#
# Mechanical properties :
#
#
# Convention : Reuss Voigt Hill
#
# Bulk Modulus (GPa) = 15.51314 58.48955 37.00134
# Shear Modulus (GPa) = 17.20123 28.77855 22.98989
#
# Velocity S-wave (km/s) = 3.08684 3.99272 3.56864
# Velocity P-wave (km/s) = 4.61500 7.32502 6.12185
#
# Compressibility (1/GPa) = 0.06446150
#
# Stress axis : x y z
#
# Youngs Moduli (GPa) = 87.14485 11.51261 82.69668
#
# Poissons Ratio (x) = 0.03236 0.40838
# Poissons Ratio (y) = 0.24495 1.25984
# Poissons Ratio (z) = 0.43035 0.17539
#
# Static dielectric constant tensor:
#      x y z
#    x 1.578990 0.000000 0.022480 
#    y 0.000000 1.614950 0.000000 
#    z 0.022480 0.000000 1.638670 
# 
# From -- ./inp_files/28314.got.cif
#   From: 2010.05.17/outbox.cif.g08.bks.cpg/sg11_15_cif.got.tgz:28314.got - 2010.06.03 12:22:45.
