data_PCOD9162417
_publ_section_title
;
Structure prediction by ZEFSAII (Michael W. Deem and Ramdas Pophale) SiO2 
 PCOD9162417
Probable space group: P 21/M
;
_chemical_formula_sum "Si O2"
_cell_formula_units_Z 24
_cell_length_a 18.431862
_cell_length_b 8.793653
_cell_length_c 15.716049
_cell_angle_alpha 90.000000
_cell_angle_beta 148.666994
_cell_angle_gamma 90.000000
_cell_volume 1324.630182
_symmetry_space_group_name_H-M "P 21/M"
_symmetry_group_IT_number 11
_symmetry_cell_setting 'monoclinic'
loop_
_space_group_symop_operation_xyz
x,y,z
-x,1/2+y,-z
-x,-y,-z
x,1/2-y,z
loop_
_atom_site_type_symbol
_atom_site_label
_atom_site_fract_x
_atom_site_fract_y
_atom_site_fract_z
Si Si1 0.904183 0.568131 0.977100
Si Si2 0.913913 0.932895 0.492791
Si Si3 0.089643 0.431951 0.821844
Si Si4 0.402829 0.568328 0.330549
Si Si5 0.589509 0.566544 0.166841
Si Si6 0.398521 0.566998 0.133271
O O1 0.899069 0.750000 0.964838
O O2 0.750941 0.499150 0.813237
O O3 0.949636 0.531125 0.119581
O O4 0.000000 0.500000 0.000000
O O5 0.919097 0.750000 0.494821
O O6 0.751415 0.980932 0.326198
O O7 0.000000 0.000000 0.500000
O O8 0.987401 0.990779 0.652219
O O9 0.086622 0.250000 0.808175
O O10 0.248383 0.489907 0.967413
O O11 0.500000 0.500000 0.500000
O O12 0.399340 0.750000 0.334470
O O13 0.446586 0.529834 0.277396
O O14 0.587162 0.750000 0.159185
O O15 0.511615 0.522482 0.176177
O O16 0.500000 0.500000 0.000000
O O17 0.378696 0.750000 0.108988
#
# Coordination Sequence:
#
# PCOD9162417 Si02
#       6
#     4   4   4   4   4   4
#     4  10  21  37  57  82 113 148 187 232 280 333
#     4  11  23  38  57  82 112 146 183 225 273 327
#     4  10  21  37  57  83 112 143 182 227 275 327
#     4  10  20  35  56  82 112 147 186 229 279 334
#     4  10  22  38  56  80 107 138 178 221 267 319
#     4   9  19  37  58  79 107 144 182 222 273 330
#
# _framework density 18.118264
#
# number of rings (size 3 to 8) (size 9 to 14) (size 15 to 20)
#    0.000    2.000    0.000    3.000    0.000    8.667 
#    0.000    1.667    0.000    0.000    0.000    0.000 
#    0.000    0.000    0.000    0.000    0.000    0.000 
#
# Total GULP energy -134031.945597 kJ/mol
# GULP energy per Si atom -5584.664400 kJ/mol
# Density = 1.807703 g / cm^3
# Si number density = 18.118264 Si / 1000 Ang^3
#
#
#
# Elastic Constant Matrix: (Units=GPa)
#
#
# Indices 1 2 3 4 5 6 
#
# 1 201.7968 63.6712 113.3177 0.0000 -0.5099 0.0000
# 2 63.6712 53.1008 60.0148 0.0000 -6.9807 0.0000
# 3 113.3177 60.0148 178.3570 0.0000 -19.8037 0.0000
# 4 0.0000 0.0000 0.0000 37.4279 0.0000 -2.6122
# 5 -0.5099 -6.9807 -19.8037 0.0000 22.3577 0.0000
# 6 0.0000 0.0000 0.0000 -2.6122 0.0000 30.6738
#
#
#
# Elastic Compliance Matrix: (Units=1/GPa)
#
#
# Indices 1 2 3 4 5 6 
#
# 1 0.009761 -0.007634 -0.004295 0.000000 -0.005965 0.000000
# 2 -0.007634 0.036364 -0.006815 0.000000 0.005143 0.000000
# 3 -0.004295 -0.006815 0.011514 0.000000 0.007973 0.000000
# 4 0.000000 0.000000 0.000000 0.026878 0.000000 0.002289
# 5 -0.005965 0.005143 0.007973 0.000000 0.053259 0.000000
# 6 0.000000 0.000000 0.000000 0.002289 0.000000 0.032796
#
#
# Mechanical properties :
#
#
# Convention : Reuss Voigt Hill
#
# Bulk Modulus (GPa) = 49.62496 100.80690 75.21593
# Shear Modulus (GPa) = 23.28001 31.17529 27.22765
#
# Velocity S-wave (km/s) = 3.58843 4.15258 3.88077
# Velocity P-wave (km/s) = 6.67967 8.87417 7.85395
#
# Compressibility (1/GPa) = 0.02015115
#
# Stress axis : x y z
#
# Youngs Moduli (GPa) = 102.44842 27.49995 86.85023
#
# Poissons Ratio (x) = 0.20993 0.37305
# Poissons Ratio (y) = 0.78206 0.59187
# Poissons Ratio (z) = 0.44005 0.18741
#
# Static dielectric constant tensor:
#      x y z
#    x 1.618280 0.000000 -0.014160 
#    y 0.000000 1.607960 0.000000 
#    z -0.014160 0.000000 1.582750 
# 
# From -- ./inp_files/20552.got.cif
#   From: 2010.05.17/outbox.cif.g08.bks.cpg/sg11_11_cif.got.tgz:20552.got - 2010.06.03 12:22:45.
