data_PCOD9162902
_publ_section_title
;
Structure prediction by ZEFSAII (Michael W. Deem and Ramdas Pophale) SiO2 
 PCOD9162902
Probable space group: P 21/M
;
_chemical_formula_sum "Si O2"
_cell_formula_units_Z 28
_cell_length_a 14.943456
_cell_length_b 17.448268
_cell_length_c 7.039263
_cell_angle_alpha 90.000000
_cell_angle_beta 122.527411
_cell_angle_gamma 90.000000
_cell_volume 1547.488109
_symmetry_space_group_name_H-M "P 21/M"
_symmetry_group_IT_number 11
_symmetry_cell_setting 'monoclinic'
loop_
_space_group_symop_operation_xyz
x,y,z
-x,1/2+y,-z
-x,-y,-z
x,1/2-y,z
loop_
_atom_site_type_symbol
_atom_site_label
_atom_site_fract_x
_atom_site_fract_y
_atom_site_fract_z
Si Si1 0.102164 0.951906 0.052015
Si Si2 0.623623 0.433626 0.227741
Si Si3 0.769638 0.840461 0.391575
Si Si4 0.697299 0.549442 0.640710
Si Si5 0.608285 0.574439 0.937513
Si Si6 0.828222 0.161975 0.536047
Si Si7 0.980568 0.162180 0.354114
O O1 0.135597 0.891566 0.251330
O O2 0.200978 0.009258 0.145744
O O3 0.073056 0.901935 0.836716
O O4 0.000000 0.000000 0.000000
O O5 0.645110 0.489096 0.434177
O O6 0.507967 0.398114 0.129300
O O7 0.719891 0.374131 0.329233
O O8 0.619742 0.488749 0.039333
O O9 0.752735 0.750000 0.386545
O O10 0.737261 0.882328 0.550340
O O11 0.894058 0.854142 0.492564
O O12 0.698457 0.875823 0.143080
O O13 0.621964 0.573842 0.727018
O O14 0.811065 0.250000 0.573932
O O15 0.921240 0.160059 0.486703
O O16 0.968743 0.250000 0.265382
#
# Coordination Sequence:
#
# PCOD9162902 Si02
#       7
#     4   4   4   4   4   4   4
#     4  11  21  34  55  83 110 144 183 226 272 327
#     4   9  20  38  57  83 110 136 185 234 267 321
#     4  10  22  36  51  80 114 142 181 224 267 329
#     4  10  20  36  56  83 109 142 181 228 276 323
#     4  10  20  36  60  81 107 147 183 224 277 325
#     4  10  22  38  57  80 110 147 182 224 278 329
#     4  10  21  37  55  79 115 148 179 224 274 328
#
# _framework density 18.093838000000002
#
# number of rings (size 3 to 8) (size 9 to 14) (size 15 to 20)
#    0.000    2.000    1.429    1.714    2.000    1.714 
#    0.000    0.000    0.000    0.000    0.000    0.000 
#    0.000    0.000    0.000    0.000    0.000    0.000 
#
# Total GULP energy -156287.663418 kJ/mol
# GULP energy per Si atom -5581.702265 kJ/mol
# Density = 1.805266 g / cm^3
# Si number density = 18.093838 Si / 1000 Ang^3
#
#
#
# Elastic Constant Matrix: (Units=GPa)
#
#
# Indices 1 2 3 4 5 6 
#
# 1 75.6451 19.8622 17.6635 0.0000 -6.9294 0.0000
# 2 19.8622 56.5711 9.5198 0.0000 -3.8388 0.0000
# 3 17.6635 9.5198 34.4713 0.0000 -1.7865 0.0000
# 4 0.0000 0.0000 0.0000 17.8889 0.0000 -14.6667
# 5 -6.9294 -3.8388 -1.7865 0.0000 26.1394 0.0000
# 6 0.0000 0.0000 0.0000 -14.6667 0.0000 -23.8809
#
#
#
# Elastic Compliance Matrix: (Units=1/GPa)
#
#
# Indices 1 2 3 4 5 6 
#
# 1 0.016278 -0.004323 -0.006981 0.000000 0.003203 0.000000
# 2 -0.004323 0.019835 -0.003182 0.000000 0.001549 0.000000
# 3 -0.006981 -0.003182 0.033464 0.000000 -0.000031 0.000000
# 4 0.000000 0.000000 0.000000 0.037179 0.000000 -0.022834
# 5 0.003203 0.001549 -0.000031 0.000000 0.039331 0.000000
# 6 0.000000 0.000000 0.000000 -0.022834 0.000000 -0.027851
#
#
# Mechanical properties :
#
#
# Convention : Reuss Voigt Hill
#
# Bulk Modulus (GPa) = 24.62789 28.97537 26.80163
# Shear Modulus (GPa) = 31.10500 12.00564 21.55532
#
# Velocity S-wave (km/s) = 4.15069 2.57868 3.45528
# Velocity P-wave (km/s) = 6.05076 4.99148 5.54647
#
# Compressibility (1/GPa) = 0.04060437
#
# Stress axis : x y z
#
# Youngs Moduli (GPa) = 61.43124 50.41495 29.88271
#
# Poissons Ratio (x) = 0.21795 0.20862
# Poissons Ratio (y) = 0.26558 0.09510
# Poissons Ratio (z) = 0.42887 0.16044
#
# Static dielectric constant tensor:
#      x y z
#    x 1.617350 0.000000 0.008080 
#    y 0.000000 1.606050 0.000000 
#    z 0.008080 0.000000 1.610110 
# 
# From -- ./inp_files/6695.got.cif
#   From: 2010.05.17/outbox.cif.g08.bks.cpg/sg11_4_cif.got.tgz:6695.got - 2010.06.03 12:22:45.
