data_PCOD9162233
_publ_section_title
;
Structure prediction by ZEFSAII (Michael W. Deem and Ramdas Pophale) SiO2 
 PCOD9162233
Probable space group: P 21/M
;
_chemical_formula_sum "Si O2"
_cell_formula_units_Z 32
_cell_length_a 13.285282
_cell_length_b 8.237523
_cell_length_c 33.073700
_cell_angle_alpha 90.000000
_cell_angle_beta 153.294373
_cell_angle_gamma 90.000000
_cell_volume 1626.633740
_symmetry_space_group_name_H-M "P 21/M"
_symmetry_group_IT_number 11
_symmetry_cell_setting 'monoclinic'
loop_
_space_group_symop_operation_xyz
x,y,z
-x,1/2+y,-z
-x,-y,-z
x,1/2-y,z
loop_
_atom_site_type_symbol
_atom_site_label
_atom_site_fract_x
_atom_site_fract_y
_atom_site_fract_z
Si Si1 0.574102 0.554122 0.285808
Si Si2 0.161127 0.443481 0.287487
Si Si3 0.562766 0.446237 0.374299
Si Si4 0.107326 0.555225 0.356442
Si Si5 0.411821 0.053130 0.844179
Si Si6 0.346189 0.056087 0.908313
Si Si7 0.754024 0.053756 0.899636
Si Si8 0.059456 0.551592 0.428338
O O1 0.578296 0.750000 0.286236
O O2 0.567123 0.501783 0.329710
O O3 0.356414 0.499359 0.182302
O O4 0.804221 0.499994 0.346093
O O5 0.159614 0.250000 0.285219
O O6 0.347591 0.503668 0.322839
O O7 0.212941 0.489895 0.352830
O O8 0.913372 0.502687 0.185980
O O9 0.560209 0.250000 0.373497
O O10 0.781991 0.498832 0.477958
O O11 0.132849 0.750000 0.364280
O O12 0.843587 0.514114 0.257984
O O13 0.160873 0.498943 0.421271
O O14 0.424224 0.250000 0.848058
O O15 0.452703 0.996353 0.904315
O O16 0.585229 0.993111 0.873695
O O17 0.344623 0.250000 0.907228
O O18 0.500000 0.000000 0.000000
O O19 0.751739 0.250000 0.898543
O O20 0.000000 0.000000 0.000000
O O21 0.056258 0.750000 0.425648
#
# Coordination Sequence:
#
# PCOD9162233 Si02
#       8
#     4   4   4   4   4   4   4   4
#     4  10  20  36  59  81 107 143 189 236 276 328
#     4  10  21  36  51  76 115 150 181 225 279 330
#     4  10  22  37  54  79 116 154 185 224 280 337
#     4   9  16  32  59  81 100 137 185 229 274 327
#     4   8  15  31  53  73  97 133 173 211 261 323
#     4  10  20  35  58  82 104 140 185 228 275 331
#     4  10  20  35  54  79 106 136 176 222 273 327
#     4   9  17  34  60  84 106 143 190 232 280 338
#
# _framework density 19.672529000000001
#
# number of rings (size 3 to 8) (size 9 to 14) (size 15 to 20)
#    0.000    2.500    1.250    1.875    0.000    3.000 
#    0.000    8.125    0.000    0.000    0.000    0.000 
#    0.000    0.000    0.000    0.000    0.000    0.000 
#
# Total GULP energy -178438.813644 kJ/mol
# GULP energy per Si atom -5576.212926 kJ/mol
# Density = 1.962775 g / cm^3
# Si number density = 19.672529 Si / 1000 Ang^3
#
#
#
# Elastic Constant Matrix: (Units=GPa)
#
#
# Indices 1 2 3 4 5 6 
#
# 1 113.3004 14.1710 57.5169 0.0000 -22.9242 0.0000
# 2 14.1710 18.0674 15.5516 0.0000 -3.2864 0.0000
# 3 57.5169 15.5516 118.0304 0.0000 -28.3985 0.0000
# 4 0.0000 0.0000 0.0000 19.5597 0.0000 -4.1165
# 5 -22.9242 -3.2864 -28.3985 0.0000 36.6789 0.0000
# 6 0.0000 0.0000 0.0000 -4.1165 0.0000 25.2308
#
#
#
# Elastic Compliance Matrix: (Units=1/GPa)
#
#
# Indices 1 2 3 4 5 6 
#
# 1 0.012551 -0.005276 -0.004482 0.000000 0.003901 0.000000
# 2 -0.005276 0.064674 -0.006574 0.000000 -0.002593 0.000000
# 3 -0.004482 -0.006574 0.013158 0.000000 0.006797 0.000000
# 4 0.000000 0.000000 0.000000 0.052944 0.000000 0.008638
# 5 0.003901 -0.002593 0.006797 0.000000 0.034732 0.000000
# 6 0.000000 0.000000 0.000000 0.008638 0.000000 0.041043
#
#
# Mechanical properties :
#
#
# Convention : Reuss Voigt Hill
#
# Bulk Modulus (GPa) = 17.32576 47.09746 32.21161
# Shear Modulus (GPa) = 18.44976 27.10446 22.77711
#
# Velocity S-wave (km/s) = 3.06575 3.71588 3.40636
# Velocity P-wave (km/s) = 4.62146 6.51176 5.64628
#
# Compressibility (1/GPa) = 0.05771754
#
# Stress axis : x y z
#
# Youngs Moduli (GPa) = 79.67663 15.46222 75.99787
#
# Poissons Ratio (x) = 0.08158 0.34064
# Poissons Ratio (y) = 0.42040 0.49961
# Poissons Ratio (z) = 0.35713 0.10165
#
# Static dielectric constant tensor:
#      x y z
#    x 1.705720 0.000000 -0.010520 
#    y 0.000000 1.698090 0.000000 
#    z -0.010520 0.000000 1.702550 
# 
# From -- ./inp_files/73159.got.cif
#   From: 2010.05.17/outbox.cif.g08.bks.cpg/sg11_37_cif.got.tgz:73159.got - 2010.06.03 12:22:45.
