data_PCOD9162013
_publ_section_title
;
Structure prediction by ZEFSAII (Michael W. Deem and Ramdas Pophale) SiO2 
 PCOD9162013
Probable space group: P 21/M
;
_chemical_formula_sum "Si O2"
_cell_formula_units_Z 28
_cell_length_a 17.368059
_cell_length_b 14.798120
_cell_length_c 5.597819
_cell_angle_alpha 90.000000
_cell_angle_beta 111.494994
_cell_angle_gamma 90.000000
_cell_volume 1338.657666
_symmetry_space_group_name_H-M "P 21/M"
_symmetry_group_IT_number 11
_symmetry_cell_setting 'monoclinic'
loop_
_space_group_symop_operation_xyz
x,y,z
-x,1/2+y,-z
-x,-y,-z
x,1/2-y,z
loop_
_atom_site_type_symbol
_atom_site_label
_atom_site_fract_x
_atom_site_fract_y
_atom_site_fract_z
Si Si1 0.232821 0.404887 0.311106
Si Si2 0.936933 0.080695 0.196000
Si Si3 0.641572 0.653218 0.168351
Si Si4 0.155505 0.250000 0.957296
Si Si5 0.096686 0.530885 0.343256
Si Si6 0.056250 0.250000 0.349819
Si Si7 0.626155 0.509571 0.781257
Si Si8 0.500367 0.145935 0.622335
O O1 0.288536 0.345698 0.549417
O O2 0.206208 0.342223 0.059092
O O3 0.153110 0.444214 0.352311
O O4 0.293879 0.484324 0.295308
O O5 0.882416 0.069098 0.371721
O O6 0.997125 0.164008 0.302773
O O7 0.894191 0.088569 0.889075
O O8 0.998663 0.993791 0.247741
O O9 0.646482 0.750000 0.039717
O O10 0.552028 0.649878 0.192720
O O11 0.652787 0.557502 0.054568
O O12 0.097073 0.250000 0.130847
O O13 0.115178 0.250000 0.650365
O O14 0.558519 0.583975 0.611864
O O15 0.583170 0.412921 0.745970
O O16 0.511857 0.250000 0.555389
#
# Coordination Sequence:
#
# PCOD9162013 Si02
#       8
#     4   4   4   2   4   2   4   4
#     4  11  24  36  55  89 126 157 195 251 320 386
#     4  10  22  39  61  85 115 157 209 247 299 365
#     4  10  20  34  56  88 123 156 197 253 312 372
#     4  12  26  36  60  98 130 158 194 259 331 380
#     4  10  22  38  59  86 119 161 199 247 302 373
#     4  12  24  42  64  92 120 158 206 265 313 374
#     4  10  21  34  60  86 120 162 201 251 317 372
#     4   9  19  38  57  86 117 158 211 257 301 364
#
# _framework density 20.916477
#
# number of rings (size 3 to 8) (size 9 to 14) (size 15 to 20)
#    0.000    1.714    2.143    1.714   10.000    0.000 
#    0.000    0.000    3.143    0.000    0.000    0.000 
#    0.000    0.000    0.000    0.000    0.000    0.000 
#
# Total GULP energy -156138.169060 kJ/mol
# GULP energy per Si atom -5576.363181 kJ/mol
# Density = 2.086887 g / cm^3
# Si number density = 20.916477 Si / 1000 Ang^3
#
#
#
# Elastic Constant Matrix: (Units=GPa)
#
#
# Indices 1 2 3 4 5 6 
#
# 1 85.3297 38.6353 25.1936 0.0000 -9.1879 0.0000
# 2 38.6353 88.4092 24.4082 0.0000 -1.3143 0.0000
# 3 25.1936 24.4082 86.9165 0.0000 -24.2634 0.0000
# 4 0.0000 0.0000 0.0000 18.1474 0.0000 -12.9989
# 5 -9.1879 -1.3143 -24.2634 0.0000 23.3443 0.0000
# 6 0.0000 0.0000 0.0000 -12.9989 0.0000 10.1518
#
#
#
# Elastic Compliance Matrix: (Units=1/GPa)
#
#
# Indices 1 2 3 4 5 6 
#
# 1 0.015460 -0.006259 -0.001583 0.000000 0.004088 0.000000
# 2 -0.006259 0.015076 -0.004043 0.000000 -0.005817 0.000000
# 3 -0.001583 -0.004043 0.018119 0.000000 0.017982 0.000000
# 4 0.000000 0.000000 0.000000 0.665388 0.000000 0.851998
# 5 0.004088 -0.005817 0.017982 0.000000 0.062808 0.000000
# 6 0.000000 0.000000 0.000000 0.851998 0.000000 1.189449
#
#
# Mechanical properties :
#
#
# Convention : Reuss Voigt Hill
#
# Bulk Modulus (GPa) = 40.18287 48.56996 44.37642
# Shear Modulus (GPa) = 2.50204 21.82326 12.16265
#
# Velocity S-wave (km/s) = 1.09490 3.23360 2.41402
# Velocity P-wave (km/s) = 4.56631 6.10024 5.38814
#
# Compressibility (1/GPa) = 0.02488622
#
# Stress axis : x y z
#
# Youngs Moduli (GPa) = 64.68140 66.33103 55.18948
#
# Poissons Ratio (x) = 0.41514 0.08735
# Poissons Ratio (y) = 0.40481 0.22316
# Poissons Ratio (z) = 0.10237 0.26821
#
# Static dielectric constant tensor:
#      x y z
#    x 1.779700 0.000000 -0.035300 
#    y 0.000000 1.758050 0.000000 
#    z -0.035300 0.000000 1.834470 
# 
# From -- ./inp_files/8165.got.cif
#   From: 2010.05.17/outbox.cif.g08.bks.cpg/sg11_5_cif.got.tgz:8165.got - 2010.06.03 12:22:45.
