data_PCOD9162580
_publ_section_title
;
Structure prediction by ZEFSAII (Michael W. Deem and Ramdas Pophale) SiO2 
 PCOD9162580
Probable space group: P 21/M
;
_chemical_formula_sum "Si O2"
_cell_formula_units_Z 28
_cell_length_a 12.013809
_cell_length_b 20.904543
_cell_length_c 5.148708
_cell_angle_alpha 90.000000
_cell_angle_beta 78.582748
_cell_angle_gamma 90.000000
_cell_volume 1267.475308
_symmetry_space_group_name_H-M "P 21/M"
_symmetry_group_IT_number 11
_symmetry_cell_setting 'monoclinic'
loop_
_space_group_symop_operation_xyz
x,y,z
-x,1/2+y,-z
-x,-y,-z
x,1/2-y,z
loop_
_atom_site_type_symbol
_atom_site_label
_atom_site_fract_x
_atom_site_fract_y
_atom_site_fract_z
Si Si1 0.218221 0.417312 0.117670
Si Si2 0.027283 0.180211 0.248235
Si Si3 0.564627 0.827354 0.921858
Si Si4 0.785505 0.176577 0.080538
Si Si5 0.423593 0.826046 0.477579
Si Si6 0.869694 0.516788 0.316579
Si Si7 0.915042 0.406167 0.661356
O O1 0.329750 0.373769 0.073757
O O2 0.205900 0.471109 0.901692
O O3 0.189453 0.446919 0.412003
O O4 0.116593 0.368877 0.095477
O O5 0.078909 0.250000 0.237817
O O6 0.991215 0.154630 0.546735
O O7 0.909468 0.182391 0.150435
O O8 0.587745 0.750000 0.940556
O O9 0.467119 0.846410 0.175444
O O10 0.519677 0.837907 0.651105
O O11 0.754547 0.250000 0.004729
O O12 0.806658 0.123312 0.852462
O O13 0.693737 0.154076 0.333759
O O14 0.410823 0.750000 0.460138
O O15 0.884469 0.445056 0.414424
O O16 0.998077 0.545794 0.233162
#
# Coordination Sequence:
#
# PCOD9162580 Si02
#       7
#     4   4   4   4   4   4   4
#     4  11  21  39  58  86 115 150 188 240 279 335
#     4  10  21  34  56  90 119 145 178 232 299 346
#     4  10  20  37  59  83 113 150 190 235 284 338
#     4  10  20  35  57  86 118 147 182 236 291 342
#     4   9  20  35  56  83 111 149 191 226 280 347
#     4  10  23  36  60  82 116 155 197 227 274 339
#     4  10  21  36  56  82 119 154 191 228 281 343
#
# _framework density 22.091161
#
# number of rings (size 3 to 8) (size 9 to 14) (size 15 to 20)
#    0.000    2.000    1.429    1.714    4.000    1.714 
#    0.000    1.429    0.000    5.143    0.000    0.000 
#    0.000    0.000    0.000    0.000    0.000    0.000 
#
# Total GULP energy -156368.507803 kJ/mol
# GULP energy per Si atom -5584.589564 kJ/mol
# Density = 2.204088 g / cm^3
# Si number density = 22.091161 Si / 1000 Ang^3
#
#
#
# Elastic Constant Matrix: (Units=GPa)
#
#
# Indices 1 2 3 4 5 6 
#
# 1 60.8742 8.9845 9.1399 0.0000 -7.7326 0.0000
# 2 8.9845 78.2112 23.0654 0.0000 -5.0163 0.0000
# 3 9.1399 23.0654 77.4603 0.0000 1.7844 0.0000
# 4 0.0000 0.0000 0.0000 35.0024 0.0000 -11.5494
# 5 -7.7326 -5.0163 1.7844 0.0000 28.8469 0.0000
# 6 0.0000 0.0000 0.0000 -11.5494 0.0000 6.8227
#
#
#
# Elastic Compliance Matrix: (Units=1/GPa)
#
#
# Indices 1 2 3 4 5 6 
#
# 1 0.017456 -0.001176 -0.001815 0.000000 0.004587 0.000000
# 2 -0.001176 0.014309 -0.004178 0.000000 0.002432 0.000000
# 3 -0.001815 -0.004178 0.014417 0.000000 -0.002105 0.000000
# 4 0.000000 0.000000 0.000000 0.064718 0.000000 0.109554
# 5 0.004587 0.002432 -0.002105 0.000000 0.036448 0.000000
# 6 0.000000 0.000000 0.000000 0.109554 0.000000 0.332022
#
#
# Mechanical properties :
#
#
# Convention : Reuss Voigt Hill
#
# Bulk Modulus (GPa) = 31.40354 33.21395 32.30875
# Shear Modulus (GPa) = 9.91428 25.82480 17.86954
#
# Velocity S-wave (km/s) = 2.12076 3.42279 2.84720
# Velocity P-wave (km/s) = 4.49924 5.53970 5.04635
#
# Compressibility (1/GPa) = 0.03184354
#
# Stress axis : x y z
#
# Youngs Moduli (GPa) = 57.28666 69.88571 69.36431
#
# Poissons Ratio (x) = 0.08216 0.12592
# Poissons Ratio (y) = 0.06735 0.28981
# Poissons Ratio (z) = 0.10399 0.29199
#
# Static dielectric constant tensor:
#      x y z
#    x 1.825920 0.000000 0.032780 
#    y 0.000000 1.829510 0.000000 
#    z 0.032780 0.000000 1.884600 
# 
# From -- ./inp_files/5016.got.cif
#   From: 2010.05.17/outbox.cif.g08.bks.cpg/sg11_3_cif.got.tgz:5016.got - 2010.06.03 12:22:45.
