data_PCOD9162583
_publ_section_title
;
Structure prediction by ZEFSAII (Michael W. Deem and Ramdas Pophale) SiO2 
 PCOD9162583
Probable space group: P 21/M
;
_chemical_formula_sum "Si O2"
_cell_formula_units_Z 28
_cell_length_a 10.432129
_cell_length_b 13.829627
_cell_length_c 26.326110
_cell_angle_alpha 90.000000
_cell_angle_beta 160.011940
_cell_angle_gamma 90.000000
_cell_volume 1298.294014
_symmetry_space_group_name_H-M "P 21/M"
_symmetry_group_IT_number 11
_symmetry_cell_setting 'monoclinic'
loop_
_space_group_symop_operation_xyz
x,y,z
-x,1/2+y,-z
-x,-y,-z
x,1/2-y,z
loop_
_atom_site_type_symbol
_atom_site_label
_atom_site_fract_x
_atom_site_fract_y
_atom_site_fract_z
Si Si1 0.634218 0.636149 0.651583
Si Si2 0.454771 0.366845 0.625003
Si Si3 0.197075 0.531223 0.343687
Si Si4 0.784411 0.365209 0.856384
Si Si5 0.869568 0.938380 0.315483
Si Si6 0.538480 0.362182 0.192727
Si Si7 0.605499 0.136236 0.329374
O O1 0.706560 0.750000 0.673788
O O2 0.917791 0.569915 0.725311
O O3 0.608170 0.602775 0.700321
O O4 0.219697 0.610096 0.475111
O O5 0.445499 0.250000 0.616422
O O6 0.628564 0.409518 0.638207
O O7 0.683672 0.391773 0.761289
O O8 0.027466 0.401687 0.477114
O O9 0.500000 0.500000 0.500000
O O10 0.899187 0.588831 0.266954
O O11 0.733331 0.250000 0.841059
O O12 0.495556 0.410132 0.788894
O O13 0.206826 0.385432 0.030649
O O14 0.849844 0.055543 0.304973
O O15 0.664281 0.250000 0.233571
O O16 0.394166 0.371149 0.197274
O O17 0.663108 0.250000 0.361431
#
# Coordination Sequence:
#
# PCOD9162583 Si02
#       7
#     4   4   4   4   4   4   4
#     4  10  20  35  57  86 120 153 194 244 295 356
#     4  10  20  37  62  89 115 153 201 244 292 353
#     4  10  23  35  52  90 120 153 188 236 303 342
#     4  10  21  39  63  88 116 156 201 248 294 344
#     4  11  21  37  59  87 116 157 199 237 298 352
#     4  10  22  37  58  88 121 152 197 249 300 350
#     4   9  17  32  57  86 108 145 193 241 295 340
#
# _framework density 21.566763000000002
#
# number of rings (size 3 to 8) (size 9 to 14) (size 15 to 20)
#    0.000    2.000    1.429    2.571    2.000    4.571 
#    0.000    0.714    0.000    0.000    0.000    0.000 
#    0.000    0.000    0.000    0.000    0.000    0.000 
#
# Total GULP energy -156143.424818 kJ/mol
# GULP energy per Si atom -5576.550886 kJ/mol
# Density = 2.151768 g / cm^3
# Si number density = 21.566763 Si / 1000 Ang^3
#
#
#
# Elastic Constant Matrix: (Units=GPa)
#
#
# Indices 1 2 3 4 5 6 
#
# 1 139.1026 28.8734 22.1959 0.0000 -31.3945 0.0000
# 2 28.8734 65.2441 22.2606 0.0000 -6.8857 0.0000
# 3 22.1959 22.2606 68.6945 0.0000 -24.9354 0.0000
# 4 0.0000 0.0000 0.0000 15.8356 0.0000 -9.7257
# 5 -31.3945 -6.8857 -24.9354 0.0000 24.8829 0.0000
# 6 0.0000 0.0000 0.0000 -9.7257 0.0000 28.3784
#
#
#
# Elastic Compliance Matrix: (Units=1/GPa)
#
#
# Indices 1 2 3 4 5 6 
#
# 1 0.011358 -0.004595 0.004023 0.000000 0.017090 0.000000
# 2 -0.004595 0.019118 -0.007693 0.000000 -0.008217 0.000000
# 3 0.004023 -0.007693 0.026436 0.000000 0.029438 0.000000
# 4 0.000000 0.000000 0.000000 0.079984 0.000000 0.027412
# 5 0.017090 -0.008217 0.029438 0.000000 0.088977 0.000000
# 6 0.000000 0.000000 0.000000 0.027412 0.000000 0.044632
#
#
# Mechanical properties :
#
#
# Convention : Reuss Voigt Hill
#
# Bulk Modulus (GPa) = 24.76413 46.63345 35.69879
# Shear Modulus (GPa) = 16.63907 27.13347 21.88627
#
# Velocity S-wave (km/s) = 2.78063 3.55084 3.18907
# Velocity P-wave (km/s) = 4.67083 6.20331 5.49080
#
# Compressibility (1/GPa) = 0.04038099
#
# Stress axis : x y z
#
# Youngs Moduli (GPa) = 88.04438 52.30588 37.82683
#
# Poissons Ratio (x) = 0.24036 -0.15216
# Poissons Ratio (y) = 0.40459 0.29100
# Poissons Ratio (z) = -0.35417 0.40239
#
# Static dielectric constant tensor:
#      x y z
#    x 1.859150 0.000000 0.000400 
#    y 0.000000 1.856140 0.000000 
#    z 0.000400 0.000000 1.794870 
# 
# From -- ./inp_files/63886.got.cif
#   From: 2010.05.17/outbox.cif.g08.bks.cpg/sg11_32_cif.got.tgz:63886.got - 2010.06.03 12:22:45.
