data_PCOD9162222
_publ_section_title
;
Structure prediction by ZEFSAII (Michael W. Deem and Ramdas Pophale) SiO2 
 PCOD9162222
Probable space group: P 21/M
;
_chemical_formula_sum "Si O2"
_cell_formula_units_Z 32
_cell_length_a 23.359272
_cell_length_b 8.616033
_cell_length_c 28.818443
_cell_angle_alpha 90.000000
_cell_angle_beta 17.942731
_cell_angle_gamma 90.000000
_cell_volume 1786.821880
_symmetry_space_group_name_H-M "P 21/M"
_symmetry_group_IT_number 11
_symmetry_cell_setting 'monoclinic'
loop_
_space_group_symop_operation_xyz
x,y,z
-x,1/2+y,-z
-x,-y,-z
x,1/2-y,z
loop_
_atom_site_type_symbol
_atom_site_label
_atom_site_fract_x
_atom_site_fract_y
_atom_site_fract_z
Si Si1 0.343804 0.063687 0.654834
Si Si2 0.919141 0.563281 0.715798
Si Si3 0.074318 0.938171 0.040079
Si Si4 0.661784 0.063976 0.586551
Si Si5 0.597930 0.562792 0.036672
Si Si6 0.381307 0.936164 0.728983
Si Si7 0.622923 0.064137 0.120242
Si Si8 0.662266 0.435605 0.841509
O O1 0.345731 0.250000 0.651503
O O2 0.136917 0.007362 0.800107
O O3 0.500000 0.000000 0.500000
O O4 0.379431 0.009318 0.679810
O O5 0.914928 0.750000 0.716219
O O6 0.849646 0.498959 0.719911
O O7 0.125291 0.514275 0.570967
O O8 0.769267 0.517770 0.870788
O O9 0.070008 0.750000 0.042512
O O10 0.201002 0.986324 0.898433
O O11 0.187847 0.983227 0.998673
O O12 0.656281 0.250000 0.585940
O O13 0.559144 0.988127 0.621805
O O14 0.543229 0.013215 0.722695
O O15 0.601584 0.750000 0.038634
O O16 0.617890 0.486922 0.071132
O O17 0.407926 0.520173 0.155753
O O18 0.378620 0.750000 0.727541
O O19 0.606485 0.250000 0.136765
O O20 0.662582 0.250000 0.843674
O O21 0.500000 0.500000 0.000000
#
# Coordination Sequence:
#
# PCOD9162222 Si02
#       8
#     4   4   4   4   4   4   4   4
#     4  11  22  37  55  79 110 141 172 214 264 309
#     4   9  19  34  53  77 105 135 174 218 262 313
#     4   8  18  36  56  76 102 135 174 215 256 305
#     4  10  20  36  56  79 107 139 171 212 264 314
#     4   9  18  33  51  75 104 135 170 213 259 307
#     4  10  20  37  58  80 104 135 176 217 255 309
#     4  10  20  35  54  78 104 135 175 216 256 306
#     4   9  17  30  50  74 103 137 176 217 261 311
#
# _framework density 17.908891000000001
#
# number of rings (size 3 to 8) (size 9 to 14) (size 15 to 20)
#    0.000    2.500    0.000    3.750    0.000    4.500 
#    0.000   10.000    0.000    0.000    0.000    0.000 
#    0.000    0.000    0.000    0.000    0.000    0.000 
#
# Total GULP energy -178459.024847 kJ/mol
# GULP energy per Si atom -5576.844526 kJ/mol
# Density = 1.786813 g / cm^3
# Si number density = 17.908891 Si / 1000 Ang^3
#
#
#
# Elastic Constant Matrix: (Units=GPa)
#
#
# Indices 1 2 3 4 5 6 
#
# 1 211.5389 56.8971 157.6840 0.0000 -20.7819 0.0000
# 2 56.8971 47.7937 63.9221 0.0000 -10.7401 0.0000
# 3 157.6840 63.9221 220.6663 0.0000 -47.4748 0.0000
# 4 0.0000 0.0000 0.0000 24.2239 0.0000 -0.5665
# 5 -20.7819 -10.7401 -47.4748 0.0000 25.3707 0.0000
# 6 0.0000 0.0000 0.0000 -0.5665 0.0000 30.9146
#
#
#
# Elastic Compliance Matrix: (Units=1/GPa)
#
#
# Indices 1 2 3 4 5 6 
#
# 1 0.011781 -0.003536 -0.009441 0.000000 -0.009513 0.000000
# 2 -0.003536 0.035931 -0.008758 0.000000 -0.004075 0.000000
# 3 -0.009441 -0.008758 0.019005 0.000000 0.024122 0.000000
# 4 0.000000 0.000000 0.000000 0.041299 0.000000 0.000757
# 5 -0.009513 -0.004075 0.024122 0.000000 0.075036 0.000000
# 6 0.000000 0.000000 0.000000 0.000757 0.000000 0.032361
#
#
# Mechanical properties :
#
#
# Convention : Reuss Voigt Hill
#
# Bulk Modulus (GPa) = 43.01751 115.22281 79.12016
# Shear Modulus (GPa) = 18.75242 29.53490 24.14366
#
# Velocity S-wave (km/s) = 3.23940 4.06541 3.67568
# Velocity P-wave (km/s) = 6.16960 9.30133 7.89236
#
# Compressibility (1/GPa) = 0.02324635
#
# Stress axis : x y z
#
# Youngs Moduli (GPa) = 84.88111 27.83108 52.61839
#
# Poissons Ratio (x) = 0.09841 0.49677
# Poissons Ratio (y) = 0.30014 0.46085
# Poissons Ratio (z) = 0.80136 0.24375
#
# Static dielectric constant tensor:
#      x y z
#    x 1.604290 0.000000 -0.023950 
#    y 0.000000 1.608540 0.000000 
#    z -0.023950 0.000000 1.606240 
# 
# From -- ./inp_files/71967.got.cif
#   From: 2010.05.17/outbox.cif.g08.bks.cpg/sg11_36_cif.got.tgz:71967.got - 2010.06.03 12:22:45.
