data_PCOD9162877
_publ_section_title
;
Structure prediction by ZEFSAII (Michael W. Deem and Ramdas Pophale) SiO2 
 PCOD9162877
Probable space group: P 21/M
;
_chemical_formula_sum "Si O2"
_cell_formula_units_Z 28
_cell_length_a 19.016218
_cell_length_b 7.582601
_cell_length_c 16.038703
_cell_angle_alpha 90.000000
_cell_angle_beta 35.076216
_cell_angle_gamma 90.000000
_cell_volume 1329.005514
_symmetry_space_group_name_H-M "P 21/M"
_symmetry_group_IT_number 11
_symmetry_cell_setting 'monoclinic'
loop_
_space_group_symop_operation_xyz
x,y,z
-x,1/2+y,-z
-x,-y,-z
x,1/2-y,z
loop_
_atom_site_type_symbol
_atom_site_label
_atom_site_fract_x
_atom_site_fract_y
_atom_site_fract_z
Si Si1 0.979514 0.463827 0.289785
Si Si2 0.701179 0.958188 0.592937
Si Si3 0.062870 0.038431 0.027896
Si Si4 0.404050 0.042763 0.474535
Si Si5 0.668610 0.535908 0.273616
Si Si6 0.636232 0.537647 0.835977
Si Si7 0.889165 0.538123 0.672763
O O1 0.982078 0.250000 0.285823
O O2 0.846319 0.521566 0.448991
O O3 0.073546 0.523724 0.270536
O O4 0.002521 0.526884 0.172539
O O5 0.670717 0.750000 0.622383
O O6 0.647732 0.036337 0.559719
O O7 0.650136 0.032019 0.728372
O O8 0.064912 0.250000 0.032163
O O9 0.202737 0.975593 0.886956
O O10 0.000000 0.000000 0.000000
O O11 0.372667 0.250000 0.505697
O O12 0.348990 0.970689 0.614207
O O13 0.549561 0.023155 0.339215
O O14 0.667312 0.750000 0.275723
O O15 0.648333 0.750000 0.822371
O O16 0.756005 0.473143 0.770955
O O17 0.500000 0.500000 0.000000
O O18 0.881857 0.750000 0.683967
O O19 0.000000 0.500000 0.500000
#
# Coordination Sequence:
#
# PCOD9162877 Si02
#       7
#     4   4   4   4   4   4   4
#     4  10  21  35  56  84 110 142 187 232 276 332
#     4  10  20  36  56  80 109 140 181 227 275 333
#     4  10  21  36  53  78 111 144 181 227 276 327
#     4   9  18  32  52  75 102 137 177 220 264 318
#     4   9  18  33  51  73 103 140 177 216 267 321
#     4  10  22  38  57  83 114 146 182 229 283 338
#     4  10  20  37  59  83 112 147 188 235 283 337
#
# _framework density 21.068383999999998
#
# number of rings (size 3 to 8) (size 9 to 14) (size 15 to 20)
#    0.000    2.286    1.429    0.857    0.000    5.143 
#    0.000    4.286    0.000    0.000    0.000    0.000 
#    0.000    0.000    0.000    0.000    0.000    0.000 
#
# Total GULP energy -156269.417377 kJ/mol
# GULP energy per Si atom -5581.050621 kJ/mol
# Density = 2.102043 g / cm^3
# Si number density = 21.068384 Si / 1000 Ang^3
#
#
#
# Elastic Constant Matrix: (Units=GPa)
#
#
# Indices 1 2 3 4 5 6 
#
# 1 149.3737 -2.9485 47.5613 0.0000 10.9890 0.0000
# 2 -2.9485 40.7165 -13.1792 0.0000 9.2219 0.0000
# 3 47.5613 -13.1792 114.4231 0.0000 -5.5114 0.0000
# 4 0.0000 0.0000 0.0000 20.2869 0.0000 -9.3289
# 5 10.9890 9.2219 -5.5114 0.0000 21.0741 0.0000
# 6 0.0000 0.0000 0.0000 -9.3289 0.0000 8.3038
#
#
#
# Elastic Compliance Matrix: (Units=1/GPa)
#
#
# Indices 1 2 3 4 5 6 
#
# 1 0.008272 0.000685 -0.003628 0.000000 -0.005562 0.000000
# 2 0.000685 0.028103 0.002373 0.000000 -0.012034 0.000000
# 3 -0.003628 0.002373 0.010696 0.000000 0.003651 0.000000
# 4 0.000000 0.000000 0.000000 0.101973 0.000000 0.114562
# 5 -0.005562 -0.012034 0.003651 0.000000 0.056573 0.000000
# 6 0.000000 0.000000 0.000000 0.114562 0.000000 0.249130
#
#
# Mechanical properties :
#
#
# Convention : Reuss Voigt Hill
#
# Bulk Modulus (GPa) = 21.77149 40.82005 31.29577
# Shear Modulus (GPa) = 10.61122 28.13829 19.37475
#
# Velocity S-wave (km/s) = 2.24666 3.65851 3.03580
# Velocity P-wave (km/s) = 4.13354 6.10437 5.21294
#
# Compressibility (1/GPa) = 0.04593162
#
# Stress axis : x y z
#
# Youngs Moduli (GPa) = 120.88506 35.58299 93.48899
#
# Poissons Ratio (x) = -0.02436 0.33913
# Poissons Ratio (y) = -0.08276 -0.22182
# Poissons Ratio (z) = 0.43851 -0.08443
#
# Static dielectric constant tensor:
#      x y z
#    x 1.771250 0.000000 0.023340 
#    y 0.000000 1.807250 0.000000 
#    z 0.023340 0.000000 1.729670 
# 
# From -- ./inp_files/53222.got.cif
#   From: 2010.05.17/outbox.cif.g08.bks.cpg/sg11_27_cif.got.tgz:53222.got - 2010.06.03 12:22:45.
