data_PCOD9162245
_publ_section_title
;
Structure prediction by ZEFSAII (Michael W. Deem and Ramdas Pophale) SiO2 
 PCOD9162245
Probable space group: P 21/M
;
_chemical_formula_sum "Si O2"
_cell_formula_units_Z 32
_cell_length_a 11.402776
_cell_length_b 19.793652
_cell_length_c 21.064035
_cell_angle_alpha 90.000000
_cell_angle_beta 157.463750
_cell_angle_gamma 90.000000
_cell_volume 1822.134843
_symmetry_space_group_name_H-M "P 21/M"
_symmetry_group_IT_number 11
_symmetry_cell_setting 'monoclinic'
loop_
_space_group_symop_operation_xyz
x,y,z
-x,1/2+y,-z
-x,-y,-z
x,1/2-y,z
loop_
_atom_site_type_symbol
_atom_site_label
_atom_site_fract_x
_atom_site_fract_y
_atom_site_fract_z
Si Si1 0.868511 0.041306 0.122158
Si Si2 0.868266 0.673451 0.693614
Si Si3 0.130930 0.327333 0.453917
Si Si4 0.132785 0.962330 0.627357
Si Si5 0.132783 0.462331 0.005426
Si Si6 0.130934 0.827334 0.177015
Si Si7 0.868251 0.326549 0.674645
Si Si8 0.131480 0.041305 0.753641
O O1 0.991050 0.116720 0.191620
O O2 0.974276 0.000001 0.237138
O O3 0.499996 0.042604 0.938635
O O4 0.966095 0.003420 0.107148
O O5 0.959305 0.750000 0.755666
O O6 0.958404 0.661639 0.664832
O O7 0.500007 0.669776 0.511762
O O8 0.045531 0.250000 0.427861
O O9 0.499998 0.331771 0.641703
O O10 0.985288 0.385892 0.423129
O O11 0.500001 0.962228 0.808315
O O12 0.033902 0.003419 0.641051
O O13 0.000000 0.000000 0.500000
O O14 0.000000 0.500000 0.000000
O O15 0.014708 0.385893 0.937838
O O16 0.045535 0.750000 0.117673
O O17 0.041605 0.838362 0.206433
O O18 0.959289 0.250000 0.703631
O O19 0.008932 0.383282 0.700561
#
# Coordination Sequence:
#
# PCOD9162245 Si02
#       8
#     4   4   4   4   4   4   4   4
#     4  10  20  35  54  80 110 139 177 224 271 320
#     4   9  18  32  53  83 113 141 178 224 272 323
#     4   9  18  34  56  82 111 142 179 223 272 326
#     4  11  23  38  56  80 112 147 185 227 273 327
#     4  11  23  38  56  80 112 147 185 227 273 327
#     4   9  18  34  56  82 111 142 179 223 272 326
#     4   9  18  32  53  83 113 141 178 224 272 323
#     4  10  20  35  54  80 110 139 177 224 271 320
#
# _framework density 17.561817999999999
#
# number of rings (size 3 to 8) (size 9 to 14) (size 15 to 20)
#    0.000    2.250    2.500    2.250    0.000    3.500 
#    0.000    3.750    0.000    1.500    0.000    0.000 
#    0.000    0.000    0.000    0.000    0.000    0.000 
#
# Total GULP energy -178544.537115 kJ/mol
# GULP energy per Si atom -5579.516785 kJ/mol
# Density = 1.752185 g / cm^3
# Si number density = 17.561818 Si / 1000 Ang^3
#
#
#
# Elastic Constant Matrix: (Units=GPa)
#
#
# Indices 1 2 3 4 5 6 
#
# 1 98.6975 71.2823 28.0349 0.0000 -13.9024 0.0000
# 2 71.2823 164.8665 43.5090 0.0000 -16.8357 0.0000
# 3 28.0349 43.5090 40.3829 0.0000 -21.4487 0.0000
# 4 0.0000 0.0000 0.0000 35.6031 0.0000 2.0369
# 5 -13.9024 -16.8357 -21.4487 0.0000 19.2903 0.0000
# 6 0.0000 0.0000 0.0000 2.0369 0.0000 32.2429
#
#
#
# Elastic Compliance Matrix: (Units=1/GPa)
#
#
# Indices 1 2 3 4 5 6 
#
# 1 0.015445 -0.005507 -0.003492 0.000000 0.002442 0.000000
# 2 -0.005507 0.010813 -0.012022 0.000000 -0.007899 0.000000
# 3 -0.003492 -0.012022 0.081161 0.000000 0.077233 0.000000
# 4 0.000000 0.000000 0.000000 0.028189 0.000000 -0.001781
# 5 0.002442 -0.007899 0.077233 0.000000 0.132579 0.000000
# 6 0.000000 0.000000 0.000000 -0.001781 0.000000 0.031127
#
#
# Mechanical properties :
#
#
# Convention : Reuss Voigt Hill
#
# Bulk Modulus (GPa) = 15.29606 65.51104 40.40355
# Shear Modulus (GPa) = 13.76846 28.16864 20.96855
#
# Velocity S-wave (km/s) = 2.80304 4.00930 3.45916
# Velocity P-wave (km/s) = 4.38232 7.66921 6.24586
#
# Compressibility (1/GPa) = 0.06537632
#
# Stress axis : x y z
#
# Youngs Moduli (GPa) = 64.74506 92.48513 12.32121
#
# Poissons Ratio (x) = 0.50931 0.04303
# Poissons Ratio (y) = 0.35655 0.14813
# Poissons Ratio (z) = 0.22610 1.11186
#
# Static dielectric constant tensor:
#      x y z
#    x 1.583350 0.000000 0.004620 
#    y 0.000000 1.598230 0.000000 
#    z 0.004620 0.000000 1.590950 
# 
# From -- ./inp_files/64929.got.cif
#   From: 2010.05.17/outbox.cif.g08.bks.cpg/sg11_33_cif.got.tgz:64929.got - 2010.06.03 12:22:45.
