data_PCOD9162074
_publ_section_title
;
Structure prediction by ZEFSAII (Michael W. Deem and Ramdas Pophale) SiO2 
 PCOD9162074
Probable space group: P 21/M
;
_chemical_formula_sum "Si O2"
_cell_formula_units_Z 28
_cell_length_a 10.396745
_cell_length_b 8.792564
_cell_length_c 23.447852
_cell_angle_alpha 90.000000
_cell_angle_beta 133.710211
_cell_angle_gamma 90.000000
_cell_volume 1549.389399
_symmetry_space_group_name_H-M "P 21/M"
_symmetry_group_IT_number 11
_symmetry_cell_setting 'monoclinic'
loop_
_space_group_symop_operation_xyz
x,y,z
-x,1/2+y,-z
-x,-y,-z
x,1/2-y,z
loop_
_atom_site_type_symbol
_atom_site_label
_atom_site_fract_x
_atom_site_fract_y
_atom_site_fract_z
Si Si1 0.455530 0.431258 0.076628
Si Si2 0.853638 0.068813 0.498268
Si Si3 0.997550 0.568161 0.657821
Si Si4 0.116311 0.568111 0.256657
Si Si5 0.608416 0.931477 0.234365
Si Si6 0.487553 0.431392 0.664656
Si Si7 0.784597 0.068650 0.092056
O O1 0.436591 0.250000 0.075563
O O2 0.481181 0.506371 0.145860
O O3 0.636023 0.462349 0.095513
O O4 0.296112 0.500445 0.990573
O O5 0.873658 0.250000 0.506188
O O6 0.890492 0.999456 0.571623
O O7 0.661400 0.021418 0.415854
O O8 0.000000 0.000000 0.500000
O O9 0.994718 0.750000 0.655596
O O10 0.920222 0.508091 0.693580
O O11 0.200222 0.510293 0.714279
O O12 0.098284 0.750000 0.256438
O O13 0.314130 0.533306 0.295319
O O14 0.967365 0.506574 0.167752
O O15 0.630060 0.750000 0.234918
O O16 0.536814 0.963604 0.275724
O O17 0.456649 0.250000 0.647223
O O18 0.803474 0.250000 0.093239
#
# Coordination Sequence:
#
# PCOD9162074 Si02
#       7
#     4   4   4   4   4   4   4
#     4  10  20  34  57  89 122 155 200 251 298 354
#     4  12  24  40  64  92 122 158 201 252 304 355
#     4  12  24  39  62  91 122 159 203 250 298 360
#     4  11  23  41  63  89 124 163 201 248 305 361
#     4  11  21  37  62  90 121 157 201 251 301 357
#     4  10  24  43  63  89 123 162 203 247 302 365
#     4  10  20  35  57  87 123 158 199 249 300 357
#
# _framework density 18.071635000000001
#
# number of rings (size 3 to 8) (size 9 to 14) (size 15 to 20)
#    0.000    1.143    2.857    4.286    0.000    3.429 
#    0.000    0.714    0.000    0.000    0.000    0.000 
#    0.000    0.000    0.000    0.000    0.000    0.000 
#
# Total GULP energy -156581.400216 kJ/mol
# GULP energy per Si atom -5592.192865 kJ/mol
# Density = 1.803050 g / cm^3
# Si number density = 18.071635 Si / 1000 Ang^3
#
#
#
# Elastic Constant Matrix: (Units=GPa)
#
#
# Indices 1 2 3 4 5 6 
#
# 1 122.1740 79.9854 82.2108 0.0000 -0.5295 0.0000
# 2 79.9854 117.2531 94.0751 0.0000 1.5440 0.0000
# 3 82.2108 94.0751 188.1657 0.0000 -7.2785 0.0000
# 4 0.0000 0.0000 0.0000 40.6297 0.0000 -0.8068
# 5 -0.5295 1.5440 -7.2785 0.0000 26.9485 0.0000
# 6 0.0000 0.0000 0.0000 -0.8068 0.0000 11.7001
#
#
#
# Elastic Compliance Matrix: (Units=1/GPa)
#
#
# Indices 1 2 3 4 5 6 
#
# 1 0.015451 -0.008565 -0.002463 0.000000 0.000129 0.000000
# 2 -0.008565 0.019197 -0.005967 0.000000 -0.002880 0.000000
# 3 -0.002463 -0.005967 0.009484 0.000000 0.002855 0.000000
# 4 0.000000 0.000000 0.000000 0.024646 0.000000 0.001699
# 5 0.000129 -0.002880 0.002855 0.000000 0.038046 0.000000
# 6 0.000000 0.000000 0.000000 0.001699 0.000000 0.085587
#
#
# Mechanical properties :
#
#
# Convention : Reuss Voigt Hill
#
# Bulk Modulus (GPa) = 98.60826 104.45948 101.53387
# Shear Modulus (GPa) = 21.75982 27.27709 24.51845
#
# Velocity S-wave (km/s) = 3.47376 3.88930 3.68739
# Velocity P-wave (km/s) = 8.41267 8.83727 8.62758
#
# Compressibility (1/GPa) = 0.01014114
#
# Stress axis : x y z
#
# Youngs Moduli (GPa) = 64.72248 52.09283 105.43838
#
# Poissons Ratio (x) = 0.44618 0.25972
# Poissons Ratio (y) = 0.55436 0.62912
# Poissons Ratio (z) = 0.15943 0.31082
#
# Static dielectric constant tensor:
#      x y z
#    x 1.592900 0.000000 -0.003820 
#    y 0.000000 1.602020 0.000000 
#    z -0.003820 0.000000 1.600710 
# 
# From -- ./inp_files/63417.got.cif
#   From: 2010.05.17/outbox.cif.g08.bks.cpg/sg11_32_cif.got.tgz:63417.got - 2010.06.03 12:22:45.
