data_PCOD9162850
_publ_section_title
;
Structure prediction by ZEFSAII (Michael W. Deem and Ramdas Pophale) SiO2 
 PCOD9162850
Probable space group: P 21/M
;
_chemical_formula_sum "Si O2"
_cell_formula_units_Z 28
_cell_length_a 23.749499
_cell_length_b 8.907742
_cell_length_c 19.246077
_cell_angle_alpha 90.000000
_cell_angle_beta 156.455104
_cell_angle_gamma 90.000000
_cell_volume 1626.469020
_symmetry_space_group_name_H-M "P 21/M"
_symmetry_group_IT_number 11
_symmetry_cell_setting 'monoclinic'
loop_
_space_group_symop_operation_xyz
x,y,z
-x,1/2+y,-z
-x,-y,-z
x,1/2-y,z
loop_
_atom_site_type_symbol
_atom_site_label
_atom_site_fract_x
_atom_site_fract_y
_atom_site_fract_z
Si Si1 0.992314 0.930306 0.268913
Si Si2 0.350873 0.570649 0.354050
Si Si3 0.938238 0.429152 0.499207
Si Si4 0.379627 0.569848 0.816179
Si Si5 0.293567 0.069602 0.576807
Si Si6 0.258296 0.930185 0.101907
Si Si7 0.417870 0.429859 0.567287
O O1 0.005427 0.750000 0.280372
O O2 0.984087 0.973735 0.341249
O O3 0.135761 0.004050 0.402605
O O4 0.859035 0.986884 0.075252
O O5 0.500000 0.500000 0.500000
O O6 0.363490 0.750000 0.371429
O O7 0.249298 0.534489 0.174280
O O8 0.326367 0.505711 0.402767
O O9 0.948540 0.250000 0.504935
O O10 0.773839 0.466637 0.325040
O O11 0.000000 0.500000 0.500000
O O12 0.392451 0.750000 0.826930
O O13 0.377505 0.500834 0.736581
O O14 0.500000 0.500000 0.000000
O O15 0.289934 0.250000 0.579463
O O16 0.363967 0.031275 0.582775
O O17 0.243033 0.750000 0.076677
O O18 0.417163 0.970320 0.256850
O O19 0.408875 0.250000 0.548300
#
# Coordination Sequence:
#
# PCOD9162850 Si02
#       7
#     4   4   4   4   4   4   4
#     4  10  21  36  52  75 105 136 171 210 252 305
#     4   9  17  30  50  75 104 135 170 212 259 306
#     4   9  20  36  53  75 102 131 168 210 252 300
#     4  10  21  37  55  78 106 136 172 212 254 305
#     4  10  20  36  56  77 104 138 171 210 260 308
#     4   9  18  33  52  76 103 133 169 210 254 302
#     4   9  19  34  53  78 105 133 172 216 258 306
#
# _framework density 17.215205999999998
#
# number of rings (size 3 to 8) (size 9 to 14) (size 15 to 20)
#    0.000    2.571    0.000    3.429    0.000    8.571 
#    0.000    5.000    0.000    0.000    0.000    0.000 
#    0.000    0.000    0.000    0.000    0.000    0.000 
#
# Total GULP energy -156112.408751 kJ/mol
# GULP energy per Si atom -5575.443170 kJ/mol
# Density = 1.717602 g / cm^3
# Si number density = 17.215206 Si / 1000 Ang^3
#
#
#
# Elastic Constant Matrix: (Units=GPa)
#
#
# Indices 1 2 3 4 5 6 
#
# 1 140.2862 56.6204 83.2166 0.0000 -38.1377 0.0000
# 2 56.6204 51.6318 59.4100 0.0000 -17.0521 0.0000
# 3 83.2166 59.4100 153.5850 0.0000 -34.0963 0.0000
# 4 0.0000 0.0000 0.0000 34.5341 0.0000 -5.5860
# 5 -38.1377 -17.0521 -34.0963 0.0000 19.8825 0.0000
# 6 0.0000 0.0000 0.0000 -5.5860 0.0000 29.8436
#
#
#
# Elastic Compliance Matrix: (Units=1/GPa)
#
#
# Indices 1 2 3 4 5 6 
#
# 1 0.019364 -0.012888 0.000461 0.000000 0.026881 0.000000
# 2 -0.012888 0.045022 -0.011866 0.000000 -0.006457 0.000000
# 3 0.000461 -0.011866 0.014191 0.000000 0.015043 0.000000
# 4 0.000000 0.000000 0.000000 0.029861 0.000000 0.005589
# 5 0.026881 -0.006457 0.015043 0.000000 0.122116 0.000000
# 6 0.000000 0.000000 0.000000 0.005589 0.000000 0.034554
#
#
# Mechanical properties :
#
#
# Convention : Reuss Voigt Hill
#
# Bulk Modulus (GPa) = 33.34284 82.66633 58.00459
# Shear Modulus (GPa) = 15.44681 26.60243 21.02462
#
# Velocity S-wave (km/s) = 2.99871 3.93528 3.49848
# Velocity P-wave (km/s) = 5.60357 8.29290 7.07715
#
# Compressibility (1/GPa) = 0.02999144
#
# Stress axis : x y z
#
# Youngs Moduli (GPa) = 51.64180 22.21144 70.46696
#
# Poissons Ratio (x) = 0.28625 -0.03247
# Poissons Ratio (y) = 0.66554 0.83616
# Poissons Ratio (z) = -0.02379 0.26356
#
# Static dielectric constant tensor:
#      x y z
#    x 1.589310 0.000000 -0.016720 
#    y 0.000000 1.575750 0.000000 
#    z -0.016720 0.000000 1.573580 
# 
# From -- ./inp_files/29041.got.cif
#   From: 2010.05.17/outbox.cif.g08.bks.cpg/sg11_15_cif.got.tgz:29041.got - 2010.06.03 12:22:45.
