data_PCOD9162908
_publ_section_title
;
Structure prediction by ZEFSAII (Michael W. Deem and Ramdas Pophale) SiO2 
 PCOD9162908
Probable space group: P 21/M
;
_chemical_formula_sum "Si O2"
_cell_formula_units_Z 24
_cell_length_a 13.275701
_cell_length_b 9.226000
_cell_length_c 11.702551
_cell_angle_alpha 90.000000
_cell_angle_beta 46.823951
_cell_angle_gamma 90.000000
_cell_volume 1045.275339
_symmetry_space_group_name_H-M "P 21/M"
_symmetry_group_IT_number 11
_symmetry_cell_setting 'monoclinic'
loop_
_space_group_symop_operation_xyz
x,y,z
-x,1/2+y,-z
-x,-y,-z
x,1/2-y,z
loop_
_atom_site_type_symbol
_atom_site_label
_atom_site_fract_x
_atom_site_fract_y
_atom_site_fract_z
Si Si1 0.936743 0.425098 0.724403
Si Si2 0.634430 0.083643 0.935720
Si Si3 0.480900 0.410652 0.280282
Si Si4 0.219525 0.918450 0.505991
Si Si5 0.895621 0.579817 0.997622
Si Si6 0.307801 0.583372 0.704228
O O1 0.944320 0.250000 0.721934
O O2 0.084049 0.491805 0.574163
O O3 0.788819 0.464682 0.781600
O O4 0.913795 0.496211 0.865875
O O5 0.622364 0.250000 0.909410
O O6 0.609563 0.079837 0.093014
O O7 0.500000 0.000000 0.000000
O O8 0.419806 0.250000 0.311494
O O9 0.362994 0.524959 0.342800
O O10 0.535712 0.418272 0.368043
O O11 0.194735 0.750000 0.501381
O O12 0.255395 0.933302 0.614809
O O13 0.919486 0.750000 0.963685
O O14 0.755117 0.546871 0.173133
O O15 0.000000 0.500000 0.000000
O O16 0.261872 0.750000 0.771688
#
# Coordination Sequence:
#
# PCOD9162908 Si02
#       6
#     4   4   4   4   4   4
#     4  11  22  40  62  86 119 159 199 247 304 357
#     4  10  23  43  68  92 115 149 198 254 310 362
#     4  10  21  40  61  85 123 165 199 243 300 356
#     4  11  23  36  57  92 127 163 202 242 289 353
#     4  12  22  32  53  85 121 161 203 246 292 346
#     4  10  20  36  56  83 124 164 204 242 286 349
#
# _framework density 22.960457999999999
#
# number of rings (size 3 to 8) (size 9 to 14) (size 15 to 20)
#    0.000    1.333    3.333    3.000    0.000    3.333 
#    0.000    0.833    0.000    0.000    0.000    0.000 
#    0.000    0.000    0.000    0.000    0.000    0.000 
#
# Total GULP energy -133849.583728 kJ/mol
# GULP energy per Si atom -5577.065989 kJ/mol
# Density = 2.290820 g / cm^3
# Si number density = 22.960458 Si / 1000 Ang^3
#
#
#
# Elastic Constant Matrix: (Units=GPa)
#
#
# Indices 1 2 3 4 5 6 
#
# 1 107.8551 48.1620 21.4326 0.0000 -32.0506 0.0000
# 2 48.1620 93.7369 44.7265 0.0000 -29.8646 0.0000
# 3 21.4326 44.7265 89.2966 0.0000 -25.0212 0.0000
# 4 0.0000 0.0000 0.0000 31.9108 0.0000 -11.3034
# 5 -32.0506 -29.8646 -25.0212 0.0000 48.2185 0.0000
# 6 0.0000 0.0000 0.0000 -11.3034 0.0000 32.5202
#
#
#
# Elastic Compliance Matrix: (Units=1/GPa)
#
#
# Indices 1 2 3 4 5 6 
#
# 1 0.013279 -0.005489 0.001267 0.000000 0.006084 0.000000
# 2 -0.005489 0.017883 -0.006504 0.000000 0.004052 0.000000
# 3 0.001267 -0.006504 0.015515 0.000000 0.004865 0.000000
# 4 0.000000 0.000000 0.000000 0.035737 0.000000 0.012422
# 5 0.006084 0.004052 0.004865 0.000000 0.029818 0.000000
# 6 0.000000 0.000000 0.000000 0.012422 0.000000 0.035068
#
#
# Mechanical properties :
#
#
# Convention : Reuss Voigt Hill
#
# Bulk Modulus (GPa) = 39.64288 57.72565 48.68427
# Shear Modulus (GPa) = 28.22303 34.30106 31.26204
#
# Velocity S-wave (km/s) = 3.50980 3.86932 3.69394
# Velocity P-wave (km/s) = 5.80759 6.71998 6.28037
#
# Compressibility (1/GPa) = 0.02522521
#
# Stress axis : x y z
#
# Youngs Moduli (GPa) = 75.30713 55.91945 64.45168
#
# Poissons Ratio (x) = 0.30693 -0.08165
# Poissons Ratio (y) = 0.41334 0.41921
# Poissons Ratio (z) = -0.09540 0.36371
#
# Static dielectric constant tensor:
#      x y z
#    x 1.879710 0.000000 0.028350 
#    y 0.000000 1.807750 0.000000 
#    z 0.028350 0.000000 1.964590 
# 
# From -- ./inp_files/51506.got.cif
#   From: 2010.05.17/outbox.cif.g08.bks.cpg/sg11_26_cif.got.tgz:51506.got - 2010.06.03 12:22:45.
