data_PCOD9162036
_publ_section_title
;
Structure prediction by ZEFSAII (Michael W. Deem and Ramdas Pophale) SiO2 
 PCOD9162036
Probable space group: P 21/M
;
_chemical_formula_sum "Si O2"
_cell_formula_units_Z 24
_cell_length_a 7.451475
_cell_length_b 7.914390
_cell_length_c 19.610147
_cell_angle_alpha 90.000000
_cell_angle_beta 125.008910
_cell_angle_gamma 90.000000
_cell_volume 947.235066
_symmetry_space_group_name_H-M "P 21/M"
_symmetry_group_IT_number 11
_symmetry_cell_setting 'monoclinic'
loop_
_space_group_symop_operation_xyz
x,y,z
-x,1/2+y,-z
-x,-y,-z
x,1/2-y,z
loop_
_atom_site_type_symbol
_atom_site_label
_atom_site_fract_x
_atom_site_fract_y
_atom_site_fract_z
Si Si1 0.686117 0.942812 0.309939
Si Si2 0.862121 0.552988 0.570988
Si Si3 0.537524 0.948950 0.609845
Si Si4 0.053067 0.544729 0.118037
Si Si5 0.645716 0.551012 0.933946
Si Si6 0.184682 0.446076 0.806676
O O1 0.619548 0.750000 0.282726
O O2 0.753406 0.026234 0.252605
O O3 0.506400 0.018767 0.320707
O O4 0.921039 0.950602 0.399331
O O5 0.922199 0.750000 0.586764
O O6 0.663036 0.531382 0.475220
O O7 0.759996 0.492687 0.621433
O O8 0.526373 0.750000 0.594275
O O9 0.061806 0.750000 0.121238
O O10 0.996332 0.481798 0.181560
O O11 0.263296 0.481162 0.122891
O O12 0.843170 0.494781 0.025978
O O13 0.609559 0.750000 0.935599
O O14 0.419346 0.455191 0.896044
O O15 0.128193 0.250000 0.782281
#
# Coordination Sequence:
#
# PCOD9162036 Si02
#       6
#     4   4   4   4   4   4
#     4  11  23  37  55  80 111 147 183 221 268 322
#     4  10  21  38  60  83 108 141 181 225 269 317
#     4  10  21  38  60  84 110 141 179 224 271 320
#     4   9  19  37  58  80 108 143 183 224 269 323
#     4  10  20  34  57  85 109 138 179 229 277 319
#     4  10  22  38  55  77 109 149 185 219 266 324
#
# _framework density 25.336897
#
# number of rings (size 3 to 8) (size 9 to 14) (size 15 to 20)
#    0.000    2.000    0.000    3.000    0.000    6.000 
#    0.000    5.000    0.000    0.000    0.000    0.000 
#    0.000    0.000    0.000    0.000    0.000    0.000 
#
# Total GULP energy -134277.798480 kJ/mol
# GULP energy per Si atom -5594.908270 kJ/mol
# Density = 2.527923 g / cm^3
# Si number density = 25.336897 Si / 1000 Ang^3
#
#
#
# Elastic Constant Matrix: (Units=GPa)
#
#
# Indices 1 2 3 4 5 6 
#
# 1 180.5300 5.7107 35.3161 0.0000 -29.6233 0.0000
# 2 5.7107 54.9322 -0.1080 0.0000 -4.5825 0.0000
# 3 35.3161 -0.1080 64.3101 0.0000 -19.4516 0.0000
# 4 0.0000 0.0000 0.0000 16.9012 0.0000 -4.9770
# 5 -29.6233 -4.5825 -19.4516 0.0000 55.1393 0.0000
# 6 0.0000 0.0000 0.0000 -4.9770 0.0000 25.4692
#
#
#
# Elastic Compliance Matrix: (Units=1/GPa)
#
#
# Indices 1 2 3 4 5 6 
#
# 1 0.006512 -0.000477 -0.002833 0.000000 0.002460 0.000000
# 2 -0.000477 0.018384 0.000759 0.000000 0.001539 0.000000
# 3 -0.002833 0.000759 0.018656 0.000000 0.005122 0.000000
# 4 0.000000 0.000000 0.000000 0.062780 0.000000 0.012268
# 5 0.002460 0.001539 0.005122 0.000000 0.021392 0.000000
# 6 0.000000 0.000000 0.000000 0.012268 0.000000 0.041660
#
#
# Mechanical properties :
#
#
# Convention : Reuss Voigt Hill
#
# Bulk Modulus (GPa) = 26.00909 42.40110 34.20509
# Shear Modulus (GPa) = 26.69451 36.75884 31.72667
#
# Velocity S-wave (km/s) = 3.24941 3.81307 3.54247
# Velocity P-wave (km/s) = 4.93618 6.01309 5.50105
#
# Compressibility (1/GPa) = 0.03844809
#
# Stress axis : x y z
#
# Youngs Moduli (GPa) = 153.55929 54.39586 53.60199
#
# Poissons Ratio (x) = 0.02597 0.15186
# Poissons Ratio (y) = 0.07331 -0.04066
# Poissons Ratio (z) = 0.43504 -0.04126
#
# Static dielectric constant tensor:
#      x y z
#    x 1.964160 0.000000 -0.045970 
#    y 0.000000 1.894650 0.000000 
#    z -0.045970 0.000000 2.122650 
# 
# From -- ./inp_files/63098.got.cif
#   From: 2010.05.17/outbox.cif.g08.bks.cpg/sg11_32_cif.got.tgz:63098.got - 2010.06.03 12:22:45.
