data_PCOD9162496
_publ_section_title
;
Structure prediction by ZEFSAII (Michael W. Deem and Ramdas Pophale) SiO2 
 PCOD9162496
Probable space group: P 21/M
;
_chemical_formula_sum "Si O2"
_cell_formula_units_Z 24
_cell_length_a 11.860127
_cell_length_b 22.569704
_cell_length_c 11.003262
_cell_angle_alpha 90.000000
_cell_angle_beta 25.383523
_cell_angle_gamma 90.000000
_cell_volume 1262.598167
_symmetry_space_group_name_H-M "P 21/M"
_symmetry_group_IT_number 11
_symmetry_cell_setting 'monoclinic'
loop_
_space_group_symop_operation_xyz
x,y,z
-x,1/2+y,-z
-x,-y,-z
x,1/2-y,z
loop_
_atom_site_type_symbol
_atom_site_label
_atom_site_fract_x
_atom_site_fract_y
_atom_site_fract_z
Si Si1 0.213762 0.880895 0.918935
Si Si2 0.354938 0.909549 0.503632
Si Si3 0.737658 0.821175 0.497114
Si Si4 0.518566 0.178712 0.831325
Si Si5 0.120420 0.487576 0.016303
Si Si6 0.036688 0.321602 0.462504
O O1 0.291110 0.887843 0.702122
O O2 0.448677 0.846622 0.756444
O O3 0.177016 0.946767 0.009775
O O4 0.940642 0.846283 0.200144
O O5 0.415052 0.855342 0.356194
O O6 0.610310 0.951563 0.257815
O O7 0.104501 0.948026 0.702506
O O8 0.728895 0.750000 0.502203
O O9 0.857340 0.841204 0.510174
O O10 0.524135 0.250000 0.808749
O O11 0.741811 0.162513 0.712938
O O12 0.238234 0.161046 0.159954
O O13 0.000000 0.500000 0.000000
O O14 0.043850 0.250000 0.460331
#
# Coordination Sequence:
#
# PCOD9162496 Si02
#       6
#     4   4   4   4   4   4
#     4  11  21  36  57  83 111 143 180 224 274 322
#     4  11  21  36  58  84 111 142 180 226 274 322
#     4  11  22  36  57  83 112 144 179 224 274 324
#     4  10  20  35  57  82 109 142 180 225 273 322
#     4  10  20  37  57  78 108 149 191 216 254 328
#     4   9  19  36  55  76 105 148 190 214 254 328
#
# _framework density 19.008424000000002
#
# number of rings (size 3 to 8) (size 9 to 14) (size 15 to 20)
#    0.000    1.667    0.000    7.500    0.000    4.000 
#    0.000    1.667    0.000   20.000    0.000    0.000 
#    0.000    0.000    0.000    0.000    0.000    0.000 
#
# Total GULP energy -133994.828345 kJ/mol
# GULP energy per Si atom -5583.117848 kJ/mol
# Density = 1.896516 g / cm^3
# Si number density = 19.008424 Si / 1000 Ang^3
#
#
#
# Elastic Constant Matrix: (Units=GPa)
#
#
# Indices 1 2 3 4 5 6 
#
# 1 32.0144 20.3622 -4.7397 0.0000 3.5174 0.0000
# 2 20.3622 81.1647 25.4625 0.0000 1.2603 0.0000
# 3 -4.7397 25.4625 88.0112 0.0000 -7.9721 0.0000
# 4 0.0000 0.0000 0.0000 20.2435 0.0000 -26.4704
# 5 3.5174 1.2603 -7.9721 0.0000 17.1517 0.0000
# 6 0.0000 0.0000 0.0000 -26.4704 0.0000 2.3810
#
#
#
# Elastic Compliance Matrix: (Units=1/GPa)
#
#
# Indices 1 2 3 4 5 6 
#
# 1 0.039835 -0.011490 0.005017 0.000000 -0.004993 0.000000
# 2 -0.011490 0.017008 -0.005678 0.000000 -0.001533 0.000000
# 3 0.005017 -0.005678 0.013801 0.000000 0.005803 0.000000
# 4 0.000000 0.000000 0.000000 -0.003649 0.000000 -0.040569
# 5 -0.004993 -0.001533 0.005803 0.000000 0.062137 0.000000
# 6 0.000000 0.000000 0.000000 -0.040569 0.000000 -0.031025
#
#
# Mechanical properties :
#
#
# Convention : Reuss Voigt Hill
#
# Bulk Modulus (GPa) = 21.57866 31.48448 26.53157
# Shear Modulus (GPa) = 36.26959 18.62894 27.44926
#
# Velocity S-wave (km/s) = 4.37290 3.13395 3.80420
# Velocity P-wave (km/s) = 6.07232 5.44930 5.76923
#
# Compressibility (1/GPa) = 0.04634207
#
# Stress axis : x y z
#
# Youngs Moduli (GPa) = 25.10333 58.79457 72.45961
#
# Poissons Ratio (x) = 0.67556 -0.36354
# Poissons Ratio (y) = 0.28844 0.41145
# Poissons Ratio (z) = -0.12595 0.33385
#
# Static dielectric constant tensor:
#      x y z
#    x 1.658770 0.000000 0.003140 
#    y 0.000000 1.663660 0.000000 
#    z 0.003140 0.000000 1.659560 
# 
# From -- ./inp_files/4826.got.cif
#   From: 2010.05.17/outbox.cif.g08.bks.cpg/sg11_3_cif.got.tgz:4826.got - 2010.06.03 12:22:45.
