data_PCOD9162854
_publ_section_title
;
Structure prediction by ZEFSAII (Michael W. Deem and Ramdas Pophale) SiO2 
 PCOD9162854
Probable space group: P 21/M
;
_chemical_formula_sum "Si O2"
_cell_formula_units_Z 28
_cell_length_a 21.923353
_cell_length_b 7.321235
_cell_length_c 14.869881
_cell_angle_alpha 90.000000
_cell_angle_beta 28.094381
_cell_angle_gamma 90.000000
_cell_volume 1123.960124
_symmetry_space_group_name_H-M "P 21/M"
_symmetry_group_IT_number 11
_symmetry_cell_setting 'monoclinic'
loop_
_space_group_symop_operation_xyz
x,y,z
-x,1/2+y,-z
-x,-y,-z
x,1/2-y,z
loop_
_atom_site_type_symbol
_atom_site_label
_atom_site_fract_x
_atom_site_fract_y
_atom_site_fract_z
Si Si1 0.979898 0.972525 0.656567
Si Si2 0.002404 0.471809 0.159730
Si Si3 0.506425 0.459383 0.641958
Si Si4 0.210704 0.047902 0.227364
Si Si5 0.351562 0.033475 0.208495
Si Si6 0.278533 0.960854 0.506381
Si Si7 0.701397 0.972408 0.225850
O O1 0.985823 0.750000 0.642415
O O2 0.839778 0.027806 0.800643
O O3 0.008583 0.021191 0.720737
O O4 0.082570 0.059022 0.456269
O O5 0.000844 0.250000 0.154943
O O6 0.868298 0.536038 0.287131
O O7 0.150262 0.529891 0.946772
O O8 0.476209 0.250000 0.706038
O O9 0.593666 0.540150 0.610125
O O10 0.374214 0.532720 0.767243
O O11 0.609570 0.466348 0.426180
O O12 0.264421 0.250000 0.139185
O O13 0.297120 0.949105 0.187087
O O14 0.322282 0.250000 0.247342
O O15 0.302289 0.962745 0.368133
O O16 0.500000 0.000000 0.000000
O O17 0.273405 0.750000 0.542839
O O18 0.702427 0.750000 0.221512
#
# Coordination Sequence:
#
# PCOD9162854 Si02
#       7
#     4   4   4   4   4   4   4
#     4   9  16  29  51  73  97 131 168 208 257 310
#     4   9  17  30  52  79 104 135 176 214 258 315
#     4   9  19  35  55  78 106 139 175 216 265 317
#     4   9  18  31  48  72  99 129 170 215 255 300
#     4  11  23  37  53  76 107 142 181 221 266 316
#     4  10  20  36  56  78 105 139 177 220 269 321
#     4   9  18  34  55  78 105 139 176 215 261 320
#
# _framework density 24.911916000000002
#
# number of rings (size 3 to 8) (size 9 to 14) (size 15 to 20)
#    0.000    2.571    1.429    0.429    0.000    2.857 
#    0.000    5.714    0.000    0.000    0.000    0.000 
#    0.000    0.000    0.000    0.000    0.000    0.000 
#
# Total GULP energy -156014.508669 kJ/mol
# GULP energy per Si atom -5571.946738 kJ/mol
# Density = 2.485522 g / cm^3
# Si number density = 24.911916 Si / 1000 Ang^3
#
#
#
# Elastic Constant Matrix: (Units=GPa)
#
#
# Indices 1 2 3 4 5 6 
#
# 1 124.0677 5.8820 16.1902 0.0000 -37.9324 0.0000
# 2 5.8820 110.5275 -6.0191 0.0000 -2.5274 0.0000
# 3 16.1902 -6.0191 100.2088 0.0000 -7.1453 0.0000
# 4 0.0000 0.0000 0.0000 1.5074 0.0000 9.1487
# 5 -37.9324 -2.5274 -7.1453 0.0000 26.3390 0.0000
# 6 0.0000 0.0000 0.0000 9.1487 0.0000 -6.2808
#
#
#
# Elastic Compliance Matrix: (Units=1/GPa)
#
#
# Indices 1 2 3 4 5 6 
#
# 1 0.014488 -0.000349 -0.000894 0.000000 0.020590 0.000000
# 2 -0.000349 0.009114 0.000643 0.000000 0.000546 0.000000
# 3 -0.000894 0.000643 0.010274 0.000000 0.001562 0.000000
# 4 0.000000 0.000000 0.000000 0.067415 0.000000 0.098197
# 5 0.020590 0.000546 0.001562 0.000000 0.068095 0.000000
# 6 0.000000 0.000000 0.000000 0.098197 0.000000 -0.016180
#
#
# Mechanical properties :
#
#
# Convention : Reuss Voigt Hill
#
# Bulk Modulus (GPa) = 30.60367 40.76782 35.68574
# Shear Modulus (GPa) = 30.24868 25.56317 27.90593
#
# Velocity S-wave (km/s) = 3.48835 3.20682 3.35055
# Velocity P-wave (km/s) = 5.34193 5.48743 5.41517
#
# Compressibility (1/GPa) = 0.03267582
#
# Stress axis : x y z
#
# Youngs Moduli (GPa) = 69.02113 109.72634 97.33772
#
# Poissons Ratio (x) = 0.03828 0.08699
# Poissons Ratio (y) = 0.02408 -0.06256
# Poissons Ratio (z) = 0.06168 -0.07053
#
# Static dielectric constant tensor:
#      x y z
#    x 2.106120 0.000000 -0.129520 
#    y 0.000000 1.877070 0.000000 
#    z -0.129520 0.000000 1.985710 
# 
# From -- ./inp_files/54449.got.cif
#   From: 2010.05.17/outbox.cif.g08.bks.cpg/sg11_28_cif.got.tgz:54449.got - 2010.06.03 12:22:45.
