data_PCOD9162408
_publ_section_title
;
Structure prediction by ZEFSAII (Michael W. Deem and Ramdas Pophale) SiO2 
 PCOD9162408
Probable space group: P 21/M
;
_chemical_formula_sum "Si O2"
_cell_formula_units_Z 28
_cell_length_a 22.155304
_cell_length_b 9.255962
_cell_length_c 8.019153
_cell_angle_alpha 90.000000
_cell_angle_beta 49.332908
_cell_angle_gamma 90.000000
_cell_volume 1247.350107
_symmetry_space_group_name_H-M "P 21/M"
_symmetry_group_IT_number 11
_symmetry_cell_setting 'monoclinic'
loop_
_space_group_symop_operation_xyz
x,y,z
-x,1/2+y,-z
-x,-y,-z
x,1/2-y,z
loop_
_atom_site_type_symbol
_atom_site_label
_atom_site_fract_x
_atom_site_fract_y
_atom_site_fract_z
Si Si1 0.526902 0.084332 0.213346
Si Si2 0.189557 0.576861 0.304152
Si Si3 0.614011 0.414579 0.698379
Si Si4 0.748944 0.914039 0.321165
Si Si5 0.105869 0.418377 0.158112
Si Si6 0.664715 0.916990 0.109673
Si Si7 0.953750 0.419431 0.227811
O O1 0.514128 0.250000 0.287038
O O2 0.445016 0.009890 0.307808
O O3 0.578538 0.082488 0.948306
O O4 0.580772 0.997218 0.245910
O O5 0.201200 0.750000 0.288117
O O6 0.137454 0.529169 0.237271
O O7 0.272050 0.495552 0.125004
O O8 0.133685 0.530731 0.558974
O O9 0.613001 0.250000 0.641273
O O10 0.702421 0.477234 0.523176
O O11 0.741488 0.750000 0.397385
O O12 0.839702 0.941754 0.104772
O O13 0.703141 0.922890 0.224408
O O14 0.121323 0.250000 0.182058
O O15 0.014255 0.432527 0.275384
O O16 0.655185 0.750000 0.079375
O O17 0.948166 0.250000 0.196114
O O18 0.000000 0.500000 0.000000
#
# Coordination Sequence:
#
# PCOD9162408 Si02
#       7
#     4   4   4   4   4   4   4
#     4  10  21  37  56  79 108 141 179 222 265 314
#     4  10  20  35  56  82 109 139 178 223 269 318
#     4  10  21  36  55  79 107 141 179 217 265 322
#     4   9  19  35  55  79 106 137 177 222 265 314
#     4   9  19  37  57  78 106 142 182 220 264 321
#     4  10  21  37  57  81 108 141 180 219 265 320
#     4  10  22  37  54  80 112 143 180 224 268 317
#
# _framework density 22.447583999999999
#
# number of rings (size 3 to 8) (size 9 to 14) (size 15 to 20)
#    0.000    2.286    0.000    3.000    0.000    8.000 
#    0.000    2.857    0.000    0.000    0.000    0.000 
#    0.000    0.000    0.000    0.000    0.000    0.000 
#
# Total GULP energy -156555.661809 kJ/mol
# GULP energy per Si atom -5591.273636 kJ/mol
# Density = 2.239649 g / cm^3
# Si number density = 22.447584 Si / 1000 Ang^3
#
#
#
# Elastic Constant Matrix: (Units=GPa)
#
#
# Indices 1 2 3 4 5 6 
#
# 1 51.2948 14.3792 4.6872 0.0000 -16.2151 0.0000
# 2 14.3792 89.4781 39.7828 0.0000 -8.6091 0.0000
# 3 4.6872 39.7828 100.2005 0.0000 -21.3816 0.0000
# 4 0.0000 0.0000 0.0000 31.6589 0.0000 -1.5035
# 5 -16.2151 -8.6091 -21.3816 0.0000 36.8480 0.0000
# 6 0.0000 0.0000 0.0000 -1.5035 0.0000 23.7450
#
#
#
# Elastic Compliance Matrix: (Units=1/GPa)
#
#
# Indices 1 2 3 4 5 6 
#
# 1 0.023925 -0.004046 0.002890 0.000000 0.011260 0.000000
# 2 -0.004046 0.014256 -0.005866 0.000000 -0.001854 0.000000
# 3 0.002890 -0.005866 0.013870 0.000000 0.007950 0.000000
# 4 0.000000 0.000000 0.000000 0.031682 0.000000 0.002006
# 5 0.011260 -0.001854 0.007950 0.000000 0.036273 0.000000
# 6 0.000000 0.000000 0.000000 0.002006 0.000000 0.042241
#
#
# Mechanical properties :
#
#
# Convention : Reuss Voigt Hill
#
# Bulk Modulus (GPa) = 26.31181 39.85240 33.08211
# Shear Modulus (GPa) = 26.46043 30.59200 28.52621
#
# Velocity S-wave (km/s) = 3.43704 3.69564 3.56868
# Velocity P-wave (km/s) = 5.24384 6.00020 5.63473
#
# Compressibility (1/GPa) = 0.03800575
#
# Stress axis : x y z
#
# Youngs Moduli (GPa) = 41.79774 70.14557 72.09645
#
# Poissons Ratio (x) = 0.28383 -0.20836
# Poissons Ratio (y) = 0.16913 0.42295
# Poissons Ratio (z) = -0.12080 0.41150
#
# Static dielectric constant tensor:
#      x y z
#    x 1.836510 0.000000 0.028860 
#    y 0.000000 1.761660 0.000000 
#    z 0.028860 0.000000 1.853750 
# 
# From -- ./inp_files/28406.got.cif
#   From: 2010.05.17/outbox.cif.g08.bks.cpg/sg11_15_cif.got.tgz:28406.got - 2010.06.03 12:22:45.
