data_PCOD9162917
_publ_section_title
;
Structure prediction by ZEFSAII (Michael W. Deem and Ramdas Pophale) SiO2 
 PCOD9162917
Probable space group: P 21/M
;
_chemical_formula_sum "Si O2"
_cell_formula_units_Z 24
_cell_length_a 19.084039
_cell_length_b 10.964820
_cell_length_c 5.057238
_cell_angle_alpha 90.000000
_cell_angle_beta 104.548744
_cell_angle_gamma 90.000000
_cell_volume 1024.309182
_symmetry_space_group_name_H-M "P 21/M"
_symmetry_group_IT_number 11
_symmetry_cell_setting 'monoclinic'
loop_
_space_group_symop_operation_xyz
x,y,z
-x,1/2+y,-z
-x,-y,-z
x,1/2-y,z
loop_
_atom_site_type_symbol
_atom_site_label
_atom_site_fract_x
_atom_site_fract_y
_atom_site_fract_z
Si Si1 0.799872 0.391644 0.036823
Si Si2 0.943243 0.750000 0.627997
Si Si3 0.700128 0.108356 0.463177
Si Si4 0.415538 0.506560 0.995307
Si Si5 0.546639 0.250000 0.720789
Si Si6 0.084462 0.993440 0.504693
Si Si7 0.556757 0.750000 0.872003
Si Si8 0.046639 0.750000 0.220789
O O1 0.820873 0.250000 0.008093
O O2 0.750000 0.392188 0.250000
O O3 0.868449 0.470063 0.190619
O O4 0.750000 0.435155 0.750000
O O5 0.899626 0.623928 0.610324
O O6 0.980993 0.750000 0.374424
O O7 0.008117 0.750000 0.902307
O O8 0.679127 0.250000 0.491907
O O9 0.631551 0.029937 0.309381
O O10 0.500000 0.500000 0.000000
O O11 0.409114 0.627014 0.171125
O O12 0.399626 0.376072 0.110323
O O13 0.508117 0.250000 0.402307
O O14 0.480993 0.250000 0.874424
O O15 0.090886 0.872986 0.328875
O O16 0.000000 0.000000 0.500000
#
# Coordination Sequence:
#
# PCOD9162917 Si02
#       8
#     4   2   4   4   2   4   2   2
#     4  10  22  40  62  89 121 161 205 252 302 360
#     4  10  22  34  56  88 120 152 195 248 307 346
#     4  10  22  40  62  89 121 161 205 252 302 360
#     4  10  21  40  62  92 122 162 205 254 301 363
#     4  10  20  36  56  86 120 154 197 250 293 350
#     4  10  21  40  62  92 122 162 205 254 301 363
#     4  10  22  34  56  88 120 152 195 248 307 346
#     4  10  20  36  56  86 120 154 197 250 293 350
#
# _framework density 23.430423000000001
#
# number of rings (size 3 to 8) (size 9 to 14) (size 15 to 20)
#    0.000    2.000    1.667    1.000    0.000   10.667 
#    0.000    1.667    0.000    0.000    0.000    0.000 
#    0.000    0.000    0.000    0.000    0.000    0.000 
#
# Total GULP energy -134331.839288 kJ/mol
# GULP energy per Si atom -5597.159970 kJ/mol
# Density = 2.337709 g / cm^3
# Si number density = 23.430423 Si / 1000 Ang^3
#
#
#
# Elastic Constant Matrix: (Units=GPa)
#
#
# Indices 1 2 3 4 5 6 
#
# 1 63.1800 13.3042 45.5714 0.0000 12.4649 0.0000
# 2 13.3042 216.0901 75.7442 0.0000 23.5232 0.0000
# 3 45.5714 75.7442 218.3380 0.0000 43.9548 0.0000
# 4 0.0000 0.0000 0.0000 38.2951 0.0000 10.8108
# 5 12.4649 23.5232 43.9548 0.0000 48.3065 0.0000
# 6 0.0000 0.0000 0.0000 10.8108 0.0000 15.9464
#
#
#
# Elastic Compliance Matrix: (Units=1/GPa)
#
#
# Indices 1 2 3 4 5 6 
#
# 1 0.018748 0.000318 -0.003695 0.000000 -0.001630 0.000000
# 2 0.000318 0.005322 -0.001683 0.000000 -0.001143 0.000000
# 3 -0.003695 -0.001683 0.006829 0.000000 -0.004441 0.000000
# 4 0.000000 0.000000 0.000000 0.032294 0.000000 -0.021893
# 5 -0.001630 -0.001143 -0.004441 0.000000 0.025719 0.000000
# 6 0.000000 0.000000 0.000000 -0.021893 0.000000 0.077553
#
#
# Mechanical properties :
#
#
# Convention : Reuss Voigt Hill
#
# Bulk Modulus (GPa) = 48.12314 85.20532 66.66423
# Shear Modulus (GPa) = 27.24638 44.70881 35.97760
#
# Velocity S-wave (km/s) = 3.41378 4.37298 3.92281
# Velocity P-wave (km/s) = 6.01014 7.87029 7.00226
#
# Compressibility (1/GPa) = 0.02078003
#
# Stress axis : x y z
#
# Youngs Moduli (GPa) = 53.33962 187.88695 146.43075
#
# Poissons Ratio (x) = -0.05984 0.54111
# Poissons Ratio (y) = -0.01699 0.24642
# Poissons Ratio (z) = 0.19711 0.31618
#
# Static dielectric constant tensor:
#      x y z
#    x 1.974530 0.000000 -0.059980 
#    y 0.000000 1.972450 0.000000 
#    z -0.059980 0.000000 1.842210 
# 
# From -- ./inp_files/8601.got.cif
#   From: 2010.05.17/outbox.cif.g08.bks.cpg/sg11_5_cif.got.tgz:8601.got - 2010.06.03 12:22:45.
