data_PCOD9162549
_publ_section_title
;
Structure prediction by ZEFSAII (Michael W. Deem and Ramdas Pophale) SiO2 
 PCOD9162549
Probable space group: P 21/M
;
_chemical_formula_sum "Si O2"
_cell_formula_units_Z 32
_cell_length_a 12.173624
_cell_length_b 8.133945
_cell_length_c 29.435887
_cell_angle_alpha 90.000000
_cell_angle_beta 31.063219
_cell_angle_gamma 90.000000
_cell_volume 1503.952403
_symmetry_space_group_name_H-M "P 21/M"
_symmetry_group_IT_number 11
_symmetry_cell_setting 'monoclinic'
loop_
_space_group_symop_operation_xyz
x,y,z
-x,1/2+y,-z
-x,-y,-z
x,1/2-y,z
loop_
_atom_site_type_symbol
_atom_site_label
_atom_site_fract_x
_atom_site_fract_y
_atom_site_fract_z
Si Si1 0.609033 0.450936 0.837698
Si Si2 0.606399 0.552196 0.415250
Si Si3 0.407390 0.064310 0.324052
Si Si4 0.045180 0.549437 0.217010
Si Si5 0.874732 0.945726 0.180219
Si Si6 0.879044 0.947764 0.997015
Si Si7 0.848912 0.438402 0.663255
Si Si8 0.744988 0.441968 0.531894
O O1 0.604825 0.250000 0.838309
O O2 0.732418 0.503414 0.839520
O O3 0.366664 0.505447 0.917271
O O4 0.754325 0.502581 0.743716
O O5 0.500000 0.500000 0.500000
O O6 0.609085 0.750000 0.414010
O O7 0.452861 0.499436 0.428577
O O8 0.846328 0.496964 0.319316
O O9 0.392783 0.250000 0.312383
O O10 0.253609 0.038896 0.421562
O O11 0.643630 0.026336 0.257386
O O12 0.337502 0.947373 0.308037
O O13 0.046371 0.750000 0.216632
O O14 0.994935 0.497224 0.183383
O O15 0.843028 0.750000 0.195540
O O16 0.003786 0.984840 0.089022
O O17 0.881196 0.750000 0.994296
O O18 0.000000 0.000000 0.000000
O O19 0.918801 0.250000 0.645264
O O20 0.045165 0.535184 0.572340
O O21 0.285655 0.750000 0.446258
#
# Coordination Sequence:
#
# PCOD9162549 Si02
#       8
#     4   4   4   4   4   4   4   4
#     4   9  20  38  62  89 120 156 200 251 305 365
#     4  10  20  35  57  84 117 161 207 254 304 365
#     4  12  24  39  60  87 121 160 207 259 307 368
#     4   9  18  37  61  86 119 160 201 245 305 369
#     4  11  22  40  65  91 123 163 202 250 312 376
#     4  11  23  41  65  95 125 160 206 256 310 371
#     4  11  22  38  61  88 120 161 207 256 313 371
#     4  11  22  38  57  85 122 161 205 253 311 371
#
# _framework density 21.277270000000001
#
# number of rings (size 3 to 8) (size 9 to 14) (size 15 to 20)
#    0.000    1.500    1.250    4.500    0.000    3.500 
#    0.000    1.875    0.000    6.000    0.000    0.000 
#    0.000    0.000    0.000    0.000    0.000    0.000 
#
# Total GULP energy -178918.263661 kJ/mol
# GULP energy per Si atom -5591.195739 kJ/mol
# Density = 2.122884 g / cm^3
# Si number density = 21.277270 Si / 1000 Ang^3
#
#
#
# Elastic Constant Matrix: (Units=GPa)
#
#
# Indices 1 2 3 4 5 6 
#
# 1 110.5669 -11.5692 53.6651 0.0000 -16.5023 0.0000
# 2 -11.5692 27.8756 -1.4015 0.0000 -2.2413 0.0000
# 3 53.6651 -1.4015 113.0965 0.0000 -4.0017 0.0000
# 4 0.0000 0.0000 0.0000 18.8141 0.0000 0.1018
# 5 -16.5023 -2.2413 -4.0017 0.0000 39.3157 0.0000
# 6 0.0000 0.0000 0.0000 0.1018 0.0000 18.5459
#
#
#
# Elastic Compliance Matrix: (Units=1/GPa)
#
#
# Indices 1 2 3 4 5 6 
#
# 1 0.013392 0.005680 -0.006096 0.000000 0.005324 0.000000
# 2 0.005680 0.038478 -0.002064 0.000000 0.004367 0.000000
# 3 -0.006096 -0.002064 0.011656 0.000000 -0.001490 0.000000
# 4 0.000000 0.000000 0.000000 0.053153 0.000000 -0.000292
# 5 0.005324 0.004367 -0.001490 0.000000 0.027767 0.000000
# 6 0.000000 0.000000 0.000000 -0.000292 0.000000 0.053922
#
#
# Mechanical properties :
#
#
# Convention : Reuss Voigt Hill
#
# Bulk Modulus (GPa) = 17.07449 36.99197 27.03323
# Shear Modulus (GPa) = 22.43652 29.39143 25.91398
#
# Velocity S-wave (km/s) = 3.25080 3.72069 3.49365
# Velocity P-wave (km/s) = 4.70452 5.99011 5.38581
#
# Compressibility (1/GPa) = 0.05856691
#
# Stress axis : x y z
#
# Youngs Moduli (GPa) = 74.67168 25.98866 85.79111
#
# Poissons Ratio (x) = -0.14761 0.52297
# Poissons Ratio (y) = -0.42411 0.17705
# Poissons Ratio (z) = 0.45518 0.05363
#
# Static dielectric constant tensor:
#      x y z
#    x 1.767910 0.000000 -0.016060 
#    y 0.000000 1.752180 0.000000 
#    z -0.016060 0.000000 1.755000 
# 
# From -- ./inp_files/38084.got.cif
#   From: 2010.05.17/outbox.cif.g08.bks.cpg/sg11_20_cif.got.tgz:38084.got - 2010.06.03 12:22:45.
