data_PCOD9162682
_publ_section_title
;
Structure prediction by ZEFSAII (Michael W. Deem and Ramdas Pophale) SiO2 
 PCOD9162682
Probable space group: P 21/M
;
_chemical_formula_sum "Si O2"
_cell_formula_units_Z 28
_cell_length_a 9.422283
_cell_length_b 13.435828
_cell_length_c 11.337944
_cell_angle_alpha 90.000000
_cell_angle_beta 56.980118
_cell_angle_gamma 90.000000
_cell_volume 1203.506347
_symmetry_space_group_name_H-M "P 21/M"
_symmetry_group_IT_number 11
_symmetry_cell_setting 'monoclinic'
loop_
_space_group_symop_operation_xyz
x,y,z
-x,1/2+y,-z
-x,-y,-z
x,1/2-y,z
loop_
_atom_site_type_symbol
_atom_site_label
_atom_site_fract_x
_atom_site_fract_y
_atom_site_fract_z
Si Si1 0.506766 0.365570 0.311373
Si Si2 0.104038 0.968675 0.629089
Si Si3 0.455063 0.137131 0.845406
Si Si4 0.148577 0.863849 0.992029
Si Si5 0.890393 0.586411 0.915713
Si Si6 0.644856 0.869679 0.376550
Si Si7 0.751065 0.478634 0.670773
O O1 0.469648 0.250000 0.315975
O O2 0.686862 0.381200 0.166296
O O3 0.497334 0.386380 0.456734
O O4 0.352708 0.423154 0.318914
O O5 0.203803 0.058547 0.648088
O O6 0.931087 0.007761 0.647744
O O7 0.214231 0.926819 0.471516
O O8 0.029648 0.890288 0.754562
O O9 0.503109 0.250000 0.809550
O O10 0.403844 0.101524 0.735562
O O11 0.619452 0.079048 0.810937
O O12 0.297497 0.127770 0.003723
O O13 0.161033 0.750000 0.035008
O O14 0.975775 0.871338 0.994960
O O15 0.133633 0.966446 0.071371
O O16 0.684810 0.750000 0.358080
#
# Coordination Sequence:
#
# PCOD9162682 Si02
#       7
#     4   4   4   4   4   4   4
#     4   9  18  35  60  87 115 151 195 244 291 346
#     4  10  23  38  62  85 119 159 194 240 294 348
#     4  11  23  40  61  88 121 154 194 246 295 345
#     4  10  20  35  58  90 120 153 195 241 297 352
#     4  11  22  37  57  87 123 156 188 245 294 350
#     4   9  19  35  60  89 117 151 196 243 293 345
#     4  10  22  42  60  87 117 155 200 242 287 346
#
# _framework density 23.265353999999999
#
# number of rings (size 3 to 8) (size 9 to 14) (size 15 to 20)
#    0.000    2.000    1.429    2.143    2.000    4.000 
#    0.000    4.286    0.000    0.000    0.000    0.000 
#    0.000    0.000    0.000    0.000    0.000    0.000 
#
# Total GULP energy -156281.580775 kJ/mol
# GULP energy per Si atom -5581.485028 kJ/mol
# Density = 2.321240 g / cm^3
# Si number density = 23.265354 Si / 1000 Ang^3
#
#
#
# Elastic Constant Matrix: (Units=GPa)
#
#
# Indices 1 2 3 4 5 6 
#
# 1 68.0690 5.1342 -1.0833 0.0000 -17.1591 0.0000
# 2 5.1342 74.7536 -0.9979 0.0000 0.6375 0.0000
# 3 -1.0833 -0.9979 66.5696 0.0000 -27.8248 0.0000
# 4 0.0000 0.0000 0.0000 23.1881 0.0000 -0.7779
# 5 -17.1591 0.6375 -27.8248 0.0000 36.3823 0.0000
# 6 0.0000 0.0000 0.0000 -0.7779 0.0000 3.4201
#
#
#
# Elastic Compliance Matrix: (Units=1/GPa)
#
#
# Indices 1 2 3 4 5 6 
#
# 1 0.018133 -0.001280 0.005674 0.000000 0.012914 0.000000
# 2 -0.001280 0.013471 -0.000250 0.000000 -0.001031 0.000000
# 3 0.005674 -0.000250 0.023857 0.000000 0.020926 0.000000
# 4 0.000000 0.000000 0.000000 0.043457 0.000000 0.009885
# 5 0.012914 -0.001031 0.020926 0.000000 0.049598 0.000000
# 6 0.000000 0.000000 0.000000 0.009885 0.000000 0.294642
#
#
# Mechanical properties :
#
#
# Convention : Reuss Voigt Hill
#
# Bulk Modulus (GPa) = 15.68651 23.94423 19.81537
# Shear Modulus (GPa) = 10.96205 26.35405 18.65805
#
# Velocity S-wave (km/s) = 2.17301 3.36930 2.83497
# Velocity P-wave (km/s) = 3.61290 5.04484 4.38768
#
# Compressibility (1/GPa) = 0.06374903
#
# Stress axis : x y z
#
# Youngs Moduli (GPa) = 55.14773 74.23555 41.91636
#
# Poissons Ratio (x) = 0.09501 -0.23781
# Poissons Ratio (y) = 0.07058 0.01046
# Poissons Ratio (z) = -0.31288 0.01853
#
# Static dielectric constant tensor:
#      x y z
#    x 1.860720 0.000000 0.033270 
#    y 0.000000 1.841130 0.000000 
#    z 0.033270 0.000000 2.017560 
# 
# From -- ./inp_files/31783.got.cif
#   From: 2010.05.17/outbox.cif.g08.bks.cpg/sg11_16_cif.got.tgz:31783.got - 2010.06.03 12:22:45.
