data_PCOD9162119
_publ_section_title
;
Structure prediction by ZEFSAII (Michael W. Deem and Ramdas Pophale) SiO2 
 PCOD9162119
Probable space group: P 21/M
;
_chemical_formula_sum "Si O2"
_cell_formula_units_Z 24
_cell_length_a 24.309543
_cell_length_b 9.562415
_cell_length_c 12.619265
_cell_angle_alpha 90.000000
_cell_angle_beta 26.180830
_cell_angle_gamma 90.000000
_cell_volume 1294.253900
_symmetry_space_group_name_H-M "P 21/M"
_symmetry_group_IT_number 11
_symmetry_cell_setting 'monoclinic'
loop_
_space_group_symop_operation_xyz
x,y,z
-x,1/2+y,-z
-x,-y,-z
x,1/2-y,z
loop_
_atom_site_type_symbol
_atom_site_label
_atom_site_fract_x
_atom_site_fract_y
_atom_site_fract_z
Si Si1 0.424890 0.408091 0.713358
Si Si2 0.147634 0.750000 0.354303
Si Si3 0.952950 0.250000 0.232816
Si Si4 0.404540 0.511927 0.394003
Si Si5 0.182866 0.911766 0.107819
Si Si6 0.838491 0.589458 0.057627
Si Si7 0.574141 0.250000 0.037110
Si Si8 0.682476 0.250000 0.613088
O O1 0.500000 0.500000 0.500000
O O2 0.409914 0.250000 0.701920
O O3 0.504149 0.409350 0.683121
O O4 0.295354 0.488311 0.947601
O O5 0.090585 0.750000 0.568524
O O6 0.110047 0.880056 0.343441
O O7 0.298809 0.750000 0.111062
O O8 0.831790 0.250000 0.370863
O O9 0.043724 0.115392 0.068312
O O10 0.283567 0.461610 0.669447
O O11 0.486850 0.382678 0.210915
O O12 0.360311 0.614122 0.377838
O O13 0.221551 0.750000 0.011746
O O14 0.131573 0.986297 0.091362
O O15 0.815710 0.750000 0.058462
O O16 0.621393 0.250000 0.834820
#
# Coordination Sequence:
#
# PCOD9162119 Si02
#       8
#     4   2   2   4   4   4   2   2
#     4  12  23  33  57  95 135 153 181 234 305 378
#     4   9  20  35  62  84 126 162 184 242 297 360
#     4   9  23  46  55  83 114 165 214 245 298 325
#     4  12  22  39  62  92 116 154 197 242 308 350
#     4  10  20  34  59  94 119 161 187 237 298 361
#     4  10  22  38  61  84 119 159 198 249 294 352
#     4  11  21  42  60  88 123 156 190 239 311 360
#     4  11  26  41  65  81 117 159 204 256 280 361
#
# _framework density 18.543502
#
# number of rings (size 3 to 8) (size 9 to 14) (size 15 to 20)
#    1.000    0.333    5.000    1.500    2.333    1.333 
#    0.000    0.000    1.833    0.000    0.000    0.000 
#    0.000    0.000    0.000    0.000    0.000    0.000 
#
# Total GULP energy -133656.907880 kJ/mol
# GULP energy per Si atom -5569.037828 kJ/mol
# Density = 1.850130 g / cm^3
# Si number density = 18.543502 Si / 1000 Ang^3
#
#
#
# Elastic Constant Matrix: (Units=GPa)
#
#
# Indices 1 2 3 4 5 6 
#
# 1 101.7025 33.0485 8.7864 0.0000 -11.1263 0.0000
# 2 33.0485 127.4093 14.0906 0.0000 -0.3175 0.0000
# 3 8.7864 14.0906 38.3903 0.0000 -9.5199 0.0000
# 4 0.0000 0.0000 0.0000 0.0736 0.0000 -0.3725
# 5 -11.1263 -0.3175 -9.5199 0.0000 28.4150 0.0000
# 6 0.0000 0.0000 0.0000 -0.3725 0.0000 36.0461
#
#
#
# Elastic Compliance Matrix: (Units=1/GPa)
#
#
# Indices 1 2 3 4 5 6 
#
# 1 0.011264 -0.002858 -0.000483 0.000000 0.004217 0.000000
# 2 -0.002858 0.008932 -0.003138 0.000000 -0.002070 0.000000
# 3 -0.000483 -0.003138 0.029724 0.000000 0.009734 0.000000
# 4 0.000000 0.000000 0.000000 14.328425 0.000000 0.148055
# 5 0.004217 -0.002070 0.009734 0.000000 0.040082 0.000000
# 6 0.000000 0.000000 0.000000 0.148055 0.000000 0.029272
#
#
# Mechanical properties :
#
#
# Convention : Reuss Voigt Hill
#
# Bulk Modulus (GPa) = 27.05435 42.15033 34.60234
# Shear Modulus (GPa) = 0.34547 27.01206 13.67877
#
# Velocity S-wave (km/s) = 0.43210 3.82080 2.71893
# Velocity P-wave (km/s) = 3.85620 6.49958 5.34391
#
# Compressibility (1/GPa) = 0.03696264
#
# Stress axis : x y z
#
# Youngs Moduli (GPa) = 88.77558 111.95874 33.64241
#
# Poissons Ratio (x) = 0.31996 0.01627
# Poissons Ratio (y) = 0.25371 0.10556
# Poissons Ratio (z) = 0.04292 0.35129
#
# Static dielectric constant tensor:
#      x y z
#    x 1.655290 0.000000 -0.014690 
#    y 0.000000 1.606200 0.000000 
#    z -0.014690 0.000000 1.690110 
# 
# From -- ./inp_files/43915.got.cif
#   From: 2010.05.17/outbox.cif.g08.bks.cpg/sg11_22_cif.got.tgz:43915.got - 2010.06.03 12:22:45.
