data_PCOD9162698
_publ_section_title
;
Structure prediction by ZEFSAII (Michael W. Deem and Ramdas Pophale) SiO2 
 PCOD9162698
Probable space group: P 21/M
;
_chemical_formula_sum "Si O2"
_cell_formula_units_Z 32
_cell_length_a 11.764115
_cell_length_b 8.666082
_cell_length_c 22.030636
_cell_angle_alpha 90.000000
_cell_angle_beta 128.311801
_cell_angle_gamma 90.000000
_cell_volume 1762.318296
_symmetry_space_group_name_H-M "P 21/M"
_symmetry_group_IT_number 11
_symmetry_cell_setting 'monoclinic'
loop_
_space_group_symop_operation_xyz
x,y,z
-x,1/2+y,-z
-x,-y,-z
x,1/2-y,z
loop_
_atom_site_type_symbol
_atom_site_label
_atom_site_fract_x
_atom_site_fract_y
_atom_site_fract_z
Si Si1 0.071036 0.064974 0.616771
Si Si2 0.195744 0.063045 0.273387
Si Si3 0.822799 0.064822 0.992662
Si Si4 0.486789 0.935226 0.428003
Si Si5 0.660022 0.436481 0.060079
Si Si6 0.216573 0.063597 0.539573
Si Si7 0.891890 0.063258 0.236972
Si Si8 0.155536 0.435248 0.122989
O O1 0.067987 0.250000 0.618646
O O2 0.178282 0.019559 0.596539
O O3 0.112936 0.999584 0.696295
O O4 0.912272 0.004422 0.544438
O O5 0.200226 0.250000 0.276731
O O6 0.201429 0.013799 0.204836
O O7 0.043727 0.017480 0.254679
O O8 0.335604 0.995875 0.352097
O O9 0.820742 0.250000 0.988632
O O10 0.738639 0.015211 0.024209
O O11 0.988519 0.016167 0.058973
O O12 0.765631 0.999685 0.910200
O O13 0.486229 0.750000 0.429377
O O14 0.626133 0.983823 0.433492
O O15 0.500000 0.000000 0.500000
O O16 0.656719 0.250000 0.060833
O O17 0.757044 0.486472 0.149877
O O18 0.500000 0.500000 0.000000
O O19 0.208277 0.250000 0.533250
O O20 0.891113 0.250000 0.238891
O O21 0.161654 0.250000 0.123590
#
# Coordination Sequence:
#
# PCOD9162698 Si02
#       8
#     4   4   4   4   4   4   4   4
#     4  10  20  35  59  86 108 139 185 228 262 310
#     4  10  20  36  57  80 109 144 182 224 271 324
#     4   9  17  33  55  78 105 139 176 218 271 324
#     4  11  23  38  56  81 114 148 180 219 271 324
#     4  10  21  38  57  78 108 145 183 224 273 327
#     4   9  20  39  57  77 112 150 179 215 270 324
#     4  10  20  37  58  79 108 144 181 221 273 328
#     4   9  17  32  55  80 105 137 177 221 266 319
#
# _framework density 18.157900999999999
#
# number of rings (size 3 to 8) (size 9 to 14) (size 15 to 20)
#    0.000    2.250    1.250    1.500    0.000    6.500 
#    2.250    0.000    0.000    0.000    0.000    0.000 
#    0.000    0.000    0.000    0.000    0.000    0.000 
#
# Total GULP energy -178468.383451 kJ/mol
# GULP energy per Si atom -5577.136983 kJ/mol
# Density = 1.811657 g / cm^3
# Si number density = 18.157901 Si / 1000 Ang^3
#
#
#
# Elastic Constant Matrix: (Units=GPa)
#
#
# Indices 1 2 3 4 5 6 
#
# 1 109.1746 27.5104 102.1599 0.0000 -6.0412 0.0000
# 2 27.5104 11.0155 34.9041 0.0000 -3.2383 0.0000
# 3 102.1599 34.9041 192.8542 0.0000 -20.1955 0.0000
# 4 0.0000 0.0000 0.0000 33.8814 0.0000 -2.1292
# 5 -6.0412 -3.2383 -20.1955 0.0000 33.3411 0.0000
# 6 0.0000 0.0000 0.0000 -2.1292 0.0000 29.4587
#
#
#
# Elastic Compliance Matrix: (Units=1/GPa)
#
#
# Indices 1 2 3 4 5 6 
#
# 1 0.026838 -0.051235 -0.005291 0.000000 -0.003319 0.000000
# 2 -0.051235 0.310906 -0.028764 0.000000 0.003491 0.000000
# 3 -0.005291 -0.028764 0.013668 0.000000 0.004527 0.000000
# 4 0.000000 0.000000 0.000000 0.029649 0.000000 0.002143
# 5 -0.003319 0.003491 0.004527 0.000000 0.032473 0.000000
# 6 0.000000 0.000000 0.000000 0.002143 0.000000 0.034101
#
#
# Mechanical properties :
#
#
# Convention : Reuss Voigt Hill
#
# Bulk Modulus (GPa) = 5.53001 71.35479 38.44240
# Shear Modulus (GPa) = 7.36929 29.23423 18.30176
#
# Velocity S-wave (km/s) = 2.01674 4.01683 3.17822
# Velocity P-wave (km/s) = 2.91121 7.80355 5.88942
#
# Compressibility (1/GPa) = 0.18083143
#
# Stress axis : x y z
#
# Youngs Moduli (GPa) = 37.26090 3.21641 73.16275
#
# Poissons Ratio (x) = 0.16479 0.38713
# Poissons Ratio (y) = 1.90905 2.10445
# Poissons Ratio (z) = 0.19716 0.09252
#
# Static dielectric constant tensor:
#      x y z
#    x 1.674710 0.000000 0.016270 
#    y 0.000000 1.620370 0.000000 
#    z 0.016270 0.000000 1.654050 
# 
# From -- ./inp_files/64407.got.cif
#   From: 2010.05.17/outbox.cif.g08.bks.cpg/sg11_33_cif.got.tgz:64407.got - 2010.06.03 12:22:45.
