data_PCOD9162010
_publ_section_title
;
Structure prediction by ZEFSAII (Michael W. Deem and Ramdas Pophale) SiO2 
 PCOD9162010
Probable space group: P 21/M
;
_chemical_formula_sum "Si O2"
_cell_formula_units_Z 32
_cell_length_a 11.592368
_cell_length_b 9.212199
_cell_length_c 16.000579
_cell_angle_alpha 90.000000
_cell_angle_beta 90.177779
_cell_angle_gamma 90.000000
_cell_volume 1708.712821
_symmetry_space_group_name_H-M "P 21/M"
_symmetry_group_IT_number 11
_symmetry_cell_setting 'monoclinic'
loop_
_space_group_symop_operation_xyz
x,y,z
-x,1/2+y,-z
-x,-y,-z
x,1/2-y,z
loop_
_atom_site_type_symbol
_atom_site_label
_atom_site_fract_x
_atom_site_fract_y
_atom_site_fract_z
Si Si1 0.065623 0.582195 0.253314
Si Si2 0.441423 0.920949 0.126892
Si Si3 0.861442 0.422225 0.170623
Si Si4 0.929098 0.917533 0.428990
Si Si5 0.272369 0.922190 0.658089
Si Si6 0.661174 0.078925 0.053480
Si Si7 0.482325 0.423617 0.411916
Si Si8 0.692299 0.924197 0.726196
O O1 0.090064 0.750000 0.233333
O O2 0.182490 0.492381 0.261321
O O3 0.976478 0.512581 0.187426
O O4 0.001432 0.576423 0.342882
O O5 0.448244 0.750000 0.146665
O O6 0.565215 0.983105 0.099552
O O7 0.389526 0.012012 0.202179
O O8 0.359610 0.938614 0.045087
O O9 0.887876 0.250000 0.171817
O O10 0.775858 0.451595 0.249223
O O11 0.787760 0.457061 0.088115
O O12 0.912430 0.750000 0.452522
O O13 0.807607 0.992338 0.407258
O O14 0.000000 0.000000 0.500000
O O15 0.257991 0.750000 0.643562
O O16 0.406031 0.957952 0.645143
O O17 0.640850 0.250000 0.073479
O O18 0.500000 0.500000 0.500000
O O19 0.480272 0.250000 0.423848
O O20 0.366692 0.465362 0.362229
O O21 0.696439 0.750000 0.731054
#
# Coordination Sequence:
#
# PCOD9162010 Si02
#       8
#     4   4   4   4   4   4   4   4
#     4  10  22  38  55  80 110 143 185 234 282 330
#     4  10  20  34  56  88 119 151 187 229 279 329
#     4   9  17  34  59  82 108 144 184 228 276 330
#     4  10  21  35  54  78 105 136 176 225 274 323
#     4   9  18  34  54  77 105 136 175 220 270 322
#     4   9  18  34  58  87 119 149 186 231 277 331
#     4  10  23  39  56  80 108 142 183 228 277 331
#     4  11  23  40  59  79 111 152 190 227 277 341
#
# _framework density 18.727547000000001
#
# number of rings (size 3 to 8) (size 9 to 14) (size 15 to 20)
#    0.000    2.250    0.000    2.250    1.750    6.000 
#    0.000    3.125    0.000    0.000    0.000    0.000 
#    0.000    0.000    0.000    0.000    0.000    0.000 
#
# Total GULP energy -178669.244076 kJ/mol
# GULP energy per Si atom -5583.413877 kJ/mol
# Density = 1.868492 g / cm^3
# Si number density = 18.727547 Si / 1000 Ang^3
#
#
#
# Elastic Constant Matrix: (Units=GPa)
#
#
# Indices 1 2 3 4 5 6 
#
# 1 91.3965 46.4519 38.4191 0.0000 30.4470 0.0000
# 2 46.4519 70.6445 41.4133 0.0000 19.4507 0.0000
# 3 38.4191 41.4133 56.1375 0.0000 26.9171 0.0000
# 4 0.0000 0.0000 0.0000 27.2026 0.0000 0.2475
# 5 30.4470 19.4507 26.9171 0.0000 33.9910 0.0000
# 6 0.0000 0.0000 0.0000 0.2475 0.0000 31.6105
#
#
#
# Elastic Compliance Matrix: (Units=1/GPa)
#
#
# Indices 1 2 3 4 5 6 
#
# 1 0.020059 -0.009178 -0.001387 0.000000 -0.011618 0.000000
# 2 -0.009178 0.029146 -0.017999 0.000000 0.005797 0.000000
# 3 -0.001387 -0.017999 0.042732 0.000000 -0.022297 0.000000
# 4 0.000000 0.000000 0.000000 0.036764 0.000000 -0.000288
# 5 -0.011618 0.005797 -0.022297 0.000000 0.054166 0.000000
# 6 0.000000 0.000000 0.000000 -0.000288 0.000000 0.031637
#
#
# Mechanical properties :
#
#
# Convention : Reuss Voigt Hill
#
# Bulk Modulus (GPa) = 28.72862 52.30524 40.51693
# Shear Modulus (GPa) = 17.65313 24.68708 21.17011
#
# Velocity S-wave (km/s) = 3.07356 3.63467 3.36583
# Velocity P-wave (km/s) = 5.28860 6.75312 6.06523
#
# Compressibility (1/GPa) = 0.03480849
#
# Stress axis : x y z
#
# Youngs Moduli (GPa) = 49.85234 34.30976 23.40172
#
# Poissons Ratio (x) = 0.31490 0.03245
# Poissons Ratio (y) = 0.45756 0.42122
# Poissons Ratio (z) = 0.06913 0.61756
#
# Static dielectric constant tensor:
#      x y z
#    x 1.638260 0.000000 0.004030 
#    y 0.000000 1.626390 0.000000 
#    z 0.004030 0.000000 1.645550 
# 
# From -- ./inp_files/49394.got.cif
#   From: 2010.05.17/outbox.cif.g08.bks.cpg/sg11_25_cif.got.tgz:49394.got - 2010.06.03 12:22:45.
