data_PCOD9162379
_publ_section_title
;
Structure prediction by ZEFSAII (Michael W. Deem and Ramdas Pophale) SiO2 
 PCOD9162379
Probable space group: P 21/M
;
_chemical_formula_sum "Si O2"
_cell_formula_units_Z 32
_cell_length_a 8.974418
_cell_length_b 28.729074
_cell_length_c 7.160912
_cell_angle_alpha 90.000000
_cell_angle_beta 89.999949
_cell_angle_gamma 90.000000
_cell_volume 1846.274445
_symmetry_space_group_name_H-M "P 21/M"
_symmetry_group_IT_number 11
_symmetry_cell_setting 'monoclinic'
loop_
_space_group_symop_operation_xyz
x,y,z
-x,1/2+y,-z
-x,-y,-z
x,1/2-y,z
loop_
_atom_site_type_symbol
_atom_site_label
_atom_site_fract_x
_atom_site_fract_y
_atom_site_fract_z
Si Si1 0.426962 0.628889 0.727786
Si Si2 0.428624 0.303821 0.980836
Si Si3 0.927537 0.450142 0.964651
Si Si4 0.428201 0.118711 0.675794
Si Si5 0.071807 0.118711 0.675794
Si Si6 0.427533 0.950142 0.035348
Si Si7 0.071387 0.196179 0.980837
Si Si8 0.926972 0.128889 0.272214
O O1 0.490692 0.672425 0.844083
O O2 0.506198 0.623560 0.529899
O O3 0.249995 0.633448 0.702904
O O4 0.455289 0.583899 0.858876
O O5 0.469856 0.250000 0.956208
O O6 0.250006 0.306407 0.009883
O O7 0.463026 0.335430 0.800048
O O8 0.750002 0.454244 0.939553
O O9 0.999588 0.424338 0.787043
O O10 0.955296 0.416101 0.141123
O O11 0.000000 0.500000 0.000000
O O12 0.250004 0.113351 0.669423
O O13 0.500417 0.075662 0.787044
O O14 0.006207 0.123561 0.470100
O O15 0.036985 0.164571 0.800049
O O16 0.500000 0.000000 0.000000
O O17 0.030155 0.250000 0.956210
O O18 0.990703 0.172425 0.155918
#
# Coordination Sequence:
#
# PCOD9162379 Si02
#       8
#     4   4   4   4   4   4   4   4
#     4  10  21  36  54  79 109 139 173 216 265 315
#     4   9  19  36  56  78 105 138 177 218 258 305
#     4  10  21  37  56  78 106 139 177 221 266 315
#     4  10  20  35  56  80 107 141 178 217 263 314
#     4  10  20  35  56  80 107 141 178 217 263 314
#     4  10  21  37  56  78 106 139 177 221 266 315
#     4   9  19  36  56  78 105 138 177 218 258 305
#     4  10  21  36  54  79 109 139 173 216 265 315
#
# _framework density 17.3322
#
# number of rings (size 3 to 8) (size 9 to 14) (size 15 to 20)
#    0.000    2.250    0.000    2.250    0.000    6.500 
#    0.000    2.500    0.000    0.000    0.000    0.000 
#    0.000    0.000    0.000    0.000    0.000    0.000 
#
# Total GULP energy -178655.943362 kJ/mol
# GULP energy per Si atom -5582.998230 kJ/mol
# Density = 1.729275 g / cm^3
# Si number density = 17.332200 Si / 1000 Ang^3
#
#
#
# Elastic Constant Matrix: (Units=GPa)
#
#
# Indices 1 2 3 4 5 6 
#
# 1 64.9729 50.8374 62.4179 0.0000 0.0006 0.0000
# 2 50.8374 110.7127 29.0733 0.0000 0.0002 0.0000
# 3 62.4179 29.0733 123.0250 0.0000 0.0002 0.0000
# 4 0.0000 0.0000 0.0000 6.9119 0.0000 0.0000
# 5 0.0006 0.0002 0.0002 0.0000 36.8690 0.0000
# 6 0.0000 0.0000 0.0000 0.0000 0.0000 29.5712
#
#
#
# Elastic Compliance Matrix: (Units=1/GPa)
#
#
# Indices 1 2 3 4 5 6 
#
# 1 0.048161 -0.016737 -0.020480 0.000000 -0.000001 0.000000
# 2 -0.016737 0.015446 0.004841 0.000000 0.000000 0.000000
# 3 -0.020480 0.004841 0.017375 0.000000 0.000000 0.000000
# 4 0.000000 0.000000 0.000000 0.144678 0.000000 0.000000
# 5 -0.000001 0.000000 0.000000 0.000000 0.027123 0.000000
# 6 0.000000 0.000000 0.000000 0.000000 0.000000 0.033817
#
#
# Mechanical properties :
#
#
# Convention : Reuss Voigt Hill
#
# Bulk Modulus (GPa) = 61.60732 64.81866 63.21299
# Shear Modulus (GPa) = 14.01503 25.09588 19.55546
#
# Velocity S-wave (km/s) = 2.84670 3.80930 3.36262
# Velocity P-wave (km/s) = 6.81374 7.53835 7.18519
#
# Compressibility (1/GPa) = 0.01623184
#
# Stress axis : x y z
#
# Youngs Moduli (GPa) = 20.76386 64.74070 57.55443
#
# Poissons Ratio (x) = 1.08354 1.17869
# Poissons Ratio (y) = 0.34752 -0.27863
# Poissons Ratio (z) = 0.42523 -0.31342
#
# Static dielectric constant tensor:
#      x y z
#    x 1.575980 0.000000 0.000000 
#    y 0.000000 1.568910 0.000000 
#    z 0.000000 0.000000 1.554140 
# 
# From -- ./inp_files/3422.got.cif
#   From: 2010.05.17/outbox.cif.g08.bks.cpg/sg11_2_cif.got.tgz:3422.got - 2010.06.03 12:22:45.
