data_PCOD9162808
_publ_section_title
;
Structure prediction by ZEFSAII (Michael W. Deem and Ramdas Pophale) SiO2 
 PCOD9162808
Probable space group: P 21/M
;
_chemical_formula_sum "Si O2"
_cell_formula_units_Z 32
_cell_length_a 20.195155
_cell_length_b 8.993259
_cell_length_c 25.431235
_cell_angle_alpha 90.000000
_cell_angle_beta 20.558249
_cell_angle_gamma 90.000000
_cell_volume 1621.944950
_symmetry_space_group_name_H-M "P 21/M"
_symmetry_group_IT_number 11
_symmetry_cell_setting 'monoclinic'
loop_
_space_group_symop_operation_xyz
x,y,z
-x,1/2+y,-z
-x,-y,-z
x,1/2-y,z
loop_
_atom_site_type_symbol
_atom_site_label
_atom_site_fract_x
_atom_site_fract_y
_atom_site_fract_z
Si Si1 0.631090 0.915238 0.664187
Si Si2 0.195806 0.572605 0.001926
Si Si3 0.389717 0.422654 0.156418
Si Si4 0.046560 0.928267 0.724150
Si Si5 0.172059 0.429337 0.904156
Si Si6 0.565053 0.922482 0.588850
Si Si7 0.765765 0.574348 0.839199
Si Si8 0.167483 0.920591 0.404892
O O1 0.691173 0.750000 0.635771
O O2 0.420947 0.942545 0.842318
O O3 0.612223 0.920326 0.615895
O O4 0.781002 0.027988 0.575399
O O5 0.156475 0.750000 0.026919
O O6 0.158278 0.491770 0.974122
O O7 0.080713 0.500118 0.135216
O O8 0.384140 0.250000 0.176267
O O9 0.239880 0.443061 0.219888
O O10 0.343113 0.531184 0.238465
O O11 0.595965 0.467627 0.983204
O O12 0.056031 0.750000 0.723399
O O13 0.944863 0.958074 0.743138
O O14 0.255206 0.998785 0.570922
O O15 0.168130 0.250000 0.906968
O O16 0.367998 0.489063 0.733037
O O17 0.000000 0.500000 0.000000
O O18 0.543127 0.750000 0.588180
O O19 0.718729 0.750000 0.882860
O O20 0.129703 0.750000 0.432193
O O21 0.000000 0.000000 0.500000
#
# Coordination Sequence:
#
# PCOD9162808 Si02
#       8
#     4   4   4   4   4   4   4   4
#     4   9  20  39  60  83 112 150 198 250 300 357
#     4  10  21  39  63  92 123 159 201 243 290 349
#     4  10  20  36  54  76 104 140 190 243 297 356
#     4  11  22  36  57  88 123 158 201 248 300 353
#     4  11  22  41  69  98 128 163 199 238 286 346
#     4  10  22  40  62  91 124 159 201 246 297 356
#     4   9  20  36  55  78 107 146 189 238 293 354
#     4  12  25  37  52  74 105 144 190 245 302 356
#
# _framework density 19.729399000000001
#
# number of rings (size 3 to 8) (size 9 to 14) (size 15 to 20)
#    0.000    1.750    0.000    5.250    1.750    6.500 
#    0.000    0.625    0.000    0.000    0.000    0.000 
#    0.000    0.000    0.000    0.000    0.000    0.000 
#
# Total GULP energy -178694.834897 kJ/mol
# GULP energy per Si atom -5584.213591 kJ/mol
# Density = 1.968449 g / cm^3
# Si number density = 19.729399 Si / 1000 Ang^3
#
#
#
# Elastic Constant Matrix: (Units=GPa)
#
#
# Indices 1 2 3 4 5 6 
#
# 1 55.4556 47.7871 11.7964 0.0000 -15.0518 0.0000
# 2 47.7871 143.1443 47.5823 0.0000 -20.9781 0.0000
# 3 11.7964 47.5823 77.4215 0.0000 1.8184 0.0000
# 4 0.0000 0.0000 0.0000 32.8281 0.0000 -0.7592
# 5 -15.0518 -20.9781 1.8184 0.0000 27.5249 0.0000
# 6 0.0000 0.0000 0.0000 -0.7592 0.0000 31.2547
#
#
#
# Elastic Compliance Matrix: (Units=1/GPa)
#
#
# Indices 1 2 3 4 5 6 
#
# 1 0.027153 -0.007968 0.000555 0.000000 0.008739 0.000000
# 2 -0.007968 0.012740 -0.006752 0.000000 0.005799 0.000000
# 3 0.000555 -0.006752 0.017122 0.000000 -0.005974 0.000000
# 4 0.000000 0.000000 0.000000 0.030479 0.000000 0.000740
# 5 0.008739 0.005799 -0.005974 0.000000 0.045923 0.000000
# 6 0.000000 0.000000 0.000000 0.000740 0.000000 0.032013
#
#
# Mechanical properties :
#
#
# Convention : Reuss Voigt Hill
#
# Bulk Modulus (GPa) = 34.86307 54.48366 44.67336
# Shear Modulus (GPa) = 24.59139 29.57859 27.08499
#
# Velocity S-wave (km/s) = 3.53432 3.87617 3.70918
# Velocity P-wave (km/s) = 5.86210 6.90712 6.40595
#
# Compressibility (1/GPa) = 0.02868364
#
# Stress axis : x y z
#
# Youngs Moduli (GPa) = 36.82861 78.49026 58.40478
#
# Poissons Ratio (x) = 0.62545 -0.03241
# Poissons Ratio (y) = 0.29347 0.39436
# Poissons Ratio (z) = -0.02044 0.52998
#
# Static dielectric constant tensor:
#      x y z
#    x 1.752260 0.000000 0.086840 
#    y 0.000000 1.667750 0.000000 
#    z 0.086840 0.000000 1.799730 
# 
# From -- ./inp_files/72017.got.cif
#   From: 2010.05.17/outbox.cif.g08.bks.cpg/sg11_37_cif.got.tgz:72017.got - 2010.06.03 12:22:45.
