data_PCOD9162149
_publ_section_title
;
Structure prediction by ZEFSAII (Michael W. Deem and Ramdas Pophale) SiO2 
 PCOD9162149
Probable space group: P 21/M
;
_chemical_formula_sum "Si O2"
_cell_formula_units_Z 28
_cell_length_a 15.257149
_cell_length_b 8.545965
_cell_length_c 19.374075
_cell_angle_alpha 90.000000
_cell_angle_beta 38.252831
_cell_angle_gamma 90.000000
_cell_volume 1564.009016
_symmetry_space_group_name_H-M "P 21/M"
_symmetry_group_IT_number 11
_symmetry_cell_setting 'monoclinic'
loop_
_space_group_symop_operation_xyz
x,y,z
-x,1/2+y,-z
-x,-y,-z
x,1/2-y,z
loop_
_atom_site_type_symbol
_atom_site_label
_atom_site_fract_x
_atom_site_fract_y
_atom_site_fract_z
Si Si1 0.088303 0.069254 0.206194
Si Si2 0.482899 0.437213 0.347168
Si Si3 0.766076 0.058627 0.250709
Si Si4 0.928150 0.569201 0.951532
Si Si5 0.619303 0.937740 0.134008
Si Si6 0.222723 0.939205 0.595845
Si Si7 0.387622 0.565946 0.015568
O O1 0.110061 0.250000 0.213491
O O2 0.072768 0.070803 0.132115
O O3 0.936405 0.011647 0.326717
O O4 0.227258 0.972976 0.138080
O O5 0.482622 0.250000 0.347327
O O6 0.625043 0.492438 0.299150
O O7 0.501232 0.499971 0.258609
O O8 0.345229 0.497360 0.471685
O O9 0.772521 0.250000 0.244936
O O10 0.754361 0.012714 0.338446
O O11 0.917226 0.000554 0.126546
O O12 0.927401 0.750000 0.975502
O O13 0.774570 0.497646 0.062555
O O14 0.626385 0.750000 0.132042
O O15 0.595593 0.988339 0.070115
O O16 0.224223 0.750000 0.593900
O O17 0.405466 0.750000 0.997448
O O18 0.500000 0.500000 0.000000
#
# Coordination Sequence:
#
# PCOD9162149 Si02
#       7
#     4   4   4   4   4   4   4
#     4   8  15  30  52  76 100 129 166 205 246 292
#     4  11  21  30  44  70 104 138 174 218 259 295
#     4   8  15  28  46  69  97 131 174 220 259 293
#     4   7  12  26  47  67  91 126 166 209 252 294
#     4  10  20  35  52  71  99 135 172 206 250 306
#     4   9  17  32  52  70  96 138 181 215 249 293
#     4  11  21  35  58  85 108 127 153 194 245 301
#
# _framework density 17.902709999999999
#
# number of rings (size 3 to 8) (size 9 to 14) (size 15 to 20)
#    0.000    2.857    0.000    5.143    0.000    1.143 
#    0.000    0.714    0.000    8.571    0.000    0.000 
#    0.000    0.000    0.000    0.000    0.000    0.000 
#
# Total GULP energy -156084.838513 kJ/mol
# GULP energy per Si atom -5574.458518 kJ/mol
# Density = 1.786196 g / cm^3
# Si number density = 17.902710 Si / 1000 Ang^3
#
#
#
# Elastic Constant Matrix: (Units=GPa)
#
#
# Indices 1 2 3 4 5 6 
#
# 1 88.7995 18.3025 44.4338 0.0000 -12.4044 0.0000
# 2 18.3025 32.5654 20.7845 0.0000 -5.5923 0.0000
# 3 44.4338 20.7845 127.3570 0.0000 -7.3438 0.0000
# 4 0.0000 0.0000 0.0000 24.0250 0.0000 -3.6567
# 5 -12.4044 -5.5923 -7.3438 0.0000 16.7013 0.0000
# 6 0.0000 0.0000 0.0000 -3.6567 0.0000 18.4503
#
#
#
# Elastic Compliance Matrix: (Units=1/GPa)
#
#
# Indices 1 2 3 4 5 6 
#
# 1 0.015425 -0.004627 -0.004161 0.000000 0.008078 0.000000
# 2 -0.004627 0.037118 -0.004027 0.000000 0.007222 0.000000
# 3 -0.004161 -0.004027 0.009957 0.000000 -0.000060 0.000000
# 4 0.000000 0.000000 0.000000 0.042918 0.000000 0.008506
# 5 0.008078 0.007222 -0.000060 0.000000 0.068267 0.000000
# 6 0.000000 0.000000 0.000000 0.008506 0.000000 0.055885
#
#
# Mechanical properties :
#
#
# Convention : Reuss Voigt Hill
#
# Bulk Modulus (GPa) = 27.12107 46.19596 36.65852
# Shear Modulus (GPa) = 18.69227 22.84875 20.77051
#
# Velocity S-wave (km/s) = 3.23476 3.57637 3.40985
# Velocity P-wave (km/s) = 5.39756 6.55086 6.00198
#
# Compressibility (1/GPa) = 0.03687170
#
# Stress axis : x y z
#
# Youngs Moduli (GPa) = 64.82826 26.94113 100.42802
#
# Poissons Ratio (x) = 0.12464 0.41788
# Poissons Ratio (y) = 0.29993 0.40443
# Poissons Ratio (z) = 0.26975 0.10849
#
# Static dielectric constant tensor:
#      x y z
#    x 1.616360 0.000000 -0.023880 
#    y 0.000000 1.610090 0.000000 
#    z -0.023880 0.000000 1.630360 
# 
# From -- ./inp_files/60064.got.cif
#   From: 2010.05.17/outbox.cif.g08.bks.cpg/sg11_31_cif.got.tgz:60064.got - 2010.06.03 12:22:45.
