data_PCOD9162661
_publ_section_title
;
Structure prediction by ZEFSAII (Michael W. Deem and Ramdas Pophale) SiO2 
 PCOD9162661
Probable space group: P 21/M
;
_chemical_formula_sum "Si O2"
_cell_formula_units_Z 32
_cell_length_a 32.085831
_cell_length_b 8.768904
_cell_length_c 12.366749
_cell_angle_alpha 90.000000
_cell_angle_beta 150.280608
_cell_angle_gamma 90.000000
_cell_volume 1724.960610
_symmetry_space_group_name_H-M "P 21/M"
_symmetry_group_IT_number 11
_symmetry_cell_setting 'monoclinic'
loop_
_space_group_symop_operation_xyz
x,y,z
-x,1/2+y,-z
-x,-y,-z
x,1/2-y,z
loop_
_atom_site_type_symbol
_atom_site_label
_atom_site_fract_x
_atom_site_fract_y
_atom_site_fract_z
Si Si1 0.917583 0.431829 0.176171
Si Si2 0.109882 0.433845 0.653824
Si Si3 0.258023 0.066724 0.827436
Si Si4 0.371708 0.932746 0.461642
Si Si5 0.224954 0.432489 0.281106
Si Si6 0.707835 0.933563 0.332845
Si Si7 0.593379 0.432179 0.704092
Si Si8 0.476198 0.567899 0.063143
O O1 0.909278 0.250000 0.151895
O O2 0.881619 0.490229 0.209856
O O3 0.016511 0.471287 0.399964
O O4 0.864178 0.507375 0.961127
O O5 0.113892 0.250000 0.675810
O O6 0.182037 0.483096 0.733652
O O7 0.264255 0.250000 0.849991
O O8 0.244488 0.029819 0.670975
O O9 0.344852 0.996901 0.065844
O O10 0.372253 0.750000 0.473860
O O11 0.367348 0.971081 0.324948
O O12 0.296014 0.999732 0.361864
O O13 0.458119 0.000033 0.703444
O O14 0.227802 0.250000 0.280026
O O15 0.246359 0.476680 0.452624
O O16 0.694295 0.750000 0.305685
O O17 0.617986 0.014825 0.125409
O O18 0.500000 0.500000 0.500000
O O19 0.588136 0.250000 0.701023
O O20 0.482865 0.750000 0.076032
O O21 0.500000 0.500000 0.000000
#
# Coordination Sequence:
#
# PCOD9162661 Si02
#       8
#     4   4   4   4   4   4   4   4
#     4  10  20  35  58  87 118 145 180 234 285 335
#     4   9  19  37  61  87 113 148 187 225 282 345
#     4  10  21  39  61  82 111 150 191 234 281 337
#     4  11  23  38  57  82 113 146 187 237 286 334
#     4  11  22  36  56  82 112 147 187 231 284 338
#     4  10  22  39  57  80 111 149 193 238 281 330
#     4  11  24  39  56  82 114 148 186 231 281 334
#     4  12  23  36  56  81 111 148 190 234 280 332
#
# _framework density 18.551148000000001
#
# number of rings (size 3 to 8) (size 9 to 14) (size 15 to 20)
#    0.000    1.500    1.250    4.125    0.000    9.000 
#    0.000    0.625    0.000    0.000    0.000    0.000 
#    0.000    0.000    0.000    0.000    0.000    0.000 
#
# Total GULP energy -178870.010491 kJ/mol
# GULP energy per Si atom -5589.687828 kJ/mol
# Density = 1.850892 g / cm^3
# Si number density = 18.551148 Si / 1000 Ang^3
#
#
#
# Elastic Constant Matrix: (Units=GPa)
#
#
# Indices 1 2 3 4 5 6 
#
# 1 112.0027 30.4620 46.1777 0.0000 -3.9360 0.0000
# 2 30.4620 33.7313 28.4638 0.0000 -7.7813 0.0000
# 3 46.1777 28.4638 105.0704 0.0000 -14.1683 0.0000
# 4 0.0000 0.0000 0.0000 33.4646 0.0000 -1.0498
# 5 -3.9360 -7.7813 -14.1683 0.0000 29.5603 0.0000
# 6 0.0000 0.0000 0.0000 -1.0498 0.0000 23.2213
#
#
#
# Elastic Compliance Matrix: (Units=1/GPa)
#
#
# Indices 1 2 3 4 5 6 
#
# 1 0.012756 -0.009159 -0.003444 0.000000 -0.002363 0.000000
# 2 -0.009159 0.045856 -0.007413 0.000000 0.007298 0.000000
# 3 -0.003444 -0.007413 0.013593 0.000000 0.004105 0.000000
# 4 0.000000 0.000000 0.000000 0.029925 0.000000 0.001353
# 5 -0.002363 0.007298 0.004105 0.000000 0.037403 0.000000
# 6 0.000000 0.000000 0.000000 0.001353 0.000000 0.043125
#
#
# Mechanical properties :
#
#
# Convention : Reuss Voigt Hill
#
# Bulk Modulus (GPa) = 31.08135 51.22349 41.15242
# Shear Modulus (GPa) = 21.42111 26.96264 24.19187
#
# Velocity S-wave (km/s) = 3.40178 3.81651 3.61510
# Velocity P-wave (km/s) = 5.67629 6.86243 6.29735
#
# Compressibility (1/GPa) = 0.03217363
#
# Stress axis : x y z
#
# Youngs Moduli (GPa) = 78.39364 21.80717 73.56894
#
# Poissons Ratio (x) = 0.19973 0.25335
# Poissons Ratio (y) = 0.71801 0.54538
# Poissons Ratio (z) = 0.26996 0.16166
#
# Static dielectric constant tensor:
#      x y z
#    x 1.643540 0.000000 -0.005870 
#    y 0.000000 1.622530 0.000000 
#    z -0.005870 0.000000 1.622200 
# 
# From -- ./inp_files/45216.got.cif
#   From: 2010.05.17/outbox.cif.g08.bks.cpg/sg11_23_cif.got.tgz:45216.got - 2010.06.03 12:22:45.
