data_PCOD9162721
_publ_section_title
;
Structure prediction by ZEFSAII (Michael W. Deem and Ramdas Pophale) SiO2 
 PCOD9162721
Probable space group: P 21/M
;
_chemical_formula_sum "Si O2"
_cell_formula_units_Z 32
_cell_length_a 5.396797
_cell_length_b 24.743078
_cell_length_c 12.627768
_cell_angle_alpha 90.000000
_cell_angle_beta 119.247357
_cell_angle_gamma 90.000000
_cell_volume 1471.265556
_symmetry_space_group_name_H-M "P 21/M"
_symmetry_group_IT_number 11
_symmetry_cell_setting 'monoclinic'
loop_
_space_group_symop_operation_xyz
x,y,z
-x,1/2+y,-z
-x,-y,-z
x,1/2-y,z
loop_
_atom_site_type_symbol
_atom_site_label
_atom_site_fract_x
_atom_site_fract_y
_atom_site_fract_z
Si Si1 0.824127 0.514593 0.814618
Si Si2 0.678866 0.039931 0.429984
Si Si3 0.410021 0.407573 0.064233
Si Si4 0.259491 0.311773 0.279707
Si Si5 0.008800 0.814413 0.005906
Si Si6 0.445738 0.907605 0.137530
Si Si7 0.826798 0.132456 0.326414
Si Si8 0.940850 0.959027 0.320266
O O1 0.627717 0.546837 0.687721
O O2 0.803434 0.553482 0.913265
O O3 0.707190 0.456021 0.829625
O O4 0.074385 0.495804 0.788512
O O5 0.864713 0.089942 0.426970
O O6 0.735731 0.041716 0.567383
O O7 0.790490 0.988800 0.386815
O O8 0.673280 0.396609 0.195628
O O9 0.521955 0.427801 0.976254
O O10 0.255639 0.350274 0.006930
O O11 0.254485 0.250000 0.308729
O O12 0.117720 0.343826 0.345432
O O13 0.578021 0.327289 0.313068
O O14 0.054037 0.318121 0.133730
O O15 0.016239 0.750000 0.033663
O O16 0.276625 0.851053 0.097363
O O17 0.763457 0.906169 0.253341
#
# Coordination Sequence:
#
# PCOD9162721 Si02
#       8
#     4   4   4   4   4   4   4   4
#     4  10  21  35  58  84 118 152 188 247 301 372
#     4   9  21  36  56  84 114 152 193 243 294 361
#     4  10  21  35  56  84 120 154 194 236 304 362
#     4  10  20  36  58  87 118 150 197 250 309 362
#     4  10  22  36  54  80 115 158 199 244 291 354
#     4  11  21  36  53  85 117 154 194 241 299 358
#     4  10  20  35  59  89 117 156 190 249 306 363
#     4  10  21  37  56  82 116 154 199 235 292 358
#
# _framework density 21.749984000000001
#
# number of rings (size 3 to 8) (size 9 to 14) (size 15 to 20)
#    0.000    2.000    1.250    1.875    5.250    4.000 
#    0.000    0.000    0.000    1.500    0.000    0.000 
#    0.000    0.000    0.000    0.000    0.000    0.000 
#
# Total GULP energy -178319.582576 kJ/mol
# GULP energy per Si atom -5572.486955 kJ/mol
# Density = 2.170048 g / cm^3
# Si number density = 21.749984 Si / 1000 Ang^3
#
#
#
# Elastic Constant Matrix: (Units=GPa)
#
#
# Indices 1 2 3 4 5 6 
#
# 1 62.9022 27.8903 15.9844 0.0000 -12.5309 0.0000
# 2 27.8903 120.4542 20.7604 0.0000 -3.7167 0.0000
# 3 15.9844 20.7604 55.3746 0.0000 -9.9501 0.0000
# 4 0.0000 0.0000 0.0000 23.7663 0.0000 2.9276
# 5 -12.5309 -3.7167 -9.9501 0.0000 29.7367 0.0000
# 6 0.0000 0.0000 0.0000 2.9276 0.0000 24.3872
#
#
#
# Elastic Compliance Matrix: (Units=1/GPa)
#
#
# Indices 1 2 3 4 5 6 
#
# 1 0.019727 -0.003835 -0.003031 0.000000 0.006819 0.000000
# 2 -0.003835 0.009621 -0.002739 0.000000 -0.001330 0.000000
# 3 -0.003031 -0.002739 0.020928 0.000000 0.005383 0.000000
# 4 0.000000 0.000000 0.000000 0.042708 0.000000 -0.005127
# 5 0.006819 -0.001330 0.005383 0.000000 0.038137 0.000000
# 6 0.000000 0.000000 0.000000 -0.005127 0.000000 0.041621
#
#
# Mechanical properties :
#
#
# Convention : Reuss Voigt Hill
#
# Bulk Modulus (GPa) = 32.19008 40.88902 36.53955
# Shear Modulus (GPa) = 24.71500 27.18443 25.94972
#
# Velocity S-wave (km/s) = 3.37460 3.53917 3.45786
# Velocity P-wave (km/s) = 5.47869 5.96166 5.72527
#
# Compressibility (1/GPa) = 0.03106547
#
# Stress axis : x y z
#
# Youngs Moduli (GPa) = 50.69258 103.94107 47.78299
#
# Poissons Ratio (x) = 0.39858 0.14485
# Poissons Ratio (y) = 0.19439 0.13088
# Poissons Ratio (z) = 0.15367 0.28469
#
# Static dielectric constant tensor:
#      x y z
#    x 2.007160 0.000000 0.044090 
#    y 0.000000 1.804300 0.000000 
#    z 0.044090 0.000000 1.857160 
# 
# From -- ./inp_files/30254.got.cif
#   From: 2010.05.17/outbox.cif.g08.bks.cpg/sg11_16_cif.got.tgz:30254.got - 2010.06.03 12:22:45.
