data_PCOD9162857
_publ_section_title
;
Structure prediction by ZEFSAII (Michael W. Deem and Ramdas Pophale) SiO2 
 PCOD9162857
Probable space group: P 21/M
;
_chemical_formula_sum "Si O2"
_cell_formula_units_Z 28
_cell_length_a 6.977056
_cell_length_b 11.345080
_cell_length_c 22.913251
_cell_angle_alpha 90.000000
_cell_angle_beta 137.069850
_cell_angle_gamma 90.000000
_cell_volume 1235.325340
_symmetry_space_group_name_H-M "P 21/M"
_symmetry_group_IT_number 11
_symmetry_cell_setting 'monoclinic'
loop_
_space_group_symop_operation_xyz
x,y,z
-x,1/2+y,-z
-x,-y,-z
x,1/2-y,z
loop_
_atom_site_type_symbol
_atom_site_label
_atom_site_fract_x
_atom_site_fract_y
_atom_site_fract_z
Si Si1 0.810923 0.124656 0.021557
Si Si2 0.263048 0.379272 0.506852
Si Si3 0.019800 0.881080 0.433320
Si Si4 0.174264 0.881561 0.291986
Si Si5 0.395956 0.378717 0.758209
Si Si6 0.016732 0.620166 0.805417
Si Si7 0.400112 0.439988 0.111550
O O1 0.661646 0.250000 0.980373
O O2 0.883356 0.110908 0.105394
O O3 0.108491 0.126994 0.053673
O O4 0.632624 0.023080 0.952196
O O5 0.240747 0.250000 0.472023
O O6 0.041245 0.376770 0.511397
O O7 0.563733 0.387616 0.605517
O O8 0.194794 0.501109 0.458725
O O9 0.130533 0.750000 0.441166
O O10 0.723107 0.893444 0.333337
O O11 0.187089 0.750000 0.266238
O O12 0.888073 0.880882 0.266124
O O13 0.151454 0.001931 0.249632
O O14 0.527675 0.250000 0.794160
O O15 0.584440 0.479275 0.827241
O O16 0.875042 0.750000 0.767105
O O17 0.302112 0.622083 0.830207
#
# Coordination Sequence:
#
# PCOD9162857 Si02
#       7
#     4   4   4   4   4   4   4
#     4  10  21  36  55  81 109 144 184 226 272 320
#     4   9  18  33  51  73 104 135 173 218 260 315
#     4   9  18  32  51  74 102 135 173 215 265 315
#     4   9  19  35  54  77 106 139 180 221 263 317
#     4   9  18  33  53  76 102 137 177 223 267 314
#     4  10  21  37  56  81 114 146 180 225 274 318
#     4  10  20  36  56  78 110 144 182 223 269 325
#
# _framework density 22.666094999999999
#
# number of rings (size 3 to 8) (size 9 to 14) (size 15 to 20)
#    0.000    2.571    0.000    1.286    2.000    1.714 
#    0.000    7.143    0.000    0.000    0.000    0.000 
#    0.000    0.000    0.000    0.000    0.000    0.000 
#
# Total GULP energy -156180.979664 kJ/mol
# GULP energy per Si atom -5577.892131 kJ/mol
# Density = 2.261451 g / cm^3
# Si number density = 22.666095 Si / 1000 Ang^3
#
#
#
# Elastic Constant Matrix: (Units=GPa)
#
#
# Indices 1 2 3 4 5 6 
#
# 1 53.4975 12.1741 -10.6037 0.0000 -2.1705 0.0000
# 2 12.1741 221.1746 62.4978 0.0000 -1.4262 0.0000
# 3 -10.6037 62.4978 37.5242 0.0000 -1.9448 0.0000
# 4 0.0000 0.0000 0.0000 531.3880 0.0000 113.1987
# 5 -2.1705 -1.4262 -1.9448 0.0000 30.8932 0.0000
# 6 0.0000 0.0000 0.0000 113.1987 0.0000 9.1064
#
#
#
# Elastic Compliance Matrix: (Units=1/GPa)
#
#
# Indices 1 2 3 4 5 6 
#
# 1 0.023491 -0.006024 0.016797 0.000000 0.002430 0.000000
# 2 -0.006024 0.010093 -0.018571 0.000000 -0.001126 0.000000
# 3 0.016797 -0.018571 0.062548 0.000000 0.004260 0.000000
# 4 0.000000 0.000000 0.000000 -0.001142 0.000000 0.014194
# 5 0.002430 -0.001126 0.004260 0.000000 0.032757 0.000000
# 6 0.000000 0.000000 0.000000 0.014194 0.000000 -0.066632
#
#
# Mechanical properties :
#
#
# Convention : Reuss Voigt Hill
#
# Bulk Modulus (GPa) = 12.41688 48.92586 30.67137
# Shear Modulus (GPa) = 48.28276 130.81938 89.55107
#
# Velocity S-wave (km/s) = 4.62039 7.60534 6.29242
# Velocity P-wave (km/s) = 5.82701 9.93750 8.14580
#
# Compressibility (1/GPa) = 0.08053552
#
# Stress axis : x y z
#
# Youngs Moduli (GPa) = 42.56947 99.07500 15.98774
#
# Poissons Ratio (x) = 0.59679 -0.26854
# Poissons Ratio (y) = 0.25642 0.29691
# Poissons Ratio (z) = -0.71502 1.83996
#
# Static dielectric constant tensor:
#      x y z
#    x 1.877950 0.000000 -0.020490 
#    y 0.000000 1.887900 0.000000 
#    z -0.020490 0.000000 1.781160 
# 
# From -- ./inp_files/46940.got.cif
#   From: 2010.05.17/outbox.cif.g08.bks.cpg/sg11_24_cif.got.tgz:46940.got - 2010.06.03 12:22:45.
