data_PCOD9162796
_publ_section_title
;
Structure prediction by ZEFSAII (Michael W. Deem and Ramdas Pophale) SiO2 
 PCOD9162796
Probable space group: P 21/M
;
_chemical_formula_sum "Si O2"
_cell_formula_units_Z 20
_cell_length_a 5.071835
_cell_length_b 13.824376
_cell_length_c 12.461845
_cell_angle_alpha 90.000000
_cell_angle_beta 104.228293
_cell_angle_gamma 90.000000
_cell_volume 846.958261
_symmetry_space_group_name_H-M "P 21/M"
_symmetry_group_IT_number 11
_symmetry_cell_setting 'monoclinic'
loop_
_space_group_symop_operation_xyz
x,y,z
-x,1/2+y,-z
-x,-y,-z
x,1/2-y,z
loop_
_atom_site_type_symbol
_atom_site_label
_atom_site_fract_x
_atom_site_fract_y
_atom_site_fract_z
Si Si1 0.333751 0.922875 0.555511
Si Si2 0.687845 0.930702 0.773115
Si Si3 0.006429 0.077988 0.662103
Si Si4 0.976539 0.359739 0.005360
Si Si5 0.385778 0.422104 0.875210
O O1 0.538629 0.874701 0.661096
O O2 0.156425 0.867580 0.448337
O O3 0.500000 0.000000 0.500000
O O4 0.141684 0.987811 0.612274
O O5 0.473304 0.973287 0.837584
O O6 0.918167 0.876705 0.863232
O O7 0.806558 0.027135 0.727640
O O8 0.237483 0.127281 0.757663
O O9 0.047572 0.250000 0.982795
O O10 0.161499 0.425545 0.945947
O O11 0.659936 0.374878 0.947662
#
# Coordination Sequence:
#
# PCOD9162796 Si02
#       5
#     4   4   4   4   4
#     4   8  16  30  53  93 116 138 180 246 292 336
#     4  10  20  35  63  87 117 151 199 242 293 343
#     4   9  17  32  58  89 117 139 189 246 284 338
#     4  12  26  39  55  83 122 159 195 240 294 349
#     4  11  22  39  60  85 114 155 198 239 288 345
#
# _framework density 23.613911999999999
#
# number of rings (size 3 to 8) (size 9 to 14) (size 15 to 20)
#    0.000    2.000    2.000    1.800    5.600    0.000 
#    0.000    0.000    0.000    2.400    0.000    0.000 
#    0.000    0.000    0.000    0.000    0.000    0.000 
#
# Total GULP energy -111507.075586 kJ/mol
# GULP energy per Si atom -5575.353779 kJ/mol
# Density = 2.356017 g / cm^3
# Si number density = 23.613912 Si / 1000 Ang^3
#
#
#
# Elastic Constant Matrix: (Units=GPa)
#
#
# Indices 1 2 3 4 5 6 
#
# 1 129.3162 8.0001 64.2351 0.0000 9.3712 0.0000
# 2 8.0001 38.9555 22.7214 0.0000 8.0896 0.0000
# 3 64.2351 22.7214 260.3453 0.0000 72.2680 0.0000
# 4 0.0000 0.0000 0.0000 -6.7512 0.0000 0.3177
# 5 9.3712 8.0896 72.2680 0.0000 66.8739 0.0000
# 6 0.0000 0.0000 0.0000 0.3177 0.0000 4.2749
#
#
#
# Elastic Compliance Matrix: (Units=1/GPa)
#
#
# Indices 1 2 3 4 5 6 
#
# 1 0.008949 -0.000659 -0.002606 0.000000 0.001642 0.000000
# 2 -0.000659 0.027145 -0.001887 0.000000 -0.001153 0.000000
# 3 -0.002606 -0.001887 0.006406 0.000000 -0.006329 0.000000
# 4 0.000000 0.000000 0.000000 -0.147606 0.000000 0.010970
# 5 0.001642 -0.001153 -0.006329 0.000000 0.021702 0.000000
# 6 0.000000 0.000000 0.000000 0.010970 0.000000 0.233108
#
#
# Mechanical properties :
#
#
# Convention : Reuss Voigt Hill
#
# Bulk Modulus (GPa) = 31.05896 68.72558 49.89227
# Shear Modulus (GPa) = 29.28431 35.12355 32.20393
#
# Velocity S-wave (km/s) = 3.52537 3.86088 3.69693
# Velocity P-wave (km/s) = 5.45457 7.00301 6.27672
#
# Compressibility (1/GPa) = 0.03219683
#
# Stress axis : x y z
#
# Youngs Moduli (GPa) = 111.73885 36.83869 156.11367
#
# Poissons Ratio (x) = 0.02426 0.40691
# Poissons Ratio (y) = 0.07360 0.29453
# Poissons Ratio (z) = 0.29125 0.06950
#
# Static dielectric constant tensor:
#      x y z
#    x 2.022550 0.000000 0.033020 
#    y 0.000000 1.642530 0.000000 
#    z 0.033020 0.000000 2.057430 
# 
# From -- ./inp_files/4453.got.cif
#   From: 2010.05.17/outbox.cif.g08.bks.cpg/sg11_3_cif.got.tgz:4453.got - 2010.06.03 12:22:45.
