data_PCOD9162538
_publ_section_title
;
Structure prediction by ZEFSAII (Michael W. Deem and Ramdas Pophale) SiO2 
 PCOD9162538
Probable space group: P 21/M
;
_chemical_formula_sum "Si O2"
_cell_formula_units_Z 32
_cell_length_a 14.344264
_cell_length_b 8.140728
_cell_length_c 24.152707
_cell_angle_alpha 90.000000
_cell_angle_beta 150.370409
_cell_angle_gamma 90.000000
_cell_volume 1394.369133
_symmetry_space_group_name_H-M "P 21/M"
_symmetry_group_IT_number 11
_symmetry_cell_setting 'monoclinic'
loop_
_space_group_symop_operation_xyz
x,y,z
-x,1/2+y,-z
-x,-y,-z
x,1/2-y,z
loop_
_atom_site_type_symbol
_atom_site_label
_atom_site_fract_x
_atom_site_fract_y
_atom_site_fract_z
Si Si1 0.347081 0.057459 0.529327
Si Si2 0.305148 0.054631 0.998094
Si Si3 0.244960 0.060620 0.358779
Si Si4 0.393872 0.059362 0.241241
Si Si5 0.897264 0.950354 0.828090
Si Si6 0.611390 0.448505 0.246909
Si Si7 0.809595 0.065765 0.175930
Si Si8 0.948863 0.935273 0.356845
O O1 0.399672 0.250000 0.556422
O O2 0.348840 0.991135 0.466708
O O3 0.470813 0.956094 0.635877
O O4 0.131470 0.045395 0.439724
O O5 0.301516 0.250000 0.990454
O O6 0.312219 0.981494 0.940152
O O7 0.475571 0.007741 0.125739
O O8 0.110510 0.001777 0.927229
O O9 0.305744 0.250000 0.385315
O O10 0.227700 0.985482 0.288811
O O11 0.024171 0.064728 0.263222
O O12 0.360131 0.250000 0.209813
O O13 0.196670 0.991386 0.163186
O O14 0.506248 0.987102 0.247488
O O15 0.889701 0.750000 0.822410
O O16 0.625650 0.250000 0.257290
O O17 0.818075 0.515632 0.340504
O O18 0.761806 0.250000 0.170077
O O19 0.821295 0.952605 0.235543
O O20 0.016662 0.750000 0.397708
#
# Coordination Sequence:
#
# PCOD9162538 Si02
#       8
#     4   4   4   4   4   4   4   4
#     4  10  20  36  58  83 114 149 182 226 285 339
#     4  10  20  35  57  84 113 147 187 230 278 334
#     4   7  13  28  51  79 108 138 171 209 265 331
#     4  10  22  39  57  79 109 149 197 239 276 328
#     4   9  18  35  58  82 112 149 185 228 283 335
#     4  10  23  41  56  76 111 151 192 238 282 326
#     4   9  17  33  57  84 115 146 177 221 278 336
#     4  11  22  37  60  87 112 143 185 229 277 338
#
# _framework density 22.949444
#
# number of rings (size 3 to 8) (size 9 to 14) (size 15 to 20)
#    0.000    2.500    0.000    3.750    0.000    4.000 
#    0.000    0.625    0.000    0.000    0.000    0.000 
#    0.000    0.000    0.000    0.000    0.000    0.000 
#
# Total GULP energy -178700.601936 kJ/mol
# GULP energy per Si atom -5584.393811 kJ/mol
# Density = 2.289721 g / cm^3
# Si number density = 22.949444 Si / 1000 Ang^3
#
#
#
# Elastic Constant Matrix: (Units=GPa)
#
#
# Indices 1 2 3 4 5 6 
#
# 1 104.5681 3.4862 -3.6147 0.0000 29.6004 0.0000
# 2 3.4862 34.2371 -2.2353 0.0000 3.6383 0.0000
# 3 -3.6147 -2.2353 22.1947 0.0000 9.0774 0.0000
# 4 0.0000 0.0000 0.0000 19.5367 0.0000 0.4199
# 5 29.6004 3.6383 9.0774 0.0000 14.6958 0.0000
# 6 0.0000 0.0000 0.0000 0.4199 0.0000 18.1795
#
#
#
# Elastic Compliance Matrix: (Units=1/GPa)
#
#
# Indices 1 2 3 4 5 6 
#
# 1 0.076500 0.023242 0.107274 0.000000 -0.226103 0.000000
# 2 0.023242 0.038190 0.041003 0.000000 -0.081596 0.000000
# 3 0.107274 0.041003 0.212986 0.000000 -0.357782 0.000000
# 4 0.000000 0.000000 0.000000 0.051211 0.000000 -0.001183
# 5 -0.226103 -0.081596 -0.357782 0.000000 0.764664 0.000000
# 6 0.000000 0.000000 0.000000 -0.001183 0.000000 0.055034
#
#
# Mechanical properties :
#
#
# Convention : Reuss Voigt Hill
#
# Bulk Modulus (GPa) = 1.49095 17.36360 9.42728
# Shear Modulus (GPa) = 4.63341 21.37331 13.00336
#
# Velocity S-wave (km/s) = 1.42244 3.05507 2.38294
# Velocity P-wave (km/s) = 1.82999 4.47516 3.41876
#
# Compressibility (1/GPa) = 0.67071317
#
# Stress axis : x y z
#
# Youngs Moduli (GPa) = 13.07184 26.18517 4.69515
#
# Poissons Ratio (x) = -0.60859 -0.50367
# Poissons Ratio (y) = -0.30381 -0.19252
# Poissons Ratio (z) = -1.40227 -1.07368
#
# Static dielectric constant tensor:
#      x y z
#    x 1.912300 0.000000 0.022830 
#    y 0.000000 1.845850 0.000000 
#    z 0.022830 0.000000 1.880630 
# 
# From -- ./inp_files/51710.got.cif
#   From: 2010.05.17/outbox.cif.g08.bks.cpg/sg11_26_cif.got.tgz:51710.got - 2010.06.03 12:22:45.
