data_PCOD9162030
_publ_section_title
;
Structure prediction by ZEFSAII (Michael W. Deem and Ramdas Pophale) SiO2 
 PCOD9162030
Probable space group: P 21/M
;
_chemical_formula_sum "Si O2"
_cell_formula_units_Z 28
_cell_length_a 19.254173
_cell_length_b 13.057551
_cell_length_c 5.451565
_cell_angle_alpha 90.000000
_cell_angle_beta 86.557232
_cell_angle_gamma 90.000000
_cell_volume 1368.117214
_symmetry_space_group_name_H-M "P 21/M"
_symmetry_group_IT_number 11
_symmetry_cell_setting 'monoclinic'
loop_
_space_group_symop_operation_xyz
x,y,z
-x,1/2+y,-z
-x,-y,-z
x,1/2-y,z
loop_
_atom_site_type_symbol
_atom_site_label
_atom_site_fract_x
_atom_site_fract_y
_atom_site_fract_z
Si Si1 0.130559 0.129612 0.459339
Si Si2 0.920414 0.533554 0.032284
Si Si3 0.634780 0.635891 0.768098
Si Si4 0.553097 0.553319 0.173239
Si Si5 0.521744 0.355753 0.411823
Si Si6 0.258931 0.973692 0.434251
Si Si7 0.791702 0.373188 0.057780
O O1 0.145231 0.250000 0.462325
O O2 0.095187 0.099686 0.208517
O O3 0.198652 0.059317 0.453632
O O4 0.089447 0.096603 0.713406
O O5 0.864566 0.438652 0.047193
O O6 0.000000 0.500000 0.000000
O O7 0.665258 0.750000 0.738900
O O8 0.554549 0.642765 0.698275
O O9 0.674303 0.545452 0.625122
O O10 0.622697 0.601120 0.051417
O O11 0.564740 0.456702 0.348003
O O12 0.504115 0.637707 0.305101
O O13 0.500000 0.500000 0.000000
O O14 0.558065 0.250000 0.342576
O O15 0.250802 0.910381 0.689560
O O16 0.245663 0.905512 0.191259
O O17 0.802032 0.250000 0.063064
#
# Coordination Sequence:
#
# PCOD9162030 Si02
#       7
#     4   4   4   4   4   4   4
#     4  10  20  36  56  84 121 153 180 237 303 341
#     4  10  21  37  58  88 116 148 199 243 280 344
#     4  10  20  34  57  84 108 143 187 237 294 344
#     4   9  18  33  53  77 111 142 179 232 282 351
#     4   9  18  33  54  80 109 144 181 228 291 349
#     4  10  22  38  60  86 117 149 198 241 278 345
#     4  10  22  41  61  81 116 162 196 233 287 340
#
# _framework density 20.466082
#
# number of rings (size 3 to 8) (size 9 to 14) (size 15 to 20)
#    0.000    2.286    0.000    2.143    2.000    1.714 
#    0.000    2.857    0.000    2.571    0.000    0.000 
#    0.000    0.000    0.000    0.000    0.000    0.000 
#
# Total GULP energy -155907.332965 kJ/mol
# GULP energy per Si atom -5568.119034 kJ/mol
# Density = 2.041950 g / cm^3
# Si number density = 20.466082 Si / 1000 Ang^3
#
#
#
# Elastic Constant Matrix: (Units=GPa)
#
#
# Indices 1 2 3 4 5 6 
#
# 1 38.5831 28.5141 29.9671 0.0000 -3.9536 0.0000
# 2 28.5141 174.7388 66.2095 0.0000 3.5237 0.0000
# 3 29.9671 66.2095 143.5109 0.0000 2.8924 0.0000
# 4 0.0000 0.0000 0.0000 11.0211 0.0000 1.5115
# 5 -3.9536 3.5237 2.8924 0.0000 7.7587 0.0000
# 6 0.0000 0.0000 0.0000 1.5115 0.0000 12.4659
#
#
#
# Elastic Compliance Matrix: (Units=1/GPa)
#
#
# Indices 1 2 3 4 5 6 
#
# 1 0.035909 -0.003998 -0.006105 0.000000 0.022390 0.000000
# 2 -0.003998 0.007410 -0.002494 0.000000 -0.004473 0.000000
# 3 -0.006105 -0.002494 0.009505 0.000000 -0.005522 0.000000
# 4 0.000000 0.000000 0.000000 0.092269 0.000000 -0.011188
# 5 0.022390 -0.004473 -0.005522 0.000000 0.144386 0.000000
# 6 0.000000 0.000000 0.000000 -0.011188 0.000000 0.081575
#
#
# Mechanical properties :
#
#
# Convention : Reuss Voigt Hill
#
# Bulk Modulus (GPa) = 36.19230 67.35717 51.77473
# Shear Modulus (GPa) = 12.33175 21.72530 17.02852
#
# Velocity S-wave (km/s) = 2.45734 3.26164 2.88763
# Velocity P-wave (km/s) = 5.07679 6.86786 6.03909
#
# Compressibility (1/GPa) = 0.02763019
#
# Stress axis : x y z
#
# Youngs Moduli (GPa) = 27.84848 134.94670 105.21046
#
# Poissons Ratio (x) = 0.53950 0.64231
# Poissons Ratio (y) = 0.11133 0.26238
# Poissons Ratio (z) = 0.17002 0.33653
#
# Static dielectric constant tensor:
#      x y z
#    x 1.790120 0.000000 0.129980 
#    y 0.000000 1.684110 0.000000 
#    z 0.129980 0.000000 2.075400 
# 
# From -- ./inp_files/8757.got.cif
#   From: 2010.05.17/outbox.cif.g08.bks.cpg/sg11_5_cif.got.tgz:8757.got - 2010.06.03 12:22:45.
