data_PCOD9162047
_publ_section_title
;
Structure prediction by ZEFSAII (Michael W. Deem and Ramdas Pophale) SiO2 
 PCOD9162047
Probable space group: P 21/M
;
_chemical_formula_sum "Si O2"
_cell_formula_units_Z 32
_cell_length_a 12.103612
_cell_length_b 14.209164
_cell_length_c 15.485018
_cell_angle_alpha 90.000000
_cell_angle_beta 40.427060
_cell_angle_gamma 90.000000
_cell_volume 1726.996595
_symmetry_space_group_name_H-M "P 21/M"
_symmetry_group_IT_number 11
_symmetry_cell_setting 'monoclinic'
loop_
_space_group_symop_operation_xyz
x,y,z
-x,1/2+y,-z
-x,-y,-z
x,1/2-y,z
loop_
_atom_site_type_symbol
_atom_site_label
_atom_site_fract_x
_atom_site_fract_y
_atom_site_fract_z
Si Si1 0.886018 0.864140 0.623875
Si Si2 0.296693 0.012711 0.611118
Si Si3 0.805914 0.520332 0.137252
Si Si4 0.476504 0.137459 0.780650
Si Si5 0.225638 0.356455 0.490764
Si Si6 0.597689 0.143289 0.180208
Si Si7 0.447150 0.020891 0.128750
Si Si8 0.225171 0.860498 0.530426
O O1 0.848486 0.750000 0.651247
O O2 0.897048 0.887132 0.514921
O O3 0.735019 0.926768 0.754103
O O4 0.060652 0.881346 0.570125
O O5 0.220658 0.044556 0.746891
O O6 0.245186 0.080916 0.563271
O O7 0.500000 0.000000 0.500000
O O8 0.223810 0.913681 0.621474
O O9 0.708375 0.598777 0.138001
O O10 0.708598 0.423088 0.174593
O O11 0.000000 0.500000 0.000000
O O12 0.479407 0.250000 0.793126
O O13 0.606305 0.113606 0.624806
O O14 0.541744 0.075391 0.822243
O O15 0.181301 0.250000 0.541880
O O16 0.409478 0.355899 0.334175
O O17 0.658421 0.250000 0.136997
O O18 0.576424 0.092246 0.100739
O O19 0.500000 0.000000 0.000000
O O20 0.231052 0.750000 0.541305
#
# Coordination Sequence:
#
# PCOD9162047 Si02
#       8
#     4   4   4   4   4   4   4   4
#     4   9  19  37  60  88 120 153 196 249 297 345
#     4  12  21  36  59  87 113 151 198 244 294 341
#     4  11  24  40  56  81 117 154 198 241 292 356
#     4  10  22  40  58  81 117 157 192 240 306 356
#     4   9  18  34  60  87 111 146 194 245 294 344
#     4   9  18  36  58  79 108 149 195 240 291 347
#     4  10  20  34  57  86 117 155 194 234 288 356
#     4  10  21  37  61  91 118 150 197 250 300 351
#
# _framework density 18.529278000000001
#
# number of rings (size 3 to 8) (size 9 to 14) (size 15 to 20)
#    0.000    2.000    2.500    2.625    0.000    7.000 
#    0.000    1.250    0.000    1.500    0.000    0.000 
#    0.000    0.000    0.000    0.000    0.000    0.000 
#
# Total GULP energy -178528.628836 kJ/mol
# GULP energy per Si atom -5579.019651 kJ/mol
# Density = 1.848710 g / cm^3
# Si number density = 18.529278 Si / 1000 Ang^3
#
#
#
# Elastic Constant Matrix: (Units=GPa)
#
#
# Indices 1 2 3 4 5 6 
#
# 1 92.0224 27.1597 24.9568 0.0000 1.8517 0.0000
# 2 27.1597 93.2014 13.8618 0.0000 8.1347 0.0000
# 3 24.9568 13.8618 54.6379 0.0000 6.2364 0.0000
# 4 0.0000 0.0000 0.0000 9.5890 0.0000 -4.1556
# 5 1.8517 8.1347 6.2364 0.0000 35.5097 0.0000
# 6 0.0000 0.0000 0.0000 -4.1556 0.0000 25.0844
#
#
#
# Elastic Compliance Matrix: (Units=1/GPa)
#
#
# Indices 1 2 3 4 5 6 
#
# 1 0.013227 -0.003143 -0.005355 0.000000 0.000971 0.000000
# 2 -0.003143 0.012052 -0.001353 0.000000 -0.002360 0.000000
# 3 -0.005355 -0.001353 0.021454 0.000000 -0.003179 0.000000
# 4 0.000000 0.000000 0.000000 0.112353 0.000000 0.018613
# 5 0.000971 -0.002360 -0.003179 0.000000 0.029210 0.000000
# 6 0.000000 0.000000 0.000000 0.018613 0.000000 0.042949
#
#
# Mechanical properties :
#
#
# Convention : Reuss Voigt Hill
#
# Bulk Modulus (GPa) = 36.99272 41.31313 39.15293
# Shear Modulus (GPa) = 19.23388 25.62885 22.43136
#
# Velocity S-wave (km/s) = 3.22534 3.72311 3.48313
# Velocity P-wave (km/s) = 5.82050 6.38957 6.11166
#
# Compressibility (1/GPa) = 0.02703235
#
# Stress axis : x y z
#
# Youngs Moduli (GPa) = 75.60105 82.97070 46.61030
#
# Poissons Ratio (x) = 0.26076 0.24961
# Poissons Ratio (y) = 0.23760 0.06306
# Poissons Ratio (z) = 0.40486 0.11225
#
# Static dielectric constant tensor:
#      x y z
#    x 1.649800 0.000000 -0.014990 
#    y 0.000000 1.669740 0.000000 
#    z -0.014990 0.000000 1.626430 
# 
# From -- ./inp_files/50357.got.cif
#   From: 2010.05.17/outbox.cif.g08.bks.cpg/sg11_26_cif.got.tgz:50357.got - 2010.06.03 12:22:45.
