data_PCOD9162512
_publ_section_title
;
Structure prediction by ZEFSAII (Michael W. Deem and Ramdas Pophale) SiO2 
 PCOD9162512
Probable space group: P 21/M
;
_chemical_formula_sum "Si O2"
_cell_formula_units_Z 24
_cell_length_a 21.529021
_cell_length_b 8.982583
_cell_length_c 8.154923
_cell_angle_alpha 90.000000
_cell_angle_beta 44.860953
_cell_angle_gamma 90.000000
_cell_volume 1112.433009
_symmetry_space_group_name_H-M "P 21/M"
_symmetry_group_IT_number 11
_symmetry_cell_setting 'monoclinic'
loop_
_space_group_symop_operation_xyz
x,y,z
-x,1/2+y,-z
-x,-y,-z
x,1/2-y,z
loop_
_atom_site_type_symbol
_atom_site_label
_atom_site_fract_x
_atom_site_fract_y
_atom_site_fract_z
Si Si1 0.671447 0.916184 0.932420
Si Si2 0.192319 0.572518 0.125525
Si Si3 0.406796 0.428241 0.230079
Si Si4 0.083921 0.070710 0.633423
Si Si5 0.530988 0.413623 0.597673
Si Si6 0.109270 0.428881 0.962870
O O1 0.710989 0.750000 0.874533
O O2 0.673171 0.970219 0.740800
O O3 0.711011 0.025086 0.991457
O O4 0.566655 0.897978 0.141194
O O5 0.180727 0.750000 0.142664
O O6 0.134091 0.500357 0.383459
O O7 0.169712 0.501783 0.991210
O O8 0.412750 0.250000 0.226020
O O9 0.400699 0.494601 0.422289
O O10 0.500000 0.500000 0.000000
O O11 0.077149 0.250000 0.626420
O O12 0.125610 0.042488 0.737341
O O13 0.987508 0.996854 0.821285
O O14 0.500000 0.500000 0.500000
O O15 0.566053 0.250000 0.500604
O O16 0.109575 0.250000 0.983294
#
# Coordination Sequence:
#
# PCOD9162512 Si02
#       6
#     4   4   4   4   4   4
#     4   9  20  38  56  78 110 148 187 228 281 342
#     4  12  24  37  58  87 121 157 194 243 294 346
#     4   9  17  32  55  78 103 138 178 224 272 329
#     4  10  21  39  63  88 116 154 197 241 289 346
#     4  10  20  35  57  83 110 144 186 233 281 339
#     4  10  21  39  63  88 117 154 196 243 287 343
#
# _framework density 21.574335000000001
#
# number of rings (size 3 to 8) (size 9 to 14) (size 15 to 20)
#    0.000    2.000    0.000    5.000    0.000    6.000 
#    3.000    0.000    0.000    0.000    0.000    0.000 
#    0.000    0.000    0.000    0.000    0.000    0.000 
#
# Total GULP energy -133731.537197 kJ/mol
# GULP energy per Si atom -5572.147383 kJ/mol
# Density = 2.152523 g / cm^3
# Si number density = 21.574335 Si / 1000 Ang^3
#
#
#
# Elastic Constant Matrix: (Units=GPa)
#
#
# Indices 1 2 3 4 5 6 
#
# 1 176.2124 94.0490 19.8576 0.0000 39.6675 0.0000
# 2 94.0490 144.6411 14.1082 0.0000 23.9961 0.0000
# 3 19.8576 14.1082 21.6461 0.0000 0.4479 0.0000
# 4 0.0000 0.0000 0.0000 23.0388 0.0000 7.9098
# 5 39.6675 23.9961 0.4479 0.0000 30.6369 0.0000
# 6 0.0000 0.0000 0.0000 7.9098 0.0000 40.5912
#
#
#
# Elastic Compliance Matrix: (Units=1/GPa)
#
#
# Indices 1 2 3 4 5 6 
#
# 1 0.011668 -0.005054 -0.007181 0.000000 -0.011043 0.000000
# 2 -0.005054 0.010729 -0.002319 0.000000 -0.001826 0.000000
# 3 -0.007181 -0.002319 0.054083 0.000000 0.010323 0.000000
# 4 0.000000 0.000000 0.000000 0.046517 0.000000 -0.009065
# 5 -0.011043 -0.001826 0.010323 0.000000 0.048218 0.000000
# 6 0.000000 0.000000 0.000000 -0.009065 0.000000 0.026402
#
#
# Mechanical properties :
#
#
# Convention : Reuss Voigt Hill
#
# Bulk Modulus (GPa) = 21.10935 66.50325 43.80630
# Shear Modulus (GPa) = 20.61726 33.15237 26.88482
#
# Velocity S-wave (km/s) = 3.09469 3.92428 3.53391
# Velocity P-wave (km/s) = 4.75134 7.17115 6.08279
#
# Compressibility (1/GPa) = 0.04737238
#
# Stress axis : x y z
#
# Youngs Moduli (GPa) = 85.70680 93.20564 18.49006
#
# Poissons Ratio (x) = 0.47107 0.13278
# Poissons Ratio (y) = 0.43317 0.04287
# Poissons Ratio (z) = 0.61547 0.21610
#
# Static dielectric constant tensor:
#      x y z
#    x 1.849200 0.000000 0.135930 
#    y 0.000000 2.132110 0.000000 
#    z 0.135930 0.000000 2.149680 
# 
# From -- ./inp_files/25739.got.cif
#   From: 2010.05.17/outbox.cif.g08.bks.cpg/sg11_13_cif.got.tgz:25739.got - 2010.06.03 12:22:45.
