data_PCOD9162568
_publ_section_title
;
Structure prediction by ZEFSAII (Michael W. Deem and Ramdas Pophale) SiO2 
 PCOD9162568
Probable space group: P 21/M
;
_chemical_formula_sum "Si O2"
_cell_formula_units_Z 32
_cell_length_a 9.710086
_cell_length_b 12.165455
_cell_length_c 13.971926
_cell_angle_alpha 90.000000
_cell_angle_beta 94.862375
_cell_angle_gamma 90.000000
_cell_volume 1644.530528
_symmetry_space_group_name_H-M "P 21/M"
_symmetry_group_IT_number 11
_symmetry_cell_setting 'monoclinic'
loop_
_space_group_symop_operation_xyz
x,y,z
-x,1/2+y,-z
-x,-y,-z
x,1/2-y,z
loop_
_atom_site_type_symbol
_atom_site_label
_atom_site_fract_x
_atom_site_fract_y
_atom_site_fract_z
Si Si1 0.778008 0.524460 0.468337
Si Si2 0.423041 0.119000 0.701277
Si Si3 0.530662 0.378806 0.054264
Si Si4 0.764424 0.873425 0.924562
Si Si5 0.939071 0.506863 0.783234
Si Si6 0.250031 0.026156 0.866679
Si Si7 0.004155 0.131200 0.393359
Si Si8 0.724146 0.120613 0.650323
O O1 0.658491 0.567572 0.393204
O O2 0.868783 0.617415 0.526142
O O3 0.727633 0.446103 0.551338
O O4 0.889701 0.458703 0.411746
O O5 0.409304 0.250000 0.696337
O O6 0.352719 0.078459 0.794776
O O7 0.584949 0.092106 0.700275
O O8 0.532555 0.250000 0.013357
O O9 0.397165 0.375617 0.115319
O O10 0.680847 0.407671 0.105098
O O11 0.500000 0.500000 0.000000
O O12 0.817924 0.750000 0.914674
O O13 0.855289 0.959402 0.872300
O O14 0.760066 0.902759 0.036816
O O15 0.940257 0.608073 0.709033
O O16 0.857077 0.413034 0.720752
O O17 0.096364 0.480192 0.816697
O O18 0.940159 0.250000 0.398774
O O19 0.724599 0.250000 0.630962
#
# Coordination Sequence:
#
# PCOD9162568 Si02
#       8
#     4   4   4   4   4   4   4   4
#     4  10  20  38  58  88 116 156 200 251 306 373
#     4  11  22  39  61  89 123 165 211 259 313 380
#     4   9  20  39  63  89 121 162 212 263 320 376
#     4  10  21  39  61  85 118 162 204 258 312 366
#     4  11  22  39  58  87 123 156 206 253 309 373
#     4  11  22  39  59  91 122 163 209 258 308 372
#     4  10  20  35  57  85 117 152 192 247 308 366
#     4  10  23  40  62  88 121 160 202 257 321 382
#
# _framework density 19.45844
#
# number of rings (size 3 to 8) (size 9 to 14) (size 15 to 20)
#    0.000    1.750    1.250    3.000    0.000    2.500 
#    0.000    5.000    0.000    5.250    0.000    0.000 
#    0.000    0.000    0.000    0.000    0.000    0.000 
#
# Total GULP energy -178290.242405 kJ/mol
# GULP energy per Si atom -5571.570075 kJ/mol
# Density = 1.941415 g / cm^3
# Si number density = 19.458440 Si / 1000 Ang^3
#
#
#
# Elastic Constant Matrix: (Units=GPa)
#
#
# Indices 1 2 3 4 5 6 
#
# 1 96.3965 22.6633 28.4776 0.0000 1.1745 0.0000
# 2 22.6633 86.6257 21.9952 0.0000 -1.7101 0.0000
# 3 28.4776 21.9952 80.3663 0.0000 -11.8906 0.0000
# 4 0.0000 0.0000 0.0000 3.2680 0.0000 -2.5770
# 5 1.1745 -1.7101 -11.8906 0.0000 33.7808 0.0000
# 6 0.0000 0.0000 0.0000 -2.5770 0.0000 3.4656
#
#
#
# Elastic Compliance Matrix: (Units=1/GPa)
#
#
# Indices 1 2 3 4 5 6 
#
# 1 0.012085 -0.002192 -0.003967 0.000000 -0.001928 0.000000
# 2 -0.002192 0.012815 -0.002767 0.000000 -0.000249 0.000000
# 3 -0.003967 -0.002767 0.015408 0.000000 0.005422 0.000000
# 4 0.000000 0.000000 0.000000 0.739826 0.000000 0.550137
# 5 -0.001928 -0.000249 0.005422 0.000000 0.031565 0.000000
# 6 0.000000 0.000000 0.000000 0.550137 0.000000 0.697633
#
#
# Mechanical properties :
#
#
# Convention : Reuss Voigt Hill
#
# Bulk Modulus (GPa) = 44.53514 45.51786 45.02650
# Shear Modulus (GPa) = 3.25802 20.78635 12.02219
#
# Velocity S-wave (km/s) = 1.29537 3.27195 2.48833
# Velocity P-wave (km/s) = 5.01740 6.14144 5.60766
#
# Compressibility (1/GPa) = 0.02245418
#
# Stress axis : x y z
#
# Youngs Moduli (GPa) = 82.74859 78.03211 64.89963
#
# Poissons Ratio (x) = 0.17107 0.25748
# Poissons Ratio (y) = 0.18141 0.17960
# Poissons Ratio (z) = 0.32830 0.21594
#
# Static dielectric constant tensor:
#      x y z
#    x 1.694150 0.000000 0.029360 
#    y 0.000000 1.692850 0.000000 
#    z 0.029360 0.000000 1.703740 
# 
# From -- ./inp_files/47225.got.cif
#   From: 2010.05.17/outbox.cif.g08.bks.cpg/sg11_24_cif.got.tgz:47225.got - 2010.06.03 12:22:45.
