data_PCOD9162435
_publ_section_title
;
Structure prediction by ZEFSAII (Michael W. Deem and Ramdas Pophale) SiO2 
 PCOD9162435
Probable space group: P 21/M
;
_chemical_formula_sum "Si O2"
_cell_formula_units_Z 28
_cell_length_a 17.313811
_cell_length_b 15.688811
_cell_length_c 5.841808
_cell_angle_alpha 90.000000
_cell_angle_beta 49.937435
_cell_angle_gamma 90.000000
_cell_volume 1214.466607
_symmetry_space_group_name_H-M "P 21/M"
_symmetry_group_IT_number 11
_symmetry_cell_setting 'monoclinic'
loop_
_space_group_symop_operation_xyz
x,y,z
-x,1/2+y,-z
-x,-y,-z
x,1/2-y,z
loop_
_atom_site_type_symbol
_atom_site_label
_atom_site_fract_x
_atom_site_fract_y
_atom_site_fract_z
Si Si1 0.615261 0.654652 0.767122
Si Si2 0.049693 0.438736 0.098357
Si Si3 0.697353 0.478293 0.685234
Si Si4 0.522182 0.414614 0.320784
Si Si5 0.392855 0.657042 0.428479
Si Si6 0.853268 0.067562 0.782022
Si Si7 0.099318 0.750000 0.215021
Si Si8 0.017772 0.250000 0.058092
O O1 0.654958 0.750000 0.711616
O O2 0.692700 0.579568 0.672369
O O3 0.574883 0.632725 0.590117
O O4 0.510847 0.649907 0.115359
O O5 0.139856 0.492259 0.043011
O O6 0.964699 0.428351 0.455317
O O7 0.072179 0.342968 0.966935
O O8 0.000000 0.500000 0.000000
O O9 0.684954 0.417633 0.489533
O O10 0.780132 0.452418 0.710933
O O11 0.589210 0.451819 0.992680
O O12 0.500000 0.500000 0.500000
O O13 0.590229 0.350736 0.334405
O O14 0.357897 0.750000 0.414836
O O15 0.838807 0.162327 0.905679
O O16 0.045909 0.750000 0.575143
O O17 0.036624 0.750000 0.091332
#
# Coordination Sequence:
#
# PCOD9162435 Si02
#       8
#     4   4   4   4   4   4   2   2
#     4  10  20  36  57  77 112 157 199 241 295 353
#     4  10  20  41  64  86 116 159 200 242 306 374
#     4  11  22  37  56  85 120 151 193 246 293 356
#     4  11  18  36  58  80 110 155 199 240 296 348
#     4  10  20  35  56  83 112 151 197 242 293 350
#     4  10  23  38  60  88 123 156 198 250 312 369
#     4  10  20  40  62  96 126 162 196 258 316 376
#     4  10  20  38  70  94 120 160 210 250 306 380
#
# _framework density 23.055387
#
# number of rings (size 3 to 8) (size 9 to 14) (size 15 to 20)
#    0.000    1.714    4.286    1.286    1.000    1.714 
#    1.286    0.000    0.000    0.000    0.000    0.000 
#    0.000    0.000    0.000    0.000    0.000    0.000 
#
# Total GULP energy -156062.416004 kJ/mol
# GULP energy per Si atom -5573.657714 kJ/mol
# Density = 2.300291 g / cm^3
# Si number density = 23.055387 Si / 1000 Ang^3
#
#
#
# Elastic Constant Matrix: (Units=GPa)
#
#
# Indices 1 2 3 4 5 6 
#
# 1 104.7530 73.6833 -5.6580 0.0000 24.3030 0.0000
# 2 73.6833 237.4219 12.3157 0.0000 6.3002 0.0000
# 3 -5.6580 12.3157 45.0659 0.0000 1.0213 0.0000
# 4 0.0000 0.0000 0.0000 21.0898 0.0000 1.3098
# 5 24.3030 6.3002 1.0213 0.0000 29.4226 0.0000
# 6 0.0000 0.0000 0.0000 1.3098 0.0000 35.2951
#
#
#
# Elastic Compliance Matrix: (Units=1/GPa)
#
#
# Indices 1 2 3 4 5 6 
#
# 1 0.015985 -0.004822 0.003603 0.000000 -0.012296 0.000000
# 2 -0.004822 0.005749 -0.002241 0.000000 0.002829 0.000000
# 3 0.003603 -0.002241 0.023329 0.000000 -0.003306 0.000000
# 4 0.000000 0.000000 0.000000 0.047526 0.000000 -0.001764
# 5 -0.012296 0.002829 -0.003306 0.000000 0.043653 0.000000
# 6 0.000000 0.000000 0.000000 -0.001764 0.000000 0.028398
#
#
# Mechanical properties :
#
#
# Convention : Reuss Voigt Hill
#
# Bulk Modulus (GPa) = 26.21511 60.88032 43.54771
# Shear Modulus (GPa) = 27.13345 37.62149 32.37747
#
# Velocity S-wave (km/s) = 3.43429 4.04392 3.75151
# Velocity P-wave (km/s) = 5.20778 6.94751 6.13958
#
# Compressibility (1/GPa) = 0.03814594
#
# Stress axis : x y z
#
# Youngs Moduli (GPa) = 62.55803 173.93051 42.86443
#
# Poissons Ratio (x) = 0.83862 -0.15445
# Poissons Ratio (y) = 0.30163 0.09605
# Poissons Ratio (z) = -0.22541 0.38972
#
# Static dielectric constant tensor:
#      x y z
#    x 1.964250 0.000000 0.224990 
#    y 0.000000 1.532520 0.000000 
#    z 0.224990 0.000000 2.273460 
# 
# From -- ./inp_files/8052.got.cif
#   From: 2010.05.17/outbox.cif.g08.bks.cpg/sg11_5_cif.got.tgz:8052.got - 2010.06.03 12:22:45.
