data_PCOD9162529
_publ_section_title
;
Structure prediction by ZEFSAII (Michael W. Deem and Ramdas Pophale) SiO2 
 PCOD9162529
Probable space group: P 21/M
;
_chemical_formula_sum "Si O2"
_cell_formula_units_Z 32
_cell_length_a 22.322752
_cell_length_b 8.749237
_cell_length_c 12.149581
_cell_angle_alpha 90.000000
_cell_angle_beta 129.521708
_cell_angle_gamma 90.000000
_cell_volume 1830.415057
_symmetry_space_group_name_H-M "P 21/M"
_symmetry_group_IT_number 11
_symmetry_cell_setting 'monoclinic'
loop_
_space_group_symop_operation_xyz
x,y,z
-x,1/2+y,-z
-x,-y,-z
x,1/2-y,z
loop_
_atom_site_type_symbol
_atom_site_label
_atom_site_fract_x
_atom_site_fract_y
_atom_site_fract_z
Si Si1 0.666171 0.432673 0.951778
Si Si2 0.183189 0.067175 0.749769
Si Si3 0.210668 0.932860 0.351465
Si Si4 0.092162 0.565968 0.828237
Si Si5 0.577900 0.932301 0.040583
Si Si6 0.731000 0.567389 0.361432
Si Si7 0.755096 0.064644 0.852055
Si Si8 0.038904 0.433577 0.155794
O O1 0.658826 0.250000 0.946544
O O2 0.683855 0.483270 0.847221
O O3 0.744959 0.483224 0.106366
O O4 0.597370 0.506116 0.941440
O O5 0.191675 0.250000 0.772312
O O6 0.196956 0.032703 0.637202
O O7 0.108457 0.010361 0.729311
O O8 0.203885 0.750000 0.339800
O O9 0.244416 0.986564 0.273192
O O10 0.260687 0.983121 0.514129
O O11 0.125471 0.003989 0.265544
O O12 0.094783 0.750000 0.818604
O O13 0.013861 0.524005 0.800550
O O14 0.163879 0.521110 0.993291
O O15 0.573516 0.750000 0.031743
O O16 0.651950 0.972865 0.204196
O O17 0.500000 0.000000 0.000000
O O18 0.731006 0.750000 0.379334
O O19 0.754535 0.250000 0.851204
O O20 0.039110 0.250000 0.148884
O O21 0.000000 0.500000 0.000000
#
# Coordination Sequence:
#
# PCOD9162529 Si02
#       8
#     4   4   4   4   4   4   4   4
#     4   9  16  29  50  75 105 135 165 204 255 303
#     4   9  17  30  49  72  99 129 170 218 261 307
#     4  11  21  34  52  75 103 138 179 216 257 313
#     4   9  17  31  49  69  98 130 169 219 268 310
#     4  10  20  35  57  84 111 134 166 209 253 303
#     4   9  20  37  52  74 107 137 166 209 257 307
#     4   8  15  29  47  71 101 131 167 212 256 296
#     4  11  21  34  50  72 103 137 175 222 269 312
#
# _framework density 17.482372999999999
#
# number of rings (size 3 to 8) (size 9 to 14) (size 15 to 20)
#    0.000    2.500    1.250    3.375    0.000    4.000 
#    0.000    2.500    0.000    0.750    0.000    0.000 
#    0.000    0.000    0.000    0.000    0.000    0.000 
#
# Total GULP energy -178329.168117 kJ/mol
# GULP energy per Si atom -5572.786504 kJ/mol
# Density = 1.744258 g / cm^3
# Si number density = 17.482373 Si / 1000 Ang^3
#
#
#
# Elastic Constant Matrix: (Units=GPa)
#
#
# Indices 1 2 3 4 5 6 
#
# 1 181.6832 46.6168 50.8540 0.0000 -21.8475 0.0000
# 2 46.6168 39.8016 25.1142 0.0000 -5.2197 0.0000
# 3 50.8540 25.1142 48.9224 0.0000 -16.7548 0.0000
# 4 0.0000 0.0000 0.0000 23.3149 0.0000 -2.1332
# 5 -21.8475 -5.2197 -16.7548 0.0000 21.8701 0.0000
# 6 0.0000 0.0000 0.0000 -2.1332 0.0000 28.6256
#
#
#
# Elastic Compliance Matrix: (Units=1/GPa)
#
#
# Indices 1 2 3 4 5 6 
#
# 1 0.009086 -0.007435 -0.004240 0.000000 0.004054 0.000000
# 2 -0.007435 0.044251 -0.018864 0.000000 -0.011318 0.000000
# 3 -0.004240 -0.018864 0.042757 0.000000 0.024019 0.000000
# 4 0.000000 0.000000 0.000000 0.043185 0.000000 0.003218
# 5 0.004054 -0.011318 0.024019 0.000000 0.065475 0.000000
# 6 0.000000 0.000000 0.000000 0.003218 0.000000 0.035174
#
#
# Mechanical properties :
#
#
# Convention : Reuss Voigt Hill
#
# Bulk Modulus (GPa) = 28.55689 57.28637 42.92163
# Shear Modulus (GPa) = 15.99094 24.61691 20.30392
#
# Velocity S-wave (km/s) = 3.02766 3.75654 3.41162
# Velocity P-wave (km/s) = 5.34719 7.18711 6.33431
#
# Compressibility (1/GPa) = 0.03501782
#
# Stress axis : x y z
#
# Youngs Moduli (GPa) = 110.06009 22.59825 23.38791
#
# Poissons Ratio (x) = 0.16802 0.09915
# Poissons Ratio (y) = 0.81829 0.44118
# Poissons Ratio (z) = 0.46660 0.42629
#
# Static dielectric constant tensor:
#      x y z
#    x 1.632780 0.000000 -0.021240 
#    y 0.000000 1.586070 0.000000 
#    z -0.021240 0.000000 1.585250 
# 
# From -- ./inp_files/42864.got.cif
#   From: 2010.05.17/outbox.cif.g08.bks.cpg/sg11_22_cif.got.tgz:42864.got - 2010.06.03 12:22:45.
