data_PCOD9162929
_publ_section_title
;
Structure prediction by ZEFSAII (Michael W. Deem and Ramdas Pophale) SiO2 
 PCOD9162929
Probable space group: P 21/M
;
_chemical_formula_sum "Si O2"
_cell_formula_units_Z 28
_cell_length_a 9.466956
_cell_length_b 8.381030
_cell_length_c 30.154391
_cell_angle_alpha 90.000000
_cell_angle_beta 38.358879
_cell_angle_gamma 90.000000
_cell_volume 1484.771785
_symmetry_space_group_name_H-M "P 21/M"
_symmetry_group_IT_number 11
_symmetry_cell_setting 'monoclinic'
loop_
_space_group_symop_operation_xyz
x,y,z
-x,1/2+y,-z
-x,-y,-z
x,1/2-y,z
loop_
_atom_site_type_symbol
_atom_site_label
_atom_site_fract_x
_atom_site_fract_y
_atom_site_fract_z
Si Si1 0.419373 0.442186 0.067277
Si Si2 0.664570 0.557018 0.498592
Si Si3 0.649354 0.557035 0.773343
Si Si4 0.022314 0.444485 0.226241
Si Si5 0.186342 0.559464 0.361800
Si Si6 0.744667 0.442036 0.067145
Si Si7 0.495285 0.942847 0.637276
O O1 0.415435 0.250000 0.067652
O O2 0.173911 0.495515 0.146689
O O3 0.601205 0.493661 0.059543
O O4 0.500000 0.500000 0.000000
O O5 0.500000 0.500000 0.500000
O O6 0.663639 0.750000 0.498446
O O7 0.575819 0.504005 0.568709
O O8 0.924468 0.501691 0.427947
O O9 0.651738 0.750000 0.770571
O O10 0.839990 0.509835 0.763016
O O11 0.704545 0.490902 0.711695
O O12 0.404739 0.506442 0.853575
O O13 0.019708 0.250000 0.226702
O O14 0.762715 0.499707 0.290271
O O15 0.182507 0.750000 0.365579
O O16 0.332501 0.495714 0.366932
O O17 0.745707 0.250000 0.067532
O O18 0.000000 0.500000 0.000000
O O19 0.491194 0.750000 0.637976
#
# Coordination Sequence:
#
# PCOD9162929 Si02
#       7
#     4   4   4   4   4   4   4
#     4   9  18  33  51  74 102 132 168 213 259 306
#     4  10  22  38  58  82 107 138 177 216 260 313
#     4   9  18  36  58  76  99 140 184 217 256 314
#     4   8  16  33  56  76  96 128 177 222 250 294
#     4  11  23  36  51  80 115 139 166 215 268 310
#     4   9  19  34  53  77 105 137 177 220 263 312
#     4  10  20  36  57  79 103 138 178 213 255 313
#
# _framework density 18.858117
#
# number of rings (size 3 to 8) (size 9 to 14) (size 15 to 20)
#    0.000    2.571    0.000    3.429    0.000    5.143 
#    0.000    7.857    0.000    0.000    0.000    0.000 
#    0.000    0.000    0.000    0.000    0.000    0.000 
#
# Total GULP energy -156220.014918 kJ/mol
# GULP energy per Si atom -5579.286247 kJ/mol
# Density = 1.881520 g / cm^3
# Si number density = 18.858117 Si / 1000 Ang^3
#
#
#
# Elastic Constant Matrix: (Units=GPa)
#
#
# Indices 1 2 3 4 5 6 
#
# 1 144.3185 17.8687 129.4708 0.0000 -2.9285 0.0000
# 2 17.8687 6.0477 25.2564 0.0000 -1.1124 0.0000
# 3 129.4708 25.2564 223.3173 0.0000 -0.6108 0.0000
# 4 0.0000 0.0000 0.0000 25.0964 0.0000 2.4778
# 5 -2.9285 -1.1124 -0.6108 0.0000 41.1887 0.0000
# 6 0.0000 0.0000 0.0000 2.4778 0.0000 30.0770
#
#
#
# Elastic Compliance Matrix: (Units=1/GPa)
#
#
# Indices 1 2 3 4 5 6 
#
# 1 0.015166 -0.015146 -0.007078 0.000000 0.000564 0.000000
# 2 -0.015146 0.331096 -0.028644 0.000000 0.007440 0.000000
# 3 -0.007078 -0.028644 0.011818 0.000000 -0.001102 0.000000
# 4 0.000000 0.000000 0.000000 0.040173 0.000000 -0.003310
# 5 0.000564 0.007440 -0.001102 0.000000 0.024503 0.000000
# 6 0.000000 0.000000 0.000000 -0.003310 0.000000 0.033521
#
#
# Mechanical properties :
#
#
# Convention : Reuss Voigt Hill
#
# Bulk Modulus (GPa) = 3.90103 79.87504 41.88803
# Shear Modulus (GPa) = 7.77048 32.67826 20.22437
#
# Velocity S-wave (km/s) = 2.03210 4.16727 3.27838
# Velocity P-wave (km/s) = 2.75300 8.09954 6.04903
#
# Compressibility (1/GPa) = 0.25634279
#
# Stress axis : x y z
#
# Youngs Moduli (GPa) = 65.93869 3.02027 84.61661
#
# Poissons Ratio (x) = 0.04575 0.59891
# Poissons Ratio (y) = 0.99871 2.42379
# Poissons Ratio (z) = 0.46671 0.08651
#
# Static dielectric constant tensor:
#      x y z
#    x 1.620610 0.000000 -0.013980 
#    y 0.000000 1.662510 0.000000 
#    z -0.013980 0.000000 1.660470 
# 
# From -- ./inp_files/28320.got.cif
#   From: 2010.05.17/outbox.cif.g08.bks.cpg/sg11_15_cif.got.tgz:28320.got - 2010.06.03 12:22:45.
