data_PCOD9162873
_publ_section_title
;
Structure prediction by ZEFSAII (Michael W. Deem and Ramdas Pophale) SiO2 
 PCOD9162873
Probable space group: P 21/M
;
_chemical_formula_sum "Si O2"
_cell_formula_units_Z 32
_cell_length_a 21.800557
_cell_length_b 7.791383
_cell_length_c 16.934703
_cell_angle_alpha 90.000000
_cell_angle_beta 152.129716
_cell_angle_gamma 90.000000
_cell_volume 1344.667064
_symmetry_space_group_name_H-M "P 21/M"
_symmetry_group_IT_number 11
_symmetry_cell_setting 'monoclinic'
loop_
_space_group_symop_operation_xyz
x,y,z
-x,1/2+y,-z
-x,-y,-z
x,1/2-y,z
loop_
_atom_site_type_symbol
_atom_site_label
_atom_site_fract_x
_atom_site_fract_y
_atom_site_fract_z
Si Si1 0.105376 0.045691 0.349078
Si Si2 0.918676 0.448972 0.497831
Si Si3 0.506711 0.544051 0.820793
Si Si4 0.189391 0.546070 0.002763
Si Si5 0.207120 0.450455 0.841779
Si Si6 0.639107 0.456369 0.196864
Si Si7 0.672881 0.953480 0.514329
Si Si8 0.348663 0.547257 0.331936
O O1 0.125403 0.250000 0.386886
O O2 0.213633 0.974642 0.412964
O O3 0.096793 0.957201 0.424338
O O4 0.962764 0.029554 0.147856
O O5 0.923923 0.250000 0.480801
O O6 0.774443 0.525110 0.311954
O O7 0.065974 0.524140 0.650767
O O8 0.514379 0.750000 0.837389
O O9 0.391009 0.482216 0.747756
O O10 0.464441 0.505805 0.683143
O O11 0.648186 0.472583 0.009346
O O12 0.216846 0.750000 0.021533
O O13 0.275015 0.473900 0.171714
O O14 0.204233 0.461474 0.934114
O O15 0.206803 0.250000 0.820076
O O16 0.653140 0.250000 0.212972
O O17 0.500000 0.500000 0.000000
O O18 0.677683 0.750000 0.514754
O O19 0.694833 0.999160 0.629732
O O20 0.500000 0.500000 0.500000
O O21 0.333097 0.750000 0.307459
#
# Coordination Sequence:
#
# PCOD9162873 Si02
#       8
#     4   4   4   4   4   4   4   4
#     4   9  18  33  53  77 103 134 173 219 264 311
#     4   9  17  33  55  79 106 137 175 213 257 312
#     4  10  20  36  56  80 108 138 177 220 264 315
#     4   9  19  35  52  73 104 139 177 219 266 313
#     4   9  18  32  55  81 104 136 176 220 263 308
#     4  10  21  36  56  80 109 141 173 213 261 315
#     4  11  22  34  53  79 106 137 176 222 268 316
#     4  11  23  37  52  71 102 142 181 224 272 320
#
# _framework density 23.797711
#
# number of rings (size 3 to 8) (size 9 to 14) (size 15 to 20)
#    0.000    2.250    1.250    1.500    0.000    5.500 
#    0.000    0.625    0.000    0.000    0.000    0.000 
#    0.000    0.000    0.000    0.000    0.000    0.000 
#
# Total GULP energy -178680.413394 kJ/mol
# GULP energy per Si atom -5583.762919 kJ/mol
# Density = 2.374355 g / cm^3
# Si number density = 23.797711 Si / 1000 Ang^3
#
#
#
# Elastic Constant Matrix: (Units=GPa)
#
#
# Indices 1 2 3 4 5 6 
#
# 1 83.3115 20.5500 35.2791 0.0000 13.9794 0.0000
# 2 20.5500 50.5437 25.7591 0.0000 0.1128 0.0000
# 3 35.2791 25.7591 148.6747 0.0000 4.0602 0.0000
# 4 0.0000 0.0000 0.0000 23.7749 0.0000 -5.3469
# 5 13.9794 0.1128 4.0602 0.0000 51.9362 0.0000
# 6 0.0000 0.0000 0.0000 -5.3469 0.0000 28.3235
#
#
#
# Elastic Compliance Matrix: (Units=1/GPa)
#
#
# Indices 1 2 3 4 5 6 
#
# 1 0.014913 -0.004721 -0.002617 0.000000 -0.003799 0.000000
# 2 -0.004721 0.023199 -0.002939 0.000000 0.001450 0.000000
# 3 -0.002617 -0.002939 0.007854 0.000000 0.000097 0.000000
# 4 0.000000 0.000000 0.000000 0.043926 0.000000 0.008292
# 5 -0.003799 0.001450 0.000097 0.000000 0.020266 0.000000
# 6 0.000000 0.000000 0.000000 0.008292 0.000000 0.036872
#
#
# Mechanical properties :
#
#
# Convention : Reuss Voigt Hill
#
# Bulk Modulus (GPa) = 39.35161 49.52292 44.43726
# Shear Modulus (GPa) = 28.40026 34.20303 31.30165
#
# Velocity S-wave (km/s) = 3.45831 3.79521 3.63067
# Velocity P-wave (km/s) = 5.70249 6.32929 6.02405
#
# Compressibility (1/GPa) = 0.02541192
#
# Stress axis : x y z
#
# Youngs Moduli (GPa) = 67.05354 43.10558 127.33000
#
# Poissons Ratio (x) = 0.20351 0.33323
# Poissons Ratio (y) = 0.31658 0.37418
# Poissons Ratio (z) = 0.17548 0.12667
#
# Static dielectric constant tensor:
#      x y z
#    x 1.959640 0.000000 0.001820 
#    y 0.000000 1.861260 0.000000 
#    z 0.001820 0.000000 1.992770 
# 
# From -- ./inp_files/67173.got.cif
#   From: 2010.05.17/outbox.cif.g08.bks.cpg/sg11_34_cif.got.tgz:67173.got - 2010.06.03 12:22:45.
