data_PCOD9162803
_publ_section_title
;
Structure prediction by ZEFSAII (Michael W. Deem and Ramdas Pophale) SiO2 
 PCOD9162803
Probable space group: P 21/M
;
_chemical_formula_sum "Si O2"
_cell_formula_units_Z 32
_cell_length_a 15.742879
_cell_length_b 9.520383
_cell_length_c 24.301318
_cell_angle_alpha 90.000000
_cell_angle_beta 150.185105
_cell_angle_gamma 90.000000
_cell_volume 1810.919393
_symmetry_space_group_name_H-M "P 21/M"
_symmetry_group_IT_number 11
_symmetry_cell_setting 'monoclinic'
loop_
_space_group_symop_operation_xyz
x,y,z
-x,1/2+y,-z
-x,-y,-z
x,1/2-y,z
loop_
_atom_site_type_symbol
_atom_site_label
_atom_site_fract_x
_atom_site_fract_y
_atom_site_fract_z
Si Si1 0.259715 0.413197 0.652210
Si Si2 0.543756 0.911298 0.471090
Si Si3 0.270406 0.408023 0.267527
Si Si4 0.058305 0.414527 0.336063
Si Si5 0.640763 0.418359 0.899331
Si Si6 0.071909 0.915018 0.456378
Si Si7 0.833917 0.592077 0.916310
Si Si8 0.067225 0.919806 0.852272
O O1 0.266340 0.250000 0.637421
O O2 0.437429 0.443547 0.783483
O O3 0.216676 0.510267 0.575464
O O4 0.102206 0.426622 0.605901
O O5 0.496091 0.750000 0.451352
O O6 0.742853 0.918783 0.569456
O O7 0.500000 0.000000 0.500000
O O8 0.424854 0.985130 0.359975
O O9 0.310772 0.250000 0.311980
O O10 0.238789 0.395566 0.185526
O O11 0.099439 0.457525 0.204194
O O12 0.014550 0.250000 0.322257
O O13 0.043258 0.506310 0.382521
O O14 0.956278 0.466109 0.224248
O O15 0.667244 0.250000 0.906069
O O16 0.715283 0.507459 0.891058
O O17 0.757176 0.458395 0.017746
O O18 0.110316 0.750000 0.469907
O O19 0.869790 0.750000 0.957187
O O20 0.000000 0.500000 0.000000
O O21 0.063356 0.750000 0.848036
#
# Coordination Sequence:
#
# PCOD9162803 Si02
#       8
#     4   4   4   4   4   4   4   4
#     4   9  20  39  62  86 111 141 179 224 279 340
#     4  11  22  35  53  78 109 146 188 230 273 324
#     4  10  20  36  52  72 108 149 188 228 271 324
#     4  10  21  37  56  79 109 147 188 224 270 335
#     4  10  20  37  60  82 108 145 187 228 277 334
#     4  10  21  38  60  85 113 142 177 227 281 330
#     4  11  22  35  53  79 112 148 188 229 273 323
#     4   9  17  35  57  76 105 147 185 219 266 323
#
# _framework density 17.670583000000001
#
# number of rings (size 3 to 8) (size 9 to 14) (size 15 to 20)
#    0.000    2.000    2.500    1.125    1.750    3.000 
#    0.000    1.250    0.000    0.000    0.000    0.000 
#    0.000    0.000    0.000    0.000    0.000    0.000 
#
# Total GULP energy -178351.001596 kJ/mol
# GULP energy per Si atom -5573.468800 kJ/mol
# Density = 1.763036 g / cm^3
# Si number density = 17.670583 Si / 1000 Ang^3
#
#
#
# Elastic Constant Matrix: (Units=GPa)
#
#
# Indices 1 2 3 4 5 6 
#
# 1 61.0155 43.0416 35.8387 0.0000 -25.4151 0.0000
# 2 43.0416 90.7052 55.5479 0.0000 -10.0775 0.0000
# 3 35.8387 55.5479 124.4716 0.0000 -17.7318 0.0000
# 4 0.0000 0.0000 0.0000 19.7020 0.0000 -2.6241
# 5 -25.4151 -10.0775 -17.7318 0.0000 31.2814 0.0000
# 6 0.0000 0.0000 0.0000 -2.6241 0.0000 30.3423
#
#
#
# Elastic Compliance Matrix: (Units=1/GPa)
#
#
# Indices 1 2 3 4 5 6 
#
# 1 0.037810 -0.014674 -0.000691 0.000000 0.025600 0.000000
# 2 -0.014674 0.020904 -0.006356 0.000000 -0.008791 0.000000
# 3 -0.000691 -0.006356 0.011637 0.000000 0.003988 0.000000
# 4 0.000000 0.000000 0.000000 0.051348 0.000000 0.004441
# 5 0.025600 -0.008791 0.003988 0.000000 0.052196 0.000000
# 6 0.000000 0.000000 0.000000 0.004441 0.000000 0.033341
#
#
# Mechanical properties :
#
#
# Convention : Reuss Voigt Hill
#
# Bulk Modulus (GPa) = 37.16226 60.56095 48.86160
# Shear Modulus (GPa) = 19.25683 25.71608 22.48646
#
# Velocity S-wave (km/s) = 3.30474 3.81898 3.57113
# Velocity P-wave (km/s) = 5.96976 7.33436 6.68696
#
# Compressibility (1/GPa) = 0.02690902
#
# Stress axis : x y z
#
# Youngs Moduli (GPa) = 26.44789 47.83845 85.92995
#
# Poissons Ratio (x) = 0.70200 0.05936
# Poissons Ratio (y) = 0.38811 0.54616
# Poissons Ratio (z) = 0.01827 0.30406
#
# Static dielectric constant tensor:
#      x y z
#    x 1.583980 0.000000 -0.022430 
#    y 0.000000 1.635690 0.000000 
#    z -0.022430 0.000000 1.658730 
# 
# From -- ./inp_files/69136.got.cif
#   From: 2010.05.17/outbox.cif.g08.bks.cpg/sg11_35_cif.got.tgz:69136.got - 2010.06.03 12:22:45.
