data_PCOD9162442
_publ_section_title
;
Structure prediction by ZEFSAII (Michael W. Deem and Ramdas Pophale) SiO2 
 PCOD9162442
Probable space group: P 21/M
;
_chemical_formula_sum "Si O2"
_cell_formula_units_Z 32
_cell_length_a 28.435371
_cell_length_b 9.321737
_cell_length_c 22.030135
_cell_angle_alpha 90.000000
_cell_angle_beta 16.305936
_cell_angle_gamma 90.000000
_cell_volume 1639.523491
_symmetry_space_group_name_H-M "P 21/M"
_symmetry_group_IT_number 11
_symmetry_cell_setting 'monoclinic'
loop_
_space_group_symop_operation_xyz
x,y,z
-x,1/2+y,-z
-x,-y,-z
x,1/2-y,z
loop_
_atom_site_type_symbol
_atom_site_label
_atom_site_fract_x
_atom_site_fract_y
_atom_site_fract_z
Si Si1 0.881992 0.584170 0.469415
Si Si2 0.256159 0.912575 0.952018
Si Si3 0.737683 0.422118 0.536451
Si Si4 0.971829 0.078002 0.135025
Si Si5 0.391983 0.416533 0.894339
Si Si6 0.217387 0.913383 0.752944
Si Si7 0.977769 0.581303 0.590725
Si Si8 0.577677 0.587921 0.349053
O O1 0.833423 0.750000 0.540892
O O2 0.910170 0.495303 0.496317
O O3 0.764563 0.505946 0.565843
O O4 0.066414 0.585733 0.210382
O O5 0.306677 0.750000 0.875196
O O6 0.367419 0.978199 0.868237
O O7 0.276854 0.010342 0.867461
O O8 0.754003 0.250000 0.526107
O O9 0.879614 0.466166 0.311140
O O10 0.556192 0.447463 0.730777
O O11 0.987774 0.250000 0.117259
O O12 0.851909 0.039647 0.226355
O O13 0.144107 0.007609 0.898760
O O14 0.405428 0.250000 0.856633
O O15 0.217822 0.428166 0.147185
O O16 0.158777 0.750000 0.836420
O O17 0.416379 0.910016 0.504538
O O18 0.019467 0.750000 0.534474
O O19 0.000000 0.500000 0.500000
O O20 0.500000 0.500000 0.500000
O O21 0.620866 0.750000 0.312314
#
# Coordination Sequence:
#
# PCOD9162442 Si02
#       8
#     4   4   4   4   4   4   4   4
#     4  10  22  38  57  85 119 151 189 233 279 333
#     4  10  21  37  56  79 109 145 189 238 284 337
#     4  10  20  35  56  83 114 146 187 233 282 335
#     4   9  18  32  52  74  98 133 175 222 275 333
#     4   9  19  37  61  87 115 149 187 227 275 332
#     4   9  19  35  50  68  97 133 177 228 280 332
#     4  10  20  38  65  92 119 153 188 224 272 328
#     4  11  23  36  51  71 101 139 184 236 287 336
#
# _framework density 19.517866000000001
#
# number of rings (size 3 to 8) (size 9 to 14) (size 15 to 20)
#    0.000    2.250    0.000    2.250    1.750    6.000 
#    0.000    3.125    0.000    0.000    0.000    0.000 
#    0.000    0.000    0.000    0.000    0.000    0.000 
#
# Total GULP energy -178625.577366 kJ/mol
# GULP energy per Si atom -5582.049293 kJ/mol
# Density = 1.947344 g / cm^3
# Si number density = 19.517866 Si / 1000 Ang^3
#
#
#
# Elastic Constant Matrix: (Units=GPa)
#
#
# Indices 1 2 3 4 5 6 
#
# 1 98.3600 54.1549 14.4770 0.0000 3.3512 0.0000
# 2 54.1549 116.1115 18.2049 0.0000 14.7825 0.0000
# 3 14.4770 18.2049 23.4069 0.0000 -5.0958 0.0000
# 4 0.0000 0.0000 0.0000 25.2725 0.0000 3.3092
# 5 3.3512 14.7825 -5.0958 0.0000 35.9851 0.0000
# 6 0.0000 0.0000 0.0000 3.3092 0.0000 34.6312
#
#
#
# Elastic Compliance Matrix: (Units=1/GPa)
#
#
# Indices 1 2 3 4 5 6 
#
# 1 0.014026 -0.006015 -0.003862 0.000000 0.000618 0.000000
# 2 -0.006015 0.013464 -0.008083 0.000000 -0.006115 0.000000
# 3 -0.003862 -0.008083 0.053859 0.000000 0.011307 0.000000
# 4 0.000000 0.000000 0.000000 0.040070 0.000000 -0.003829
# 5 0.000618 -0.006115 0.011307 0.000000 0.031845 0.000000
# 6 0.000000 0.000000 0.000000 -0.003829 0.000000 0.029242
#
#
# Mechanical properties :
#
#
# Convention : Reuss Voigt Hill
#
# Bulk Modulus (GPa) = 22.01237 45.72800 33.87018
# Shear Modulus (GPa) = 21.40711 29.24720 25.32715
#
# Velocity S-wave (km/s) = 3.31538 3.87522 3.60618
# Velocity P-wave (km/s) = 5.09492 6.59567 5.89326
#
# Compressibility (1/GPa) = 0.04542901
#
# Stress axis : x y z
#
# Youngs Moduli (GPa) = 71.29735 74.27485 18.56698
#
# Poissons Ratio (x) = 0.44674 0.07171
# Poissons Ratio (y) = 0.42884 0.15007
# Poissons Ratio (z) = 0.27538 0.60033
#
# Static dielectric constant tensor:
#      x y z
#    x 1.698660 0.000000 -0.028370 
#    y 0.000000 1.682190 0.000000 
#    z -0.028370 0.000000 1.684000 
# 
# From -- ./inp_files/67087.got.cif
#   From: 2010.05.17/outbox.cif.g08.bks.cpg/sg11_34_cif.got.tgz:67087.got - 2010.06.03 12:22:45.
