data_PCOD9162155
_publ_section_title
;
Structure prediction by ZEFSAII (Michael W. Deem and Ramdas Pophale) SiO2 
 PCOD9162155
Probable space group: P 21/M
;
_chemical_formula_sum "Si O2"
_cell_formula_units_Z 32
_cell_length_a 17.162439
_cell_length_b 8.445273
_cell_length_c 23.907603
_cell_angle_alpha 90.000000
_cell_angle_beta 148.893283
_cell_angle_gamma 90.000000
_cell_volume 1790.240898
_symmetry_space_group_name_H-M "P 21/M"
_symmetry_group_IT_number 11
_symmetry_cell_setting 'monoclinic'
loop_
_space_group_symop_operation_xyz
x,y,z
-x,1/2+y,-z
-x,-y,-z
x,1/2-y,z
loop_
_atom_site_type_symbol
_atom_site_label
_atom_site_fract_x
_atom_site_fract_y
_atom_site_fract_z
Si Si1 0.662105 0.940949 0.335222
Si Si2 0.060027 0.438890 0.773182
Si Si3 0.832530 0.562041 0.329831
Si Si4 0.343155 0.562627 0.880224
Si Si5 0.859149 0.939238 0.876839
Si Si6 0.115650 0.062096 0.436819
Si Si7 0.671825 0.940958 0.863323
Si Si8 0.965569 0.940562 0.114542
O O1 0.663913 0.750000 0.335344
O O2 0.771393 0.993751 0.351992
O O3 0.734464 0.992175 0.438715
O O4 0.492132 0.996977 0.222206
O O5 0.086961 0.250000 0.788992
O O6 0.208914 0.524057 0.841076
O O7 0.928540 0.478475 0.648113
O O8 0.027579 0.489234 0.816688
O O9 0.864140 0.750000 0.350973
O O10 0.702590 0.527410 0.204559
O O11 0.978221 0.473212 0.395290
O O12 0.349211 0.750000 0.873596
O O13 0.500000 0.500000 0.000000
O O14 0.861311 0.750000 0.876562
O O15 0.717000 0.988861 0.827463
O O16 0.000000 0.000000 0.000000
O O17 0.894226 0.002499 0.836833
O O18 0.122453 0.250000 0.431288
O O19 0.669421 0.750000 0.864116
O O20 0.808362 0.993956 0.988304
O O21 0.964650 0.750000 0.111986
#
# Coordination Sequence:
#
# PCOD9162155 Si02
#       8
#     4   4   4   4   4   4   4   4
#     4  10  22  35  51  76 104 133 172 219 258 303
#     4  10  20  35  54  77 103 133 173 214 254 305
#     4  10  20  35  52  74  99 131 176 217 257 306
#     4  11  22  35  50  71 102 139 172 209 258 304
#     4   9  17  31  51  76 105 137 168 203 250 306
#     4  10  20  36  53  73 101 135 176 217 259 302
#     4   9  19  33  50  77 107 134 165 203 255 309
#     4   9  19  34  53  79 107 134 167 208 252 308
#
# _framework density 17.874690000000001
#
# number of rings (size 3 to 8) (size 9 to 14) (size 15 to 20)
#    0.000    2.250    0.000    5.250    1.750    5.500 
#    0.000    0.000    0.000    0.750    0.000    0.000 
#    0.000    0.000    0.000    0.000    0.000    0.000 
#
# Total GULP energy -178466.567223 kJ/mol
# GULP energy per Si atom -5577.080226 kJ/mol
# Density = 1.783401 g / cm^3
# Si number density = 17.874690 Si / 1000 Ang^3
#
#
#
# Elastic Constant Matrix: (Units=GPa)
#
#
# Indices 1 2 3 4 5 6 
#
# 1 88.2227 5.9156 31.4541 0.0000 -30.4452 0.0000
# 2 5.9156 18.8535 -2.1985 0.0000 -4.8495 0.0000
# 3 31.4541 -2.1985 55.9526 0.0000 -15.3583 0.0000
# 4 0.0000 0.0000 0.0000 20.1173 0.0000 -0.8972
# 5 -30.4452 -4.8495 -15.3583 0.0000 21.5844 0.0000
# 6 0.0000 0.0000 0.0000 -0.8972 0.0000 27.4291
#
#
#
# Elastic Compliance Matrix: (Units=1/GPa)
#
#
# Indices 1 2 3 4 5 6 
#
# 1 0.023178 -0.000413 -0.005092 0.000000 0.028977 0.000000
# 2 -0.000413 0.058641 0.007447 0.000000 0.017892 0.000000
# 3 -0.005092 0.007447 0.024252 0.000000 0.011747 0.000000
# 4 0.000000 0.000000 0.000000 0.049781 0.000000 0.001628
# 5 0.028977 0.017892 0.011747 0.000000 0.099580 0.000000
# 6 0.000000 0.000000 0.000000 0.001628 0.000000 0.036511
#
#
# Mechanical properties :
#
#
# Convention : Reuss Voigt Hill
#
# Bulk Modulus (GPa) = 9.09462 25.93015 17.51239
# Shear Modulus (GPa) = 15.39838 22.35001 18.87420
#
# Velocity S-wave (km/s) = 2.93825 3.53990 3.25301
# Velocity P-wave (km/s) = 4.07555 5.58981 4.89163
#
# Compressibility (1/GPa) = 0.10995510
#
# Stress axis : x y z
#
# Youngs Moduli (GPa) = 43.14473 17.05304 41.23395
#
# Poissons Ratio (x) = 0.00704 0.20996
# Poissons Ratio (y) = 0.01781 -0.30708
# Poissons Ratio (z) = 0.21969 -0.12700
#
# Static dielectric constant tensor:
#      x y z
#    x 1.623880 0.000000 -0.021300 
#    y 0.000000 1.607120 0.000000 
#    z -0.021300 0.000000 1.609690 
# 
# From -- ./inp_files/65229.got.cif
#   From: 2010.05.17/outbox.cif.g08.bks.cpg/sg11_33_cif.got.tgz:65229.got - 2010.06.03 12:22:45.
