data_PCOD9162253
_publ_section_title
;
Structure prediction by ZEFSAII (Michael W. Deem and Ramdas Pophale) SiO2 
 PCOD9162253
Probable space group: P 21/M
;
_chemical_formula_sum "Si O2"
_cell_formula_units_Z 32
_cell_length_a 11.817394
_cell_length_b 9.321375
_cell_length_c 14.163656
_cell_angle_alpha 90.000000
_cell_angle_beta 104.566353
_cell_angle_gamma 90.000000
_cell_volume 1510.039387
_symmetry_space_group_name_H-M "P 21/M"
_symmetry_group_IT_number 11
_symmetry_cell_setting 'monoclinic'
loop_
_space_group_symop_operation_xyz
x,y,z
-x,1/2+y,-z
-x,-y,-z
x,1/2-y,z
loop_
_atom_site_type_symbol
_atom_site_label
_atom_site_fract_x
_atom_site_fract_y
_atom_site_fract_z
Si Si1 0.400883 0.592961 0.525447
Si Si2 0.229141 0.083528 0.818208
Si Si3 0.530209 0.076286 0.105901
Si Si4 0.195851 0.909812 0.325712
Si Si5 0.066780 0.407230 0.436414
Si Si6 0.684121 0.076116 0.849899
Si Si7 0.728401 0.597080 0.375736
Si Si8 0.115663 0.077511 0.986483
O O1 0.500000 0.500000 0.500000
O O2 0.447944 0.750000 0.550930
O O3 0.294779 0.598921 0.427948
O O4 0.357997 0.528352 0.615169
O O5 0.268235 0.250000 0.843475
O O6 0.194430 0.074881 0.701201
O O7 0.337772 0.975611 0.847922
O O8 0.133595 0.055984 0.877910
O O9 0.519264 0.250000 0.100429
O O10 0.439414 0.002846 0.159901
O O11 0.500000 0.000000 0.000000
O O12 0.144664 0.750000 0.303451
O O13 0.260136 0.947966 0.241976
O O14 0.097706 0.015971 0.345078
O O15 0.012600 0.250000 0.412514
O O16 0.189832 0.390010 0.516573
O O17 0.000000 0.500000 0.500000
O O18 0.675156 0.250000 0.862615
O O19 0.773768 0.000167 0.941330
O O20 0.664818 0.750000 0.349711
O O21 0.113893 0.250000 0.004482
O O22 0.000000 0.000000 0.000000
#
# Coordination Sequence:
#
# PCOD9162253 Si02
#       8
#     4   4   4   4   4   4   4   4
#     4  10  20  35  54  81 115 153 191 234 287 343
#     4  10  22  41  63  87 120 161 204 249 303 364
#     4  12  24  39  62  91 123 160 202 251 306 364
#     4   9  21  39  58  82 115 155 198 242 293 352
#     4  10  20  36  60  87 117 155 198 249 300 352
#     4  11  23  41  64  90 122 162 205 253 307 365
#     4   9  20  38  58  82 113 152 196 240 290 349
#     4  11  24  42  64  90 122 161 202 252 305 364
#
# _framework density 21.191502
#
# number of rings (size 3 to 8) (size 9 to 14) (size 15 to 20)
#    0.000    1.750    1.250    2.625    1.750    4.000 
#    0.000    2.500    0.000    0.000    0.000    0.000 
#    0.000    0.000    0.000    0.000    0.000    0.000 
#
# Total GULP energy -178520.459659 kJ/mol
# GULP energy per Si atom -5578.764364 kJ/mol
# Density = 2.114327 g / cm^3
# Si number density = 21.191502 Si / 1000 Ang^3
#
#
#
# Elastic Constant Matrix: (Units=GPa)
#
#
# Indices 1 2 3 4 5 6 
#
# 1 66.5862 60.2608 12.3474 0.0000 -34.9546 0.0000
# 2 60.2608 166.9395 44.0047 0.0000 -47.5815 0.0000
# 3 12.3474 44.0047 102.6684 0.0000 -40.5969 0.0000
# 4 0.0000 0.0000 0.0000 25.6931 0.0000 -9.9653
# 5 -34.9546 -47.5815 -40.5969 0.0000 46.0752 0.0000
# 6 0.0000 0.0000 0.0000 -9.9653 0.0000 35.8859
#
#
#
# Elastic Compliance Matrix: (Units=1/GPa)
#
#
# Indices 1 2 3 4 5 6 
#
# 1 0.033578 -0.007055 0.009480 0.000000 0.026541 0.000000
# 2 -0.007055 0.009976 -0.002256 0.000000 0.002962 0.000000
# 3 0.009480 -0.002256 0.017633 0.000000 0.020399 0.000000
# 4 0.000000 0.000000 0.000000 0.043619 0.000000 0.012113
# 5 0.026541 0.002962 0.020399 0.000000 0.062871 0.000000
# 6 0.000000 0.000000 0.000000 0.012113 0.000000 0.031230
#
#
# Mechanical properties :
#
#
# Convention : Reuss Voigt Hill
#
# Bulk Modulus (GPa) = 16.25348 63.26885 39.76117
# Shear Modulus (GPa) = 22.82320 36.16960 29.49640
#
# Velocity S-wave (km/s) = 3.28532 4.13582 3.73486
# Velocity P-wave (km/s) = 4.69868 7.26136 6.11575
#
# Compressibility (1/GPa) = 0.06152530
#
# Stress axis : x y z
#
# Youngs Moduli (GPa) = 29.78181 100.24356 56.71200
#
# Poissons Ratio (x) = 0.70720 -0.53765
# Poissons Ratio (y) = 0.21010 0.12794
# Poissons Ratio (z) = -0.28234 0.22615
#
# Static dielectric constant tensor:
#      x y z
#    x 1.770610 0.000000 0.023540 
#    y 0.000000 1.810040 0.000000 
#    z 0.023540 0.000000 1.790140 
# 
# From -- ./inp_files/49313.got.cif
#   From: 2010.05.17/outbox.cif.g08.bks.cpg/sg11_25_cif.got.tgz:49313.got - 2010.06.03 12:22:45.
