data_PCOD9162767
_publ_section_title
;
Structure prediction by ZEFSAII (Michael W. Deem and Ramdas Pophale) SiO2 
 PCOD9162767
Probable space group: P 21/M
;
_chemical_formula_sum "Si O2"
_cell_formula_units_Z 28
_cell_length_a 31.367296
_cell_length_b 8.754286
_cell_length_c 10.403957
_cell_angle_alpha 90.000000
_cell_angle_beta 32.399198
_cell_angle_gamma 90.000000
_cell_volume 1530.774468
_symmetry_space_group_name_H-M "P 21/M"
_symmetry_group_IT_number 11
_symmetry_cell_setting 'monoclinic'
loop_
_space_group_symop_operation_xyz
x,y,z
-x,1/2+y,-z
-x,-y,-z
x,1/2-y,z
loop_
_atom_site_type_symbol
_atom_site_label
_atom_site_fract_x
_atom_site_fract_y
_atom_site_fract_z
Si Si1 0.489222 0.430813 0.169377
Si Si2 0.921095 0.432037 0.037674
Si Si3 0.764688 0.567555 0.321369
Si Si4 0.327436 0.932517 0.685865
Si Si5 0.092967 0.932052 0.621654
Si Si6 0.741633 0.567570 0.876890
Si Si7 0.332988 0.931138 0.190983
O O1 0.472544 0.250000 0.201094
O O2 0.416103 0.512108 0.425150
O O3 0.500000 0.500000 0.000000
O O4 0.572622 0.450132 0.030773
O O5 0.920903 0.250000 0.018714
O O6 0.853712 0.510865 0.124236
O O7 0.901063 0.460829 0.239556
O O8 0.008620 0.499904 0.792798
O O9 0.761453 0.750000 0.323670
O O10 0.729449 0.496123 0.281615
O O11 0.710965 0.507678 0.576370
O O12 0.324382 0.750000 0.695389
O O13 0.299591 0.999668 0.892209
O O14 0.094784 0.750000 0.597741
O O15 0.167464 0.010406 0.364233
O O16 0.738930 0.750000 0.885792
O O17 0.698032 0.504611 0.860896
O O18 0.314484 0.750000 0.238584
#
# Coordination Sequence:
#
# PCOD9162767 Si02
#       7
#     4   4   4   4   4   4   4
#     4  11  23  40  65  94 126 161 208 259 312 368
#     4  10  20  35  60  92 127 162 207 256 306 362
#     4  12  23  38  63  94 126 162 210 258 308 367
#     4  12  26  44  65  89 126 168 208 257 316 374
#     4  10  20  36  60  90 127 164 205 254 309 366
#     4  12  25  42  64  92 127 166 209 256 314 374
#     4  11  23  40  64  93 125 164 207 255 310 369
#
# _framework density 18.291395000000001
#
# number of rings (size 3 to 8) (size 9 to 14) (size 15 to 20)
#    0.000    0.857    2.857    5.571    0.000    3.429 
#    0.000    0.714    0.000    0.000    0.000    0.000 
#    0.000    0.000    0.000    0.000    0.000    0.000 
#
# Total GULP energy -156665.229698 kJ/mol
# GULP energy per Si atom -5595.186775 kJ/mol
# Density = 1.824976 g / cm^3
# Si number density = 18.291395 Si / 1000 Ang^3
#
#
#
# Elastic Constant Matrix: (Units=GPa)
#
#
# Indices 1 2 3 4 5 6 
#
# 1 79.5716 50.0028 41.8509 0.0000 1.9398 0.0000
# 2 50.0028 148.2708 64.8336 0.0000 -6.6688 0.0000
# 3 41.8509 64.8336 114.5501 0.0000 1.8865 0.0000
# 4 0.0000 0.0000 0.0000 36.7031 0.0000 -5.5164
# 5 1.9398 -6.6688 1.8865 0.0000 31.3100 0.0000
# 6 0.0000 0.0000 0.0000 -5.5164 0.0000 32.4571
#
#
#
# Elastic Compliance Matrix: (Units=1/GPa)
#
#
# Indices 1 2 3 4 5 6 
#
# 1 0.017311 -0.004203 -0.003917 0.000000 -0.001732 0.000000
# 2 -0.004203 0.010139 -0.004247 0.000000 0.002676 0.000000
# 3 -0.003917 -0.004247 0.012588 0.000000 -0.001420 0.000000
# 4 0.000000 0.000000 0.000000 0.027960 0.000000 0.004752
# 5 -0.001732 0.002676 -0.001420 0.000000 0.032702 0.000000
# 6 0.000000 0.000000 0.000000 0.004752 0.000000 0.031618
#
#
# Mechanical properties :
#
#
# Convention : Reuss Voigt Hill
#
# Bulk Modulus (GPa) = 65.34379 72.86301 69.10340
# Shear Modulus (GPa) = 30.83499 32.47439 31.65469
#
# Velocity S-wave (km/s) = 4.11026 4.21811 4.16454
# Velocity P-wave (km/s) = 7.63721 7.97774 7.80933
#
# Compressibility (1/GPa) = 0.01530367
#
# Stress axis : x y z
#
# Youngs Moduli (GPa) = 57.76700 98.62569 79.43926
#
# Poissons Ratio (x) = 0.41452 0.31118
# Poissons Ratio (y) = 0.24279 0.33740
# Poissons Ratio (z) = 0.22629 0.41889
#
# Static dielectric constant tensor:
#      x y z
#    x 1.607270 0.000000 -0.014220 
#    y 0.000000 1.613810 0.000000 
#    z -0.014220 0.000000 1.602660 
# 
# From -- ./inp_files/28299.got.cif
#   From: 2010.05.17/outbox.cif.g08.bks.cpg/sg11_15_cif.got.tgz:28299.got - 2010.06.03 12:22:45.
