data_PCOD9162974
_publ_section_title
;
Structure prediction by ZEFSAII (Michael W. Deem and Ramdas Pophale) SiO2 
 PCOD9162974
Probable space group: P 21/M
;
_chemical_formula_sum "Si O2"
_cell_formula_units_Z 30
_cell_length_a 15.373609
_cell_length_b 9.166394
_cell_length_c 11.931105
_cell_angle_alpha 90.000000
_cell_angle_beta 89.936758
_cell_angle_gamma 90.000000
_cell_volume 1681.336942
_symmetry_space_group_name_H-M "P 21/M"
_symmetry_group_IT_number 11
_symmetry_cell_setting 'monoclinic'
loop_
_space_group_symop_operation_xyz
x,y,z
-x,1/2+y,-z
-x,-y,-z
x,1/2-y,z
loop_
_atom_site_type_symbol
_atom_site_label
_atom_site_fract_x
_atom_site_fract_y
_atom_site_fract_z
Si Si1 0.780132 0.081390 0.793255
Si Si2 0.996162 0.250000 0.064108
Si Si3 0.592174 0.424360 0.874179
Si Si4 0.131259 0.003252 0.978228
Si Si5 0.588352 0.423719 0.139617
Si Si6 0.105855 0.575796 0.617183
Si Si7 0.092291 0.424187 0.375875
Si Si8 0.753727 0.581654 0.228093
O O1 0.785348 0.250000 0.755535
O O2 0.679388 0.037843 0.806226
O O3 0.820424 0.070761 0.917152
O O4 0.838147 0.981773 0.712970
O O5 0.067255 0.123763 0.028594
O O6 0.922931 0.378187 0.084251
O O7 0.577959 0.250000 0.863888
O O8 0.506885 0.510928 0.837014
O O9 0.605773 0.453914 0.007003
O O10 0.198681 0.072482 0.892081
O O11 0.590010 0.250000 0.154908
O O12 0.662404 0.499950 0.212860
O O13 0.118021 0.750000 0.613925
O O14 0.105101 0.508750 0.492251
O O15 0.180964 0.498057 0.686849
O O16 0.007484 0.547953 0.663126
O O17 0.099955 0.250000 0.391361
O O18 0.741662 0.750000 0.260144
#
# Coordination Sequence:
#
# PCOD9162974 Si02
#       8
#     4   2   4   4   4   4   4   4
#     4  11  22  36  58  82 116 153 192 233 283 344
#     4  10  24  36  48  72 120 158 192 228 280 340
#     4   9  19  36  55  81 115 151 188 234 284 341
#     4  11  23  36  51  80 115 156 192 231 281 341
#     4  10  20  36  57  82 114 151 189 235 286 343
#     4  10  23  41  61  82 112 154 197 241 287 335
#     4  10  23  40  60  85 114 150 196 243 285 334
#     4  12  24  36  57  84 116 151 193 237 285 344
#
# _framework density 17.842943999999999
#
# number of rings (size 3 to 8) (size 9 to 14) (size 15 to 20)
#    0.000    1.600    2.667    1.600    6.533    2.667 
#    0.000    0.000    0.000    0.800    0.000    0.000 
#    0.000    0.000    0.000    0.000    0.000    0.000 
#
# Total GULP energy -167013.062259 kJ/mol
# GULP energy per Si atom -5567.102075 kJ/mol
# Density = 1.780233 g / cm^3
# Si number density = 17.842944 Si / 1000 Ang^3
#
#
#
# Elastic Constant Matrix: (Units=GPa)
#
#
# Indices 1 2 3 4 5 6 
#
# 1 38.7307 92.0096 103.4193 0.0000 43.2947 0.0000
# 2 92.0096 111.9207 30.5430 0.0000 12.8172 0.0000
# 3 103.4193 30.5430 37.0690 0.0000 -7.9474 0.0000
# 4 0.0000 0.0000 0.0000 19.1595 0.0000 1.7324
# 5 43.2947 12.8172 -7.9474 0.0000 15.1013 0.0000
# 6 0.0000 0.0000 0.0000 1.7324 0.0000 30.4511
#
#
#
# Elastic Compliance Matrix: (Units=1/GPa)
#
#
# Indices 1 2 3 4 5 6 
#
# 1 -0.001427 -0.002132 0.007892 0.000000 0.010053 0.000000
# 2 -0.002132 0.013830 -0.007499 0.000000 -0.009572 0.000000
# 3 0.007892 -0.007499 0.008624 0.000000 -0.011723 0.000000
# 4 0.000000 0.000000 0.000000 0.052463 0.000000 -0.002985
# 5 0.010053 -0.009572 -0.011723 0.000000 0.039353 0.000000
# 6 0.000000 0.000000 0.000000 -0.002985 0.000000 0.033009
#
#
# Mechanical properties :
#
#
# Convention : Reuss Voigt Hill
#
# Bulk Modulus (GPa) = 56.98179 71.07382 64.02780
# Shear Modulus (GPa) = 32.22048 10.39229 21.30638
#
# Velocity S-wave (km/s) = 4.25406 2.41598 3.45933
# Velocity P-wave (km/s) = 7.49226 6.90667 7.20541
#
# Compressibility (1/GPa) = 0.01754947
#
# Stress axis : x y z
#
# Youngs Moduli (GPa) = -700.99114 72.30419 115.95917
#
# Poissons Ratio (x) = 0.15417 -0.91516
# Poissons Ratio (y) = -1.49470 0.86957
# Poissons Ratio (z) = 5.53231 0.54221
#
# Static dielectric constant tensor:
#      x y z
#    x 1.601160 0.000000 0.006270 
#    y 0.000000 1.586780 0.000000 
#    z 0.006270 0.000000 1.610030 
# 
# From -- ./inp_files/37570.got.cif
#   From: 2010.05.17/outbox.cif.g08.bks.cpg/sg11_19_cif.got.tgz:37570.got - 2010.06.03 12:22:45.
