data_PCOD9162420
_publ_section_title
;
Structure prediction by ZEFSAII (Michael W. Deem and Ramdas Pophale) SiO2 
 PCOD9162420
Probable space group: P 21/M
;
_chemical_formula_sum "Si O2"
_cell_formula_units_Z 32
_cell_length_a 15.808861
_cell_length_b 8.561349
_cell_length_c 23.583398
_cell_angle_alpha 90.000000
_cell_angle_beta 29.700795
_cell_angle_gamma 90.000000
_cell_volume 1581.492578
_symmetry_space_group_name_H-M "P 21/M"
_symmetry_group_IT_number 11
_symmetry_cell_setting 'monoclinic'
loop_
_space_group_symop_operation_xyz
x,y,z
-x,1/2+y,-z
-x,-y,-z
x,1/2-y,z
loop_
_atom_site_type_symbol
_atom_site_label
_atom_site_fract_x
_atom_site_fract_y
_atom_site_fract_z
Si Si1 0.721314 0.062504 0.537919
Si Si2 0.044637 0.565032 0.412195
Si Si3 0.406268 0.064600 0.796209
Si Si4 0.516172 0.566907 0.553504
Si Si5 0.158034 0.059173 0.032661
Si Si6 0.288085 0.438525 0.072458
Si Si7 0.665933 0.936868 0.829285
Si Si8 0.189150 0.564914 0.823346
O O1 0.726847 0.250000 0.537007
O O2 0.580006 0.003190 0.666472
O O3 0.902836 0.996816 0.450755
O O4 0.652876 0.013071 0.515993
O O5 0.040579 0.750000 0.416649
O O6 0.000000 0.500000 0.500000
O O7 0.228795 0.509489 0.283181
O O8 0.429923 0.250000 0.788162
O O9 0.329498 0.005633 0.900158
O O10 0.258065 0.029287 0.836870
O O11 0.500000 0.500000 0.500000
O O12 0.555965 0.750000 0.527473
O O13 0.334008 0.548640 0.690986
O O14 0.156339 0.250000 0.032223
O O15 0.161054 0.012038 0.096501
O O16 0.990477 0.008611 0.096569
O O17 0.298803 0.250000 0.065805
O O18 0.248976 0.484384 0.159700
O O19 0.472967 0.504248 0.947697
O O20 0.668932 0.750000 0.822926
O O21 0.177726 0.750000 0.844384
#
# Coordination Sequence:
#
# PCOD9162420 Si02
#       8
#     4   4   4   4   4   4   4   4
#     4  10  21  38  58  85 117 153 194 242 298 359
#     4  12  26  43  64  90 120 156 199 251 308 367
#     4   9  18  32  53  78 110 146 183 223 277 339
#     4  10  20  35  56  82 113 155 198 244 294 349
#     4   9  17  31  53  81 107 142 187 229 277 336
#     4   9  19  36  60  85 115 156 196 239 294 350
#     4  10  21  39  60  86 118 152 194 243 297 355
#     4   9  18  32  50  75 109 144 184 228 280 336
#
# _framework density 20.234051000000001
#
# number of rings (size 3 to 8) (size 9 to 14) (size 15 to 20)
#    0.000    2.250    0.000    2.625    1.750    2.500 
#    0.000    3.750    0.000    0.000    0.000    0.000 
#    0.000    0.000    0.000    0.000    0.000    0.000 
#
# Total GULP energy -178635.485878 kJ/mol
# GULP energy per Si atom -5582.358934 kJ/mol
# Density = 2.018800 g / cm^3
# Si number density = 20.234051 Si / 1000 Ang^3
#
#
#
# Elastic Constant Matrix: (Units=GPa)
#
#
# Indices 1 2 3 4 5 6 
#
# 1 30.7651 -1.0651 10.6571 0.0000 13.6380 0.0000
# 2 -1.0651 26.5418 16.2583 0.0000 8.6552 0.0000
# 3 10.6571 16.2583 50.8609 0.0000 8.9077 0.0000
# 4 0.0000 0.0000 0.0000 21.5615 0.0000 -3.0238
# 5 13.6380 8.6552 8.9077 0.0000 30.5059 0.0000
# 6 0.0000 0.0000 0.0000 -3.0238 0.0000 27.5809
#
#
#
# Elastic Compliance Matrix: (Units=1/GPa)
#
#
# Indices 1 2 3 4 5 6 
#
# 1 0.046662 0.015802 -0.010950 0.000000 -0.022147 0.000000
# 2 0.015802 0.054907 -0.017808 0.000000 -0.017443 0.000000
# 3 -0.010950 -0.017808 0.027302 0.000000 0.001975 0.000000
# 4 0.000000 0.000000 0.000000 0.047103 0.000000 0.005164
# 5 -0.022147 -0.017443 0.001975 0.000000 0.047053 0.000000
# 6 0.000000 0.000000 0.000000 0.005164 0.000000 0.036823
#
#
# Mechanical properties :
#
#
# Convention : Reuss Voigt Hill
#
# Bulk Modulus (GPa) = 9.71257 17.76318 13.73787
# Shear Modulus (GPa) = 15.62099 21.41750 18.51925
#
# Velocity S-wave (km/s) = 2.78153 3.25697 3.02859
# Velocity P-wave (km/s) = 3.88927 4.78975 4.36281
#
# Compressibility (1/GPa) = 0.10295939
#
# Stress axis : x y z
#
# Youngs Moduli (GPa) = 21.43076 18.21269 36.62694
#
# Poissons Ratio (x) = -0.28779 0.40106
# Poissons Ratio (y) = -0.33864 0.65224
# Poissons Ratio (z) = 0.23466 0.32433
#
# Static dielectric constant tensor:
#      x y z
#    x 1.920120 0.000000 -0.124610 
#    y 0.000000 1.690690 0.000000 
#    z -0.124610 0.000000 1.821510 
# 
# From -- ./inp_files/69005.got.cif
#   From: 2010.05.17/outbox.cif.g08.bks.cpg/sg11_35_cif.got.tgz:69005.got - 2010.06.03 12:22:45.
