data_PCOD9162830
_publ_section_title
;
Structure prediction by ZEFSAII (Michael W. Deem and Ramdas Pophale) SiO2 
 PCOD9162830
Probable space group: P 21/M
;
_chemical_formula_sum "Si O2"
_cell_formula_units_Z 24
_cell_length_a 13.432792
_cell_length_b 8.015248
_cell_length_c 11.784471
_cell_angle_alpha 90.000000
_cell_angle_beta 89.432398
_cell_angle_gamma 90.000000
_cell_volume 1268.738256
_symmetry_space_group_name_H-M "P 21/M"
_symmetry_group_IT_number 11
_symmetry_cell_setting 'monoclinic'
loop_
_space_group_symop_operation_xyz
x,y,z
-x,1/2+y,-z
-x,-y,-z
x,1/2-y,z
loop_
_atom_site_type_symbol
_atom_site_label
_atom_site_fract_x
_atom_site_fract_y
_atom_site_fract_z
Si Si1 0.616367 0.949543 0.130486
Si Si2 0.195320 0.439316 0.756865
Si Si3 0.001810 0.950030 0.369098
Si Si4 0.110871 0.939700 0.980616
Si Si5 0.392999 0.049380 0.130681
Si Si6 0.187591 0.448214 0.215432
O O1 0.631509 0.750000 0.128081
O O2 0.695284 0.017598 0.222604
O O3 0.501805 0.984182 0.160501
O O4 0.630540 0.010696 0.999181
O O5 0.207977 0.250000 0.713101
O O6 0.158529 0.441188 0.887289
O O7 0.101138 0.513315 0.689142
O O8 0.001781 0.750000 0.356284
O O9 0.104124 0.012358 0.309847
O O10 0.000000 0.000000 0.500000
O O11 0.115528 0.750000 0.938414
O O12 0.157950 0.954924 0.102726
O O13 0.000000 0.000000 0.000000
O O14 0.399657 0.250000 0.123256
O O15 0.305239 0.010026 0.221249
O O16 0.181467 0.250000 0.193500
#
# Coordination Sequence:
#
# PCOD9162830 Si02
#       6
#     4   4   4   4   4   4
#     4   9  17  31  50  76 112 147 179 215 259 318
#     4  10  20  36  55  78 109 145 181 222 271 324
#     4  11  24  40  59  80 106 141 184 230 281 330
#     4  12  22  31  49  79 112 145 179 217 269 329
#     4   9  18  31  49  77 113 148 177 214 263 317
#     4  11  21  36  56  79 112 146 182 225 270 324
#
# _framework density 18.916432
#
# number of rings (size 3 to 8) (size 9 to 14) (size 15 to 20)
#    0.000    1.667    3.333    2.500    0.000    2.667 
#    0.000    0.000    0.000    1.000    0.000    0.000 
#    0.000    0.000    0.000    0.000    0.000    0.000 
#
# Total GULP energy -133673.545906 kJ/mol
# GULP energy per Si atom -5569.731079 kJ/mol
# Density = 1.887338 g / cm^3
# Si number density = 18.916432 Si / 1000 Ang^3
#
#
#
# Elastic Constant Matrix: (Units=GPa)
#
#
# Indices 1 2 3 4 5 6 
#
# 1 186.3595 16.6852 55.6459 0.0000 2.6925 0.0000
# 2 16.6852 49.7714 2.1311 0.0000 0.6333 0.0000
# 3 55.6459 2.1311 73.9551 0.0000 2.0692 0.0000
# 4 0.0000 0.0000 0.0000 18.5226 0.0000 -4.4892
# 5 2.6925 0.6333 2.0692 0.0000 9.2641 0.0000
# 6 0.0000 0.0000 0.0000 -4.4892 0.0000 25.2171
#
#
#
# Elastic Compliance Matrix: (Units=1/GPa)
#
#
# Indices 1 2 3 4 5 6 
#
# 1 0.007152 -0.002161 -0.005298 0.000000 -0.000748 0.000000
# 2 -0.002161 0.020784 0.001056 0.000000 -0.001029 0.000000
# 3 -0.005298 0.001056 0.017547 0.000000 -0.002451 0.000000
# 4 0.000000 0.000000 0.000000 0.056422 0.000000 0.010044
# 5 -0.000748 -0.001029 -0.002451 0.000000 0.108779 0.000000
# 6 0.000000 0.000000 0.000000 0.010044 0.000000 0.041444
#
#
# Mechanical properties :
#
#
# Convention : Reuss Voigt Hill
#
# Bulk Modulus (GPa) = 30.60362 51.00117 40.80239
# Shear Modulus (GPa) = 18.12725 26.30901 22.21813
#
# Velocity S-wave (km/s) = 3.09897 3.73339 3.43088
# Velocity P-wave (km/s) = 5.38686 6.75308 6.10829
#
# Compressibility (1/GPa) = 0.03267587
#
# Stress axis : x y z
#
# Youngs Moduli (GPa) = 139.81380 48.11324 56.99123
#
# Poissons Ratio (x) = 0.10399 0.30196
# Poissons Ratio (y) = 0.30219 -0.06019
# Poissons Ratio (z) = 0.74080 -0.05081
#
# Static dielectric constant tensor:
#      x y z
#    x 1.749040 0.000000 0.015150 
#    y 0.000000 1.690520 0.000000 
#    z 0.015150 0.000000 1.607620 
# 
# From -- ./inp_files/33777.got.cif
#   From: 2010.05.17/outbox.cif.g08.bks.cpg/sg11_17_cif.got.tgz:33777.got - 2010.06.03 12:22:45.
