data_PCOD9162735
_publ_section_title
;
Structure prediction by ZEFSAII (Michael W. Deem and Ramdas Pophale) SiO2 
 PCOD9162735
Probable space group: P 21/M
;
_chemical_formula_sum "Si O2"
_cell_formula_units_Z 30
_cell_length_a 5.291588
_cell_length_b 12.300910
_cell_length_c 25.710611
_cell_angle_alpha 90.000000
_cell_angle_beta 125.026295
_cell_angle_gamma 90.000000
_cell_volume 1370.441661
_symmetry_space_group_name_H-M "P 21/M"
_symmetry_group_IT_number 11
_symmetry_cell_setting 'monoclinic'
loop_
_space_group_symop_operation_xyz
x,y,z
-x,1/2+y,-z
-x,-y,-z
x,1/2-y,z
loop_
_atom_site_type_symbol
_atom_site_label
_atom_site_fract_x
_atom_site_fract_y
_atom_site_fract_z
Si Si1 0.146192 0.875659 0.871719
Si Si2 0.096013 0.377235 0.273435
Si Si3 0.676624 0.750000 0.076669
Si Si4 0.942846 0.411495 0.571133
Si Si5 0.228180 0.363029 0.493581
Si Si6 0.226184 0.921912 0.152534
Si Si7 0.346502 0.017590 0.706133
Si Si8 0.664615 0.048515 0.948848
O O1 0.137907 0.750000 0.885540
O O2 0.098317 0.880190 0.803457
O O3 0.444051 0.944652 0.922092
O O4 0.871384 0.950885 0.861227
O O5 0.154262 0.250000 0.292637
O O6 0.407136 0.444412 0.296872
O O7 0.897951 0.439153 0.293652
O O8 0.442815 0.650827 0.029799
O O9 0.930229 0.845449 0.124403
O O10 0.598432 0.369546 0.539946
O O11 0.897380 0.539215 0.554960
O O12 0.089518 0.369299 0.535038
O O13 0.167077 0.402494 0.646214
O O14 0.134703 0.250000 0.457731
O O15 0.348001 0.895041 0.109810
O O16 0.467569 0.916625 0.227617
O O17 0.000000 0.000000 0.000000
#
# Coordination Sequence:
#
# PCOD9162735 Si02
#       8
#     4   4   2   4   4   4   4   4
#     4   9  20  37  59  89 119 158 200 255 329 383
#     4  10  20  35  59  90 129 165 205 260 323 394
#     4  10  24  44  62  88 124 166 216 264 330 386
#     4  10  22  39  62  94 125 166 215 268 307 385
#     4  10  21  41  62  87 130 167 209 263 321 369
#     4  10  22  43  61  85 128 165 200 273 322 387
#     4  11  21  39  63  91 130 166 213 265 322 385
#     4  11  23  41  63  89 119 162 217 264 318 391
#
# _framework density 21.890753
#
# number of rings (size 3 to 8) (size 9 to 14) (size 15 to 20)
#    0.000    1.867    1.333    2.000    0.933    4.267 
#    4.800    0.000    0.000    0.000    0.000    0.000 
#    0.000    0.000    0.000    0.000    0.000    0.000 
#
# Total GULP energy -167085.451257 kJ/mol
# GULP energy per Si atom -5569.515042 kJ/mol
# Density = 2.184093 g / cm^3
# Si number density = 21.890753 Si / 1000 Ang^3
#
#
#
# Elastic Constant Matrix: (Units=GPa)
#
#
# Indices 1 2 3 4 5 6 
#
# 1 93.8710 -7.2300 10.9482 0.0000 12.6090 0.0000
# 2 -7.2300 113.1805 4.3498 0.0000 1.8875 0.0000
# 3 10.9482 4.3498 78.8602 0.0000 9.5840 0.0000
# 4 0.0000 0.0000 0.0000 -206.5323 0.0000 26.2402
# 5 12.6090 1.8875 9.5840 0.0000 12.9234 0.0000
# 6 0.0000 0.0000 0.0000 26.2402 0.0000 45.7991
#
#
#
# Elastic Compliance Matrix: (Units=1/GPa)
#
#
# Indices 1 2 3 4 5 6 
#
# 1 0.012377 0.001003 -0.000317 0.000000 -0.011988 0.000000
# 2 0.001003 0.008948 -0.000390 0.000000 -0.001996 0.000000
# 3 -0.000317 -0.000390 0.013960 0.000000 -0.009987 0.000000
# 4 0.000000 0.000000 0.000000 -0.004513 0.000000 0.002586
# 5 -0.011988 -0.001996 -0.009987 0.000000 0.096772 0.000000
# 6 0.000000 0.000000 0.000000 0.002586 0.000000 0.020353
#
#
# Mechanical properties :
#
#
# Convention : Reuss Voigt Hill
#
# Bulk Modulus (GPa) = 27.87339 33.56084 30.71711
# Shear Modulus (GPa) = 31.39439 -11.03902 10.17768
#
# Velocity S-wave (km/s) = 3.79111 -2.24805 2.15856
# Velocity P-wave (km/s) = 5.65013 2.93701 4.50278
#
# Compressibility (1/GPa) = 0.03587651
#
# Stress axis : x y z
#
# Youngs Moduli (GPa) = 80.79292 111.75951 71.63407
#
# Poissons Ratio (x) = -0.11207 0.02269
# Poissons Ratio (y) = -0.08102 0.02795
# Poissons Ratio (z) = 0.02559 0.04361
#
# Static dielectric constant tensor:
#      x y z
#    x 1.875810 0.000000 -0.016870 
#    y 0.000000 1.760220 0.000000 
#    z -0.016870 0.000000 1.788910 
# 
# From -- ./inp_files/72643.got.cif
#   From: 2010.05.17/outbox.cif.g08.bks.cpg/sg11_37_cif.got.tgz:72643.got - 2010.06.03 12:22:45.
