data_PCOD9162686
_publ_section_title
;
Structure prediction by ZEFSAII (Michael W. Deem and Ramdas Pophale) SiO2 
 PCOD9162686
Probable space group: P 21/M
;
_chemical_formula_sum "Si O2"
_cell_formula_units_Z 20
_cell_length_a 5.093051
_cell_length_b 18.151950
_cell_length_c 9.898538
_cell_angle_alpha 90.000000
_cell_angle_beta 78.542680
_cell_angle_gamma 90.000000
_cell_volume 896.872620
_symmetry_space_group_name_H-M "P 21/M"
_symmetry_group_IT_number 11
_symmetry_cell_setting 'monoclinic'
loop_
_space_group_symop_operation_xyz
x,y,z
-x,1/2+y,-z
-x,-y,-z
x,1/2-y,z
loop_
_atom_site_type_symbol
_atom_site_label
_atom_site_fract_x
_atom_site_fract_y
_atom_site_fract_z
Si Si1 0.259987 0.535904 0.303641
Si Si2 0.338732 0.165415 0.457024
Si Si3 0.100941 0.162447 0.774395
Si Si4 0.148023 0.919361 0.612428
Si Si5 0.276575 0.035111 0.923309
O O1 0.239009 0.539173 0.466478
O O2 0.560523 0.518504 0.231231
O O3 0.152480 0.611827 0.246852
O O4 0.047406 0.472800 0.284373
O O5 0.395486 0.250000 0.429009
O O6 0.300094 0.155101 0.623670
O O7 0.581670 0.119577 0.369254
O O8 0.058346 0.142811 0.419848
O O9 0.047072 0.250000 0.796011
O O10 0.211821 0.121721 0.897836
O O11 0.500000 0.000000 0.000000
O O12 0.000000 0.000000 0.000000
#
# Coordination Sequence:
#
# PCOD9162686 Si02
#       5
#     4   4   4   4   4
#     4  10  22  38  63  94 126 161 202 246 316 358
#     4  10  20  35  58  93 129 163 200 250 306 354
#     4  10  22  40  65  95 123 154 207 266 312 354
#     4  10  21  34  62  91 131 159 200 249 299 376
#     4  12  24  41  63  90 126 163 207 257 308 370
#
# _framework density 22.299710000000001
#
# number of rings (size 3 to 8) (size 9 to 14) (size 15 to 20)
#    0.000    1.600    4.000    0.600    2.800    4.000 
#    0.000    0.000    0.000    7.200    0.000    0.000 
#    0.000    0.000    0.000    0.000    0.000    0.000 
#
# Total GULP energy -111467.508936 kJ/mol
# GULP energy per Si atom -5573.375447 kJ/mol
# Density = 2.224896 g / cm^3
# Si number density = 22.299710 Si / 1000 Ang^3
#
#
#
# Elastic Constant Matrix: (Units=GPa)
#
#
# Indices 1 2 3 4 5 6 
#
# 1 127.7424 37.2937 13.9934 0.0000 -31.2515 0.0000
# 2 37.2937 160.4658 41.9147 0.0000 -11.5062 0.0000
# 3 13.9934 41.9147 51.3238 0.0000 -18.4173 0.0000
# 4 0.0000 0.0000 0.0000 35.9659 0.0000 2.9407
# 5 -31.2515 -11.5062 -18.4173 0.0000 45.1114 0.0000
# 6 0.0000 0.0000 0.0000 2.9407 0.0000 27.4807
#
#
#
# Elastic Compliance Matrix: (Units=1/GPa)
#
#
# Indices 1 2 3 4 5 6 
#
# 1 0.010029 -0.002252 0.001631 0.000000 0.007039 0.000000
# 2 -0.002252 0.008448 -0.007114 0.000000 -0.002310 0.000000
# 3 0.001631 -0.007114 0.028827 0.000000 0.011084 0.000000
# 4 0.000000 0.000000 0.000000 0.028050 0.000000 -0.003002
# 5 0.007039 -0.002310 0.011084 0.000000 0.030980 0.000000
# 6 0.000000 0.000000 0.000000 -0.003002 0.000000 0.036710
#
#
# Mechanical properties :
#
#
# Convention : Reuss Voigt Hill
#
# Bulk Modulus (GPa) = 31.41370 58.43730 44.92550
# Shear Modulus (GPa) = 29.56387 38.13361 33.84874
#
# Velocity S-wave (km/s) = 3.64504 4.13976 3.90025
# Velocity P-wave (km/s) = 5.64205 7.00803 6.36181
#
# Compressibility (1/GPa) = 0.03183324
#
# Stress axis : x y z
#
# Youngs Moduli (GPa) = 99.70877 118.37329 34.69000
#
# Poissons Ratio (x) = 0.26659 -0.05657
# Poissons Ratio (y) = 0.22455 0.24678
# Poissons Ratio (z) = -0.16260 0.84210
#
# Static dielectric constant tensor:
#      x y z
#    x 1.910520 0.000000 0.110980 
#    y 0.000000 1.867630 0.000000 
#    z 0.110980 0.000000 1.963440 
# 
# From -- ./inp_files/4496.got.cif
#   From: 2010.05.17/outbox.cif.g08.bks.cpg/sg11_3_cif.got.tgz:4496.got - 2010.06.03 12:22:45.
