data_PCOD9162129
_publ_section_title
;
Structure prediction by ZEFSAII (Michael W. Deem and Ramdas Pophale) SiO2 
 PCOD9162129
Probable space group: P 21/M
;
_chemical_formula_sum "Si O2"
_cell_formula_units_Z 30
_cell_length_a 12.202903
_cell_length_b 15.095721
_cell_length_c 7.588707
_cell_angle_alpha 90.000000
_cell_angle_beta 73.055223
_cell_angle_gamma 90.000000
_cell_volume 1337.238506
_symmetry_space_group_name_H-M "P 21/M"
_symmetry_group_IT_number 11
_symmetry_cell_setting 'monoclinic'
loop_
_space_group_symop_operation_xyz
x,y,z
-x,1/2+y,-z
-x,-y,-z
x,1/2-y,z
loop_
_atom_site_type_symbol
_atom_site_label
_atom_site_fract_x
_atom_site_fract_y
_atom_site_fract_z
Si Si1 0.439242 0.348401 0.210783
Si Si2 0.775561 0.008162 0.420267
Si Si3 0.983129 0.411049 0.120716
Si Si4 0.647653 0.850056 0.344543
Si Si5 0.396850 0.649130 0.361134
Si Si6 0.326966 0.896619 0.002732
Si Si7 0.158196 0.750000 0.944243
Si Si8 0.215101 0.068945 0.193081
O O1 0.481279 0.250000 0.147720
O O2 0.401511 0.350929 0.431607
O O3 0.326141 0.369082 0.153190
O O4 0.545342 0.412777 0.128665
O O5 0.882953 0.064427 0.306004
O O6 0.667605 0.074399 0.495871
O O7 0.740227 0.928044 0.306407
O O8 0.802899 0.965671 0.598162
O O9 0.100614 0.390847 0.168120
O O10 0.939235 0.328254 0.030891
O O11 0.000000 0.500000 0.000000
O O12 0.690381 0.750000 0.288545
O O13 0.532853 0.866699 0.286865
O O14 0.380020 0.750000 0.437165
O O15 0.343415 0.641938 0.192214
O O16 0.257315 0.827199 0.921139
O O17 0.254035 0.984638 0.061774
#
# Coordination Sequence:
#
# PCOD9162129 Si02
#       8
#     4   4   4   4   4   4   2   4
#     4  10  20  35  65  96 132 166 203 264 317 376
#     4  10  23  41  64  91 128 166 214 266 319 381
#     4  12  27  45  68  91 126 172 216 269 312 383
#     4   9  20  37  59  94 130 164 208 257 318 382
#     4  10  20  34  61  93 129 168 210 259 318 376
#     4  11  21  41  63  93 131 167 212 262 313 377
#     4  12  26  44  66  94 130 164 222 260 320 372
#     4  10  23  44  63  94 130 170 214 260 326 378
#
# _framework density 22.434294000000001
#
# number of rings (size 3 to 8) (size 9 to 14) (size 15 to 20)
#    0.000    1.600    2.667    1.200    3.733    1.067 
#    1.200    0.000    0.000    0.000    0.000    0.000 
#    0.000    0.000    0.000    0.000    0.000    0.000 
#
# Total GULP energy -167332.428890 kJ/mol
# GULP energy per Si atom -5577.747630 kJ/mol
# Density = 2.238323 g / cm^3
# Si number density = 22.434294 Si / 1000 Ang^3
#
#
#
# Elastic Constant Matrix: (Units=GPa)
#
#
# Indices 1 2 3 4 5 6 
#
# 1 138.2361 26.4153 8.0139 0.0000 7.7446 0.0000
# 2 26.4153 78.1853 15.9278 0.0000 5.4183 0.0000
# 3 8.0139 15.9278 40.0573 0.0000 -1.1782 0.0000
# 4 0.0000 0.0000 0.0000 12.7273 0.0000 -2.5273
# 5 7.7446 5.4183 -1.1782 0.0000 18.8521 0.0000
# 6 0.0000 0.0000 0.0000 -2.5273 0.0000 48.2780
#
#
#
# Elastic Compliance Matrix: (Units=1/GPa)
#
#
# Indices 1 2 3 4 5 6 
#
# 1 0.007867 -0.002330 -0.000724 0.000000 -0.002608 0.000000
# 2 -0.002330 0.014974 -0.005596 0.000000 -0.003696 0.000000
# 3 -0.000724 -0.005596 0.027441 0.000000 0.003621 0.000000
# 4 0.000000 0.000000 0.000000 0.079397 0.000000 0.004156
# 5 -0.002608 -0.003696 0.003621 0.000000 0.055404 0.000000
# 6 0.000000 0.000000 0.000000 0.004156 0.000000 0.020931
#
#
# Mechanical properties :
#
#
# Convention : Reuss Voigt Hill
#
# Bulk Modulus (GPa) = 30.32071 39.68807 35.00439
# Shear Modulus (GPa) = 21.33940 29.71292 25.52616
#
# Velocity S-wave (km/s) = 3.08749 3.64324 3.37682
# Velocity P-wave (km/s) = 5.12395 5.95204 5.55345
#
# Compressibility (1/GPa) = 0.03298076
#
# Stress axis : x y z
#
# Youngs Moduli (GPa) = 127.10901 66.78460 36.44188
#
# Poissons Ratio (x) = 0.15559 0.02639
# Poissons Ratio (y) = 0.29613 0.20395
# Poissons Ratio (z) = 0.09206 0.37376
#
# Static dielectric constant tensor:
#      x y z
#    x 1.806830 0.000000 0.031040 
#    y 0.000000 1.822500 0.000000 
#    z 0.031040 0.000000 1.875190 
# 
# From -- ./inp_files/18028.got.cif
#   From: 2010.05.17/outbox.cif.g08.bks.cpg/sg11_10_cif.got.tgz:18028.got - 2010.06.03 12:22:45.
