data_PCOD9162083
_publ_section_title
;
Structure prediction by ZEFSAII (Michael W. Deem and Ramdas Pophale) SiO2 
 PCOD9162083
Probable space group: P 21/M
;
_chemical_formula_sum "Si O2"
_cell_formula_units_Z 22
_cell_length_a 10.704575
_cell_length_b 14.451677
_cell_length_c 13.988850
_cell_angle_alpha 90.000000
_cell_angle_beta 27.862891
_cell_angle_gamma 90.000000
_cell_volume 1011.390202
_symmetry_space_group_name_H-M "P 21/M"
_symmetry_group_IT_number 11
_symmetry_cell_setting 'monoclinic'
loop_
_space_group_symop_operation_xyz
x,y,z
-x,1/2+y,-z
-x,-y,-z
x,1/2-y,z
loop_
_atom_site_type_symbol
_atom_site_label
_atom_site_fract_x
_atom_site_fract_y
_atom_site_fract_z
Si Si1 0.752110 0.750000 0.471294
Si Si2 0.137230 0.595606 0.293427
Si Si3 0.981190 0.250000 0.903323
Si Si4 0.262151 0.934469 0.621443
Si Si5 0.722463 0.440502 0.604972
Si Si6 0.265041 0.937467 0.007632
Si Si7 0.184345 0.750000 0.796033
O O1 0.439310 0.750000 0.694799
O O2 0.904602 0.662919 0.412780
O O3 0.784537 0.750000 0.334345
O O4 0.247250 0.624806 0.322534
O O5 0.999800 0.496515 0.403500
O O6 0.339360 0.588098 0.067499
O O7 0.826808 0.343785 0.980417
O O8 0.054933 0.250000 0.964953
O O9 0.205727 0.842958 0.720835
O O10 0.500000 0.000000 0.500000
O O11 0.332745 0.906386 0.464547
O O12 0.993245 0.996174 0.809418
O O13 0.494492 0.511935 0.793588
#
# Coordination Sequence:
#
# PCOD9162083 Si02
#       7
#     2   4   2   4   4   4   2
#     4  10  20  37  58  81 108 142 195 245 285 346
#     4   9  19  35  58  85 110 144 193 241 291 347
#     4  10  20  34  58  84 108 148 194 236 280 330
#     4  11  24  39  57  85 120 156 197 239 283 346
#     4  10  20  36  58  83 116 154 186 237 299 339
#     4  10  20  37  60  87 116 151 196 243 290 340
#     4  12  24  39  58  85 116 152 199 239 285 350
#
# _framework density 21.752238999999999
#
# number of rings (size 3 to 8) (size 9 to 14) (size 15 to 20)
#    0.000    1.818    0.000    6.000    0.000    5.091 
#    0.000    0.909    0.000    5.455    0.000    0.000 
#    0.000    0.000    0.000    0.000    0.000    0.000 
#
# Total GULP energy -122751.866311 kJ/mol
# GULP energy per Si atom -5579.630287 kJ/mol
# Density = 2.170273 g / cm^3
# Si number density = 21.752239 Si / 1000 Ang^3
#
#
#
# Elastic Constant Matrix: (Units=GPa)
#
#
# Indices 1 2 3 4 5 6 
#
# 1 116.5120 44.1396 42.5411 0.0000 48.2891 0.0000
# 2 44.1396 97.0068 26.6049 0.0000 23.5172 0.0000
# 3 42.5411 26.6049 100.9450 0.0000 33.4160 0.0000
# 4 0.0000 0.0000 0.0000 27.2410 0.0000 5.1783
# 5 48.2891 23.5172 33.4160 0.0000 50.3047 0.0000
# 6 0.0000 0.0000 0.0000 5.1783 0.0000 14.9283
#
#
#
# Elastic Compliance Matrix: (Units=1/GPa)
#
#
# Indices 1 2 3 4 5 6 
#
# 1 0.015629 -0.003720 -0.001558 0.000000 -0.012229 0.000000
# 2 -0.003720 0.012722 -0.001280 0.000000 -0.001527 0.000000
# 3 -0.001558 -0.001280 0.013084 0.000000 -0.006598 0.000000
# 4 0.000000 0.000000 0.000000 0.039301 0.000000 -0.013633
# 5 -0.012229 -0.001527 -0.006598 0.000000 0.036714 0.000000
# 6 0.000000 0.000000 0.000000 -0.013633 0.000000 0.071716
#
#
# Mechanical properties :
#
#
# Convention : Reuss Voigt Hill
#
# Bulk Modulus (GPa) = 35.31026 60.11501 47.71263
# Shear Modulus (GPa) = 23.61581 31.90666 27.76123
#
# Velocity S-wave (km/s) = 3.29853 3.83407 3.57634
# Velocity P-wave (km/s) = 5.54754 6.87723 6.24786
#
# Compressibility (1/GPa) = 0.02832038
#
# Stress axis : x y z
#
# Youngs Moduli (GPa) = 63.98239 78.60269 76.42711
#
# Poissons Ratio (x) = 0.29237 0.11908
# Poissons Ratio (y) = 0.23799 0.09784
# Poissons Ratio (z) = 0.09969 0.10062
#
# Static dielectric constant tensor:
#      x y z
#    x 1.888130 0.000000 0.032300 
#    y 0.000000 1.770790 0.000000 
#    z 0.032300 0.000000 1.790020 
# 
# From -- ./inp_files/50209.got.cif
#   From: 2010.05.17/outbox.cif.g08.bks.cpg/sg11_26_cif.got.tgz:50209.got - 2010.06.03 12:22:45.
