data_PCOD9162004
_publ_section_title
;
Structure prediction by ZEFSAII (Michael W. Deem and Ramdas Pophale) SiO2 
 PCOD9162004
Probable space group: P 21/M
;
_chemical_formula_sum "Si O2"
_cell_formula_units_Z 32
_cell_length_a 28.799486
_cell_length_b 8.731899
_cell_length_c 22.308713
_cell_angle_alpha 90.000000
_cell_angle_beta 161.214549
_cell_angle_gamma 90.000000
_cell_volume 1806.583152
_symmetry_space_group_name_H-M "P 21/M"
_symmetry_group_IT_number 11
_symmetry_cell_setting 'monoclinic'
loop_
_space_group_symop_operation_xyz
x,y,z
-x,1/2+y,-z
-x,-y,-z
x,1/2-y,z
loop_
_atom_site_type_symbol
_atom_site_label
_atom_site_fract_x
_atom_site_fract_y
_atom_site_fract_z
Si Si1 0.661408 0.432221 0.199927
Si Si2 0.433531 0.933867 0.606889
Si Si3 0.840403 0.933507 0.308000
Si Si4 0.413177 0.433875 0.086544
Si Si5 0.693366 0.567909 0.364940
Si Si6 0.594812 0.066503 0.562420
Si Si7 0.850224 0.567911 0.678643
Si Si8 0.084355 0.432227 0.045830
O O1 0.654829 0.250000 0.186205
O O2 0.755917 0.502357 0.262261
O O3 0.723277 0.480679 0.340114
O O4 0.500000 0.500000 0.000000
O O5 0.409425 0.750000 0.579695
O O6 0.554165 0.971219 0.804159
O O7 0.465771 0.974866 0.577782
O O8 0.286671 0.014480 0.449007
O O9 0.846977 0.750000 0.319641
O O10 0.741756 0.974871 0.129735
O O11 0.000000 0.000000 0.500000
O O12 0.431086 0.250000 0.101359
O O13 0.537997 0.514452 0.200335
O O14 0.690133 0.750000 0.350423
O O15 0.805675 0.535188 0.555671
O O16 0.598372 0.250000 0.571049
O O17 0.500000 0.000000 0.500000
O O18 0.756775 0.002320 0.763129
O O19 0.869568 0.750000 0.709275
O O20 0.989594 0.480661 0.872750
O O21 0.092070 0.250000 0.060691
O O22 0.000000 0.500000 0.000000
#
# Coordination Sequence:
#
# PCOD9162004 Si02
#       8
#     4   4   4   4   4   4   4   4
#     4  12  23  37  59  86 117 153 194 242 291 345
#     4   9  18  34  57  83 111 147 192 239 289 347
#     4  11  23  39  59  85 118 156 196 244 294 351
#     4   9  18  34  57  83 111 147 192 239 289 347
#     4  10  20  34  56  87 119 150 190 241 294 347
#     4  11  23  39  59  85 118 156 196 244 294 351
#     4  10  20  34  56  87 119 150 190 241 294 347
#     4  12  23  37  59  86 117 153 194 242 291 345
#
# _framework density 17.712997000000001
#
# number of rings (size 3 to 8) (size 9 to 14) (size 15 to 20)
#    0.000    1.500    2.500    3.750    0.000    2.500 
#    0.000    1.250    0.000    4.500    0.000    0.000 
#    0.000    0.000    0.000    0.000    0.000    0.000 
#
# Total GULP energy -178745.096938 kJ/mol
# GULP energy per Si atom -5585.784279 kJ/mol
# Density = 1.767268 g / cm^3
# Si number density = 17.712997 Si / 1000 Ang^3
#
#
#
# Elastic Constant Matrix: (Units=GPa)
#
#
# Indices 1 2 3 4 5 6 
#
# 1 136.3873 56.9684 81.4137 0.0000 -6.6419 0.0000
# 2 56.9684 80.4006 58.1223 0.0000 -7.5239 0.0000
# 3 81.4137 58.1223 138.4511 0.0000 -6.6379 0.0000
# 4 0.0000 0.0000 0.0000 30.1215 0.0000 1.7709
# 5 -6.6419 -7.5239 -6.6379 0.0000 27.9821 0.0000
# 6 0.0000 0.0000 0.0000 1.7709 0.0000 30.3913
#
#
#
# Elastic Compliance Matrix: (Units=1/GPa)
#
#
# Indices 1 2 3 4 5 6 
#
# 1 0.012624 -0.005106 -0.005262 0.000000 0.000375 0.000000
# 2 -0.005106 0.020184 -0.005330 0.000000 0.002951 0.000000
# 3 -0.005262 -0.005330 0.012569 0.000000 0.000300 0.000000
# 4 0.000000 0.000000 0.000000 0.033313 0.000000 -0.001941
# 5 0.000375 0.002951 0.000300 0.000000 0.036691 0.000000
# 6 0.000000 0.000000 0.000000 -0.001941 0.000000 0.033017
#
#
# Mechanical properties :
#
#
# Convention : Reuss Voigt Hill
#
# Bulk Modulus (GPa) = 71.51814 83.13863 77.32839
# Shear Modulus (GPa) = 27.10707 28.28129 27.69418
#
# Velocity S-wave (km/s) = 3.91621 4.00013 3.95840
# Velocity P-wave (km/s) = 7.80466 8.26881 8.04008
#
# Compressibility (1/GPa) = 0.01398247
#
# Stress axis : x y z
#
# Youngs Moduli (GPa) = 79.21414 49.54297 79.56284
#
# Poissons Ratio (x) = 0.25296 0.41865
# Poissons Ratio (y) = 0.40446 0.42404
# Poissons Ratio (z) = 0.41681 0.26405
#
# Static dielectric constant tensor:
#      x y z
#    x 1.593460 0.000000 -0.045970 
#    y 0.000000 1.589610 0.000000 
#    z -0.045970 0.000000 1.600480 
# 
# From -- ./inp_files/67300.got.cif
#   From: 2010.05.17/outbox.cif.g08.bks.cpg/sg11_34_cif.got.tgz:67300.got - 2010.06.03 12:22:45.
