data_PCOD9162957
_publ_section_title
;
Structure prediction by ZEFSAII (Michael W. Deem and Ramdas Pophale) SiO2 
 PCOD9162957
Probable space group: P 21/M
;
_chemical_formula_sum "Si O2"
_cell_formula_units_Z 28
_cell_length_a 15.109766
_cell_length_b 8.742566
_cell_length_c 22.399378
_cell_angle_alpha 90.000000
_cell_angle_beta 30.524415
_cell_angle_gamma 90.000000
_cell_volume 1502.849573
_symmetry_space_group_name_H-M "P 21/M"
_symmetry_group_IT_number 11
_symmetry_cell_setting 'monoclinic'
loop_
_space_group_symop_operation_xyz
x,y,z
-x,1/2+y,-z
-x,-y,-z
x,1/2-y,z
loop_
_atom_site_type_symbol
_atom_site_label
_atom_site_fract_x
_atom_site_fract_y
_atom_site_fract_z
Si Si1 0.048001 0.066958 0.377517
Si Si2 0.055891 0.067158 0.121959
Si Si3 0.272227 0.565242 0.353025
Si Si4 0.248120 0.431963 0.781063
Si Si5 0.587108 0.068905 0.508633
Si Si6 0.329442 0.063715 0.864209
Si Si7 0.969970 0.568267 0.298111
O O1 0.056397 0.250000 0.369429
O O2 0.861363 0.024542 0.516091
O O3 0.059487 0.997076 0.305339
O O4 0.192356 0.004608 0.339240
O O5 0.058971 0.250000 0.126309
O O6 0.217268 0.017523 0.986607
O O7 0.882643 0.018189 0.186709
O O8 0.052931 0.993051 0.188698
O O9 0.270831 0.750000 0.349037
O O10 0.469757 0.514545 0.249360
O O11 0.208931 0.250000 0.800625
O O12 0.445872 0.450971 0.643081
O O13 0.240758 0.485819 0.853719
O O14 0.616887 0.250000 0.483350
O O15 0.500000 0.000000 0.500000
O O16 0.770097 0.989465 0.414519
O O17 0.330133 0.250000 0.861949
O O18 0.973495 0.750000 0.296485
#
# Coordination Sequence:
#
# PCOD9162957 Si02
#       7
#     4   4   4   4   4   4   4
#     4  10  20  36  61  90 116 143 178 227 283 339
#     4  11  22  36  55  79 111 149 192 236 275 328
#     4   9  18  37  62  87 115 144 178 226 283 339
#     4  10  20  36  57  81 112 149 186 227 281 336
#     4  11  21  34  55  82 114 147 182 226 277 332
#     4   9  19  36  58  82 109 147 189 229 278 333
#     4  12  24  38  56  80 113 153 192 231 280 333
#
# _framework density 18.631271000000002
#
# number of rings (size 3 to 8) (size 9 to 14) (size 15 to 20)
#    0.000    1.714    1.429    3.857    0.000    3.429 
#    0.000    3.571    0.000    0.000    0.000    0.000 
#    0.000    0.000    0.000    0.000    0.000    0.000 
#
# Total GULP energy -156453.375291 kJ/mol
# GULP energy per Si atom -5587.620546 kJ/mol
# Density = 1.858887 g / cm^3
# Si number density = 18.631271 Si / 1000 Ang^3
#
#
#
# Elastic Constant Matrix: (Units=GPa)
#
#
# Indices 1 2 3 4 5 6 
#
# 1 112.1657 32.2642 45.1373 0.0000 38.0902 0.0000
# 2 32.2642 51.2545 25.6238 0.0000 15.3091 0.0000
# 3 45.1373 25.6238 65.2968 0.0000 22.5793 0.0000
# 4 0.0000 0.0000 0.0000 16.9390 0.0000 -2.2977
# 5 38.0902 15.3091 22.5793 0.0000 26.6178 0.0000
# 6 0.0000 0.0000 0.0000 -2.2977 0.0000 28.5464
#
#
#
# Elastic Compliance Matrix: (Units=1/GPa)
#
#
# Indices 1 2 3 4 5 6 
#
# 1 0.018907 -0.003319 -0.004346 0.000000 -0.021460 0.000000
# 2 -0.003319 0.026231 -0.006261 0.000000 -0.005026 0.000000
# 3 -0.004346 -0.006261 0.024595 0.000000 -0.011042 0.000000
# 4 0.000000 0.000000 0.000000 0.059687 0.000000 0.004804
# 5 -0.021460 -0.005026 -0.011042 0.000000 0.080535 0.000000
# 6 0.000000 0.000000 0.000000 0.004804 0.000000 0.035417
#
#
# Mechanical properties :
#
#
# Convention : Reuss Voigt Hill
#
# Bulk Modulus (GPa) = 23.87835 48.30749 36.09292
# Shear Modulus (GPa) = 17.41038 22.80009 20.10523
#
# Velocity S-wave (km/s) = 3.06023 3.50201 3.28855
# Velocity P-wave (km/s) = 5.03297 6.50666 5.81667
#
# Compressibility (1/GPa) = 0.04187894
#
# Stress axis : x y z
#
# Youngs Moduli (GPa) = 52.89179 38.12259 40.65926
#
# Poissons Ratio (x) = 0.12652 0.17672
# Poissons Ratio (y) = 0.17554 0.25459
# Poissons Ratio (z) = 0.22989 0.23870
#
# Static dielectric constant tensor:
#      x y z
#    x 1.617060 0.000000 0.011020 
#    y 0.000000 1.618390 0.000000 
#    z 0.011020 0.000000 1.652190 
# 
# From -- ./inp_files/38410.got.cif
#   From: 2010.05.17/outbox.cif.g08.bks.cpg/sg11_20_cif.got.tgz:38410.got - 2010.06.03 12:22:45.
