data_PCOD9162034
_publ_section_title
;
Structure prediction by ZEFSAII (Michael W. Deem and Ramdas Pophale) SiO2 
 PCOD9162034
Probable space group: P 21/M
;
_chemical_formula_sum "Si O2"
_cell_formula_units_Z 32
_cell_length_a 15.843130
_cell_length_b 8.338277
_cell_length_c 23.808136
_cell_angle_alpha 90.000000
_cell_angle_beta 28.812583
_cell_angle_gamma 90.000000
_cell_volume 1515.797479
_symmetry_space_group_name_H-M "P 21/M"
_symmetry_group_IT_number 11
_symmetry_cell_setting 'monoclinic'
loop_
_space_group_symop_operation_xyz
x,y,z
-x,1/2+y,-z
-x,-y,-z
x,1/2-y,z
loop_
_atom_site_type_symbol
_atom_site_label
_atom_site_fract_x
_atom_site_fract_y
_atom_site_fract_z
Si Si1 0.695718 0.442387 0.372667
Si Si2 0.798388 0.059476 0.070225
Si Si3 0.925561 0.941612 0.342866
Si Si4 0.184241 0.940423 0.818658
Si Si5 0.234205 0.557938 0.326092
Si Si6 0.694513 0.557842 0.903702
Si Si7 0.399967 0.443110 0.920054
Si Si8 0.854746 0.556048 0.506146
O O1 0.500000 0.500000 0.500000
O O2 0.696726 0.250000 0.370317
O O3 0.830258 0.492889 0.343149
O O4 0.752234 0.506483 0.278023
O O5 0.831398 0.250000 0.054457
O O6 0.735747 0.002667 0.168467
O O7 0.667573 0.022619 0.096754
O O8 0.978946 0.973836 0.947688
O O9 0.915848 0.750000 0.346666
O O10 0.829205 0.995556 0.456747
O O11 0.131020 0.988201 0.226325
O O12 0.214691 0.750000 0.798148
O O13 0.224252 0.750000 0.331362
O O14 0.396758 0.510024 0.192841
O O15 0.261937 0.504189 0.374257
O O16 0.049614 0.497630 0.410406
O O17 0.697993 0.750000 0.896558
O O18 0.500000 0.500000 0.000000
O O19 0.707541 0.512778 0.962197
O O20 0.390498 0.250000 0.919791
O O21 0.849857 0.750000 0.509941
#
# Coordination Sequence:
#
# PCOD9162034 Si02
#       8
#     4   4   4   4   4   4   4   4
#     4  11  24  42  62  85 116 154 196 242 292 345
#     4  10  20  34  57  85 108 137 180 227 276 336
#     4  11  23  40  61  86 119 156 195 240 290 345
#     4   9  20  39  58  78 109 144 178 225 286 339
#     4   9  18  34  55  78 106 143 185 226 271 330
#     4  11  23  39  60  87 121 159 197 238 287 343
#     4  10  21  36  53  78 114 148 178 222 281 334
#     4   9  19  36  56  78 108 145 183 229 283 329
#
# _framework density 21.110999
#
# number of rings (size 3 to 8) (size 9 to 14) (size 15 to 20)
#    0.000    2.000    0.000    3.000    0.000   10.000 
#    0.000    6.250    0.000    0.000    0.000    0.000 
#    0.000    0.000    0.000    0.000    0.000    0.000 
#
# Total GULP energy -178590.645405 kJ/mol
# GULP energy per Si atom -5580.957669 kJ/mol
# Density = 2.106295 g / cm^3
# Si number density = 21.110999 Si / 1000 Ang^3
#
#
#
# Elastic Constant Matrix: (Units=GPa)
#
#
# Indices 1 2 3 4 5 6 
#
# 1 104.6597 8.8783 20.3915 0.0000 19.2262 0.0000
# 2 8.8783 14.1860 0.4509 0.0000 4.8802 0.0000
# 3 20.3915 0.4509 62.7459 0.0000 23.9024 0.0000
# 4 0.0000 0.0000 0.0000 25.1683 0.0000 -2.7929
# 5 19.2262 4.8802 23.9024 0.0000 38.3707 0.0000
# 6 0.0000 0.0000 0.0000 -2.7929 0.0000 31.1070
#
#
#
# Elastic Compliance Matrix: (Units=1/GPa)
#
#
# Indices 1 2 3 4 5 6 
#
# 1 0.011110 -0.005700 -0.002262 0.000000 -0.003433 0.000000
# 2 -0.005700 0.077411 0.005190 0.000000 -0.010223 0.000000
# 3 -0.002262 0.005190 0.021574 0.000000 -0.012966 0.000000
# 4 0.000000 0.000000 0.000000 0.040132 0.000000 0.003603
# 5 -0.003433 -0.010223 -0.012966 0.000000 0.037159 0.000000
# 6 0.000000 0.000000 0.000000 0.003603 0.000000 0.032471
#
#
# Mechanical properties :
#
#
# Convention : Reuss Voigt Hill
#
# Bulk Modulus (GPa) = 9.56461 26.78145 18.17303
# Shear Modulus (GPa) = 19.21223 29.05392 24.13308
#
# Velocity S-wave (km/s) = 3.01999 3.71380 3.38472
# Velocity P-wave (km/s) = 4.08668 5.57704 4.88898
#
# Compressibility (1/GPa) = 0.10455206
#
# Stress axis : x y z
#
# Youngs Moduli (GPa) = 90.01231 12.91804 46.35112
#
# Poissons Ratio (x) = 0.07363 0.10484
# Poissons Ratio (y) = 0.51308 -0.24058
# Poissons Ratio (z) = 0.20359 -0.06705
#
# Static dielectric constant tensor:
#      x y z
#    x 1.814120 0.000000 0.007100 
#    y 0.000000 1.716860 0.000000 
#    z 0.007100 0.000000 1.755260 
# 
# From -- ./inp_files/69028.got.cif
#   From: 2010.05.17/outbox.cif.g08.bks.cpg/sg11_35_cif.got.tgz:69028.got - 2010.06.03 12:22:45.
