data_PCOD9162702
_publ_section_title
;
Structure prediction by ZEFSAII (Michael W. Deem and Ramdas Pophale) SiO2 
 PCOD9162702
Probable space group: P 21/M
;
_chemical_formula_sum "Si O2"
_cell_formula_units_Z 32
_cell_length_a 13.318603
_cell_length_b 14.658141
_cell_length_c 7.696671
_cell_angle_alpha 90.000000
_cell_angle_beta 92.881357
_cell_angle_gamma 90.000000
_cell_volume 1500.690365
_symmetry_space_group_name_H-M "P 21/M"
_symmetry_group_IT_number 11
_symmetry_cell_setting 'monoclinic'
loop_
_space_group_symop_operation_xyz
x,y,z
-x,1/2+y,-z
-x,-y,-z
x,1/2-y,z
loop_
_atom_site_type_symbol
_atom_site_label
_atom_site_fract_x
_atom_site_fract_y
_atom_site_fract_z
Si Si1 0.380478 0.002067 0.448081
Si Si2 0.783557 0.855182 0.583288
Si Si3 0.753543 0.352365 0.008167
Si Si4 0.783173 0.642685 0.001729
Si Si5 0.991279 0.140662 0.445529
Si Si6 0.079361 0.516620 0.857630
Si Si7 0.386164 0.487404 0.033797
Si Si8 0.776982 0.351450 0.593090
O O1 0.310130 0.087122 0.496190
O O2 0.500000 0.000000 0.500000
O O3 0.377529 0.005974 0.239640
O O4 0.307814 0.917646 0.492779
O O5 0.755851 0.750000 0.568727
O O6 0.801973 0.872999 0.794062
O O7 0.890665 0.868562 0.497844
O O8 0.733860 0.250000 0.064071
O O9 0.670523 0.425908 0.050836
O O10 0.764183 0.352998 0.800006
O O11 0.854332 0.394743 0.090983
O O12 0.796945 0.750000 0.038312
O O13 0.670256 0.605408 0.023684
O O14 0.852174 0.573921 0.119004
O O15 0.985632 0.250000 0.385017
O O16 0.894742 0.130466 0.563566
O O17 0.974699 0.054627 0.316474
O O18 0.000000 0.500000 0.000000
O O19 0.500000 0.500000 0.000000
O O20 0.756196 0.250000 0.526708
#
# Coordination Sequence:
#
# PCOD9162702 Si02
#       8
#     4   4   4   4   4   4   4   4
#     4  10  21  36  56  80 107 142 186 237 281 321
#     4   9  18  35  56  80 110 148 186 225 280 340
#     4   9  19  36  55  79 113 147 183 229 279 330
#     4   9  18  33  52  77 114 148 181 225 278 337
#     4  10  20  35  59  86 115 148 189 233 276 340
#     4  11  20  31  53  85 112 143 182 226 275 324
#     4   9  19  35  56  78 105 142 188 226 278 337
#     4   9  20  38  58  81 112 152 189 226 280 341
#
# _framework density 21.323516999999999
#
# number of rings (size 3 to 8) (size 9 to 14) (size 15 to 20)
#    0.000    2.500    1.250    1.125    0.000    4.000 
#    0.000    0.000    0.000    2.250    0.000    0.000 
#    0.000    0.000    0.000    0.000    0.000    0.000 
#
# Total GULP energy -178307.250245 kJ/mol
# GULP energy per Si atom -5572.101570 kJ/mol
# Density = 2.127498 g / cm^3
# Si number density = 21.323517 Si / 1000 Ang^3
#
#
#
# Elastic Constant Matrix: (Units=GPa)
#
#
# Indices 1 2 3 4 5 6 
#
# 1 158.7829 62.4967 8.8207 0.0000 -4.3610 0.0000
# 2 62.4967 127.9250 22.7442 0.0000 13.4904 0.0000
# 3 8.8207 22.7442 31.1626 0.0000 5.5953 0.0000
# 4 0.0000 0.0000 0.0000 11.4897 0.0000 -0.7638
# 5 -4.3610 13.4904 5.5953 0.0000 30.9334 0.0000
# 6 0.0000 0.0000 0.0000 -0.7638 0.0000 22.3761
#
#
#
# Elastic Compliance Matrix: (Units=1/GPa)
#
#
# Indices 1 2 3 4 5 6 
#
# 1 0.008055 -0.004306 0.000332 0.000000 0.002953 0.000000
# 2 -0.004306 0.011529 -0.006392 0.000000 -0.004479 0.000000
# 3 0.000332 -0.006392 0.037365 0.000000 -0.003924 0.000000
# 4 0.000000 0.000000 0.000000 0.087232 0.000000 0.002978
# 5 0.002953 -0.004479 -0.003924 0.000000 0.035407 0.000000
# 6 0.000000 0.000000 0.000000 0.002978 0.000000 0.044792
#
#
# Mechanical properties :
#
#
# Convention : Reuss Voigt Hill
#
# Bulk Modulus (GPa) = 27.60955 56.22153 41.91554
# Shear Modulus (GPa) = 19.44121 27.88045 23.66083
#
# Velocity S-wave (km/s) = 3.02276 3.61986 3.33470
# Velocity P-wave (km/s) = 5.01585 6.62528 5.87593
#
# Compressibility (1/GPa) = 0.03621936
#
# Stress axis : x y z
#
# Youngs Moduli (GPa) = 124.14095 86.73436 26.76274
#
# Poissons Ratio (x) = 0.37347 -0.00889
# Poissons Ratio (y) = 0.53454 0.17106
# Poissons Ratio (z) = -0.04125 0.55439
#
# Static dielectric constant tensor:
#      x y z
#    x 1.795960 0.000000 0.060370 
#    y 0.000000 1.780390 0.000000 
#    z 0.060370 0.000000 2.154850 
# 
# From -- ./inp_files/18066.got.cif
#   From: 2010.05.17/outbox.cif.g08.bks.cpg/sg11_10_cif.got.tgz:18066.got - 2010.06.03 12:22:45.
