data_PCOD9162859
_publ_section_title
;
Structure prediction by ZEFSAII (Michael W. Deem and Ramdas Pophale) SiO2 
 PCOD9162859
Probable space group: P 21/M
;
_chemical_formula_sum "Si O2"
_cell_formula_units_Z 28
_cell_length_a 19.698921
_cell_length_b 11.368260
_cell_length_c 17.325085
_cell_angle_alpha 90.000000
_cell_angle_beta 159.741550
_cell_angle_gamma 90.000000
_cell_volume 1343.409416
_symmetry_space_group_name_H-M "P 21/M"
_symmetry_group_IT_number 11
_symmetry_cell_setting 'monoclinic'
loop_
_space_group_symop_operation_xyz
x,y,z
-x,1/2+y,-z
-x,-y,-z
x,1/2-y,z
loop_
_atom_site_type_symbol
_atom_site_label
_atom_site_fract_x
_atom_site_fract_y
_atom_site_fract_z
Si Si1 0.748456 0.572935 0.654636
Si Si2 0.668252 0.459313 0.829388
Si Si3 0.065421 0.616286 0.402053
Si Si4 0.398133 0.380085 0.103083
Si Si5 0.045308 0.121023 0.966978
Si Si6 0.418034 0.884999 0.869756
Si Si7 0.067302 0.375153 0.311318
O O1 0.515899 0.588558 0.414700
O O2 0.867505 0.623691 0.853887
O O3 0.819567 0.623639 0.649183
O O4 0.832685 0.439584 0.742436
O O5 0.567184 0.526663 0.793059
O O6 0.801632 0.545634 0.919928
O O7 0.835029 0.377390 0.043645
O O8 0.111259 0.750000 0.420274
O O9 0.183668 0.607287 0.608231
O O10 0.110798 0.499063 0.400278
O O11 0.832401 0.613252 0.162300
O O12 0.440117 0.250000 0.178896
O O13 0.509186 0.394218 0.141315
O O14 0.033168 0.250000 0.920391
O O15 0.467207 0.750000 0.949241
O O16 0.500000 0.000000 0.000000
O O17 0.113429 0.250000 0.400861
#
# Coordination Sequence:
#
# PCOD9162859 Si02
#       7
#     4   4   4   4   4   4   4
#     4  10  21  36  52  75 111 149 184 231 291 341
#     4  10  20  36  56  79 106 141 188 233 279 335
#     4   9  19  37  58  80 112 148 182 224 271 322
#     4   9  18  34  56  80 106 138 177 222 271 322
#     4  10  21  35  52  77 107 143 191 239 283 336
#     4  10  21  37  57  83 112 143 179 219 267 325
#     4  10  21  35  55  84 114 146 188 235 282 332
#
# _framework density 20.842493000000001
#
# number of rings (size 3 to 8) (size 9 to 14) (size 15 to 20)
#    0.000    2.286    0.000    2.143    0.000    6.857 
#    0.000    2.857    0.000    0.000    0.000    0.000 
#    0.000    0.000    0.000    0.000    0.000    0.000 
#
# Total GULP energy -156001.841649 kJ/mol
# GULP energy per Si atom -5571.494345 kJ/mol
# Density = 2.079505 g / cm^3
# Si number density = 20.842493 Si / 1000 Ang^3
#
#
#
# Elastic Constant Matrix: (Units=GPa)
#
#
# Indices 1 2 3 4 5 6 
#
# 1 20.6987 12.4154 -1.2278 0.0000 6.9139 0.0000
# 2 12.4154 150.8799 37.7393 0.0000 -8.3942 0.0000
# 3 -1.2278 37.7393 89.8128 0.0000 -5.3394 0.0000
# 4 0.0000 0.0000 0.0000 -6.5739 0.0000 3.3055
# 5 6.9139 -8.3942 -5.3394 0.0000 19.5218 0.0000
# 6 0.0000 0.0000 0.0000 3.3055 0.0000 -13.8189
#
#
#
# Elastic Compliance Matrix: (Units=1/GPa)
#
#
# Indices 1 2 3 4 5 6 
#
# 1 0.060509 -0.006877 0.002305 0.000000 -0.023757 0.000000
# 2 -0.006877 0.008298 -0.003277 0.000000 0.005107 0.000000
# 3 0.002305 -0.003277 0.012616 0.000000 0.001225 0.000000
# 4 0.000000 0.000000 0.000000 -0.172916 0.000000 -0.041362
# 5 -0.023757 0.005107 0.001225 0.000000 0.062170 0.000000
# 6 0.000000 0.000000 0.000000 -0.041362 0.000000 -0.082259
#
#
# Mechanical properties :
#
#
# Convention : Reuss Voigt Hill
#
# Bulk Modulus (GPa) = 15.21528 39.91611 27.56570
# Shear Modulus (GPa) = -67.59010 13.99012 -26.79999
#
# Velocity S-wave (km/s) = -5.70082 2.59362 -3.58974
# Velocity P-wave (km/s) = 6.00138 5.30679 1.98173
#
# Compressibility (1/GPa) = 0.06572339
#
# Stress axis : x y z
#
# Youngs Moduli (GPa) = 16.52633 120.51812 79.26689
#
# Poissons Ratio (x) = 0.82884 -0.18268
# Poissons Ratio (y) = 0.11366 0.25976
# Poissons Ratio (z) = -0.03809 0.39494
#
# Static dielectric constant tensor:
#      x y z
#    x 1.729890 0.000000 0.012380 
#    y 0.000000 1.790440 0.000000 
#    z 0.012380 0.000000 1.771080 
# 
# From -- ./inp_files/61537.got.cif
#   From: 2010.05.17/outbox.cif.g08.bks.cpg/sg11_31_cif.got.tgz:61537.got - 2010.06.03 12:22:45.
