data_PCOD9162945
_publ_section_title
;
Structure prediction by ZEFSAII (Michael W. Deem and Ramdas Pophale) SiO2 
 PCOD9162945
Probable space group: P 21/M
;
_chemical_formula_sum "Si O2"
_cell_formula_units_Z 32
_cell_length_a 24.783605
_cell_length_b 7.526516
_cell_length_c 14.525360
_cell_angle_alpha 90.000000
_cell_angle_beta 33.403619
_cell_angle_gamma 90.000000
_cell_volume 1491.657447
_symmetry_space_group_name_H-M "P 21/M"
_symmetry_group_IT_number 11
_symmetry_cell_setting 'monoclinic'
loop_
_space_group_symop_operation_xyz
x,y,z
-x,1/2+y,-z
-x,-y,-z
x,1/2-y,z
loop_
_atom_site_type_symbol
_atom_site_label
_atom_site_fract_x
_atom_site_fract_y
_atom_site_fract_z
Si Si1 0.030823 0.032500 0.166159
Si Si2 0.784049 0.535527 0.218683
Si Si3 0.071562 0.037448 0.313313
Si Si4 0.615031 0.962592 0.332353
Si Si5 0.295229 0.468215 0.989870
Si Si6 0.830064 0.040087 0.363951
Si Si7 0.362460 0.534829 0.261653
Si Si8 0.568366 0.960444 0.039939
O O1 0.031641 0.250000 0.164173
O O2 0.031795 0.974184 0.270974
O O3 0.934751 0.969801 0.248455
O O4 0.129620 0.977338 0.973237
O O5 0.783443 0.750000 0.219743
O O6 0.680007 0.472562 0.326014
O O7 0.809230 0.480720 0.285944
O O8 0.077783 0.250000 0.297398
O O9 0.183439 0.973532 0.166034
O O10 0.000000 0.000000 0.500000
O O11 0.624732 0.750000 0.317766
O O12 0.664499 0.025479 0.166894
O O13 0.500000 0.000000 0.500000
O O14 0.294938 0.250000 0.991005
O O15 0.368544 0.530789 0.965295
O O16 0.833162 0.250000 0.379189
O O17 0.737879 0.967182 0.551984
O O18 0.363379 0.750000 0.265479
O O19 0.376087 0.486771 0.135749
O O20 0.458600 0.468698 0.179611
O O21 0.558245 0.750000 0.070042
#
# Coordination Sequence:
#
# PCOD9162945 Si02
#       8
#     4   4   4   4   4   4   4   4
#     4   9  18  36  57  76 106 144 178 214 265 325
#     4  10  20  37  57  78 105 141 181 218 262 320
#     4  10  20  36  57  81 108 142 181 221 267 322
#     4  10  21  37  58  82 109 144 183 223 271 325
#     4   9  18  35  58  79 104 143 181 213 264 331
#     4  10  21  34  54  81 106 137 177 221 269 313
#     4   9  19  34  50  75 105 135 170 213 263 311
#     4   9  18  33  53  73 100 137 175 211 253 308
#
# _framework density 21.452646999999999
#
# number of rings (size 3 to 8) (size 9 to 14) (size 15 to 20)
#    0.000    2.500    1.250    0.375    3.500    1.000 
#    0.000    2.500    0.000    0.000    0.000    0.000 
#    0.000    0.000    0.000    0.000    0.000    0.000 
#
# Total GULP energy -178707.679926 kJ/mol
# GULP energy per Si atom -5584.614998 kJ/mol
# Density = 2.140382 g / cm^3
# Si number density = 21.452647 Si / 1000 Ang^3
#
#
#
# Elastic Constant Matrix: (Units=GPa)
#
#
# Indices 1 2 3 4 5 6 
#
# 1 100.7632 -6.9981 0.1810 0.0000 -44.4214 0.0000
# 2 -6.9981 49.9245 -9.0033 0.0000 -7.3385 0.0000
# 3 0.1810 -9.0033 76.1256 0.0000 -36.8047 0.0000
# 4 0.0000 0.0000 0.0000 -10.0977 0.0000 17.9007
# 5 -44.4214 -7.3385 -36.8047 0.0000 21.3291 0.0000
# 6 0.0000 0.0000 0.0000 17.9007 0.0000 12.1397
#
#
#
# Elastic Compliance Matrix: (Units=1/GPa)
#
#
# Indices 1 2 3 4 5 6 
#
# 1 -0.000361 -0.005440 -0.011531 0.000000 -0.022520 0.000000
# 2 -0.005440 0.016124 -0.005285 0.000000 -0.014902 0.000000
# 3 -0.011531 -0.005285 0.000296 0.000000 -0.025322 0.000000
# 4 0.000000 0.000000 0.000000 -0.027402 0.000000 0.040406
# 5 -0.022520 -0.014902 -0.025322 0.000000 -0.048840 0.000000
# 6 0.000000 0.000000 0.000000 0.040406 0.000000 0.022793
#
#
# Mechanical properties :
#
#
# Convention : Reuss Voigt Hill
#
# Bulk Modulus (GPa) = -35.14619 21.68581 -6.73019
# Shear Modulus (GPa) = -2116.94568 20.84980 -1048.04794
#
# Velocity S-wave (km/s) = -31.44744 3.12091 -22.12692
# Velocity P-wave (km/s) = 36.53775 4.80806 25.61142
#
# Compressibility (1/GPa) = -0.02845259
#
# Stress axis : x y z
#
# Youngs Moduli (GPa) = -2770.05382 62.01928 3375.60257
#
# Poissons Ratio (x) = 0.33741 38.92272
# Poissons Ratio (y) = -15.07010 17.83993
# Poissons Ratio (z) = -31.94038 0.32777
#
# Static dielectric constant tensor:
#      x y z
#    x 1.759360 0.000000 -0.028830 
#    y 0.000000 1.828570 0.000000 
#    z -0.028830 0.000000 1.746330 
# 
# From -- ./inp_files/35110.got.cif
#   From: 2010.05.17/outbox.cif.g08.bks.cpg/sg11_18_cif.got.tgz:35110.got - 2010.06.03 12:22:45.
