data_PCOD9162581
_publ_section_title
;
Structure prediction by ZEFSAII (Michael W. Deem and Ramdas Pophale) SiO2 
 PCOD9162581
Probable space group: P 21/M
;
_chemical_formula_sum "Si O2"
_cell_formula_units_Z 24
_cell_length_a 21.754229
_cell_length_b 8.117111
_cell_length_c 11.129466
_cell_angle_alpha 90.000000
_cell_angle_beta 33.006450
_cell_angle_gamma 90.000000
_cell_volume 1070.541598
_symmetry_space_group_name_H-M "P 21/M"
_symmetry_group_IT_number 11
_symmetry_cell_setting 'monoclinic'
loop_
_space_group_symop_operation_xyz
x,y,z
-x,1/2+y,-z
-x,-y,-z
x,1/2-y,z
loop_
_atom_site_type_symbol
_atom_site_label
_atom_site_fract_x
_atom_site_fract_y
_atom_site_fract_z
Si Si1 0.128332 0.946762 0.303297
Si Si2 0.870584 0.449170 0.215171
Si Si3 0.345995 0.063317 0.839306
Si Si4 0.526410 0.060059 0.143474
Si Si5 0.328157 0.941736 0.612640
Si Si6 0.743740 0.049638 0.661379
O O1 0.137194 0.750000 0.274502
O O2 0.178307 0.992351 0.352122
O O3 0.000000 0.000000 0.500000
O O4 0.212287 0.033061 0.072126
O O5 0.866103 0.250000 0.223545
O O6 0.794066 0.504697 0.228559
O O7 0.806015 0.509183 0.440321
O O8 0.000000 0.500000 0.000000
O O9 0.376605 0.250000 0.820987
O O10 0.402953 0.949680 0.846698
O O11 0.374643 0.029616 0.654541
O O12 0.499331 0.250000 0.162319
O O13 0.412992 0.963742 0.361411
O O14 0.615773 0.992835 0.899304
O O15 0.320028 0.750000 0.656546
O O16 0.736957 0.250000 0.668397
#
# Coordination Sequence:
#
# PCOD9162581 Si02
#       6
#     4   4   4   4   4   4
#     4  10  20  35  57  86 118 154 196 242 295 352
#     4  10  23  42  61  84 116 156 198 243 291 345
#     4  11  22  37  58  86 120 157 196 242 296 353
#     4  10  20  38  63  89 118 152 193 243 299 358
#     4  11  23  38  58  87 122 157 195 243 294 351
#     4   8  18  38  60  82 114 152 190 240 293 342
#
# _framework density 22.418559999999999
#
# number of rings (size 3 to 8) (size 9 to 14) (size 15 to 20)
#    0.000    2.000    0.000    4.500    2.333    2.000 
#    0.000    4.167    0.000    0.000    0.000    0.000 
#    0.000    0.000    0.000    0.000    0.000    0.000 
#
# Total GULP energy -134152.047797 kJ/mol
# GULP energy per Si atom -5589.668658 kJ/mol
# Density = 2.236753 g / cm^3
# Si number density = 22.418560 Si / 1000 Ang^3
#
#
#
# Elastic Constant Matrix: (Units=GPa)
#
#
# Indices 1 2 3 4 5 6 
#
# 1 60.9489 -0.2110 31.2506 0.0000 -6.6113 0.0000
# 2 -0.2110 41.4672 -12.4449 0.0000 5.7522 0.0000
# 3 31.2506 -12.4449 112.1274 0.0000 -3.1932 0.0000
# 4 0.0000 0.0000 0.0000 34.7322 0.0000 -4.2177
# 5 -6.6113 5.7522 -3.1932 0.0000 44.0965 0.0000
# 6 0.0000 0.0000 0.0000 -4.2177 0.0000 15.5533
#
#
#
# Elastic Compliance Matrix: (Units=1/GPa)
#
#
# Indices 1 2 3 4 5 6 
#
# 1 0.019570 -0.001965 -0.005593 0.000000 0.002786 0.000000
# 2 -0.001965 0.025563 0.003288 0.000000 -0.003391 0.000000
# 3 -0.005593 0.003288 0.010828 0.000000 -0.000483 0.000000
# 4 0.000000 0.000000 0.000000 0.029772 0.000000 0.008074
# 5 0.002786 -0.003391 -0.000483 0.000000 0.023502 0.000000
# 6 0.000000 0.000000 0.000000 0.008074 0.000000 0.066484
#
#
# Mechanical properties :
#
#
# Convention : Reuss Voigt Hill
#
# Bulk Modulus (GPa) = 21.08762 27.97030 24.52896
# Shear Modulus (GPa) = 24.99150 31.93966 28.46558
#
# Velocity S-wave (km/s) = 3.34244 3.77861 3.56720
# Velocity P-wave (km/s) = 4.93179 5.61611 5.28504
#
# Compressibility (1/GPa) = 0.04742119
#
# Stress axis : x y z
#
# Youngs Moduli (GPa) = 51.09769 39.11939 92.34893
#
# Poissons Ratio (x) = 0.07689 0.51653
# Poissons Ratio (y) = 0.10043 -0.30368
# Poissons Ratio (z) = 0.28580 -0.12864
#
# Static dielectric constant tensor:
#      x y z
#    x 1.842610 0.000000 0.006490 
#    y 0.000000 1.784980 0.000000 
#    z 0.006490 0.000000 1.847820 
# 
# From -- ./inp_files/43876.got.cif
#   From: 2010.05.17/outbox.cif.g08.bks.cpg/sg11_22_cif.got.tgz:43876.got - 2010.06.03 12:22:45.
