data_PCOD9162511
_publ_section_title
;
Structure prediction by ZEFSAII (Michael W. Deem and Ramdas Pophale) SiO2 
 PCOD9162511
Probable space group: P 21/M
;
_chemical_formula_sum "Si O2"
_cell_formula_units_Z 28
_cell_length_a 25.235584
_cell_length_b 7.495883
_cell_length_c 22.093078
_cell_angle_alpha 90.000000
_cell_angle_beta 162.311447
_cell_angle_gamma 90.000000
_cell_volume 1269.817262
_symmetry_space_group_name_H-M "P 21/M"
_symmetry_group_IT_number 11
_symmetry_cell_setting 'monoclinic'
loop_
_space_group_symop_operation_xyz
x,y,z
-x,1/2+y,-z
-x,-y,-z
x,1/2-y,z
loop_
_atom_site_type_symbol
_atom_site_label
_atom_site_fract_x
_atom_site_fract_y
_atom_site_fract_z
Si Si1 0.793564 0.537743 0.777475
Si Si2 0.511098 0.036136 0.940610
Si Si3 0.576905 0.046792 0.424891
Si Si4 0.119419 0.962257 0.323527
Si Si5 0.242099 0.469085 0.126224
Si Si6 0.143632 0.034934 0.490049
Si Si7 0.891094 0.464002 0.320544
O O1 0.767980 0.750000 0.744677
O O2 0.694587 0.451756 0.613621
O O3 0.726653 0.476883 0.770423
O O4 0.000000 0.500000 0.000000
O O5 0.512865 0.250000 0.934960
O O6 0.335480 0.968341 0.717883
O O7 0.694467 0.966460 0.114394
O O8 0.500000 0.000000 0.000000
O O9 0.537555 0.250000 0.363124
O O10 0.700678 0.963600 0.508484
O O11 0.393318 0.966814 0.245844
O O12 0.123874 0.750000 0.316551
O O13 0.104247 0.990232 0.378165
O O14 0.947981 0.029358 0.102473
O O15 0.244290 0.250000 0.128425
O O16 0.146642 0.250000 0.498445
O O17 0.999697 0.968627 0.381159
O O18 0.879215 0.250000 0.301709
O O19 0.000000 0.500000 0.500000
#
# Coordination Sequence:
#
# PCOD9162511 Si02
#       7
#     4   4   4   4   4   4   4
#     4  11  20  34  57  85 114 146 185 232 283 331
#     4  10  20  35  57  83 111 141 176 221 272 325
#     4  10  20  37  59  81 111 146 184 234 281 324
#     4  10  21  38  56  78 109 149 190 225 268 329
#     4   9  19  36  57  81 111 145 184 231 278 325
#     4  10  22  38  54  80 115 146 179 226 275 321
#     4  10  20  35  57  83 110 141 176 219 271 324
#
# _framework density 22.050418000000001
#
# number of rings (size 3 to 8) (size 9 to 14) (size 15 to 20)
#    0.000    2.000    2.857    0.857    0.000    2.857 
#    0.000    1.429    0.000    0.000    0.000    0.000 
#    0.000    0.000    0.000    0.000    0.000    0.000 
#
# Total GULP energy -156473.910172 kJ/mol
# GULP energy per Si atom -5588.353935 kJ/mol
# Density = 2.200023 g / cm^3
# Si number density = 22.050418 Si / 1000 Ang^3
#
#
#
# Elastic Constant Matrix: (Units=GPa)
#
#
# Indices 1 2 3 4 5 6 
#
# 1 168.2146 -2.3847 40.8205 0.0000 29.2789 0.0000
# 2 -2.3847 67.7670 0.4710 0.0000 8.2377 0.0000
# 3 40.8205 0.4710 63.5769 0.0000 30.1036 0.0000
# 4 0.0000 0.0000 0.0000 8.9565 0.0000 -9.1878
# 5 29.2789 8.2377 30.1036 0.0000 50.0042 0.0000
# 6 0.0000 0.0000 0.0000 -9.1878 0.0000 20.1304
#
#
#
# Elastic Compliance Matrix: (Units=1/GPa)
#
#
# Indices 1 2 3 4 5 6 
#
# 1 0.007201 0.000537 -0.003621 0.000000 -0.002125 0.000000
# 2 0.000537 0.015199 0.001227 0.000000 -0.003557 0.000000
# 3 -0.003621 0.001227 0.023969 0.000000 -0.012512 0.000000
# 4 0.000000 0.000000 0.000000 0.209951 0.000000 0.095825
# 5 -0.002125 -0.003557 -0.012512 0.000000 0.029361 0.000000
# 6 0.000000 0.000000 0.000000 0.095825 0.000000 0.093412
#
#
# Mechanical properties :
#
#
# Convention : Reuss Voigt Hill
#
# Bulk Modulus (GPa) = 23.44441 41.93022 32.68731
# Shear Modulus (GPa) = 12.59361 33.19499 22.89430
#
# Velocity S-wave (km/s) = 2.39242 3.88417 3.22572
# Velocity P-wave (km/s) = 4.27631 6.25881 5.36001
#
# Compressibility (1/GPa) = 0.04265409
#
# Stress axis : x y z
#
# Youngs Moduli (GPa) = 138.86907 65.79305 41.71983
#
# Poissons Ratio (x) = -0.03532 0.15109
# Poissons Ratio (y) = -0.07455 -0.05119
# Poissons Ratio (z) = 0.50291 -0.08072
#
# Static dielectric constant tensor:
#      x y z
#    x 1.783830 0.000000 0.049110 
#    y 0.000000 1.829630 0.000000 
#    z 0.049110 0.000000 1.782920 
# 
# From -- ./inp_files/66754.got.cif
#   From: 2010.05.17/outbox.cif.g08.bks.cpg/sg11_34_cif.got.tgz:66754.got - 2010.06.03 12:22:45.
