data_PCOD9162105
_publ_section_title
;
Structure prediction by ZEFSAII (Michael W. Deem and Ramdas Pophale) SiO2 
 PCOD9162105
Probable space group: P 21/M
;
_chemical_formula_sum "Si O2"
_cell_formula_units_Z 26
_cell_length_a 11.942643
_cell_length_b 15.218598
_cell_length_c 7.802651
_cell_angle_alpha 90.000000
_cell_angle_beta 134.167883
_cell_angle_gamma 90.000000
_cell_volume 1017.229365
_symmetry_space_group_name_H-M "P 21/M"
_symmetry_group_IT_number 11
_symmetry_cell_setting 'monoclinic'
loop_
_space_group_symop_operation_xyz
x,y,z
-x,1/2+y,-z
-x,-y,-z
x,1/2-y,z
loop_
_atom_site_type_symbol
_atom_site_label
_atom_site_fract_x
_atom_site_fract_y
_atom_site_fract_z
Si Si1 0.284710 0.479404 0.734759
Si Si2 0.458957 0.850671 0.069280
Si Si3 0.102507 0.897050 0.346889
Si Si4 0.973951 0.750000 0.785626
Si Si5 0.242226 0.428662 0.083583
Si Si6 0.747933 0.374652 0.824452
Si Si7 0.956590 0.750000 0.389312
Si Si8 0.276914 0.250000 0.180643
O O1 0.378052 0.402002 0.742076
O O2 0.143133 0.508523 0.465937
O O3 0.251400 0.445656 0.889668
O O4 0.371207 0.574714 0.857801
O O5 0.467357 0.750000 0.012044
O O6 0.378175 0.845831 0.169459
O O7 0.229194 0.855359 0.353151
O O8 0.064455 0.833021 0.463071
O O9 0.938287 0.905787 0.072836
O O10 0.900056 0.750000 0.520035
O O11 0.092611 0.832587 0.929433
O O12 0.840439 0.750000 0.784774
O O13 0.350805 0.346757 0.253016
O O14 0.273575 0.520669 0.203111
O O15 0.820772 0.750000 0.103031
#
# Coordination Sequence:
#
# PCOD9162105 Si02
#       8
#     4   4   4   2   4   4   2   2
#     4  10  23  38  62  91 118 162 211 249 307 368
#     4  10  22  41  62  86 116 166 210 253 307 357
#     4  11  21  37  61  96 126 154 208 253 307 374
#     4  12  20  36  59  91 122 161 206 250 303 360
#     4  10  21  39  60  89 128 164 194 254 313 367
#     4  11  21  38  64  86 126 164 205 256 303 361
#     4  10  20  34  58  91 122 163 204 242 295 368
#     4  10  22  38  55  92 126 164 202 244 310 368
#
# _framework density 25.559623999999999
#
# number of rings (size 3 to 8) (size 9 to 14) (size 15 to 20)
#    0.000    1.538    3.846    2.769    2.154    1.846 
#    0.000    0.000    3.385    0.000    0.000    0.000 
#    0.000    0.000    0.000    0.000    0.000    0.000 
#
# Total GULP energy -145209.273413 kJ/mol
# GULP energy per Si atom -5584.972054 kJ/mol
# Density = 2.550145 g / cm^3
# Si number density = 25.559624 Si / 1000 Ang^3
#
#
#
# Elastic Constant Matrix: (Units=GPa)
#
#
# Indices 1 2 3 4 5 6 
#
# 1 81.9139 28.8730 17.0080 0.0000 -26.4866 0.0000
# 2 28.8730 203.7238 6.3137 0.0000 0.0899 0.0000
# 3 17.0080 6.3137 42.8655 0.0000 -26.4479 0.0000
# 4 0.0000 0.0000 0.0000 -20.3103 0.0000 -58.5510
# 5 -26.4866 0.0899 -26.4479 0.0000 34.6889 0.0000
# 6 0.0000 0.0000 0.0000 -58.5510 0.0000 -66.5541
#
#
#
# Elastic Compliance Matrix: (Units=1/GPa)
#
#
# Indices 1 2 3 4 5 6 
#
# 1 0.017595 -0.002600 0.003201 0.000000 0.015882 0.000000
# 2 -0.002600 0.005336 -0.001865 0.000000 -0.003421 0.000000
# 3 0.003201 -0.001865 0.045025 0.000000 0.036777 0.000000
# 4 0.000000 0.000000 0.000000 0.032051 0.000000 -0.028197
# 5 0.015882 -0.003421 0.036777 0.000000 0.069003 0.000000
# 6 0.000000 0.000000 0.000000 -0.028197 0.000000 0.009781
#
#
# Mechanical properties :
#
#
# Convention : Reuss Voigt Hill
#
# Bulk Modulus (GPa) = 15.28411 48.09917 31.69164
# Shear Modulus (GPa) = 24.61479 7.98548 16.30013
#
# Velocity S-wave (km/s) = 3.10665 1.76947 2.52807
# Velocity P-wave (km/s) = 4.34294 4.79937 4.57685
#
# Compressibility (1/GPa) = 0.06542742
#
# Stress axis : x y z
#
# Youngs Moduli (GPa) = 56.83414 187.39247 22.20987
#
# Poissons Ratio (x) = 0.48720 -0.07108
# Poissons Ratio (y) = 0.14776 0.04143
# Poissons Ratio (z) = -0.18190 0.34953
#
# Static dielectric constant tensor:
#      x y z
#    x 1.998940 0.000000 0.057180 
#    y 0.000000 2.174970 0.000000 
#    z 0.057180 0.000000 2.076140 
# 
# From -- ./inp_files/17890.got.cif
#   From: 2010.05.17/outbox.cif.g08.bks.cpg/sg11_9_cif.got.tgz:17890.got - 2010.06.03 12:22:45.
