data_PCOD9162998
_publ_section_title
;
Structure prediction by ZEFSAII (Michael W. Deem and Ramdas Pophale) SiO2 
 PCOD9162998
Probable space group: P 21/M
;
_chemical_formula_sum "Si O2"
_cell_formula_units_Z 28
_cell_length_a 16.669260
_cell_length_b 8.868984
_cell_length_c 22.921086
_cell_angle_alpha 90.000000
_cell_angle_beta 25.440516
_cell_angle_gamma 90.000000
_cell_volume 1455.670821
_symmetry_space_group_name_H-M "P 21/M"
_symmetry_group_IT_number 11
_symmetry_cell_setting 'monoclinic'
loop_
_space_group_symop_operation_xyz
x,y,z
-x,1/2+y,-z
-x,-y,-z
x,1/2-y,z
loop_
_atom_site_type_symbol
_atom_site_label
_atom_site_fract_x
_atom_site_fract_y
_atom_site_fract_z
Si Si1 0.194216 0.428588 0.395966
Si Si2 0.237588 0.424465 0.157103
Si Si3 0.591317 0.426232 0.847064
Si Si4 0.198837 0.432348 0.851903
Si Si5 0.597876 0.068182 0.630565
Si Si6 0.163240 0.574610 0.637386
Si Si7 0.690917 0.571371 0.350981
O O1 0.169998 0.250000 0.416249
O O2 0.348958 0.473385 0.246311
O O3 0.272493 0.494373 0.405346
O O4 0.000000 0.500000 0.500000
O O5 0.271111 0.250000 0.153907
O O6 0.273602 0.532636 0.187742
O O7 0.031432 0.436053 0.268196
O O8 0.386962 0.456418 0.008028
O O9 0.605680 0.250000 0.822127
O O10 0.186952 0.250000 0.860988
O O11 0.378448 0.474459 0.773995
O O12 0.249103 0.479727 0.752674
O O13 0.000000 0.500000 0.000000
O O14 0.611068 0.250000 0.628243
O O15 0.679149 0.031033 0.513087
O O16 0.194595 0.750000 0.632871
O O17 0.163130 0.476027 0.695273
O O18 0.500000 0.500000 0.500000
O O19 0.668064 0.750000 0.363359
#
# Coordination Sequence:
#
# PCOD9162998 Si02
#       7
#     4   4   4   4   4   4   4
#     4  12  25  40  60  87 118 157 203 248 305 365
#     4   9  19  35  58  86 117 156 197 241 296 354
#     4  10  20  36  57  84 119 155 197 243 295 355
#     4  10  23  42  63  91 126 166 207 254 311 367
#     4  10  21  40  62  86 122 160 200 253 307 363
#     4  10  20  37  61  88 118 153 196 245 300 355
#     4  11  22  39  62  89 119 153 197 246 300 358
#
# _framework density 19.235116999999999
#
# number of rings (size 3 to 8) (size 9 to 14) (size 15 to 20)
#    0.000    1.714    1.429    3.000    0.000    5.714 
#    0.000    4.286    0.000    0.000    0.000    0.000 
#    0.000    0.000    0.000    0.000    0.000    0.000 
#
# Total GULP energy -156367.947352 kJ/mol
# GULP energy per Si atom -5584.569548 kJ/mol
# Density = 1.919134 g / cm^3
# Si number density = 19.235117 Si / 1000 Ang^3
#
#
#
# Elastic Constant Matrix: (Units=GPa)
#
#
# Indices 1 2 3 4 5 6 
#
# 1 94.1486 41.7628 56.4102 0.0000 -3.2924 0.0000
# 2 41.7628 54.8308 33.7007 0.0000 1.1355 0.0000
# 3 56.4102 33.7007 80.9031 0.0000 -2.7347 0.0000
# 4 0.0000 0.0000 0.0000 30.1358 0.0000 0.2746
# 5 -3.2924 1.1355 -2.7347 0.0000 29.0872 0.0000
# 6 0.0000 0.0000 0.0000 0.2746 0.0000 35.8842
#
#
#
# Elastic Compliance Matrix: (Units=1/GPa)
#
#
# Indices 1 2 3 4 5 6 
#
# 1 0.021534 -0.009742 -0.010896 0.000000 0.001793 0.000000
# 2 -0.009742 0.029029 -0.005392 0.000000 -0.002743 0.000000
# 3 -0.010896 -0.005392 0.022240 0.000000 0.001068 0.000000
# 4 0.000000 0.000000 0.000000 0.033185 0.000000 -0.000254
# 5 0.001793 -0.002743 0.001068 0.000000 0.034790 0.000000
# 6 0.000000 0.000000 0.000000 -0.000254 0.000000 0.027869
#
#
# Mechanical properties :
#
#
# Convention : Reuss Voigt Hill
#
# Bulk Modulus (GPa) = 48.20991 54.84776 51.52884
# Shear Modulus (GPa) = 21.96614 25.55537 23.76076
#
# Velocity S-wave (km/s) = 3.38299 3.64892 3.51847
# Velocity P-wave (km/s) = 6.35432 6.80655 6.58432
#
# Compressibility (1/GPa) = 0.02074262
#
# Stress axis : x y z
#
# Youngs Moduli (GPa) = 46.43804 34.44818 44.96356
#
# Poissons Ratio (x) = 0.33559 0.48993
# Poissons Ratio (y) = 0.45239 0.24246
# Poissons Ratio (z) = 0.50599 0.18576
#
# Static dielectric constant tensor:
#      x y z
#    x 1.679830 0.000000 -0.013470 
#    y 0.000000 1.658690 0.000000 
#    z -0.013470 0.000000 1.676230 
# 
# From -- ./inp_files/65391.got.cif
#   From: 2010.05.17/outbox.cif.g08.bks.cpg/sg11_33_cif.got.tgz:65391.got - 2010.06.03 12:22:45.
