data_PCOD9162975
_publ_section_title
;
Structure prediction by ZEFSAII (Michael W. Deem and Ramdas Pophale) SiO2 
 PCOD9162975
Probable space group: P 21/M
;
_chemical_formula_sum "Si O2"
_cell_formula_units_Z 28
_cell_length_a 13.816108
_cell_length_b 8.431573
_cell_length_c 12.216734
_cell_angle_alpha 90.000000
_cell_angle_beta 76.674039
_cell_angle_gamma 90.000000
_cell_volume 1384.827087
_symmetry_space_group_name_H-M "P 21/M"
_symmetry_group_IT_number 11
_symmetry_cell_setting 'monoclinic'
loop_
_space_group_symop_operation_xyz
x,y,z
-x,1/2+y,-z
-x,-y,-z
x,1/2-y,z
loop_
_atom_site_type_symbol
_atom_site_label
_atom_site_fract_x
_atom_site_fract_y
_atom_site_fract_z
Si Si1 0.545510 0.559444 0.102372
Si Si2 0.203983 0.441360 0.707204
Si Si3 0.612030 0.561768 0.476663
Si Si4 0.174896 0.943315 0.189076
Si Si5 0.230381 0.939202 0.935405
Si Si6 0.641322 0.441390 0.705744
Si Si7 0.014092 0.058185 0.619504
O O1 0.553198 0.750000 0.098623
O O2 0.653700 0.487246 0.091460
O O3 0.466352 0.515795 0.217042
O O4 0.500000 0.500000 0.000000
O O5 0.205543 0.250000 0.704883
O O6 0.311250 0.499022 0.635292
O O7 0.185278 0.493626 0.835792
O O8 0.117281 0.494816 0.647654
O O9 0.500000 0.500000 0.500000
O O10 0.607191 0.750000 0.466659
O O11 0.655372 0.516507 0.583754
O O12 0.174739 0.750000 0.187026
O O13 0.273385 0.990216 0.230933
O O14 0.077567 0.994762 0.280222
O O15 0.182032 0.997612 0.061742
O O16 0.222975 0.750000 0.935143
O O17 0.644800 0.250000 0.694538
O O18 0.013823 0.250000 0.618144
O O19 0.000000 0.000000 0.500000
#
# Coordination Sequence:
#
# PCOD9162975 Si02
#       7
#     4   4   4   4   4   4   4
#     4  11  21  35  56  84 120 158 193 236 287 341
#     4  10  23  41  58  84 120 154 188 242 300 343
#     4  11  23  38  56  81 114 149 191 236 285 344
#     4   9  19  37  59  85 115 150 188 236 291 343
#     4  11  22  38  59  86 118 155 200 239 284 351
#     4  10  20  36  57  82 115 149 188 236 286 338
#     4  10  21  40  65  87 115 150 191 241 297 350
#
# _framework density 20.21913
#
# number of rings (size 3 to 8) (size 9 to 14) (size 15 to 20)
#    0.000    1.714    1.429    3.000    0.000    6.857 
#    0.000    1.429    0.000    0.000    0.000    0.000 
#    0.000    0.000    0.000    0.000    0.000    0.000 
#
# Total GULP energy -156491.456412 kJ/mol
# GULP energy per Si atom -5588.980586 kJ/mol
# Density = 2.017311 g / cm^3
# Si number density = 20.219130 Si / 1000 Ang^3
#
#
#
# Elastic Constant Matrix: (Units=GPa)
#
#
# Indices 1 2 3 4 5 6 
#
# 1 117.9889 17.4242 73.7648 0.0000 1.6659 0.0000
# 2 17.4242 11.5726 17.4389 0.0000 -3.0338 0.0000
# 3 73.7648 17.4389 166.5058 0.0000 1.1028 0.0000
# 4 0.0000 0.0000 0.0000 31.8192 0.0000 9.0803
# 5 1.6659 -3.0338 1.1028 0.0000 40.9571 0.0000
# 6 0.0000 0.0000 0.0000 9.0803 0.0000 23.3787
#
#
#
# Elastic Compliance Matrix: (Units=1/GPa)
#
#
# Indices 1 2 3 4 5 6 
#
# 1 0.013299 -0.013698 -0.004448 0.000000 -0.001436 0.000000
# 2 -0.013698 0.119328 -0.006493 0.000000 0.009571 0.000000
# 3 -0.004448 -0.006493 0.008660 0.000000 -0.000533 0.000000
# 4 0.000000 0.000000 0.000000 0.035345 0.000000 -0.013728
# 5 -0.001436 0.009571 -0.000533 0.000000 0.025198 0.000000
# 6 0.000000 0.000000 0.000000 -0.013728 0.000000 0.048106
#
#
# Mechanical properties :
#
#
# Convention : Reuss Voigt Hill
#
# Bulk Modulus (GPa) = 10.86832 57.03592 33.95212
# Shear Modulus (GPa) = 15.15691 31.72697 23.44194
#
# Velocity S-wave (km/s) = 2.74091 3.96555 3.40868
# Velocity P-wave (km/s) = 3.92476 7.01695 5.68513
#
# Compressibility (1/GPa) = 0.09201051
#
# Stress axis : x y z
#
# Youngs Moduli (GPa) = 75.19334 8.38024 115.47769
#
# Poissons Ratio (x) = 0.11479 0.51359
# Poissons Ratio (y) = 1.03000 0.74977
# Poissons Ratio (z) = 0.33443 0.05441
#
# Static dielectric constant tensor:
#      x y z
#    x 1.704540 0.000000 -0.011090 
#    y 0.000000 1.699350 0.000000 
#    z -0.011090 0.000000 1.709370 
# 
# From -- ./inp_files/37477.got.cif
#   From: 2010.05.17/outbox.cif.g08.bks.cpg/sg11_19_cif.got.tgz:37477.got - 2010.06.03 12:22:45.
