data_PCOD9162224
_publ_section_title
;
Structure prediction by ZEFSAII (Michael W. Deem and Ramdas Pophale) SiO2 
 PCOD9162224
Probable space group: P 21/M
;
_chemical_formula_sum "Si O2"
_cell_formula_units_Z 24
_cell_length_a 8.683761
_cell_length_b 15.447231
_cell_length_c 11.784950
_cell_angle_alpha 90.000000
_cell_angle_beta 144.368200
_cell_angle_gamma 90.000000
_cell_volume 920.953001
_symmetry_space_group_name_H-M "P 21/M"
_symmetry_group_IT_number 11
_symmetry_cell_setting 'monoclinic'
loop_
_space_group_symop_operation_xyz
x,y,z
-x,1/2+y,-z
-x,-y,-z
x,1/2-y,z
loop_
_atom_site_type_symbol
_atom_site_label
_atom_site_fract_x
_atom_site_fract_y
_atom_site_fract_z
Si Si1 0.803917 0.156621 0.537231
Si Si2 0.763703 0.973738 0.599136
Si Si3 0.087055 0.344972 0.473728
Si Si4 0.745581 0.614199 0.918406
Si Si5 0.190391 0.908670 0.026616
Si Si6 0.531897 0.395158 0.023505
O O1 0.810395 0.250000 0.600114
O O2 0.877873 0.067013 0.639705
O O3 0.505511 0.147181 0.306024
O O4 0.013993 0.157767 0.560666
O O5 0.500000 0.000000 0.500000
O O6 0.722225 0.917489 0.461666
O O7 0.941145 0.920217 0.791455
O O8 0.168738 0.250000 0.483632
O O9 0.805891 0.371671 0.250220
O O10 0.038456 0.635060 0.042609
O O11 0.675443 0.640122 0.006768
O O12 0.736195 0.508943 0.905219
O O13 0.411747 0.867478 0.074406
O O14 0.500000 0.500000 0.000000
#
# Coordination Sequence:
#
# PCOD9162224 Si02
#       6
#     4   4   4   4   4   4
#     4  10  20  35  54  78 105 142 188 232 277 332
#     4  11  20  33  51  81 111 146 182 228 282 329
#     4   9  19  34  54  78 107 144 188 230 275 331
#     4   9  16  31  51  73 102 134 173 224 264 329
#     4   9  17  30  50  76 103 135 177 216 275 322
#     4   8  15  28  49  75 102 134 173 219 270 317
#
# _framework density 26.059961000000001
#
# number of rings (size 3 to 8) (size 9 to 14) (size 15 to 20)
#    0.000    2.667    1.667    0.500    0.000    0.667 
#    0.000    0.833    0.000    6.000    0.000   28.000 
#    0.000    0.000    0.000    0.000    0.000    0.000 
#
# Total GULP energy -133953.462297 kJ/mol
# GULP energy per Si atom -5581.394262 kJ/mol
# Density = 2.600065 g / cm^3
# Si number density = 26.059961 Si / 1000 Ang^3
#
#
#
# Elastic Constant Matrix: (Units=GPa)
#
#
# Indices 1 2 3 4 5 6 
#
# 1 212.2636 55.0141 22.1777 0.0000 20.1343 0.0000
# 2 55.0141 75.0463 -1.9916 0.0000 14.2440 0.0000
# 3 22.1777 -1.9916 44.0173 0.0000 13.6585 0.0000
# 4 0.0000 0.0000 0.0000 8.1797 0.0000 -17.3622
# 5 20.1343 14.2440 13.6585 0.0000 36.6264 0.0000
# 6 0.0000 0.0000 0.0000 -17.3622 0.0000 -23.3708
#
#
#
# Elastic Compliance Matrix: (Units=1/GPa)
#
#
# Indices 1 2 3 4 5 6 
#
# 1 0.006287 -0.004607 -0.003234 0.000000 -0.000458 0.000000
# 2 -0.004607 0.018053 0.005124 0.000000 -0.006399 0.000000
# 3 -0.003234 0.005124 0.027871 0.000000 -0.010609 0.000000
# 4 0.000000 0.000000 0.000000 0.047443 0.000000 -0.035245
# 5 -0.000458 -0.006399 -0.010609 0.000000 0.033999 0.000000
# 6 0.000000 0.000000 0.000000 -0.035245 0.000000 -0.016605
#
#
# Mechanical properties :
#
#
# Convention : Reuss Voigt Hill
#
# Bulk Modulus (GPa) = 21.37836 53.52531 37.45183
# Shear Modulus (GPa) = 36.21225 21.36218 28.78721
#
# Velocity S-wave (km/s) = 3.73174 2.86620 3.32724
# Velocity P-wave (km/s) = 5.17583 5.61581 5.40030
#
# Compressibility (1/GPa) = 0.04677627
#
# Stress axis : x y z
#
# Youngs Moduli (GPa) = 159.06924 55.39218 35.87923
#
# Poissons Ratio (x) = 0.25521 0.11602
# Poissons Ratio (y) = 0.73289 -0.18384
# Poissons Ratio (z) = 0.51439 -0.28381
#
# Static dielectric constant tensor:
#      x y z
#    x 2.377070 0.000000 0.160890 
#    y 0.000000 2.038170 0.000000 
#    z 0.160890 0.000000 2.208990 
# 
# From -- ./inp_files/32112.got.cif
#   From: 2010.05.17/outbox.cif.g08.bks.cpg/sg11_17_cif.got.tgz:32112.got - 2010.06.03 12:22:45.
