data_PCOD9162805
_publ_section_title
;
Structure prediction by ZEFSAII (Michael W. Deem and Ramdas Pophale) SiO2 
 PCOD9162805
Probable space group: P 21/M
;
_chemical_formula_sum "Si O2"
_cell_formula_units_Z 32
_cell_length_a 12.368276
_cell_length_b 10.102749
_cell_length_c 29.470645
_cell_angle_alpha 90.000000
_cell_angle_beta 156.314778
_cell_angle_gamma 90.000000
_cell_volume 1479.288004
_symmetry_space_group_name_H-M "P 21/M"
_symmetry_group_IT_number 11
_symmetry_cell_setting 'monoclinic'
loop_
_space_group_symop_operation_xyz
x,y,z
-x,1/2+y,-z
-x,-y,-z
x,1/2-y,z
loop_
_atom_site_type_symbol
_atom_site_label
_atom_site_fract_x
_atom_site_fract_y
_atom_site_fract_z
Si Si1 0.244642 0.598365 0.860237
Si Si2 0.259326 0.905480 0.966089
Si Si3 0.884623 0.402603 0.872497
Si Si4 0.537971 0.605437 0.476475
Si Si5 0.478249 0.899296 0.357441
Si Si6 0.142551 0.896759 0.720469
Si Si7 0.558346 0.599879 0.222731
Si Si8 0.928881 0.401409 0.512979
O O1 0.363682 0.750000 0.906582
O O2 0.117329 0.585209 0.861367
O O3 0.080788 0.591841 0.750432
O O4 0.464872 0.483952 0.937611
O O5 0.290491 0.750000 0.988480
O O6 0.104440 0.987142 0.945197
O O7 0.984655 0.250000 0.916042
O O8 0.701671 0.402697 0.756536
O O9 0.697159 0.434700 0.843804
O O10 0.500000 0.500000 0.500000
O O11 0.494243 0.750000 0.480054
O O12 0.359186 0.597861 0.362501
O O13 0.854751 0.595623 0.585080
O O14 0.610232 0.750000 0.405936
O O15 0.662535 0.029010 0.428902
O O16 0.254169 0.750000 0.755432
O O17 0.354384 0.002048 0.783531
O O18 0.520374 0.750000 0.191606
O O19 0.818521 0.599385 0.355987
O O20 0.880680 0.250000 0.480461
O O21 0.000000 0.500000 0.500000
#
# Coordination Sequence:
#
# PCOD9162805 Si02
#       8
#     4   4   4   4   4   4   4   4
#     4   9  20  40  63  86 113 145 179 228 291 340
#     4  10  21  38  62  90 113 138 183 235 281 340
#     4  10  21  37  56  81 117 152 185 231 286 332
#     4  10  22  36  53  79 115 154 191 232 277 332
#     4  10  20  36  53  76 110 151 193 230 275 328
#     4  10  21  38  60  83 113 152 191 232 279 334
#     4  10  21  36  54  80 114 152 191 233 278 332
#     4  11  20  32  51  75 106 146 190 233 272 319
#
# _framework density 21.632027999999998
#
# number of rings (size 3 to 8) (size 9 to 14) (size 15 to 20)
#    0.000    2.000    2.500    0.750    1.750    3.500 
#    0.000    0.625    0.000    0.000    0.000    0.000 
#    0.000    0.000    0.000    0.000    0.000    0.000 
#
# Total GULP energy -178355.419065 kJ/mol
# GULP energy per Si atom -5573.606846 kJ/mol
# Density = 2.158279 g / cm^3
# Si number density = 21.632028 Si / 1000 Ang^3
#
#
#
# Elastic Constant Matrix: (Units=GPa)
#
#
# Indices 1 2 3 4 5 6 
#
# 1 64.6351 47.2464 -10.4675 0.0000 2.0969 0.0000
# 2 47.2464 150.3559 10.7011 0.0000 17.2904 0.0000
# 3 -10.4675 10.7011 27.8730 0.0000 -7.4008 0.0000
# 4 0.0000 0.0000 0.0000 19.3129 0.0000 3.4666
# 5 2.0969 17.2904 -7.4008 0.0000 29.9262 0.0000
# 6 0.0000 0.0000 0.0000 3.4666 0.0000 42.9355
#
#
#
# Elastic Compliance Matrix: (Units=1/GPa)
#
#
# Indices 1 2 3 4 5 6 
#
# 1 0.024780 -0.009734 0.015064 0.000000 0.007613 0.000000
# 2 -0.009734 0.011414 -0.010283 0.000000 -0.008455 0.000000
# 3 0.015064 -0.010283 0.050067 0.000000 0.017267 0.000000
# 4 0.000000 0.000000 0.000000 0.052540 0.000000 -0.004242
# 5 0.007613 -0.008455 0.017267 0.000000 0.042037 0.000000
# 6 0.000000 0.000000 0.000000 -0.004242 0.000000 0.023633
#
#
# Mechanical properties :
#
#
# Convention : Reuss Voigt Hill
#
# Bulk Modulus (GPa) = 13.09663 37.53599 25.31631
# Shear Modulus (GPa) = 20.84828 31.46053 26.15440
#
# Velocity S-wave (km/s) = 3.10783 3.81773 3.48093
# Velocity P-wave (km/s) = 4.35265 6.06821 5.28056
#
# Compressibility (1/GPa) = 0.07635550
#
# Stress axis : x y z
#
# Youngs Moduli (GPa) = 40.35588 87.61293 19.97325
#
# Poissons Ratio (x) = 0.85284 -0.30089
# Poissons Ratio (y) = 0.39283 0.20538
# Poissons Ratio (z) = -0.60794 0.90090
#
# Static dielectric constant tensor:
#      x y z
#    x 1.896870 0.000000 0.047910 
#    y 0.000000 2.055360 0.000000 
#    z 0.047910 0.000000 1.899450 
# 
# From -- ./inp_files/73211.got.cif
#   From: 2010.05.17/outbox.cif.g08.bks.cpg/sg11_37_cif.got.tgz:73211.got - 2010.06.03 12:22:45.
