data_PCOD9162761
_publ_section_title
;
Structure prediction by ZEFSAII (Michael W. Deem and Ramdas Pophale) SiO2 
 PCOD9162761
Probable space group: P 21/M
;
_chemical_formula_sum "Si O2"
_cell_formula_units_Z 32
_cell_length_a 31.959798
_cell_length_b 8.781123
_cell_length_c 12.291055
_cell_angle_alpha 90.000000
_cell_angle_beta 30.088320
_cell_angle_gamma 90.000000
_cell_volume 1729.301510
_symmetry_space_group_name_H-M "P 21/M"
_symmetry_group_IT_number 11
_symmetry_cell_setting 'monoclinic'
loop_
_space_group_symop_operation_xyz
x,y,z
-x,1/2+y,-z
-x,-y,-z
x,1/2-y,z
loop_
_atom_site_type_symbol
_atom_site_label
_atom_site_fract_x
_atom_site_fract_y
_atom_site_fract_z
Si Si1 0.725295 0.432444 0.711834
Si Si2 0.785250 0.567595 0.351824
Si Si3 0.241459 0.433113 0.830185
Si Si4 0.421851 0.067863 0.818170
Si Si5 0.399028 0.433668 0.618693
Si Si6 0.907453 0.431312 0.702372
Si Si7 0.968880 0.068213 0.955723
Si Si8 0.118026 0.932597 0.487717
O O1 0.723225 0.250000 0.711905
O O2 0.741389 0.498325 0.556109
O O3 0.803225 0.476347 0.614859
O O4 0.641375 0.495221 0.954314
O O5 0.788685 0.750000 0.355087
O O6 0.743781 0.529128 0.329329
O O7 0.878675 0.501940 0.136435
O O8 0.234743 0.250000 0.853410
O O9 0.318101 0.483263 0.733575
O O10 0.155273 0.502410 0.067393
O O11 0.420748 0.250000 0.830036
O O12 0.392938 0.026405 0.760191
O O13 0.515875 0.006653 0.616898
O O14 0.405820 0.250000 0.596159
O O15 0.913066 0.250000 0.701858
O O16 0.870438 0.465726 0.665553
O O17 0.000000 0.500000 0.500000
O O18 0.963610 0.250000 0.974489
O O19 0.036172 0.017310 0.715114
O O20 0.000000 0.000000 0.000000
O O21 0.105529 0.750000 0.527511
#
# Coordination Sequence:
#
# PCOD9162761 Si02
#       8
#     4   4   4   4   4   4   4   4
#     4  11  22  37  58  83 113 149 189 235 289 342
#     4  11  23  39  58  82 114 151 194 241 286 336
#     4  10  22  40  61  84 115 154 193 236 285 342
#     4  10  20  35  60  91 120 146 182 235 287 340
#     4   9  19  38  62  88 117 151 187 227 283 345
#     4  11  23  38  57  83 116 152 191 237 284 338
#     4  12  23  36  56  81 111 150 193 237 285 337
#     4  10  22  38  56  81 113 148 190 239 288 337
#
# _framework density 18.504581999999999
#
# number of rings (size 3 to 8) (size 9 to 14) (size 15 to 20)
#    0.000    1.500    1.250    4.125    0.000    6.500 
#    0.000    0.625    0.000    0.000    0.000    0.000 
#    0.000    0.000    0.000    0.000    0.000    0.000 
#
# Total GULP energy -178883.154561 kJ/mol
# GULP energy per Si atom -5590.098580 kJ/mol
# Density = 1.846246 g / cm^3
# Si number density = 18.504582 Si / 1000 Ang^3
#
#
#
# Elastic Constant Matrix: (Units=GPa)
#
#
# Indices 1 2 3 4 5 6 
#
# 1 108.6132 35.0722 61.7388 0.0000 1.8241 0.0000
# 2 35.0722 38.7279 41.8004 0.0000 7.6154 0.0000
# 3 61.7388 41.8004 144.2669 0.0000 11.1120 0.0000
# 4 0.0000 0.0000 0.0000 31.7972 0.0000 2.7596
# 5 1.8241 7.6154 11.1120 0.0000 29.2696 0.0000
# 6 0.0000 0.0000 0.0000 2.7596 0.0000 24.3474
#
#
#
# Elastic Compliance Matrix: (Units=1/GPa)
#
#
# Indices 1 2 3 4 5 6 
#
# 1 0.014307 -0.009729 -0.003533 0.000000 0.002981 0.000000
# 2 -0.009729 0.045172 -0.008309 0.000000 -0.007992 0.000000
# 3 -0.003533 -0.008309 0.010989 0.000000 -0.001790 0.000000
# 4 0.000000 0.000000 0.000000 0.031762 0.000000 -0.003600
# 5 0.002981 -0.007992 -0.001790 0.000000 0.036738 0.000000
# 6 0.000000 0.000000 0.000000 -0.003600 0.000000 0.041480
#
#
# Mechanical properties :
#
#
# Convention : Reuss Voigt Hill
#
# Bulk Modulus (GPa) = 36.59688 63.20342 49.90015
# Shear Modulus (GPa) = 21.48700 27.28261 24.38481
#
# Velocity S-wave (km/s) = 3.41129 3.84392 3.63405
# Velocity P-wave (km/s) = 5.94441 7.34375 6.68082
#
# Compressibility (1/GPa) = 0.02732474
#
# Stress axis : x y z
#
# Youngs Moduli (GPa) = 69.89610 22.13782 90.99969
#
# Poissons Ratio (x) = 0.21538 0.32153
# Poissons Ratio (y) = 0.68002 0.75612
# Poissons Ratio (z) = 0.24697 0.18394
#
# Static dielectric constant tensor:
#      x y z
#    x 4.254560 0.000000 -0.507980 
#    y 0.000000 1.616850 0.000000 
#    z -0.507980 0.000000 1.700470 
# 
# From -- ./inp_files/45187.got.cif
#   From: 2010.05.17/outbox.cif.g08.bks.cpg/sg11_23_cif.got.tgz:45187.got - 2010.06.03 12:22:45.
