data_PCOD9162293
_publ_section_title
;
Structure prediction by ZEFSAII (Michael W. Deem and Ramdas Pophale) SiO2 
 PCOD9162293
Probable space group: P 21/M
;
_chemical_formula_sum "Si O2"
_cell_formula_units_Z 28
_cell_length_a 20.814858
_cell_length_b 8.590144
_cell_length_c 18.274774
_cell_angle_alpha 90.000000
_cell_angle_beta 28.243491
_cell_angle_gamma 90.000000
_cell_volume 1546.281743
_symmetry_space_group_name_H-M "P 21/M"
_symmetry_group_IT_number 11
_symmetry_cell_setting 'monoclinic'
loop_
_space_group_symop_operation_xyz
x,y,z
-x,1/2+y,-z
-x,-y,-z
x,1/2-y,z
loop_
_atom_site_type_symbol
_atom_site_label
_atom_site_fract_x
_atom_site_fract_y
_atom_site_fract_z
Si Si1 0.850674 0.561529 0.857139
Si Si2 0.345910 0.437634 0.076562
Si Si3 0.148608 0.439008 0.977250
Si Si4 0.662683 0.435827 0.757262
Si Si5 0.347604 0.063259 0.648674
Si Si6 0.836972 0.063422 0.294410
Si Si7 0.849958 0.934542 0.442004
O O1 0.861029 0.750000 0.845972
O O2 0.742719 0.514675 0.904250
O O3 0.998049 0.492163 0.693005
O O4 0.814335 0.515041 0.976879
O O5 0.338824 0.250000 0.090406
O O6 0.296654 0.511371 0.201974
O O7 0.503962 0.479701 0.907878
O O8 0.148413 0.250000 0.975474
O O9 0.254925 0.493161 0.809961
O O10 0.992311 0.487812 0.120190
O O11 0.674464 0.250000 0.739149
O O12 0.751434 0.514782 0.605857
O O13 0.352283 0.250000 0.646174
O O14 0.500000 0.000000 0.500000
O O15 0.270100 0.009425 0.653550
O O16 0.831632 0.250000 0.294566
O O17 0.810938 0.013559 0.404049
O O18 0.848701 0.750000 0.434032
#
# Coordination Sequence:
#
# PCOD9162293 Si02
#       7
#     4   4   4   4   4   4   4
#     4   9  18  36  58  80 105 137 179 224 270 318
#     4   9  19  35  56  80 107 142 184 226 268 318
#     4   8  17  34  57  80 105 139 179 222 269 321
#     4  10  20  35  55  79 109 146 183 221 270 324
#     4  11  22  36  54  82 115 146 181 222 267 317
#     4  10  20  38  60  80 104 140 182 224 272 322
#     4  11  22  36  55  82 111 139 176 222 270 323
#
# _framework density 18.107952999999998
#
# number of rings (size 3 to 8) (size 9 to 14) (size 15 to 20)
#    0.000    2.286    0.000    3.857    0.000    2.857 
#    0.000    9.286    0.000    0.000    0.000    0.000 
#    0.000    0.000    0.000    0.000    0.000    0.000 
#
# Total GULP energy -156296.984229 kJ/mol
# GULP energy per Si atom -5582.035151 kJ/mol
# Density = 1.806674 g / cm^3
# Si number density = 18.107953 Si / 1000 Ang^3
#
#
#
# Elastic Constant Matrix: (Units=GPa)
#
#
# Indices 1 2 3 4 5 6 
#
# 1 161.3061 38.3672 99.1917 0.0000 -7.7061 0.0000
# 2 38.3672 54.7252 98.5533 0.0000 15.2289 0.0000
# 3 99.1917 98.5533 506.9790 0.0000 105.5458 0.0000
# 4 0.0000 0.0000 0.0000 11.2936 0.0000 -4.4122
# 5 -7.7061 15.2289 105.5458 0.0000 38.6984 0.0000
# 6 0.0000 0.0000 0.0000 -4.4122 0.0000 28.3892
#
#
#
# Elastic Compliance Matrix: (Units=1/GPa)
#
#
# Indices 1 2 3 4 5 6 
#
# 1 0.011013 -0.003288 -0.005186 0.000000 0.017632 0.000000
# 2 -0.003288 0.030484 -0.006129 0.000000 0.004065 0.000000
# 3 -0.005186 -0.006129 0.009004 0.000000 -0.023178 0.000000
# 4 0.000000 0.000000 0.000000 0.094269 0.000000 0.014651
# 5 0.017632 0.004065 -0.023178 0.000000 0.090969 0.000000
# 6 0.000000 0.000000 0.000000 0.014651 0.000000 0.037502
#
#
# Mechanical properties :
#
#
# Convention : Reuss Voigt Hill
#
# Bulk Modulus (GPa) = 46.95870 132.80386 89.88128
# Shear Modulus (GPa) = 16.15268 48.13612 32.14440
#
# Velocity S-wave (km/s) = 2.98991 5.16145 4.21783
# Velocity P-wave (km/s) = 6.15698 10.44127 8.57113
#
# Compressibility (1/GPa) = 0.02129531
#
# Stress axis : x y z
#
# Youngs Moduli (GPa) = 90.80211 32.80358 111.06109
#
# Poissons Ratio (x) = 0.10785 0.57600
# Poissons Ratio (y) = 0.29853 0.68070
# Poissons Ratio (z) = 0.47093 0.20105
#
# Static dielectric constant tensor:
#      x y z
#    x 1.602540 0.000000 0.003690 
#    y 0.000000 1.614950 0.000000 
#    z 0.003690 0.000000 1.602310 
# 
# From -- ./inp_files/61232.got.cif
#   From: 2010.05.17/outbox.cif.g08.bks.cpg/sg11_31_cif.got.tgz:61232.got - 2010.06.03 12:22:45.
