data_PCOD9162983
_publ_section_title
;
Structure prediction by ZEFSAII (Michael W. Deem and Ramdas Pophale) SiO2 
 PCOD9162983
Probable space group: P 21/M
;
_chemical_formula_sum "Si O2"
_cell_formula_units_Z 32
_cell_length_a 15.456367
_cell_length_b 9.166302
_cell_length_c 24.716221
_cell_angle_alpha 90.000000
_cell_angle_beta 28.976599
_cell_angle_gamma 90.000000
_cell_volume 1696.425266
_symmetry_space_group_name_H-M "P 21/M"
_symmetry_group_IT_number 11
_symmetry_cell_setting 'monoclinic'
loop_
_space_group_symop_operation_xyz
x,y,z
-x,1/2+y,-z
-x,-y,-z
x,1/2-y,z
loop_
_atom_site_type_symbol
_atom_site_label
_atom_site_fract_x
_atom_site_fract_y
_atom_site_fract_z
Si Si1 0.988704 0.926625 0.768318
Si Si2 0.679648 0.426701 0.746395
Si Si3 0.732453 0.925679 0.002272
Si Si4 0.390011 0.413684 0.704128
Si Si5 0.696705 0.074998 0.613556
Si Si6 0.004776 0.072680 0.360736
Si Si7 0.363659 0.922047 0.613449
Si Si8 0.024082 0.584769 0.042521
O O1 0.986713 0.750000 0.767578
O O2 0.006061 0.974478 0.696372
O O3 0.163541 0.970854 0.706857
O O4 0.815811 0.970116 0.898386
O O5 0.701465 0.250000 0.736861
O O6 0.475722 0.459253 0.875054
O O7 0.715247 0.477824 0.664902
O O8 0.818780 0.505390 0.709285
O O9 0.752700 0.750000 0.996320
O O10 0.849719 0.001133 0.984660
O O11 0.453320 0.250000 0.652998
O O12 0.498250 0.451772 0.698952
O O13 0.421859 0.531246 0.641045
O O14 0.178654 0.407267 0.825714
O O15 0.716743 0.250000 0.606151
O O16 0.839495 0.026034 0.490092
O O17 0.010328 0.250000 0.358428
O O18 0.370252 0.750000 0.603109
O O19 0.500000 0.000000 0.500000
O O20 0.089720 0.750000 0.998147
O O21 0.000000 0.500000 0.000000
#
# Coordination Sequence:
#
# PCOD9162983 Si02
#       8
#     4   4   4   4   4   4   4   4
#     4   9  19  36  57  79 109 151 190 229 286 345
#     4  10  21  37  58  82 109 146 187 237 296 342
#     4  10  20  38  59  79 111 151 193 235 284 348
#     4  10  20  36  57  83 112 147 190 230 277 338
#     4   9  18  35  57  80 111 148 184 226 286 352
#     4  10  20  36  58  80 106 145 190 235 283 345
#     4  11  21  35  56  82 114 151 189 231 278 338
#     4  11  22  35  56  85 118 153 190 235 283 337
#
# _framework density 18.863194
#
# number of rings (size 3 to 8) (size 9 to 14) (size 15 to 20)
#    0.000    2.000    1.250    2.625    0.000    5.500 
#    0.000    4.375    0.000    0.000    0.000    0.000 
#    0.000    0.000    0.000    0.000    0.000    0.000 
#
# Total GULP energy -178451.209633 kJ/mol
# GULP energy per Si atom -5576.600301 kJ/mol
# Density = 1.882026 g / cm^3
# Si number density = 18.863194 Si / 1000 Ang^3
#
#
#
# Elastic Constant Matrix: (Units=GPa)
#
#
# Indices 1 2 3 4 5 6 
#
# 1 89.6219 15.6828 14.9240 0.0000 7.4908 0.0000
# 2 15.6828 30.3057 18.8831 0.0000 1.6047 0.0000
# 3 14.9240 18.8831 72.6845 0.0000 7.3965 0.0000
# 4 0.0000 0.0000 0.0000 17.6215 0.0000 -3.8526
# 5 7.4908 1.6047 7.3965 0.0000 35.4538 0.0000
# 6 0.0000 0.0000 0.0000 -3.8526 0.0000 33.5407
#
#
#
# Elastic Compliance Matrix: (Units=1/GPa)
#
#
# Indices 1 2 3 4 5 6 
#
# 1 0.012501 -0.005838 -0.000826 0.000000 -0.002205 0.000000
# 2 -0.005838 0.042101 -0.009880 0.000000 0.001389 0.000000
# 3 -0.000826 -0.009880 0.016788 0.000000 -0.002881 0.000000
# 4 0.000000 0.000000 0.000000 0.058211 0.000000 0.006686
# 5 -0.002205 0.001389 -0.002881 0.000000 0.029210 0.000000
# 6 0.000000 0.000000 0.000000 0.006686 0.000000 0.030583
#
#
# Mechanical properties :
#
#
# Convention : Reuss Voigt Hill
#
# Bulk Modulus (GPa) = 26.10845 32.39909 29.25377
# Shear Modulus (GPa) = 21.25414 26.86468 24.05941
#
# Velocity S-wave (km/s) = 3.36035 3.77793 3.57524
# Velocity P-wave (km/s) = 5.37838 6.02025 5.70835
#
# Compressibility (1/GPa) = 0.03830177
#
# Stress axis : x y z
#
# Youngs Moduli (GPa) = 79.99132 23.75242 59.56764
#
# Poissons Ratio (x) = 0.13867 0.04919
# Poissons Ratio (y) = 0.46699 0.58855
# Poissons Ratio (z) = 0.06606 0.23468
#
# Static dielectric constant tensor:
#      x y z
#    x 1.547090 0.000000 -0.052110 
#    y 0.000000 1.642100 0.000000 
#    z -0.052110 0.000000 1.634560 
# 
# From -- ./inp_files/55777.got.cif
#   From: 2010.05.17/outbox.cif.g08.bks.cpg/sg11_28_cif.got.tgz:55777.got - 2010.06.03 12:22:45.
