data_PCOD9162490
_publ_section_title
;
Structure prediction by ZEFSAII (Michael W. Deem and Ramdas Pophale) SiO2 
 PCOD9162490
Probable space group: P 21/M
;
_chemical_formula_sum "Si O2"
_cell_formula_units_Z 32
_cell_length_a 8.565687
_cell_length_b 14.578480
_cell_length_c 13.048685
_cell_angle_alpha 90.000000
_cell_angle_beta 50.656934
_cell_angle_gamma 90.000000
_cell_volume 1260.158280
_symmetry_space_group_name_H-M "P 21/M"
_symmetry_group_IT_number 11
_symmetry_cell_setting 'monoclinic'
loop_
_space_group_symop_operation_xyz
x,y,z
-x,1/2+y,-z
-x,-y,-z
x,1/2-y,z
loop_
_atom_site_type_symbol
_atom_site_label
_atom_site_fract_x
_atom_site_fract_y
_atom_site_fract_z
Si Si1 0.236654 0.647109 0.338510
Si Si2 0.401123 0.361748 0.543888
Si Si3 0.695910 0.386774 0.912963
Si Si4 0.320694 0.362630 0.799907
Si Si5 0.814742 0.140943 0.298127
Si Si6 0.095741 0.859782 0.955878
Si Si7 0.725792 0.902755 0.839897
Si Si8 0.808320 0.861969 0.579351
O O1 0.253873 0.750000 0.375254
O O2 0.201912 0.654380 0.230854
O O3 0.457872 0.604864 0.259306
O O4 0.041186 0.606064 0.473570
O O5 0.393435 0.250000 0.549144
O O6 0.292198 0.389830 0.693372
O O7 0.300621 0.390459 0.479646
O O8 0.634621 0.394001 0.444826
O O9 0.708100 0.493560 0.882876
O O10 0.802934 0.371799 0.976534
O O11 0.463012 0.355365 0.024517
O O12 0.318594 0.250000 0.807633
O O13 0.133353 0.396609 0.944357
O O14 0.780551 0.250000 0.310991
O O15 0.046585 0.128556 0.232598
O O16 0.791905 0.104554 0.191442
O O17 0.082622 0.750000 0.946597
O O18 0.703704 0.893611 0.726829
O O19 0.808896 0.750000 0.581607
#
# Coordination Sequence:
#
# PCOD9162490 Si02
#       8
#     4   4   4   4   4   4   4   4
#     4  10  20  36  61  88 112 143 184 231 281 330
#     4   9  17  31  53  82 111 136 171 223 277 326
#     4  11  24  39  55  79 114 153 189 227 274 331
#     4   9  17  31  53  82 111 136 171 223 277 326
#     4  10  20  35  57  82 107 140 184 232 278 324
#     4  10  20  35  57  82 107 140 184 232 278 324
#     4  11  24  39  55  79 114 153 189 227 274 331
#     4  10  20  36  61  88 112 143 184 231 281 330
#
# _framework density 25.393636999999998
#
# number of rings (size 3 to 8) (size 9 to 14) (size 15 to 20)
#    0.000    2.000    0.000    3.750    0.000    9.000 
#    0.000    1.250    0.000    3.000    0.000    0.000 
#    0.000    0.000    0.000    0.000    0.000    0.000 
#
# Total GULP energy -179071.334118 kJ/mol
# GULP energy per Si atom -5595.979191 kJ/mol
# Density = 2.533584 g / cm^3
# Si number density = 25.393637 Si / 1000 Ang^3
#
#
#
# Elastic Constant Matrix: (Units=GPa)
#
#
# Indices 1 2 3 4 5 6 
#
# 1 68.7679 -8.0164 3.7034 0.0000 -0.1061 0.0000
# 2 -8.0164 46.6582 6.7457 0.0000 -4.1472 0.0000
# 3 3.7034 6.7457 114.5350 0.0000 -7.3233 0.0000
# 4 0.0000 0.0000 0.0000 82.9266 0.0000 22.8120
# 5 -0.1061 -4.1472 -7.3233 0.0000 46.9457 0.0000
# 6 0.0000 0.0000 0.0000 22.8120 0.0000 15.0290
#
#
#
# Elastic Compliance Matrix: (Units=1/GPa)
#
#
# Indices 1 2 3 4 5 6 
#
# 1 0.014886 0.002664 -0.000627 0.000000 0.000171 0.000000
# 2 0.002664 0.022233 -0.001282 0.000000 0.001770 0.000000
# 3 -0.000627 -0.001282 0.008908 0.000000 0.001275 0.000000
# 4 0.000000 0.000000 0.000000 0.020704 0.000000 -0.031425
# 5 0.000171 0.001770 0.001275 0.000000 0.021657 0.000000
# 6 0.000000 0.000000 0.000000 -0.031425 0.000000 0.114237
#
#
# Mechanical properties :
#
#
# Convention : Reuss Voigt Hill
#
# Bulk Modulus (GPa) = 21.03710 26.09182 23.56446
# Shear Modulus (GPa) = 23.04550 44.14882 33.59716
#
# Velocity S-wave (km/s) = 3.01579 4.17415 3.64133
# Velocity P-wave (km/s) = 4.51985 5.79039 5.19412
#
# Compressibility (1/GPa) = 0.04753508
#
# Stress axis : x y z
#
# Youngs Moduli (GPa) = 67.17630 44.97852 112.25506
#
# Poissons Ratio (x) = -0.11980 0.07041
# Poissons Ratio (y) = -0.17893 0.14395
# Poissons Ratio (z) = 0.04214 0.05768
#
# Static dielectric constant tensor:
#      x y z
#    x 2.011580 0.000000 -0.013320 
#    y 0.000000 2.031220 0.000000 
#    z -0.013320 0.000000 1.953510 
# 
# From -- ./inp_files/32812.got.cif
#   From: 2010.05.17/outbox.cif.g08.bks.cpg/sg11_17_cif.got.tgz:32812.got - 2010.06.03 12:22:45.
