data_PCOD9162699
_publ_section_title
;
Structure prediction by ZEFSAII (Michael W. Deem and Ramdas Pophale) SiO2 
 PCOD9162699
Probable space group: P 21/M
;
_chemical_formula_sum "Si O2"
_cell_formula_units_Z 24
_cell_length_a 16.971645
_cell_length_b 10.765454
_cell_length_c 13.520083
_cell_angle_alpha 90.000000
_cell_angle_beta 25.328643
_cell_angle_gamma 90.000000
_cell_volume 1056.784291
_symmetry_space_group_name_H-M "P 21/M"
_symmetry_group_IT_number 11
_symmetry_cell_setting 'monoclinic'
loop_
_space_group_symop_operation_xyz
x,y,z
-x,1/2+y,-z
-x,-y,-z
x,1/2-y,z
loop_
_atom_site_type_symbol
_atom_site_label
_atom_site_fract_x
_atom_site_fract_y
_atom_site_fract_z
Si Si1 0.711518 0.926551 0.782428
Si Si2 0.124878 0.885117 0.272923
Si Si3 0.762670 0.888962 0.200298
Si Si4 0.618889 0.061367 0.711882
Si Si5 0.043939 0.386470 0.223149
Si Si6 0.377185 0.892822 0.517788
O O1 0.917099 0.875507 0.550879
O O2 0.748206 0.066494 0.782591
O O3 0.649867 0.933831 0.738623
O O4 0.550655 0.879822 0.035487
O O5 0.179435 0.750000 0.172445
O O6 0.119494 0.997137 0.199849
O O7 0.787609 0.750000 0.216228
O O8 0.563563 0.888809 0.371111
O O9 0.756081 0.005083 0.281756
O O10 0.906172 0.904646 0.948169
O O11 0.823937 0.116657 0.483771
O O12 0.572879 0.061212 0.648905
O O13 0.119154 0.250000 0.167268
O O14 0.306893 0.750000 0.592547
#
# Coordination Sequence:
#
# PCOD9162699 Si02
#       6
#     4   4   4   4   4   4
#     4   9  21  38  56  82 119 156 193 237 285 339
#     4  10  21  37  60  88 117 154 197 240 286 337
#     4   9  20  39  59  81 112 149 189 234 288 348
#     4  10  20  37  58  84 116 154 195 237 285 341
#     4  10  21  38  61  87 117 155 194 235 287 347
#     4  10  20  35  59  86 110 145 193 241 286 336
#
# _framework density 22.710407
#
# number of rings (size 3 to 8) (size 9 to 14) (size 15 to 20)
#    0.000    2.333    0.000    1.500    0.000    9.333 
#    0.000   14.167    0.000    0.000    0.000    0.000 
#    0.000    0.000    0.000    0.000    0.000    0.000 
#
# Total GULP energy -133824.054420 kJ/mol
# GULP energy per Si atom -5576.002267 kJ/mol
# Density = 2.265872 g / cm^3
# Si number density = 22.710407 Si / 1000 Ang^3
#
#
#
# Elastic Constant Matrix: (Units=GPa)
#
#
# Indices 1 2 3 4 5 6 
#
# 1 51.2947 47.8235 17.1016 0.0000 12.2380 0.0000
# 2 47.8235 164.0929 76.8614 0.0000 25.1368 0.0000
# 3 17.1016 76.8614 142.3591 0.0000 19.2394 0.0000
# 4 0.0000 0.0000 0.0000 -3.5498 0.0000 5.1401
# 5 12.2380 25.1368 19.2394 0.0000 40.8141 0.0000
# 6 0.0000 0.0000 0.0000 5.1401 0.0000 -4.0068
#
#
#
# Elastic Compliance Matrix: (Units=1/GPa)
#
#
# Indices 1 2 3 4 5 6 
#
# 1 0.027528 -0.008185 0.001652 0.000000 -0.003992 0.000000
# 2 -0.008185 0.010988 -0.004663 0.000000 -0.002115 0.000000
# 3 0.001652 -0.004663 0.009637 0.000000 -0.002166 0.000000
# 4 0.000000 0.000000 0.000000 0.328496 0.000000 0.421410
# 5 -0.003992 -0.002115 -0.002166 0.000000 0.028022 0.000000
# 6 0.000000 0.000000 0.000000 0.421410 0.000000 0.291029
#
#
# Mechanical properties :
#
#
# Convention : Reuss Voigt Hill
#
# Bulk Modulus (GPa) = 38.82129 71.25776 55.03953
# Shear Modulus (GPa) = 6.88062 21.04883 13.96473
#
# Velocity S-wave (km/s) = 1.74250 3.04770 2.48242
# Velocity P-wave (km/s) = 4.60213 6.62038 5.70127
#
# Compressibility (1/GPa) = 0.02575906
#
# Stress axis : x y z
#
# Youngs Moduli (GPa) = 36.32666 91.00963 103.77104
#
# Poissons Ratio (x) = 0.74491 -0.17140
# Poissons Ratio (y) = 0.29733 0.48393
# Poissons Ratio (z) = -0.06000 0.42442
#
# Static dielectric constant tensor:
#      x y z
#    x 1.887020 0.000000 -0.024750 
#    y 0.000000 1.857740 0.000000 
#    z -0.024750 0.000000 1.841140 
# 
# From -- ./inp_files/41276.got.cif
#   From: 2010.05.17/outbox.cif.g08.bks.cpg/sg11_21_cif.got.tgz:41276.got - 2010.06.03 12:22:45.
