data_PCOD9162419
_publ_section_title
;
Structure prediction by ZEFSAII (Michael W. Deem and Ramdas Pophale) SiO2 
 PCOD9162419
Probable space group: P 21/M
;
_chemical_formula_sum "Si O2"
_cell_formula_units_Z 28
_cell_length_a 11.458122
_cell_length_b 8.699020
_cell_length_c 16.412880
_cell_angle_alpha 90.000000
_cell_angle_beta 61.559188
_cell_angle_gamma 90.000000
_cell_volume 1438.501639
_symmetry_space_group_name_H-M "P 21/M"
_symmetry_group_IT_number 11
_symmetry_cell_setting 'monoclinic'
loop_
_space_group_symop_operation_xyz
x,y,z
-x,1/2+y,-z
-x,-y,-z
x,1/2-y,z
loop_
_atom_site_type_symbol
_atom_site_label
_atom_site_fract_x
_atom_site_fract_y
_atom_site_fract_z
Si Si1 0.093210 0.934362 0.039391
Si Si2 0.675471 0.934318 0.592464
Si Si3 0.344010 0.567206 0.221210
Si Si4 0.626139 0.063863 0.321261
Si Si5 0.169582 0.564116 0.607415
Si Si6 0.904450 0.934001 0.785491
Si Si7 0.630757 0.435175 0.132698
O O1 0.082334 0.750000 0.046063
O O2 0.058267 0.006754 0.137565
O O3 0.244713 0.974281 0.964728
O O4 0.000000 0.000000 0.000000
O O5 0.679627 0.750000 0.596245
O O6 0.526861 0.980482 0.612058
O O7 0.690466 0.002087 0.677630
O O8 0.782503 0.994907 0.493345
O O9 0.342502 0.750000 0.223081
O O10 0.234426 0.505080 0.195797
O O11 0.491974 0.508316 0.152640
O O12 0.631749 0.250000 0.320368
O O13 0.728586 0.010239 0.355484
O O14 0.658311 0.016662 0.217651
O O15 0.176649 0.750000 0.600549
O O16 0.021520 0.521882 0.684032
O O17 0.895322 0.750000 0.789421
O O18 0.615141 0.250000 0.138392
#
# Coordination Sequence:
#
# PCOD9162419 Si02
#       7
#     4   4   4   4   4   4   4
#     4  11  23  40  64  93 123 154 190 234 285 343
#     4  10  20  35  57  84 116 152 188 234 291 349
#     4  11  23  40  61  85 113 148 195 245 291 346
#     4   8  15  31  55  83 113 144 182 228 281 338
#     4  10  20  35  56  82 113 152 195 238 286 340
#     4  11  24  41  60  83 116 156 196 242 292 343
#     4   9  19  38  62  86 116 154 192 236 289 341
#
# _framework density 19.464697000000001
#
# number of rings (size 3 to 8) (size 9 to 14) (size 15 to 20)
#    0.000    2.000    0.000    4.714    0.000    5.714 
#    0.000    2.857    0.000    0.000    0.000    0.000 
#    0.000    0.000    0.000    0.000    0.000    0.000 
#
# Total GULP energy -156456.712374 kJ/mol
# GULP energy per Si atom -5587.739728 kJ/mol
# Density = 1.942039 g / cm^3
# Si number density = 19.464697 Si / 1000 Ang^3
#
#
#
# Elastic Constant Matrix: (Units=GPa)
#
#
# Indices 1 2 3 4 5 6 
#
# 1 70.7336 23.1724 1.2954 0.0000 1.2045 0.0000
# 2 23.1724 49.2679 23.9435 0.0000 -11.6903 0.0000
# 3 1.2954 23.9435 51.6410 0.0000 -26.0441 0.0000
# 4 0.0000 0.0000 0.0000 27.8538 0.0000 2.5689
# 5 1.2045 -11.6903 -26.0441 0.0000 23.3441 0.0000
# 6 0.0000 0.0000 0.0000 2.5689 0.0000 25.8122
#
#
#
# Elastic Compliance Matrix: (Units=1/GPa)
#
#
# Indices 1 2 3 4 5 6 
#
# 1 0.017516 -0.010331 0.002940 0.000000 -0.002798 0.000000
# 2 -0.010331 0.032304 -0.014385 0.000000 0.000661 0.000000
# 3 0.002940 -0.014385 0.050878 0.000000 0.049407 0.000000
# 4 0.000000 0.000000 0.000000 0.036234 0.000000 -0.003606
# 5 -0.002798 0.000661 0.049407 0.000000 0.098435 0.000000
# 6 0.000000 0.000000 0.000000 -0.003606 0.000000 0.039100
#
#
# Mechanical properties :
#
#
# Convention : Reuss Voigt Hill
#
# Bulk Modulus (GPa) = 17.49935 29.82945 23.66440
# Shear Modulus (GPa) = 14.83381 23.61743 19.22562
#
# Velocity S-wave (km/s) = 2.76359 3.48709 3.14621
# Velocity P-wave (km/s) = 4.38099 5.61883 5.03807
#
# Compressibility (1/GPa) = 0.05714498
#
# Stress axis : x y z
#
# Youngs Moduli (GPa) = 57.09173 30.95599 19.65483
#
# Poissons Ratio (x) = 0.31979 -0.05778
# Poissons Ratio (y) = 0.58979 0.28274
# Poissons Ratio (z) = -0.16782 0.44531
#
# Static dielectric constant tensor:
#      x y z
#    x 1.678600 0.000000 0.001240 
#    y 0.000000 1.648010 0.000000 
#    z 0.001240 0.000000 1.671550 
# 
# From -- ./inp_files/49107.got.cif
#   From: 2010.05.17/outbox.cif.g08.bks.cpg/sg11_25_cif.got.tgz:49107.got - 2010.06.03 12:22:45.
