data_PCOD9162386
_publ_section_title
;
Structure prediction by ZEFSAII (Michael W. Deem and Ramdas Pophale) SiO2 
 PCOD9162386
Probable space group: P 21/M
;
_chemical_formula_sum "Si O2"
_cell_formula_units_Z 32
_cell_length_a 29.964833
_cell_length_b 7.726629
_cell_length_c 12.169810
_cell_angle_alpha 90.000000
_cell_angle_beta 148.996432
_cell_angle_gamma 90.000000
_cell_volume 1451.343000
_symmetry_space_group_name_H-M "P 21/M"
_symmetry_group_IT_number 11
_symmetry_cell_setting 'monoclinic'
loop_
_space_group_symop_operation_xyz
x,y,z
-x,1/2+y,-z
-x,-y,-z
x,1/2-y,z
loop_
_atom_site_type_symbol
_atom_site_label
_atom_site_fract_x
_atom_site_fract_y
_atom_site_fract_z
Si Si1 0.532548 0.539666 0.884829
Si Si2 0.047711 0.547835 0.925204
Si Si3 0.333433 0.453319 0.467706
Si Si4 0.301275 0.459173 0.633407
Si Si5 0.920380 0.044103 0.252953
Si Si6 0.728529 0.956639 0.896690
Si Si7 0.118321 0.954850 0.306970
Si Si8 0.583030 0.957835 0.749468
O O1 0.527450 0.750000 0.875871
O O2 0.436353 0.470874 0.699786
O O3 0.565162 0.479358 0.834208
O O4 0.605755 0.483760 0.125078
O O5 0.071636 0.750000 0.973039
O O6 0.070249 0.473284 0.852777
O O7 0.945488 0.533234 0.737010
O O8 0.091924 0.473672 0.129608
O O9 0.311284 0.250000 0.417612
O O10 0.289670 0.526982 0.484759
O O11 0.304670 0.529202 0.290596
O O12 0.303049 0.250000 0.634982
O O13 0.219818 0.512055 0.534654
O O14 0.918178 0.250000 0.238681
O O15 0.000000 0.000000 0.500000
O O16 0.830326 0.986343 0.116555
O O17 0.713564 0.750000 0.863243
O O18 0.668746 0.024731 0.868974
O O19 0.102059 0.750000 0.273288
O O20 0.589685 0.750000 0.772277
O O21 0.500000 0.000000 0.500000
#
# Coordination Sequence:
#
# PCOD9162386 Si02
#       8
#     4   4   4   4   4   4   4   4
#     4  10  21  35  53  78 109 147 187 230 282 336
#     4   9  20  39  60  82 113 149 184 230 289 342
#     4  10  20  35  56  80 110 148 189 232 278 332
#     4  10  21  35  51  78 116 152 184 223 282 342
#     4  11  24  41  61  86 117 153 192 237 290 346
#     4  10  21  37  58  84 112 147 191 237 287 341
#     4  10  20  35  59  88 112 143 189 235 279 337
#     4  10  20  36  57  80 109 145 187 235 282 331
#
# _framework density 22.048544
#
# number of rings (size 3 to 8) (size 9 to 14) (size 15 to 20)
#    0.000    2.000    1.250    1.875    0.000    4.500 
#    0.000    2.500    0.000    0.000    0.000    0.000 
#    0.000    0.000    0.000    0.000    0.000    0.000 
#
# Total GULP energy -178762.286516 kJ/mol
# GULP energy per Si atom -5586.321454 kJ/mol
# Density = 2.199836 g / cm^3
# Si number density = 22.048544 Si / 1000 Ang^3
#
#
#
# Elastic Constant Matrix: (Units=GPa)
#
#
# Indices 1 2 3 4 5 6 
#
# 1 113.4164 -8.8597 10.8540 0.0000 14.9054 0.0000
# 2 -8.8597 31.4355 -18.6824 0.0000 -12.3269 0.0000
# 3 10.8540 -18.6824 50.8718 0.0000 21.3813 0.0000
# 4 0.0000 0.0000 0.0000 25.5087 0.0000 7.1481
# 5 14.9054 -12.3269 21.3813 0.0000 36.4549 0.0000
# 6 0.0000 0.0000 0.0000 7.1481 0.0000 13.5702
#
#
#
# Elastic Compliance Matrix: (Units=1/GPa)
#
#
# Indices 1 2 3 4 5 6 
#
# 1 0.009365 0.001252 -0.000142 0.000000 -0.003323 0.000000
# 2 0.001252 0.042104 0.012511 0.000000 0.006387 0.000000
# 3 -0.000142 0.012511 0.029834 0.000000 -0.013210 0.000000
# 4 0.000000 0.000000 0.000000 0.045991 0.000000 -0.024226
# 5 -0.003323 0.006387 -0.013210 0.000000 0.038697 0.000000
# 6 0.000000 0.000000 0.000000 -0.024226 0.000000 0.086451
#
#
# Mechanical properties :
#
#
# Convention : Reuss Voigt Hill
#
# Bulk Modulus (GPa) = 9.21272 18.03860 13.62566
# Shear Modulus (GPa) = 19.12909 29.26754 24.19831
#
# Velocity S-wave (km/s) = 2.94868 3.64732 3.31645
# Velocity P-wave (km/s) = 3.97246 5.09277 4.56710
#
# Compressibility (1/GPa) = 0.10854561
#
# Stress axis : x y z
#
# Youngs Moduli (GPa) = 106.77927 23.75066 33.51881
#
# Poissons Ratio (x) = -0.02974 0.00475
# Poissons Ratio (y) = -0.13372 -0.41934
# Poissons Ratio (z) = 0.01514 -0.29714
#
# Static dielectric constant tensor:
#      x y z
#    x 1.006580 0.000000 2.251660 
#    y 0.000000 1.808340 0.000000 
#    z 2.251660 0.000000 -4.744180 
# 
# From -- ./inp_files/38244.got.cif
#   From: 2010.05.17/outbox.cif.g08.bks.cpg/sg11_20_cif.got.tgz:38244.got - 2010.06.03 12:22:45.
