data_PCOD9162221
_publ_section_title
;
Structure prediction by ZEFSAII (Michael W. Deem and Ramdas Pophale) SiO2 
 PCOD9162221
Probable space group: P 21/M
;
_chemical_formula_sum "Si O2"
_cell_formula_units_Z 28
_cell_length_a 9.128262
_cell_length_b 11.513585
_cell_length_c 14.509378
_cell_angle_alpha 90.000000
_cell_angle_beta 69.768541
_cell_angle_gamma 90.000000
_cell_volume 1430.838782
_symmetry_space_group_name_H-M "P 21/M"
_symmetry_group_IT_number 11
_symmetry_cell_setting 'monoclinic'
loop_
_space_group_symop_operation_xyz
x,y,z
-x,1/2+y,-z
-x,-y,-z
x,1/2-y,z
loop_
_atom_site_type_symbol
_atom_site_label
_atom_site_fract_x
_atom_site_fract_y
_atom_site_fract_z
Si Si1 0.910218 0.885292 0.980246
Si Si2 0.330864 0.130023 0.487136
Si Si3 0.650602 0.046095 0.358003
Si Si4 0.010193 0.619663 0.748794
Si Si5 0.564762 0.381599 0.717154
Si Si6 0.134159 0.009585 0.394281
Si Si7 0.540810 0.886903 0.054711
O O1 0.958463 0.750000 0.997023
O O2 0.934011 0.891973 0.865071
O O3 0.725121 0.894263 0.039010
O O4 0.000000 0.000000 0.000000
O O5 0.282373 0.250000 0.542155
O O6 0.514488 0.127435 0.426403
O O7 0.242107 0.112405 0.410820
O O8 0.296662 0.027116 0.564437
O O9 0.804111 0.101478 0.282625
O O10 0.558789 0.964064 0.306817
O O11 0.982971 0.750000 0.720044
O O12 0.938387 0.534712 0.688864
O O13 0.521217 0.250000 0.706017
O O14 0.738867 0.407263 0.642336
O O15 0.554542 0.399045 0.829201
O O16 0.000000 0.000000 0.500000
O O17 0.516224 0.750000 0.026208
O O18 0.500000 0.000000 0.000000
#
# Coordination Sequence:
#
# PCOD9162221 Si02
#       7
#     4   4   4   4   4   4   4
#     4  10  22  40  64  92 124 159 202 255 316 372
#     4  10  20  35  54  77 109 152 193 234 281 337
#     4  10  20  36  55  82 112 147 199 238 285 347
#     4  11  22  38  60  87 120 158 197 248 304 360
#     4  10  22  39  61  85 117 156 199 248 301 357
#     4  11  22  39  55  84 119 154 196 240 290 357
#     4  10  21  40  63  90 121 159 203 256 311 369
#
# _framework density 19.568942
#
# number of rings (size 3 to 8) (size 9 to 14) (size 15 to 20)
#    0.000    1.714    1.429    3.000    0.000    1.714 
#    0.000    5.000    0.000    0.000    0.000    0.000 
#    0.000    0.000    0.000    0.000    0.000    0.000 
#
# Total GULP energy -155977.518934 kJ/mol
# GULP energy per Si atom -5570.625676 kJ/mol
# Density = 1.952440 g / cm^3
# Si number density = 19.568942 Si / 1000 Ang^3
#
#
#
# Elastic Constant Matrix: (Units=GPa)
#
#
# Indices 1 2 3 4 5 6 
#
# 1 66.1088 21.7848 9.7596 0.0000 0.2082 0.0000
# 2 21.7848 112.4625 15.4728 0.0000 17.0879 0.0000
# 3 9.7596 15.4728 76.7972 0.0000 -11.5541 0.0000
# 4 0.0000 0.0000 0.0000 79.2499 0.0000 22.9515
# 5 0.2082 17.0879 -11.5541 0.0000 29.9400 0.0000
# 6 0.0000 0.0000 0.0000 22.9515 0.0000 22.0765
#
#
#
# Elastic Compliance Matrix: (Units=1/GPa)
#
#
# Indices 1 2 3 4 5 6 
#
# 1 0.016356 -0.003181 -0.001255 0.000000 0.001217 0.000000
# 2 -0.003181 0.011038 -0.002934 0.000000 -0.007410 0.000000
# 3 -0.001255 -0.002934 0.014890 0.000000 0.007430 0.000000
# 4 0.000000 0.000000 0.000000 0.018054 0.000000 -0.018770
# 5 0.001217 -0.007410 0.007430 0.000000 0.040488 0.000000
# 6 0.000000 0.000000 0.000000 -0.018770 0.000000 0.064811
#
#
# Mechanical properties :
#
#
# Convention : Reuss Voigt Hill
#
# Bulk Modulus (GPa) = 36.30544 38.82253 37.56399
# Shear Modulus (GPa) = 26.37729 40.14336 33.26033
#
# Velocity S-wave (km/s) = 3.67538 4.53413 4.12715
# Velocity P-wave (km/s) = 6.05013 6.87699 6.47677
#
# Compressibility (1/GPa) = 0.02754408
#
# Stress axis : x y z
#
# Youngs Moduli (GPa) = 61.13928 90.59964 67.16036
#
# Poissons Ratio (x) = 0.28817 0.08426
# Poissons Ratio (y) = 0.19446 0.19708
# Poissons Ratio (z) = 0.07670 0.26586
#
# Static dielectric constant tensor:
#      x y z
#    x 1.722500 0.000000 -0.028370 
#    y 0.000000 1.728830 0.000000 
#    z -0.028370 0.000000 1.714570 
# 
# From -- ./inp_files/21184.got.cif
#   From: 2010.05.17/outbox.cif.g08.bks.cpg/sg11_11_cif.got.tgz:21184.got - 2010.06.03 12:22:45.
