data_PCOD9162821
_publ_section_title
;
Structure prediction by ZEFSAII (Michael W. Deem and Ramdas Pophale) SiO2 
 PCOD9162821
Probable space group: P 21/M
;
_chemical_formula_sum "Si O2"
_cell_formula_units_Z 20
_cell_length_a 11.220085
_cell_length_b 10.474505
_cell_length_c 12.457152
_cell_angle_alpha 90.000000
_cell_angle_beta 42.768323
_cell_angle_gamma 90.000000
_cell_volume 994.124844
_symmetry_space_group_name_H-M "P 21/M"
_symmetry_group_IT_number 11
_symmetry_cell_setting 'monoclinic'
loop_
_space_group_symop_operation_xyz
x,y,z
-x,1/2+y,-z
-x,-y,-z
x,1/2-y,z
loop_
_atom_site_type_symbol
_atom_site_label
_atom_site_fract_x
_atom_site_fract_y
_atom_site_fract_z
Si Si1 0.677583 0.994494 0.520933
Si Si2 0.690283 0.390165 0.289468
Si Si3 0.069850 0.107535 0.813292
Si Si4 0.384027 0.601792 0.217826
Si Si5 0.312942 0.603470 0.023824
O O1 0.650649 0.099470 0.444035
O O2 0.716384 0.055436 0.609610
O O3 0.492623 0.920302 0.646861
O O4 0.827946 0.907833 0.368859
O O5 0.754423 0.250000 0.219759
O O6 0.833659 0.500417 0.180003
O O7 0.100306 0.250000 0.834357
O O8 0.866534 0.087480 0.922346
O O9 0.437522 0.750000 0.196228
O O10 0.281355 0.593211 0.173082
O O11 0.548674 0.506201 0.095954
O O12 0.377712 0.750000 0.962725
#
# Coordination Sequence:
#
# PCOD9162821 Si02
#       5
#     4   4   4   4   4
#     4   9  19  30  56  76 103 133 172 208 256 304
#     4   9  18  32  53  79 105 133 170 214 257 305
#     4   9  18  33  53  77 107 137 167 211 261 304
#     4  10  20  36  55  76 103 139 175 212 257 307
#     4   9  20  37  54  75 106 138 172 213 258 306
#
# _framework density 20.118196999999999
#
# number of rings (size 3 to 8) (size 9 to 14) (size 15 to 20)
#    1.200    1.600    0.000    1.200    0.000    4.000 
#    0.000    1.000    0.000    0.000    0.000    0.000 
#    0.000    0.000    0.000    0.000    0.000    0.000 
#
# Total GULP energy -111426.293042 kJ/mol
# GULP energy per Si atom -5571.314652 kJ/mol
# Density = 2.007241 g / cm^3
# Si number density = 20.118197 Si / 1000 Ang^3
#
#
#
# Elastic Constant Matrix: (Units=GPa)
#
#
# Indices 1 2 3 4 5 6 
#
# 1 53.9461 39.9378 22.7254 0.0000 4.8407 0.0000
# 2 39.9378 138.6583 23.7309 0.0000 -11.7410 0.0000
# 3 22.7254 23.7309 55.9883 0.0000 17.9861 0.0000
# 4 0.0000 0.0000 0.0000 11.2326 0.0000 -6.1907
# 5 4.8407 -11.7410 17.9861 0.0000 41.8933 0.0000
# 6 0.0000 0.0000 0.0000 -6.1907 0.0000 19.4972
#
#
#
# Elastic Compliance Matrix: (Units=1/GPa)
#
#
# Indices 1 2 3 4 5 6 
#
# 1 0.026704 -0.006548 -0.007520 0.000000 -0.001692 0.000000
# 2 -0.006548 0.010065 -0.003198 0.000000 0.004950 0.000000
# 3 -0.007520 -0.003198 0.025842 0.000000 -0.011122 0.000000
# 4 0.000000 0.000000 0.000000 0.107910 0.000000 0.034263
# 5 -0.001692 0.004950 -0.011122 0.000000 0.030228 0.000000
# 6 0.000000 0.000000 0.000000 0.034263 0.000000 0.062169
#
#
# Mechanical properties :
#
#
# Convention : Reuss Voigt Hill
#
# Bulk Modulus (GPa) = 35.61548 46.82010 41.21779
# Shear Modulus (GPa) = 16.29671 25.33786 20.81729
#
# Velocity S-wave (km/s) = 2.84922 3.55272 3.22024
# Velocity P-wave (km/s) = 5.34468 6.33657 5.86165
#
# Compressibility (1/GPa) = 0.02807768
#
# Stress axis : x y z
#
# Youngs Moduli (GPa) = 37.44695 99.35854 38.69667
#
# Poissons Ratio (x) = 0.65059 0.29101
# Poissons Ratio (y) = 0.24520 0.12377
# Poissons Ratio (z) = 0.28161 0.31780
#
# Static dielectric constant tensor:
#      x y z
#    x 1.677600 0.000000 0.036870 
#    y 0.000000 1.699910 0.000000 
#    z 0.036870 0.000000 1.758740 
# 
# From -- ./inp_files/34585.got.cif
#   From: 2010.05.17/outbox.cif.g08.bks.cpg/sg11_18_cif.got.tgz:34585.got - 2010.06.03 12:22:45.
