data_PCOD9162639
_publ_section_title
;
Structure prediction by ZEFSAII (Michael W. Deem and Ramdas Pophale) SiO2 
 PCOD9162639
Probable space group: P 21/M
;
_chemical_formula_sum "Si O2"
_cell_formula_units_Z 28
_cell_length_a 20.632027
_cell_length_b 9.186748
_cell_length_c 14.210530
_cell_angle_alpha 90.000000
_cell_angle_beta 152.862886
_cell_angle_gamma 90.000000
_cell_volume 1228.554650
_symmetry_space_group_name_H-M "P 21/M"
_symmetry_group_IT_number 11
_symmetry_cell_setting 'monoclinic'
loop_
_space_group_symop_operation_xyz
x,y,z
-x,1/2+y,-z
-x,-y,-z
x,1/2-y,z
loop_
_atom_site_type_symbol
_atom_site_label
_atom_site_fract_x
_atom_site_fract_y
_atom_site_fract_z
Si Si1 0.207128 0.078177 0.869778
Si Si2 0.418618 0.904966 0.268501
Si Si3 0.391223 0.578591 0.733225
Si Si4 0.313917 0.921806 0.839321
Si Si5 0.814146 0.577043 0.665020
Si Si6 0.726256 0.988643 0.740944
Si Si7 0.025678 0.090693 0.812281
O O1 0.216661 0.250000 0.863036
O O2 0.076529 0.054313 0.772895
O O3 0.200635 0.985959 0.765882
O O4 0.346902 0.025437 0.109455
O O5 0.400242 0.750000 0.196019
O O6 0.334119 0.902732 0.258669
O O7 0.581777 0.924272 0.509691
O O8 0.398440 0.750000 0.718052
O O9 0.294086 0.562302 0.701644
O O10 0.326911 0.477344 0.570052
O O11 0.545726 0.516973 0.957697
O O12 0.336973 0.750000 0.884941
O O13 0.815802 0.750000 0.686778
O O14 0.818777 0.482936 0.767210
O O15 0.936726 0.530436 0.751352
O O16 0.829960 0.896426 0.940444
O O17 0.954096 0.250000 0.721691
#
# Coordination Sequence:
#
# PCOD9162639 Si02
#       7
#     4   4   4   4   4   4   4
#     4  10  21  37  59  86 117 152 188 234 290 341
#     4  10  20  35  58  86 115 148 189 236 286 343
#     4  10  22  39  60  88 119 150 186 229 282 341
#     4  10  20  37  63  91 118 147 183 231 283 339
#     4  12  24  38  58  83 114 152 194 239 286 337
#     4  10  22  36  55  82 114 148 188 236 285 334
#     4  10  22  40  57  77 111 152 196 239 280 335
#
# _framework density 22.791008000000001
#
# number of rings (size 3 to 8) (size 9 to 14) (size 15 to 20)
#    0.000    1.714    0.000    4.286    0.000    9.714 
#    0.000    0.714    0.000    0.000    0.000    0.000 
#    0.000    0.000    0.000    0.000    0.000    0.000 
#
# Total GULP energy -156243.358915 kJ/mol
# GULP energy per Si atom -5580.119961 kJ/mol
# Density = 2.273913 g / cm^3
# Si number density = 22.791008 Si / 1000 Ang^3
#
#
#
# Elastic Constant Matrix: (Units=GPa)
#
#
# Indices 1 2 3 4 5 6 
#
# 1 141.0623 32.5329 -0.2590 0.0000 -11.0593 0.0000
# 2 32.5329 77.5023 6.6541 0.0000 3.9971 0.0000
# 3 -0.2590 6.6541 32.4938 0.0000 -0.8428 0.0000
# 4 0.0000 0.0000 0.0000 11.6292 0.0000 1.4589
# 5 -11.0593 3.9971 -0.8428 0.0000 32.0830 0.0000
# 6 0.0000 0.0000 0.0000 1.4589 0.0000 12.0931
#
#
#
# Elastic Compliance Matrix: (Units=1/GPa)
#
#
# Indices 1 2 3 4 5 6 
#
# 1 0.008202 -0.003691 0.000907 0.000000 0.003311 0.000000
# 2 -0.003691 0.014889 -0.003162 0.000000 -0.003211 0.000000
# 3 0.000907 -0.003162 0.031470 0.000000 0.001533 0.000000
# 4 0.000000 0.000000 0.000000 0.087312 0.000000 -0.010533
# 5 0.003311 -0.003211 0.001533 0.000000 0.032751 0.000000
# 6 0.000000 0.000000 0.000000 -0.010533 0.000000 0.083963
#
#
# Mechanical properties :
#
#
# Convention : Reuss Voigt Hill
#
# Bulk Modulus (GPa) = 23.43642 36.54603 29.99122
# Shear Modulus (GPa) = 17.56231 25.30309 21.43270
#
# Velocity S-wave (km/s) = 2.77895 3.33561 3.06992
# Velocity P-wave (km/s) = 4.53897 5.55924 5.07481
#
# Compressibility (1/GPa) = 0.04266863
#
# Stress axis : x y z
#
# Youngs Moduli (GPa) = 121.92666 67.16180 31.77677
#
# Poissons Ratio (x) = 0.24792 -0.02883
# Poissons Ratio (y) = 0.45008 0.10047
# Poissons Ratio (z) = -0.11061 0.21235
#
# Static dielectric constant tensor:
#      x y z
#    x 1.910510 0.000000 0.045650 
#    y 0.000000 1.842110 0.000000 
#    z 0.045650 0.000000 1.869090 
# 
# From -- ./inp_files/54586.got.cif
#   From: 2010.05.17/outbox.cif.g08.bks.cpg/sg11_28_cif.got.tgz:54586.got - 2010.06.03 12:22:45.
