data_PCOD9162625
_publ_section_title
;
Structure prediction by ZEFSAII (Michael W. Deem and Ramdas Pophale) SiO2 
 PCOD9162625
Probable space group: P 21/M
;
_chemical_formula_sum "Si O2"
_cell_formula_units_Z 32
_cell_length_a 19.570648
_cell_length_b 8.482642
_cell_length_c 13.910553
_cell_angle_alpha 90.000000
_cell_angle_beta 137.821583
_cell_angle_gamma 90.000000
_cell_volume 1550.561191
_symmetry_space_group_name_H-M "P 21/M"
_symmetry_group_IT_number 11
_symmetry_cell_setting 'monoclinic'
loop_
_space_group_symop_operation_xyz
x,y,z
-x,1/2+y,-z
-x,-y,-z
x,1/2-y,z
loop_
_atom_site_type_symbol
_atom_site_label
_atom_site_fract_x
_atom_site_fract_y
_atom_site_fract_z
Si Si1 0.825196 0.060818 0.364566
Si Si2 0.064559 0.433757 0.334996
Si Si3 0.103388 0.058568 0.158582
Si Si4 0.390472 0.575315 0.882920
Si Si5 0.671936 0.561675 0.660079
Si Si6 0.133358 0.067981 0.805517
Si Si7 0.496659 0.063291 0.362985
Si Si8 0.359264 0.430549 0.042002
O O1 0.822037 0.250000 0.346614
O O2 0.710122 0.001894 0.268663
O O3 0.892244 0.021028 0.526360
O O4 0.860585 0.982491 0.300998
O O5 0.089850 0.250000 0.370604
O O6 0.101642 0.489778 0.269339
O O7 0.943927 0.460348 0.217456
O O8 0.101750 0.250000 0.154034
O O9 0.211664 0.004489 0.225907
O O10 0.000000 0.000000 0.000000
O O11 0.401136 0.750000 0.855366
O O12 0.500000 0.500000 0.000000
O O13 0.360485 0.563695 0.963277
O O14 0.678154 0.750000 0.677942
O O15 0.595757 0.502762 0.664898
O O16 0.602915 0.520950 0.495138
O O17 0.099715 0.250000 0.774630
O O18 0.246486 0.060995 0.968122
O O19 0.510366 0.250000 0.396750
O O20 0.451802 0.048057 0.210222
O O21 0.365161 0.250000 0.007429
#
# Coordination Sequence:
#
# PCOD9162625 Si02
#       8
#     4   4   4   4   4   4   4   4
#     4  10  21  38  58  82 112 148 189 235 280 333
#     4  11  23  38  56  83 114 149 189 233 285 339
#     4  10  24  42  60  83 115 152 192 239 287 342
#     4  10  21  36  55  80 112 147 181 224 275 331
#     4   9  19  37  58  81 112 146 185 234 286 337
#     4  10  20  35  58  85 114 151 189 233 284 337
#     4   9  18  34  58  85 111 143 185 235 284 334
#     4   9  19  34  54  82 111 144 187 231 278 332
#
# _framework density 20.637691
#
# number of rings (size 3 to 8) (size 9 to 14) (size 15 to 20)
#    0.000    2.250    0.000    1.875    1.750    5.000 
#    0.000    2.500    0.000    0.000    0.000    0.000 
#    0.000    0.000    0.000    0.000    0.000    0.000 
#
# Total GULP energy -178321.802408 kJ/mol
# GULP energy per Si atom -5572.556325 kJ/mol
# Density = 2.059072 g / cm^3
# Si number density = 20.637691 Si / 1000 Ang^3
#
#
#
# Elastic Constant Matrix: (Units=GPa)
#
#
# Indices 1 2 3 4 5 6 
#
# 1 51.0462 -2.9983 9.3857 0.0000 29.1305 0.0000
# 2 -2.9983 11.2518 0.7829 0.0000 1.9725 0.0000
# 3 9.3857 0.7829 66.6207 0.0000 22.0097 0.0000
# 4 0.0000 0.0000 0.0000 29.5231 0.0000 3.5145
# 5 29.1305 1.9725 22.0097 0.0000 32.8427 0.0000
# 6 0.0000 0.0000 0.0000 3.5145 0.0000 21.6516
#
#
#
# Elastic Compliance Matrix: (Units=1/GPa)
#
#
# Indices 1 2 3 4 5 6 
#
# 1 0.047369 0.020659 0.009471 0.000000 -0.049603 0.000000
# 2 0.020659 0.098875 0.005064 0.000000 -0.027656 0.000000
# 3 0.009471 0.005064 0.021182 0.000000 -0.022900 0.000000
# 4 0.000000 0.000000 0.000000 0.034539 0.000000 -0.005606
# 5 -0.049603 -0.027656 -0.022900 0.000000 0.091452 0.000000
# 6 0.000000 0.000000 0.000000 -0.005606 0.000000 0.047096
#
#
# Mechanical properties :
#
#
# Convention : Reuss Voigt Hill
#
# Bulk Modulus (GPa) = 4.20494 15.91770 10.06132
# Shear Modulus (GPa) = 14.31042 24.92003 19.61522
#
# Velocity S-wave (km/s) = 2.63613 3.47868 3.08629
# Velocity P-wave (km/s) = 3.36266 4.88514 4.19357
#
# Compressibility (1/GPa) = 0.23781536
#
# Stress axis : x y z
#
# Youngs Moduli (GPa) = 21.11097 10.11374 47.20962
#
# Poissons Ratio (x) = -0.20894 -0.44713
# Poissons Ratio (y) = -0.43613 -0.23909
# Poissons Ratio (z) = -0.19995 -0.05122
#
# Static dielectric constant tensor:
#      x y z
#    x 1.796570 0.000000 0.031380 
#    y 0.000000 1.741180 0.000000 
#    z 0.031380 0.000000 1.765180 
# 
# From -- ./inp_files/54377.got.cif
#   From: 2010.05.17/outbox.cif.g08.bks.cpg/sg11_28_cif.got.tgz:54377.got - 2010.06.03 12:22:45.
