data_PCOD9162035
_publ_section_title
;
Structure prediction by ZEFSAII (Michael W. Deem and Ramdas Pophale) SiO2 
 PCOD9162035
Probable space group: P 21/M
;
_chemical_formula_sum "Si O2"
_cell_formula_units_Z 32
_cell_length_a 8.377504
_cell_length_b 14.607167
_cell_length_c 25.680528
_cell_angle_alpha 90.000000
_cell_angle_beta 145.657168
_cell_angle_gamma 90.000000
_cell_volume 1772.858755
_symmetry_space_group_name_H-M "P 21/M"
_symmetry_group_IT_number 11
_symmetry_cell_setting 'monoclinic'
loop_
_space_group_symop_operation_xyz
x,y,z
-x,1/2+y,-z
-x,-y,-z
x,1/2-y,z
loop_
_atom_site_type_symbol
_atom_site_label
_atom_site_fract_x
_atom_site_fract_y
_atom_site_fract_z
Si Si1 0.174637 0.850746 0.802362
Si Si2 0.849893 0.494462 0.290415
Si Si3 0.747173 0.357389 0.556058
Si Si4 0.128992 0.601020 0.532663
Si Si5 0.678797 0.646290 0.749075
Si Si6 0.129639 0.147338 0.435466
Si Si7 0.158792 0.358477 0.012624
Si Si8 0.209097 0.015330 0.124674
O O1 0.156609 0.750000 0.771681
O O2 0.072066 0.931463 0.737423
O O3 0.503275 0.863365 0.904992
O O4 0.968847 0.848655 0.795335
O O5 0.523295 0.519191 0.194869
O O6 0.040109 0.581284 0.353291
O O7 0.903416 0.425175 0.353072
O O8 0.783178 0.250000 0.575721
O O9 0.814974 0.373318 0.512770
O O10 0.430180 0.381033 0.491012
O O11 0.428204 0.618171 0.642051
O O12 0.000000 0.500000 0.500000
O O13 0.902422 0.649577 0.510522
O O14 0.614001 0.750000 0.751499
O O15 0.738325 0.571889 0.808974
O O16 0.073436 0.250000 0.402020
O O17 0.080337 0.250000 0.990700
O O18 0.110563 0.409205 0.055354
O O19 0.994316 0.427213 0.929562
#
# Coordination Sequence:
#
# PCOD9162035 Si02
#       8
#     4   4   4   4   4   4   4   4
#     4   9  20  35  58  85 109 140 179 230 287 333
#     4  11  20  36  56  79 110 145 186 233 271 333
#     4  11  24  39  55  80 115 156 198 237 282 334
#     4  12  23  37  56  83 117 152 191 239 287 335
#     4  11  21  35  56  84 113 142 183 235 280 327
#     4  11  22  36  57  80 108 151 190 236 288 326
#     4   9  19  37  57  81 111 140 177 223 276 344
#     4  10  20  34  57  85 108 142 183 222 282 336
#
# _framework density 18.049942999999999
#
# number of rings (size 3 to 8) (size 9 to 14) (size 15 to 20)
#    0.000    1.500    2.500    3.000    1.750    4.000 
#    0.000    0.000    0.000    0.750    0.000    0.000 
#    0.000    0.000    0.000    0.000    0.000    0.000 
#
# Total GULP energy -178254.727100 kJ/mol
# GULP energy per Si atom -5570.460222 kJ/mol
# Density = 1.800886 g / cm^3
# Si number density = 18.049943 Si / 1000 Ang^3
#
#
#
# Elastic Constant Matrix: (Units=GPa)
#
#
# Indices 1 2 3 4 5 6 
#
# 1 86.6382 27.6855 27.9271 0.0000 8.5932 0.0000
# 2 27.6855 129.6647 67.1100 0.0000 3.2925 0.0000
# 3 27.9271 67.1100 69.7823 0.0000 -7.7409 0.0000
# 4 0.0000 0.0000 0.0000 1.7064 0.0000 -6.9420
# 5 8.5932 3.2925 -7.7409 0.0000 14.8712 0.0000
# 6 0.0000 0.0000 0.0000 -6.9420 0.0000 24.6148
#
#
#
# Elastic Compliance Matrix: (Units=1/GPa)
#
#
# Indices 1 2 3 4 5 6 
#
# 1 0.015493 0.002214 -0.009951 0.000000 -0.014623 0.000000
# 2 0.002214 0.017892 -0.019818 0.000000 -0.015556 0.000000
# 3 -0.009951 -0.019818 0.040856 0.000000 0.031405 0.000000
# 4 0.000000 0.000000 0.000000 -3.977828 0.000000 -1.121844
# 5 -0.014623 -0.015556 0.031405 0.000000 0.095485 0.000000
# 6 0.000000 0.000000 0.000000 -1.121844 0.000000 -0.275761
#
#
# Mechanical properties :
#
#
# Convention : Reuss Voigt Hill
#
# Bulk Modulus (GPa) = 52.27703 59.05893 55.66798
# Shear Modulus (GPa) = -1.24305 19.12934 8.94315
#
# Velocity S-wave (km/s) = -0.83076 3.25899 2.22832
# Velocity P-wave (km/s) = 5.30142 6.85216 6.12606
#
# Compressibility (1/GPa) = 0.01912886
#
# Stress axis : x y z
#
# Youngs Moduli (GPa) = 64.54560 55.89164 24.47630
#
# Poissons Ratio (x) = -0.12374 0.24357
# Poissons Ratio (y) = -0.14289 0.48508
# Poissons Ratio (z) = 0.64232 1.10767
#
# Static dielectric constant tensor:
#      x y z
#    x 1.656460 0.000000 -0.001110 
#    y 0.000000 1.580710 0.000000 
#    z -0.001110 0.000000 1.622090 
# 
# From -- ./inp_files/63812.got.cif
#   From: 2010.05.17/outbox.cif.g08.bks.cpg/sg11_32_cif.got.tgz:63812.got - 2010.06.03 12:22:45.
