data_PCOD9162171
_publ_section_title
;
Structure prediction by ZEFSAII (Michael W. Deem and Ramdas Pophale) SiO2 
 PCOD9162171
Probable space group: P 21/M
;
_chemical_formula_sum "Si O2"
_cell_formula_units_Z 32
_cell_length_a 12.859795
_cell_length_b 8.657938
_cell_length_c 19.934942
_cell_angle_alpha 90.000000
_cell_angle_beta 63.238425
_cell_angle_gamma 90.000000
_cell_volume 1981.802982
_symmetry_space_group_name_H-M "P 21/M"
_symmetry_group_IT_number 11
_symmetry_cell_setting 'monoclinic'
loop_
_space_group_symop_operation_xyz
x,y,z
-x,1/2+y,-z
-x,-y,-z
x,1/2-y,z
loop_
_atom_site_type_symbol
_atom_site_label
_atom_site_fract_x
_atom_site_fract_y
_atom_site_fract_z
Si Si1 0.498691 0.935492 0.813809
Si Si2 0.239108 0.065207 0.905915
Si Si3 0.723868 0.435995 0.336990
Si Si4 0.174370 0.064281 0.077524
Si Si5 0.597252 0.433466 0.921097
Si Si6 0.378092 0.064807 0.506729
Si Si7 0.909662 0.436882 0.173324
Si Si8 0.476853 0.062503 0.342981
O O1 0.504706 0.750000 0.815276
O O2 0.541327 0.988750 0.727831
O O3 0.364389 0.986594 0.859653
O O4 0.569065 0.005181 0.855213
O O5 0.252605 0.250000 0.897672
O O6 0.151910 0.007109 0.874082
O O7 0.192352 0.027134 0.993708
O O8 0.720657 0.250000 0.342051
O O9 0.717289 0.501679 0.414026
O O10 0.834067 0.482045 0.260298
O O11 0.605612 0.485141 0.331843
O O12 0.185047 0.250000 0.081283
O O13 0.044675 0.018330 0.137130
O O14 0.277062 0.986886 0.089553
O O15 0.588324 0.250000 0.924658
O O16 0.500000 0.500000 0.000000
O O17 0.379162 0.250000 0.509577
O O18 0.383129 0.017201 0.427011
O O19 0.500000 0.000000 0.500000
O O20 0.903982 0.250000 0.169319
O O21 0.478762 0.250000 0.341226
#
# Coordination Sequence:
#
# PCOD9162171 Si02
#       8
#     4   4   4   4   4   4   4   4
#     4  11  20  34  55  75  99 135 171 208 255 301
#     4  11  21  32  49  76 106 132 171 213 251 299
#     4   9  16  29  46  69  99 133 167 198 240 297
#     4  10  22  38  54  73  98 134 175 214 252 300
#     4  12  24  38  55  75  99 130 169 215 259 302
#     4   9  16  27  43  67  97 130 164 198 240 296
#     4  10  20  35  53  72 102 140 175 205 246 304
#     4   8  15  28  46  69  98 129 164 198 242 301
#
# _framework density 16.146913000000001
#
# number of rings (size 3 to 8) (size 9 to 14) (size 15 to 20)
#    0.000    2.000    2.500    3.375    0.000    1.500 
#    0.000    1.875    0.000    0.000    0.000    0.875 
#    0.000    0.000    0.000    0.000    0.000    0.000 
#
# Total GULP energy -178482.068817 kJ/mol
# GULP energy per Si atom -5577.564651 kJ/mol
# Density = 1.611016 g / cm^3
# Si number density = 16.146913 Si / 1000 Ang^3
#
#
#
# Elastic Constant Matrix: (Units=GPa)
#
#
# Indices 1 2 3 4 5 6 
#
# 1 104.4056 38.7674 84.4263 0.0000 -0.4596 0.0000
# 2 38.7674 41.0781 47.9773 0.0000 1.2745 0.0000
# 3 84.4263 47.9773 169.6365 0.0000 21.1015 0.0000
# 4 0.0000 0.0000 0.0000 24.0943 0.0000 3.0417
# 5 -0.4596 1.2745 21.1015 0.0000 13.7164 0.0000
# 6 0.0000 0.0000 0.0000 3.0417 0.0000 21.0498
#
#
#
# Elastic Compliance Matrix: (Units=1/GPa)
#
#
# Indices 1 2 3 4 5 6 
#
# 1 0.021080 -0.008467 -0.010243 0.000000 0.017251 0.000000
# 2 -0.008467 0.042581 -0.009030 0.000000 0.009651 0.000000
# 3 -0.010243 -0.009030 0.016676 0.000000 -0.025159 0.000000
# 4 0.000000 0.000000 0.000000 0.042275 0.000000 -0.006109
# 5 0.017251 0.009651 -0.025159 0.000000 0.111291 0.000000
# 6 0.000000 0.000000 0.000000 -0.006109 0.000000 0.048389
#
#
# Mechanical properties :
#
#
# Convention : Reuss Voigt Hill
#
# Bulk Modulus (GPa) = 40.22656 73.05135 56.63895
# Shear Modulus (GPa) = 14.44845 21.36872 17.90858
#
# Velocity S-wave (km/s) = 2.99459 3.64179 3.33393
# Velocity P-wave (km/s) = 6.07648 7.93873 7.06920
#
# Compressibility (1/GPa) = 0.02485920
#
# Stress axis : x y z
#
# Youngs Moduli (GPa) = 47.43722 23.48457 59.96631
#
# Poissons Ratio (x) = 0.19884 0.61422
# Poissons Ratio (y) = 0.40164 0.54148
# Poissons Ratio (z) = 0.48589 0.21206
#
# Static dielectric constant tensor:
#      x y z
#    x 1.505790 0.000000 0.004130 
#    y 0.000000 1.540740 0.000000 
#    z 0.004130 0.000000 1.574430 
# 
# From -- ./inp_files/61735.got.cif
#   From: 2010.05.17/outbox.cif.g08.bks.cpg/sg11_31_cif.got.tgz:61735.got - 2010.06.03 12:22:45.
