data_PCOD9162893
_publ_section_title
;
Structure prediction by ZEFSAII (Michael W. Deem and Ramdas Pophale) SiO2 
 PCOD9162893
Probable space group: P 21/M
;
_chemical_formula_sum "Si O2"
_cell_formula_units_Z 32
_cell_length_a 6.997864
_cell_length_b 13.933601
_cell_length_c 17.057765
_cell_angle_alpha 90.000000
_cell_angle_beta 104.808011
_cell_angle_gamma 90.000000
_cell_volume 1607.985376
_symmetry_space_group_name_H-M "P 21/M"
_symmetry_group_IT_number 11
_symmetry_cell_setting 'monoclinic'
loop_
_space_group_symop_operation_xyz
x,y,z
-x,1/2+y,-z
-x,-y,-z
x,1/2-y,z
loop_
_atom_site_type_symbol
_atom_site_label
_atom_site_fract_x
_atom_site_fract_y
_atom_site_fract_z
Si Si1 0.099600 0.449908 0.400247
Si Si2 0.807329 0.639887 0.156906
Si Si3 0.707181 0.018811 0.256584
Si Si4 0.537377 0.860864 0.653989
Si Si5 0.145156 0.642220 0.869777
Si Si6 0.894057 0.008478 0.904078
Si Si7 0.161786 0.859547 0.497220
Si Si8 0.603983 0.142589 0.944171
O O1 0.263754 0.394144 0.368072
O O2 0.175487 0.554378 0.436186
O O3 0.902996 0.466071 0.329080
O O4 0.025390 0.388741 0.467655
O O5 0.856622 0.750000 0.175875
O O6 0.718590 0.589287 0.224956
O O7 0.630584 0.634084 0.074437
O O8 0.988345 0.581998 0.139504
O O9 0.525758 0.062117 0.286384
O O10 0.741197 0.082664 0.183294
O O11 0.551131 0.750000 0.683848
O O12 0.357660 0.862488 0.571967
O O13 0.116829 0.750000 0.840477
O O14 0.935222 0.593218 0.868224
O O15 0.280364 0.639620 0.961887
O O16 0.685062 0.055845 0.900018
O O17 0.000000 0.000000 0.000000
O O18 0.140438 0.750000 0.465581
O O19 0.643531 0.250000 0.914611
#
# Coordination Sequence:
#
# PCOD9162893 Si02
#       8
#     4   4   4   4   4   4   4   4
#     4  10  20  36  56  82 113 142 172 212 261 312
#     4  10  21  37  55  75 104 142 180 221 271 321
#     4  10  22  35  51  78 111 142 175 214 259 315
#     4  10  20  36  58  81 107 141 178 214 256 307
#     4   9  18  33  51  73 103 137 175 222 269 311
#     4   9  18  31  52  76  98 127 169 223 273 319
#     4   9  19  36  59  84 108 137 175 217 256 303
#     4   9  18  34  55  76  99 132 178 228 271 312
#
# _framework density 19.900679
#
# number of rings (size 3 to 8) (size 9 to 14) (size 15 to 20)
#    0.000    2.500    0.000    1.500    0.000    9.000 
#    0.000    1.875    0.000    6.000    0.000    0.000 
#    0.000    0.000    0.000    0.000    0.000    0.000 
#
# Total GULP energy -178455.083547 kJ/mol
# GULP energy per Si atom -5576.721361 kJ/mol
# Density = 1.985538 g / cm^3
# Si number density = 19.900679 Si / 1000 Ang^3
#
#
#
# Elastic Constant Matrix: (Units=GPa)
#
#
# Indices 1 2 3 4 5 6 
#
# 1 -47.1185 -19.9374 16.4743 0.0000 9.0322 0.0000
# 2 -19.9374 92.9143 13.0981 0.0000 0.3017 0.0000
# 3 16.4743 13.0981 20.7050 0.0000 -13.1405 0.0000
# 4 0.0000 0.0000 0.0000 26.2384 0.0000 -2.3530
# 5 9.0322 0.3017 -13.1405 0.0000 17.8871 0.0000
# 6 0.0000 0.0000 0.0000 -2.3530 0.0000 16.2354
#
#
#
# Elastic Compliance Matrix: (Units=1/GPa)
#
#
# Indices 1 2 3 4 5 6 
#
# 1 -0.007698 -0.004802 0.021884 0.000000 0.020045 0.000000
# 2 -0.004802 0.010016 -0.002031 0.000000 0.000764 0.000000
# 3 0.021884 -0.002031 0.047172 0.000000 0.023638 0.000000
# 4 0.000000 0.000000 0.000000 0.038614 0.000000 0.005596
# 5 0.020045 0.000764 0.023638 0.000000 0.063137 0.000000
# 6 0.000000 0.000000 0.000000 0.005596 0.000000 0.062405
#
#
# Mechanical properties :
#
#
# Convention : Reuss Voigt Hill
#
# Bulk Modulus (GPa) = 12.56391 9.53008 11.04699
# Shear Modulus (GPa) = 23.80093 15.86323 19.83208
#
# Velocity S-wave (km/s) = 3.46205 2.82639 3.16025
# Velocity P-wave (km/s) = 4.72315 3.93072 4.34504
#
# Compressibility (1/GPa) = 0.07959306
#
# Stress axis : x y z
#
# Youngs Moduli (GPa) = -129.91067 99.83966 21.19884
#
# Poissons Ratio (x) = 0.47941 -0.46391
# Poissons Ratio (y) = -0.62380 0.04305
# Poissons Ratio (z) = 2.84293 0.20276
#
# Static dielectric constant tensor:
#      x y z
#    x 1.696860 0.000000 0.012980 
#    y 0.000000 1.724870 0.000000 
#    z 0.012980 0.000000 1.709690 
# 
# From -- ./inp_files/57070.got.cif
#   From: 2010.05.17/outbox.cif.g08.bks.cpg/sg11_29_cif.got.tgz:57070.got - 2010.06.03 12:22:45.
