data_PCOD9162216
_publ_section_title
;
Structure prediction by ZEFSAII (Michael W. Deem and Ramdas Pophale) SiO2 
 PCOD9162216
Probable space group: P 21/M
;
_chemical_formula_sum "Si O2"
_cell_formula_units_Z 32
_cell_length_a 28.855449
_cell_length_b 8.144792
_cell_length_c 22.368425
_cell_angle_alpha 90.000000
_cell_angle_beta 18.876461
_cell_angle_gamma 90.000000
_cell_volume 1700.811028
_symmetry_space_group_name_H-M "P 21/M"
_symmetry_group_IT_number 11
_symmetry_cell_setting 'monoclinic'
loop_
_space_group_symop_operation_xyz
x,y,z
-x,1/2+y,-z
-x,-y,-z
x,1/2-y,z
loop_
_atom_site_type_symbol
_atom_site_label
_atom_site_fract_x
_atom_site_fract_y
_atom_site_fract_z
Si Si1 0.660163 0.447932 0.683048
Si Si2 0.171328 0.051189 0.404196
Si Si3 0.159268 0.948655 0.184789
Si Si4 0.658617 0.446005 0.288906
Si Si5 0.808911 0.051874 0.986213
Si Si6 0.944865 0.554014 0.002816
Si Si7 0.903427 0.051644 0.301446
Si Si8 0.664684 0.552415 0.914712
O O1 0.654144 0.250000 0.686704
O O2 0.744465 0.493370 0.640203
O O3 0.754404 0.506993 0.511572
O O4 0.498048 0.510805 0.883634
O O5 0.171111 0.250000 0.404654
O O6 0.251332 0.992735 0.246613
O O7 0.006056 0.996980 0.607430
O O8 0.160017 0.750000 0.184227
O O9 0.250675 0.008540 0.128847
O O10 0.218042 0.004886 0.048405
O O11 0.500000 0.500000 0.500000
O O12 0.660714 0.250000 0.284521
O O13 0.705791 0.508588 0.165311
O O14 0.784277 0.499584 0.181022
O O15 0.802735 0.250000 0.993556
O O16 0.968632 0.001232 0.810680
O O17 0.946532 0.750000 0.999098
O O18 0.000000 0.500000 0.000000
O O19 0.049285 0.492172 0.821937
O O20 0.900164 0.250000 0.303736
O O21 0.658671 0.750000 0.917369
#
# Coordination Sequence:
#
# PCOD9162216 Si02
#       8
#     4   4   4   4   4   4   4   4
#     4  10  20  35  54  78 107 137 175 219 264 316
#     4  10  20  35  56  78 102 137 180 221 263 315
#     4  10  20  35  54  77 105 137 178 221 262 312
#     4  10  20  36  58  83 112 144 180 223 272 324
#     4   9  18  34  56  79 106 138 178 221 259 309
#     4  10  20  36  57  82 112 144 183 225 270 324
#     4   9  18  33  55  79 105 138 178 218 259 313
#     4  10  22  36  50  76 111 141 173 218 268 316
#
# _framework density 18.814554000000001
#
# number of rings (size 3 to 8) (size 9 to 14) (size 15 to 20)
#    0.000    2.250    1.250    1.500    0.000    3.000 
#    2.250    0.000    0.000    0.000    0.000    0.000 
#    0.000    0.000    0.000    0.000    0.000    0.000 
#
# Total GULP energy -178563.292949 kJ/mol
# GULP energy per Si atom -5580.102905 kJ/mol
# Density = 1.877173 g / cm^3
# Si number density = 18.814554 Si / 1000 Ang^3
#
#
#
# Elastic Constant Matrix: (Units=GPa)
#
#
# Indices 1 2 3 4 5 6 
#
# 1 150.2756 7.0877 91.9246 0.0000 6.7390 0.0000
# 2 7.0877 10.8809 14.7756 0.0000 3.4696 0.0000
# 3 91.9246 14.7756 160.4678 0.0000 4.6632 0.0000
# 4 0.0000 0.0000 0.0000 18.4375 0.0000 -0.0165
# 5 6.7390 3.4696 4.6632 0.0000 27.2121 0.0000
# 6 0.0000 0.0000 0.0000 -0.0165 0.0000 47.1864
#
#
#
# Elastic Compliance Matrix: (Units=1/GPa)
#
#
# Indices 1 2 3 4 5 6 
#
# 1 0.010348 0.002067 -0.006066 0.000000 -0.001787 0.000000
# 2 0.002067 0.109357 -0.010887 0.000000 -0.012589 0.000000
# 3 -0.006066 -0.010887 0.010678 0.000000 0.001061 0.000000
# 4 0.000000 0.000000 0.000000 0.054237 0.000000 0.000019
# 5 -0.001787 -0.012589 0.001061 0.000000 0.038614 0.000000
# 6 0.000000 0.000000 0.000000 0.000019 0.000000 0.021193
#
#
# Mechanical properties :
#
#
# Convention : Reuss Voigt Hill
#
# Bulk Modulus (GPa) = 9.93944 61.02223 35.48084
# Shear Modulus (GPa) = 16.24763 32.42297 24.33530
#
# Velocity S-wave (km/s) = 2.94184 4.15576 3.60033
# Velocity P-wave (km/s) = 4.10287 7.45192 6.01517
#
# Compressibility (1/GPa) = 0.10060926
#
# Stress axis : x y z
#
# Youngs Moduli (GPa) = 96.63902 9.14438 93.64626
#
# Poissons Ratio (x) = -0.01890 0.56807
# Poissons Ratio (y) = -0.19973 1.01957
# Poissons Ratio (z) = 0.58623 0.09956
#
# Static dielectric constant tensor:
#      x y z
#    x 1.615430 0.000000 0.051130 
#    y 0.000000 1.677560 0.000000 
#    z 0.051130 0.000000 1.658820 
# 
# From -- ./inp_files/66934.got.cif
#   From: 2010.05.17/outbox.cif.g08.bks.cpg/sg11_34_cif.got.tgz:66934.got - 2010.06.03 12:22:45.
