data_PCOD9162527
_publ_section_title
;
Structure prediction by ZEFSAII (Michael W. Deem and Ramdas Pophale) SiO2 
 PCOD9162527
Probable space group: P 21/M
;
_chemical_formula_sum "Si O2"
_cell_formula_units_Z 24
_cell_length_a 14.679475
_cell_length_b 9.051825
_cell_length_c 8.290145
_cell_angle_alpha 90.000000
_cell_angle_beta 78.810739
_cell_angle_gamma 90.000000
_cell_volume 1080.622642
_symmetry_space_group_name_H-M "P 21/M"
_symmetry_group_IT_number 11
_symmetry_cell_setting 'monoclinic'
loop_
_space_group_symop_operation_xyz
x,y,z
-x,1/2+y,-z
-x,-y,-z
x,1/2-y,z
loop_
_atom_site_type_symbol
_atom_site_label
_atom_site_fract_x
_atom_site_fract_y
_atom_site_fract_z
Si Si1 0.454244 0.076855 0.264090
Si Si2 0.298715 0.925719 0.148303
Si Si3 0.631032 0.075852 0.396047
Si Si4 0.809898 0.074104 0.135807
Si Si5 0.137522 0.421106 0.362838
Si Si6 0.031131 0.078768 0.741733
O O1 0.441259 0.250000 0.242124
O O2 0.562306 0.050423 0.266902
O O3 0.400611 0.989857 0.143646
O O4 0.404302 0.025194 0.447274
O O5 0.304106 0.750000 0.146608
O O6 0.230171 0.983437 0.312068
O O7 0.245126 0.973288 0.005162
O O8 0.620151 0.250000 0.444331
O O9 0.735496 0.050326 0.304333
O O10 0.827882 0.250000 0.119090
O O11 0.903896 0.989273 0.143291
O O12 0.157621 0.250000 0.320351
O O13 0.091489 0.428830 0.555351
O O14 0.060964 0.487046 0.266738
O O15 0.007986 0.250000 0.780204
#
# Coordination Sequence:
#
# PCOD9162527 Si02
#       6
#     4   4   4   4   4   4
#     4  10  20  35  57  84 110 140 182 228 273 321
#     4  11  23  37  54  79 112 148 183 221 269 323
#     4   9  19  37  59  81 108 143 183 227 271 318
#     4  10  22  38  55  78 110 148 185 221 267 322
#     4  10  21  38  60  84 109 140 180 224 270 322
#     4  10  21  37  59  85 109 138 179 225 272 321
#
# _framework density 22.209417999999999
#
# number of rings (size 3 to 8) (size 9 to 14) (size 15 to 20)
#    0.000    2.000    0.000    3.000    0.000    8.667 
#    0.000    0.000    0.000    0.000    0.000    0.000 
#    0.000    0.000    0.000    0.000    0.000    0.000 
#
# Total GULP energy -134250.953912 kJ/mol
# GULP energy per Si atom -5593.789746 kJ/mol
# Density = 2.215887 g / cm^3
# Si number density = 22.209418 Si / 1000 Ang^3
#
#
#
# Elastic Constant Matrix: (Units=GPa)
#
#
# Indices 1 2 3 4 5 6 
#
# 1 108.3016 33.8824 15.7423 0.0000 29.2341 0.0000
# 2 33.8824 52.3321 13.9395 0.0000 24.6744 0.0000
# 3 15.7423 13.9395 57.2150 0.0000 20.5169 0.0000
# 4 0.0000 0.0000 0.0000 23.8337 0.0000 14.2484
# 5 29.2341 24.6744 20.5169 0.0000 45.4169 0.0000
# 6 0.0000 0.0000 0.0000 14.2484 0.0000 28.7521
#
#
#
# Elastic Compliance Matrix: (Units=1/GPa)
#
#
# Indices 1 2 3 4 5 6 
#
# 1 0.012326 -0.005677 -0.000321 0.000000 -0.004705 0.000000
# 2 -0.005677 0.028411 -0.001355 0.000000 -0.011170 0.000000
# 3 -0.000321 -0.001355 0.020952 0.000000 -0.008522 0.000000
# 4 0.000000 0.000000 0.000000 0.059620 0.000000 -0.029546
# 5 -0.004705 -0.011170 -0.008522 0.000000 0.034965 0.000000
# 6 0.000000 0.000000 0.000000 -0.029546 0.000000 0.049422
#
#
# Mechanical properties :
#
#
# Convention : Reuss Voigt Hill
#
# Bulk Modulus (GPa) = 21.28356 38.33079 29.80717
# Shear Modulus (GPa) = 21.18071 29.88617 25.53344
#
# Velocity S-wave (km/s) = 3.09152 3.67229 3.39435
# Velocity P-wave (km/s) = 4.72729 5.93947 5.36771
#
# Compressibility (1/GPa) = 0.04698463
#
# Stress axis : x y z
#
# Youngs Moduli (GPa) = 81.12848 35.19728 47.72714
#
# Poissons Ratio (x) = 0.19980 0.01533
# Poissons Ratio (y) = 0.46053 0.06466
# Poissons Ratio (z) = 0.02606 0.04768
#
# Static dielectric constant tensor:
#      x y z
#    x 1.803850 0.000000 -0.002710 
#    y 0.000000 1.756900 0.000000 
#    z -0.002710 0.000000 1.873340 
# 
# From -- ./inp_files/20548.got.cif
#   From: 2010.05.17/outbox.cif.g08.bks.cpg/sg11_11_cif.got.tgz:20548.got - 2010.06.03 12:22:45.
