data_PCOD9162291
_publ_section_title
;
Structure prediction by ZEFSAII (Michael W. Deem and Ramdas Pophale) SiO2 
 PCOD9162291
Probable space group: P 21/M
;
_chemical_formula_sum "Si O2"
_cell_formula_units_Z 32
_cell_length_a 19.779315
_cell_length_b 12.507208
_cell_length_c 16.734703
_cell_angle_alpha 90.000000
_cell_angle_beta 22.692577
_cell_angle_gamma 90.000000
_cell_volume 1597.116792
_symmetry_space_group_name_H-M "P 21/M"
_symmetry_group_IT_number 11
_symmetry_cell_setting 'monoclinic'
loop_
_space_group_symop_operation_xyz
x,y,z
-x,1/2+y,-z
-x,-y,-z
x,1/2-y,z
loop_
_atom_site_type_symbol
_atom_site_label
_atom_site_fract_x
_atom_site_fract_y
_atom_site_fract_z
Si Si1 0.488944 0.453594 0.636318
Si Si2 0.127628 0.126238 0.078454
Si Si3 0.018986 0.041293 0.887791
Si Si4 0.333532 0.865974 0.694768
Si Si5 0.511015 0.626554 0.874769
Si Si6 0.360967 0.129683 0.434120
Si Si7 0.160238 0.008474 0.214355
Si Si8 0.826517 0.623454 0.635479
O O1 0.648820 0.394843 0.418311
O O2 0.437899 0.548326 0.631641
O O3 0.526465 0.523043 0.672682
O O4 0.324721 0.377687 0.827609
O O5 0.070071 0.250000 0.147972
O O6 0.016529 0.054438 0.136801
O O7 0.142014 0.065895 0.148122
O O8 0.191546 0.103500 0.672160
O O9 0.859127 0.124566 0.060036
O O10 0.000000 0.000000 0.000000
O O11 0.410480 0.750000 0.621190
O O12 0.455656 0.750000 0.950441
O O13 0.649021 0.629931 0.650287
O O14 0.635108 0.587689 0.811476
O O15 0.338121 0.560551 0.037312
O O16 0.427455 0.250000 0.381832
O O17 0.988240 0.935186 0.415588
O O18 0.158639 0.095154 0.287313
O O19 0.838195 0.750000 0.609780
#
# Coordination Sequence:
#
# PCOD9162291 Si02
#       8
#     4   4   4   4   4   4   4   4
#     4  10  20  37  55  82 115 147 200 249 296 365
#     4  11  24  41  62  86 121 164 205 255 319 378
#     4  11  23  40  57  83 118 157 205 255 308 371
#     4  10  20  35  55  79 108 151 199 246 299 359
#     4  10  21  38  62  92 126 165 208 261 317 373
#     4  11  21  37  59  85 118 154 198 255 308 359
#     4  11  21  40  66  92 130 166 207 260 316 383
#     4  10  22  39  64  96 128 166 210 258 314 378
#
# _framework density 20.036104999999999
#
# number of rings (size 3 to 8) (size 9 to 14) (size 15 to 20)
#    0.000    1.500    2.500    3.000    0.000    1.000 
#    0.000    1.250    0.000    3.000    0.000    0.000 
#    0.000    0.000    0.000    0.000    0.000    0.000 
#
# Total GULP energy -178169.239028 kJ/mol
# GULP energy per Si atom -5567.788720 kJ/mol
# Density = 1.999050 g / cm^3
# Si number density = 20.036105 Si / 1000 Ang^3
#
#
#
# Elastic Constant Matrix: (Units=GPa)
#
#
# Indices 1 2 3 4 5 6 
#
# 1 106.9552 44.1310 15.6948 0.0000 11.1244 0.0000
# 2 44.1310 84.3789 28.3652 0.0000 8.7285 0.0000
# 3 15.6948 28.3652 61.0498 0.0000 3.4271 0.0000
# 4 0.0000 0.0000 0.0000 45.0646 0.0000 -16.2988
# 5 11.1244 8.7285 3.4271 0.0000 27.0354 0.0000
# 6 0.0000 0.0000 0.0000 -16.2988 0.0000 30.7191
#
#
#
# Elastic Compliance Matrix: (Units=1/GPa)
#
#
# Indices 1 2 3 4 5 6 
#
# 1 0.012163 -0.005987 -0.000174 0.000000 -0.003050 0.000000
# 2 -0.005987 0.017377 -0.006403 0.000000 -0.002335 0.000000
# 3 -0.000174 -0.006403 0.019418 0.000000 -0.000323 0.000000
# 4 0.000000 0.000000 0.000000 0.027460 0.000000 0.014570
# 5 -0.003050 -0.002335 -0.000323 0.000000 0.039038 0.000000
# 6 0.000000 0.000000 0.000000 0.014570 0.000000 0.040283
#
#
# Mechanical properties :
#
#
# Convention : Reuss Voigt Hill
#
# Bulk Modulus (GPa) = 41.96630 47.64065 44.80348
# Shear Modulus (GPa) = 26.48149 31.51001 28.99575
#
# Velocity S-wave (km/s) = 3.63945 3.96998 3.80830
# Velocity P-wave (km/s) = 6.21704 6.69652 6.46123
#
# Compressibility (1/GPa) = 0.02382864
#
# Stress axis : x y z
#
# Youngs Moduli (GPa) = 82.21726 57.54763 51.49854
#
# Poissons Ratio (x) = 0.34456 0.00895
# Poissons Ratio (y) = 0.49227 0.32977
# Poissons Ratio (z) = 0.01429 0.36850
#
# Static dielectric constant tensor:
#      x y z
#    x 1.797370 0.000000 -0.020700 
#    y 0.000000 1.436430 0.000000 
#    z -0.020700 0.000000 1.731050 
# 
# From -- ./inp_files/53638.got.cif
#   From: 2010.05.17/outbox.cif.g08.bks.cpg/sg11_27_cif.got.tgz:53638.got - 2010.06.03 12:22:45.
