data_PCOD9162756
_publ_section_title
;
Structure prediction by ZEFSAII (Michael W. Deem and Ramdas Pophale) SiO2 
 PCOD9162756
Probable space group: P 21/M
;
_chemical_formula_sum "Si O2"
_cell_formula_units_Z 28
_cell_length_a 13.957656
_cell_length_b 14.275865
_cell_length_c 8.642068
_cell_angle_alpha 90.000000
_cell_angle_beta 123.800351
_cell_angle_gamma 90.000000
_cell_volume 1430.947592
_symmetry_space_group_name_H-M "P 21/M"
_symmetry_group_IT_number 11
_symmetry_cell_setting 'monoclinic'
loop_
_space_group_symop_operation_xyz
x,y,z
-x,1/2+y,-z
-x,-y,-z
x,1/2-y,z
loop_
_atom_site_type_symbol
_atom_site_label
_atom_site_fract_x
_atom_site_fract_y
_atom_site_fract_z
Si Si1 0.536993 0.639635 0.697893
Si Si2 0.779762 0.521723 0.585856
Si Si3 0.339210 0.641688 0.327617
Si Si4 0.788863 0.861259 0.896501
Si Si5 0.969143 0.499995 0.157257
Si Si6 0.387693 0.962449 0.808502
Si Si7 0.778672 0.141162 0.103954
O O1 0.554910 0.750000 0.713870
O O2 0.472268 0.615120 0.480092
O O3 0.663611 0.599578 0.835848
O O4 0.446239 0.611558 0.745258
O O5 0.738758 0.431890 0.649975
O O6 0.792449 0.606461 0.719709
O O7 0.684902 0.533542 0.366525
O O8 0.909113 0.498849 0.646102
O O9 0.322549 0.750000 0.366034
O O10 0.305330 0.639590 0.119978
O O11 0.798486 0.750000 0.915896
O O12 0.885889 0.910324 0.087021
O O13 0.893008 0.413110 0.148706
O O14 0.000000 0.500000 0.000000
O O15 0.291587 0.912759 0.827048
O O16 0.500000 0.000000 0.000000
O O17 0.801897 0.250000 0.164573
#
# Coordination Sequence:
#
# PCOD9162756 Si02
#       7
#     4   4   4   4   4   4   4
#     4   9  19  36  56  81 115 150 194 247 295 351
#     4  10  22  39  59  86 122 156 200 247 298 355
#     4   9  18  33  59  86 113 152 198 246 294 350
#     4  10  20  35  60  90 117 151 200 253 303 356
#     4  10  20  38  60  86 116 153 200 253 297 346
#     4  11  24  37  59  86 122 162 195 243 301 362
#     4  11  22  38  61  91 123 159 202 247 299 361
#
# _framework density 19.567453
#
# number of rings (size 3 to 8) (size 9 to 14) (size 15 to 20)
#    0.000    2.000    2.857    1.286    2.000    5.143 
#    0.000    0.714    0.000    2.571    0.000    0.000 
#    0.000    0.000    0.000    0.000    0.000    0.000 
#
# Total GULP energy -156003.467850 kJ/mol
# GULP energy per Si atom -5571.552423 kJ/mol
# Density = 1.952292 g / cm^3
# Si number density = 19.567453 Si / 1000 Ang^3
#
#
#
# Elastic Constant Matrix: (Units=GPa)
#
#
# Indices 1 2 3 4 5 6 
#
# 1 96.5427 16.4832 16.0658 0.0000 16.6365 0.0000
# 2 16.4832 76.9874 2.0462 0.0000 4.2026 0.0000
# 3 16.0658 2.0462 65.9907 0.0000 18.2983 0.0000
# 4 0.0000 0.0000 0.0000 18.2033 0.0000 -3.4553
# 5 16.6365 4.2026 18.2983 0.0000 28.8548 0.0000
# 6 0.0000 0.0000 0.0000 -3.4553 0.0000 19.1631
#
#
#
# Elastic Compliance Matrix: (Units=1/GPa)
#
#
# Indices 1 2 3 4 5 6 
#
# 1 0.011936 -0.002207 -0.001236 0.000000 -0.005777 0.000000
# 2 -0.002207 0.013503 0.000378 0.000000 -0.000933 0.000000
# 3 -0.001236 0.000378 0.018516 0.000000 -0.011085 0.000000
# 4 0.000000 0.000000 0.000000 0.056882 0.000000 0.010256
# 5 -0.005777 -0.000933 -0.011085 0.000000 0.045152 0.000000
# 6 0.000000 0.000000 0.000000 0.010256 0.000000 0.054033
#
#
# Mechanical properties :
#
#
# Convention : Reuss Voigt Hill
#
# Bulk Modulus (GPa) = 26.43812 34.30124 30.36968
# Shear Modulus (GPa) = 22.85596 26.90595 24.88095
#
# Velocity S-wave (km/s) = 3.42140 3.71217 3.56975
# Velocity P-wave (km/s) = 5.39894 5.99512 5.70482
#
# Compressibility (1/GPa) = 0.03782418
#
# Stress axis : x y z
#
# Youngs Moduli (GPa) = 83.77963 74.05957 54.00613
#
# Poissons Ratio (x) = 0.16348 0.06673
# Poissons Ratio (y) = 0.18493 -0.02039
# Poissons Ratio (z) = 0.10352 -0.02796
#
# Static dielectric constant tensor:
#      x y z
#    x 1.743140 0.000000 0.000270 
#    y 0.000000 1.691010 0.000000 
#    z 0.000270 0.000000 1.753720 
# 
# From -- ./inp_files/18143.got.cif
#   From: 2010.05.17/outbox.cif.g08.bks.cpg/sg11_10_cif.got.tgz:18143.got - 2010.06.03 12:22:45.
