data_PCOD9162454
_publ_section_title
;
Structure prediction by ZEFSAII (Michael W. Deem and Ramdas Pophale) SiO2 
 PCOD9162454
Probable space group: P 21/M
;
_chemical_formula_sum "Si O2"
_cell_formula_units_Z 20
_cell_length_a 12.307234
_cell_length_b 12.771832
_cell_length_c 9.459188
_cell_angle_alpha 90.000000
_cell_angle_beta 46.992580
_cell_angle_gamma 90.000000
_cell_volume 1087.282811
_symmetry_space_group_name_H-M "P 21/M"
_symmetry_group_IT_number 11
_symmetry_cell_setting 'monoclinic'
loop_
_space_group_symop_operation_xyz
x,y,z
-x,1/2+y,-z
-x,-y,-z
x,1/2-y,z
loop_
_atom_site_type_symbol
_atom_site_label
_atom_site_fract_x
_atom_site_fract_y
_atom_site_fract_z
Si Si1 0.961651 0.985828 0.754271
Si Si2 0.718079 0.873543 0.141429
Si Si3 0.749769 0.873021 0.444205
Si Si4 0.163529 0.632467 0.363906
Si Si5 0.550504 0.027811 0.797116
O O1 0.035291 0.898193 0.588473
O O2 0.095503 0.063515 0.677944
O O3 0.852151 0.052470 0.751669
O O4 0.868952 0.932003 0.960050
O O5 0.726710 0.750000 0.098247
O O6 0.698973 0.882338 0.326719
O O7 0.583354 0.927487 0.177208
O O8 0.768935 0.750000 0.460927
O O9 0.630257 0.928825 0.651734
O O10 0.147256 0.750000 0.328185
O O11 0.319589 0.613695 0.301950
O O12 0.500000 0.000000 0.000000
#
# Coordination Sequence:
#
# PCOD9162454 Si02
#       5
#     4   4   4   4   4
#     4  10  20  37  58  86 118 152 193 240 290 344
#     4  11  22  39  61  88 119 156 195 240 294 348
#     4  10  23  40  61  86 119 157 195 240 293 348
#     4  10  20  35  56  84 115 150 193 241 291 341
#     4  11  22  40  58  85 117 153 196 242 289 344
#
# _framework density 18.394477999999999
#
# number of rings (size 3 to 8) (size 9 to 14) (size 15 to 20)
#    0.000    1.600    2.000    3.000    0.000    1.600 
#    0.000    0.000    0.000    8.400    0.000    0.000 
#    0.000    0.000    0.000    0.000    0.000    0.000 
#
# Total GULP energy -111667.896805 kJ/mol
# GULP energy per Si atom -5583.394840 kJ/mol
# Density = 1.835261 g / cm^3
# Si number density = 18.394478 Si / 1000 Ang^3
#
#
#
# Elastic Constant Matrix: (Units=GPa)
#
#
# Indices 1 2 3 4 5 6 
#
# 1 86.1070 32.0669 32.3128 0.0000 -6.6697 0.0000
# 2 32.0669 90.9861 67.1343 0.0000 -14.5211 0.0000
# 3 32.3128 67.1343 119.8621 0.0000 3.0046 0.0000
# 4 0.0000 0.0000 0.0000 9.8783 0.0000 -6.0882
# 5 -6.6697 -14.5211 3.0046 0.0000 22.4700 0.0000
# 6 0.0000 0.0000 0.0000 -6.0882 0.0000 6.3068
#
#
#
# Elastic Compliance Matrix: (Units=1/GPa)
#
#
# Indices 1 2 3 4 5 6 
#
# 1 0.013672 -0.002808 -0.002177 0.000000 0.002535 0.000000
# 2 -0.002808 0.024581 -0.013433 0.000000 0.016848 0.000000
# 3 -0.002177 -0.013433 0.016743 0.000000 -0.011566 0.000000
# 4 0.000000 0.000000 0.000000 0.249933 0.000000 0.241270
# 5 0.002535 0.016848 -0.011566 0.000000 0.057690 0.000000
# 6 0.000000 0.000000 0.000000 0.241270 0.000000 0.391466
#
#
# Mechanical properties :
#
#
# Convention : Reuss Voigt Hill
#
# Bulk Modulus (GPa) = 55.06234 62.22033 58.64133
# Shear Modulus (GPa) = 6.27373 18.76044 12.51708
#
# Velocity S-wave (km/s) = 1.84880 3.19704 2.61143
# Velocity P-wave (km/s) = 5.87848 6.89399 6.40639
#
# Compressibility (1/GPa) = 0.01816123
#
# Stress axis : x y z
#
# Youngs Moduli (GPa) = 73.14037 40.68240 59.72562
#
# Poissons Ratio (x) = 0.11424 0.12999
# Poissons Ratio (y) = 0.20539 0.80228
# Poissons Ratio (z) = 0.15919 0.54648
#
# Static dielectric constant tensor:
#      x y z
#    x 1.630770 0.000000 -0.011810 
#    y 0.000000 1.608240 0.000000 
#    z -0.011810 0.000000 1.624430 
# 
# From -- ./inp_files/11725.got.cif
#   From: 2010.05.17/outbox.cif.g08.bks.cpg/sg11_6_cif.got.tgz:11725.got - 2010.06.03 12:22:45.
