data_PCOD9162100
_publ_section_title
;
Structure prediction by ZEFSAII (Michael W. Deem and Ramdas Pophale) SiO2 
 PCOD9162100
Probable space group: P 21/M
;
_chemical_formula_sum "Si O2"
_cell_formula_units_Z 32
_cell_length_a 15.477595
_cell_length_b 14.331812
_cell_length_c 21.935108
_cell_angle_alpha 90.000000
_cell_angle_beta 161.059812
_cell_angle_gamma 90.000000
_cell_volume 1579.309926
_symmetry_space_group_name_H-M "P 21/M"
_symmetry_group_IT_number 11
_symmetry_cell_setting 'monoclinic'
loop_
_space_group_symop_operation_xyz
x,y,z
-x,1/2+y,-z
-x,-y,-z
x,1/2-y,z
loop_
_atom_site_type_symbol
_atom_site_label
_atom_site_fract_x
_atom_site_fract_y
_atom_site_fract_z
Si Si1 0.318008 0.492080 0.720144
Si Si2 0.073503 0.359199 0.045560
Si Si3 0.238303 0.446260 0.432901
Si Si4 0.898544 0.350225 0.674557
Si Si5 0.528733 0.146472 0.082511
Si Si6 0.304219 0.854209 0.324015
Si Si7 0.664559 0.138151 0.035795
Si Si8 0.401766 0.533911 0.222454
O O1 0.387445 0.581706 0.806760
O O2 0.469525 0.488455 0.756569
O O3 0.000000 0.500000 0.500000
O O4 0.446232 0.407771 0.845616
O O5 0.143894 0.250000 0.104059
O O6 0.913522 0.362256 0.874508
O O7 0.861629 0.400226 0.953274
O O8 0.299774 0.437774 0.186901
O O9 0.192862 0.554635 0.415764
O O10 0.463739 0.427307 0.533247
O O11 0.378052 0.412883 0.588868
O O12 0.963723 0.401008 0.227410
O O13 0.785693 0.250000 0.578375
O O14 0.830888 0.360915 0.700758
O O15 0.211947 0.347034 0.874250
O O16 0.645399 0.250000 0.167098
O O17 0.601612 0.111812 0.063915
O O18 0.424001 0.750000 0.398771
O O19 0.659503 0.250000 0.026863
#
# Coordination Sequence:
#
# PCOD9162100 Si02
#       8
#     4   4   4   4   4   4   4   4
#     4  12  25  41  66  94 130 165 206 261 318 380
#     4   9  19  39  63  86 129 173 210 260 311 368
#     4  11  21  38  63  88 127 166 204 257 310 374
#     4  10  20  34  58  89 120 156 203 259 310 362
#     4  10  22  42  66  89 119 163 209 255 312 368
#     4   9  18  34  58  89 119 160 211 255 309 367
#     4  11  25  44  66  91 123 163 211 261 312 375
#     4  10  23  38  61  98 126 168 218 252 312 384
#
# _framework density 20.262015999999999
#
# number of rings (size 3 to 8) (size 9 to 14) (size 15 to 20)
#    0.000    1.750    1.250    2.625    1.750    3.500 
#    2.250    0.000    0.000    0.000    0.000    0.000 
#    0.000    0.000    0.000    0.000    0.000    0.000 
#
# Total GULP energy -178466.886581 kJ/mol
# GULP energy per Si atom -5577.090206 kJ/mol
# Density = 2.021590 g / cm^3
# Si number density = 20.262016 Si / 1000 Ang^3
#
#
#
# Elastic Constant Matrix: (Units=GPa)
#
#
# Indices 1 2 3 4 5 6 
#
# 1 -54.6029 -150.0198 -60.4530 0.0000 14.3682 0.0000
# 2 -150.0198 -86.1879 -69.6741 0.0000 4.8116 0.0000
# 3 -60.4530 -69.6741 38.8686 0.0000 7.7678 0.0000
# 4 0.0000 0.0000 0.0000 9.4782 0.0000 1.0148
# 5 14.3682 4.8116 7.7678 0.0000 17.9456 0.0000
# 6 0.0000 0.0000 0.0000 1.0148 0.0000 26.3333
#
#
#
# Elastic Compliance Matrix: (Units=1/GPa)
#
#
# Indices 1 2 3 4 5 6 
#
# 1 0.005989 -0.007434 -0.003779 0.000000 -0.001166 0.000000
# 2 -0.007434 0.004928 -0.004001 0.000000 0.006363 0.000000
# 3 -0.003779 -0.004001 0.012981 0.000000 -0.001521 0.000000
# 4 0.000000 0.000000 0.000000 0.105942 0.000000 -0.004083
# 5 -0.001166 0.006363 -0.001521 0.000000 0.055610 0.000000
# 6 0.000000 0.000000 0.000000 -0.004083 0.000000 0.038132
#
#
# Mechanical properties :
#
#
# Convention : Reuss Voigt Hill
#
# Bulk Modulus (GPa) = -153.10776 -73.57955 -113.34366
# Shear Modulus (GPa) = 19.85434 22.63307 21.24371
#
# Velocity S-wave (km/s) = 3.13370 3.34581 3.24149
# Velocity P-wave (km/s) = 7.91420 4.63324 6.48465
#
# Compressibility (1/GPa) = -0.00653135
#
# Stress axis : x y z
#
# Youngs Moduli (GPa) = 166.97719 202.93370 77.03271
#
# Poissons Ratio (x) = 1.50869 0.29111
# Poissons Ratio (y) = 1.24137 0.30823
# Poissons Ratio (z) = 0.63101 0.81200
#
# Static dielectric constant tensor:
#      x y z
#    x 1.693690 0.000000 0.003380 
#    y 0.000000 1.774410 0.000000 
#    z 0.003380 0.000000 1.767460 
# 
# From -- ./inp_files/31883.got.cif
#   From: 2010.05.17/outbox.cif.g08.bks.cpg/sg11_16_cif.got.tgz:31883.got - 2010.06.03 12:22:45.
