data_PCOD9162730
_publ_section_title
;
Structure prediction by ZEFSAII (Michael W. Deem and Ramdas Pophale) SiO2 
 PCOD9162730
Probable space group: P 21/M
;
_chemical_formula_sum "Si O2"
_cell_formula_units_Z 28
_cell_length_a 15.327347
_cell_length_b 8.765397
_cell_length_c 11.762602
_cell_angle_alpha 90.000000
_cell_angle_beta 65.302916
_cell_angle_gamma 90.000000
_cell_volume 1435.757155
_symmetry_space_group_name_H-M "P 21/M"
_symmetry_group_IT_number 11
_symmetry_cell_setting 'monoclinic'
loop_
_space_group_symop_operation_xyz
x,y,z
-x,1/2+y,-z
-x,-y,-z
x,1/2-y,z
loop_
_atom_site_type_symbol
_atom_site_label
_atom_site_fract_x
_atom_site_fract_y
_atom_site_fract_z
Si Si1 0.539052 0.566211 0.804861
Si Si2 0.643915 0.567451 0.981836
Si Si3 0.106633 0.566840 0.447829
Si Si4 0.411417 0.432822 0.478074
Si Si5 0.843154 0.432419 0.829687
Si Si6 0.792337 0.065916 0.373851
Si Si7 0.021822 0.933000 0.865288
O O1 0.530747 0.750000 0.810795
O O2 0.605561 0.522377 0.876266
O O3 0.579079 0.519834 0.660132
O O4 0.435072 0.495030 0.887616
O O5 0.647853 0.750000 0.985341
O O6 0.748919 0.497937 0.941014
O O7 0.098292 0.750000 0.458088
O O8 0.160414 0.527115 0.302007
O O9 0.163184 0.516443 0.528883
O O10 0.000000 0.500000 0.500000
O O11 0.500000 0.500000 0.500000
O O12 0.414120 0.250000 0.480889
O O13 0.311327 0.492532 0.582554
O O14 0.846055 0.250000 0.839772
O O15 0.940536 0.502784 0.825793
O O16 0.782720 0.250000 0.379580
O O17 0.872323 0.024405 0.237108
O O18 0.016332 0.750000 0.869507
O O19 0.000000 0.000000 0.000000
#
# Coordination Sequence:
#
# PCOD9162730 Si02
#       7
#     4   4   4   4   4   4   4
#     4   9  20  39  59  85 119 153 193 244 301 354
#     4  10  20  35  60  89 118 154 194 241 297 356
#     4  10  20  35  59  90 122 155 193 241 296 353
#     4  11  24  41  63  88 117 156 200 248 297 353
#     4  11  22  36  58  89 122 157 196 240 294 356
#     4  10  22  41  63  89 121 156 194 246 303 352
#     4  11  24  42  62  84 118 159 200 245 292 349
#
# _framework density 19.501905000000001
#
# number of rings (size 3 to 8) (size 9 to 14) (size 15 to 20)
#    0.000    1.714    1.429    2.571    0.000    5.143 
#    0.000    1.429    0.000    0.000    0.000    0.000 
#    0.000    0.000    0.000    0.000    0.000    0.000 
#
# Total GULP energy -156488.322084 kJ/mol
# GULP energy per Si atom -5588.868646 kJ/mol
# Density = 1.945752 g / cm^3
# Si number density = 19.501905 Si / 1000 Ang^3
#
#
#
# Elastic Constant Matrix: (Units=GPa)
#
#
# Indices 1 2 3 4 5 6 
#
# 1 111.0023 29.3897 56.4309 0.0000 -32.2270 0.0000
# 2 29.3897 28.2577 40.5116 0.0000 -11.0716 0.0000
# 3 56.4309 40.5116 128.1417 0.0000 -21.1505 0.0000
# 4 0.0000 0.0000 0.0000 30.1980 0.0000 -4.4086
# 5 -32.2270 -11.0716 -21.1505 0.0000 38.7937 0.0000
# 6 0.0000 0.0000 0.0000 -4.4086 0.0000 35.9007
#
#
#
# Elastic Compliance Matrix: (Units=1/GPa)
#
#
# Indices 1 2 3 4 5 6 
#
# 1 0.015106 -0.008820 -0.002426 0.000000 0.008709 0.000000
# 2 -0.008820 0.072240 -0.018418 0.000000 0.003248 0.000000
# 3 -0.002426 -0.018418 0.014829 0.000000 0.000813 0.000000
# 4 0.000000 0.000000 0.000000 0.033719 0.000000 0.004141
# 5 0.008709 0.003248 0.000813 0.000000 0.034382 0.000000
# 6 0.000000 0.000000 0.000000 0.004141 0.000000 0.028363
#
#
# Mechanical properties :
#
#
# Convention : Reuss Voigt Hill
#
# Bulk Modulus (GPa) = 23.33955 57.78510 40.56233
# Shear Modulus (GPa) = 18.36538 30.38311 24.37424
#
# Velocity S-wave (km/s) = 3.07208 3.95138 3.53914
# Velocity P-wave (km/s) = 4.95756 7.10723 6.12740
#
# Compressibility (1/GPa) = 0.04284573
#
# Stress axis : x y z
#
# Youngs Moduli (GPa) = 66.19824 13.84279 67.43386
#
# Poissons Ratio (x) = 0.12210 0.16362
# Poissons Ratio (y) = 0.58390 1.24199
# Poissons Ratio (z) = 0.16063 0.25496
#
# Static dielectric constant tensor:
#      x y z
#    x 1.686070 0.000000 0.033360 
#    y 0.000000 1.651960 0.000000 
#    z 0.033360 0.000000 1.697760 
# 
# From -- ./inp_files/37854.got.cif
#   From: 2010.05.17/outbox.cif.g08.bks.cpg/sg11_19_cif.got.tgz:37854.got - 2010.06.03 12:22:45.
