data_PCOD9162038
_publ_section_title
;
Structure prediction by ZEFSAII (Michael W. Deem and Ramdas Pophale) SiO2 
 PCOD9162038
Probable space group: P 21/M
;
_chemical_formula_sum "Si O2"
_cell_formula_units_Z 32
_cell_length_a 22.512823
_cell_length_b 9.845055
_cell_length_c 13.753245
_cell_angle_alpha 90.000000
_cell_angle_beta 152.847528
_cell_angle_gamma 90.000000
_cell_volume 1391.107963
_symmetry_space_group_name_H-M "P 21/M"
_symmetry_group_IT_number 11
_symmetry_cell_setting 'monoclinic'
loop_
_space_group_symop_operation_xyz
x,y,z
-x,1/2+y,-z
-x,-y,-z
x,1/2-y,z
loop_
_atom_site_type_symbol
_atom_site_label
_atom_site_fract_x
_atom_site_fract_y
_atom_site_fract_z
Si Si1 0.195701 0.107287 0.774479
Si Si2 0.412657 0.087227 0.797184
Si Si3 0.164537 0.601932 0.415453
Si Si4 0.620842 0.907358 0.777796
Si Si5 0.417408 0.409605 0.577729
Si Si6 0.026657 0.957986 0.402302
Si Si7 0.826544 0.098532 0.784018
Si Si8 0.167424 0.897066 0.993872
O O1 0.208285 0.250000 0.739115
O O2 0.162144 0.988808 0.652007
O O3 0.313856 0.093558 0.019512
O O4 0.069108 0.111346 0.660960
O O5 0.409076 0.250000 0.813695
O O6 0.460906 0.074061 0.754604
O O7 0.268952 0.017216 0.585906
O O8 0.500000 0.000000 0.000000
O O9 0.233617 0.750000 0.519612
O O10 0.058574 0.605627 0.345757
O O11 0.104120 0.591386 0.219109
O O12 0.595532 0.750000 0.714163
O O13 0.499731 0.005587 0.618916
O O14 0.730276 0.981919 0.872853
O O15 0.417645 0.250000 0.556577
O O16 0.276235 0.477837 0.368305
O O17 0.943505 0.089180 0.248880
O O18 0.760728 0.250000 0.687185
O O19 0.891894 0.096361 0.984509
O O20 0.233045 0.750000 0.078077
#
# Coordination Sequence:
#
# PCOD9162038 Si02
#       8
#     4   4   4   4   4   4   4   4
#     4   9  19  35  52  79 116 151 185 227 280 338
#     4  10  22  38  57  84 116 152 192 236 285 340
#     4  10  21  38  59  84 114 151 194 239 286 343
#     4  10  21  36  58  86 115 152 193 235 289 349
#     4  10  21  38  58  84 115 149 192 240 287 341
#     4  10  20  34  57  85 113 151 191 235 284 340
#     4   9  20  39  60  82 113 152 192 240 294 342
#     4  10  21  38  59  84 115 151 194 242 290 343
#
# _framework density 23.003247000000002
#
# number of rings (size 3 to 8) (size 9 to 14) (size 15 to 20)
#    0.000    2.250    0.000    1.875    1.750    4.500 
#    0.000    1.250    0.000    0.000    0.000    0.000 
#    0.000    0.000    0.000    0.000    0.000    0.000 
#
# Total GULP energy -178352.817523 kJ/mol
# GULP energy per Si atom -5573.525548 kJ/mol
# Density = 2.295089 g / cm^3
# Si number density = 23.003247 Si / 1000 Ang^3
#
#
#
# Elastic Constant Matrix: (Units=GPa)
#
#
# Indices 1 2 3 4 5 6 
#
# 1 91.8496 30.7138 -7.9957 0.0000 -11.1397 0.0000
# 2 30.7138 158.9859 10.2741 0.0000 -1.3298 0.0000
# 3 -7.9957 10.2741 24.5088 0.0000 -20.1962 0.0000
# 4 0.0000 0.0000 0.0000 18.0465 0.0000 -1.7945
# 5 -11.1397 -1.3298 -20.1962 0.0000 35.5202 0.0000
# 6 0.0000 0.0000 0.0000 -1.7945 0.0000 21.6605
#
#
#
# Elastic Compliance Matrix: (Units=1/GPa)
#
#
# Indices 1 2 3 4 5 6 
#
# 1 0.016219 -0.004351 0.021022 0.000000 0.016876 0.000000
# 2 -0.004351 0.007747 -0.010447 0.000000 -0.007014 0.000000
# 3 0.021022 -0.010447 0.107532 0.000000 0.067343 0.000000
# 4 0.000000 0.000000 0.000000 0.055873 0.000000 0.004629
# 5 0.016876 -0.007014 0.067343 0.000000 0.071473 0.000000
# 6 0.000000 0.000000 0.000000 0.004629 0.000000 0.046551
#
#
# Mechanical properties :
#
#
# Convention : Reuss Voigt Hill
#
# Bulk Modulus (GPa) = 6.94703 37.92539 22.43621
# Shear Modulus (GPa) = 14.66587 31.20222 22.93405
#
# Velocity S-wave (km/s) = 2.52773 3.68697 3.16094
# Velocity P-wave (km/s) = 3.39791 5.88623 4.80591
#
# Compressibility (1/GPa) = 0.14394635
#
# Stress axis : x y z
#
# Youngs Moduli (GPa) = 61.65620 129.08595 9.29956
#
# Poissons Ratio (x) = 0.56160 -0.19549
# Poissons Ratio (y) = 0.26824 0.09715
# Poissons Ratio (z) = -1.29612 1.34854
#
# Static dielectric constant tensor:
#      x y z
#    x 1.881800 0.000000 -0.012790 
#    y 0.000000 1.872040 0.000000 
#    z -0.012790 0.000000 1.860770 
# 
# From -- ./inp_files/55684.got.cif
#   From: 2010.05.17/outbox.cif.g08.bks.cpg/sg11_28_cif.got.tgz:55684.got - 2010.06.03 12:22:45.
