data_PCOD9162250
_publ_section_title
;
Structure prediction by ZEFSAII (Michael W. Deem and Ramdas Pophale) SiO2 
 PCOD9162250
Probable space group: P 21/M
;
_chemical_formula_sum "Si O2"
_cell_formula_units_Z 32
_cell_length_a 11.703020
_cell_length_b 7.833122
_cell_length_c 30.737353
_cell_angle_alpha 90.000000
_cell_angle_beta 145.716831
_cell_angle_gamma 90.000000
_cell_volume 1587.180135
_symmetry_space_group_name_H-M "P 21/M"
_symmetry_group_IT_number 11
_symmetry_cell_setting 'monoclinic'
loop_
_space_group_symop_operation_xyz
x,y,z
-x,1/2+y,-z
-x,-y,-z
x,1/2-y,z
loop_
_atom_site_type_symbol
_atom_site_label
_atom_site_fract_x
_atom_site_fract_y
_atom_site_fract_z
Si Si1 0.367884 0.450811 0.760301
Si Si2 0.732461 0.952048 0.458430
Si Si3 0.232781 0.046868 0.066549
Si Si4 0.405001 0.544612 0.423945
Si Si5 0.810663 0.048884 0.387933
Si Si6 0.652351 0.540816 0.993961
Si Si7 0.195964 0.052919 0.871393
Si Si8 0.051636 0.460099 0.734349
O O1 0.330449 0.250000 0.745724
O O2 0.600711 0.478484 0.847322
O O3 0.304578 0.522341 0.693547
O O4 0.222078 0.517984 0.753426
O O5 0.739178 0.750000 0.469475
O O6 0.551496 0.021598 0.431473
O O7 0.957419 0.021337 0.541090
O O8 0.706660 0.975272 0.398588
O O9 0.251705 0.250000 0.073587
O O10 0.289477 0.988018 0.035905
O O11 0.000000 0.000000 0.000000
O O12 0.500000 0.500000 0.500000
O O13 0.394542 0.750000 0.416605
O O14 0.173053 0.484731 0.349435
O O15 0.826208 0.250000 0.400881
O O16 0.636046 0.750000 0.990781
O O17 0.809990 0.484998 0.081201
O O18 0.434759 0.460469 0.935672
O O19 0.130449 0.250000 0.853118
O O20 0.091404 0.976782 0.796021
O O21 0.062211 0.250000 0.738527
#
# Coordination Sequence:
#
# PCOD9162250 Si02
#       8
#     4   4   4   4   4   4   4   4
#     4  11  21  36  58  83 108 141 186 227 275 335
#     4   9  19  36  56  81 113 151 192 230 275 332
#     4  11  23  39  56  80 112 145 183 228 278 329
#     4  10  20  35  54  81 114 147 184 225 276 329
#     4  10  20  35  57  82 111 148 189 236 280 321
#     4   9  18  32  53  79 106 135 174 220 269 320
#     4   9  16  31  54  78 104 136 175 217 266 322
#     4   9  18  32  54  81 108 140 180 224 270 326
#
# _framework density 20.161542000000001
#
# number of rings (size 3 to 8) (size 9 to 14) (size 15 to 20)
#    0.000    2.250    1.250    1.875    0.000    1.500 
#    2.250    1.250    0.000    0.000    0.000    0.000 
#    0.000    0.000    0.000    0.000    0.000    0.000 
#
# Total GULP energy -178468.526413 kJ/mol
# GULP energy per Si atom -5577.141450 kJ/mol
# Density = 2.011565 g / cm^3
# Si number density = 20.161542 Si / 1000 Ang^3
#
#
#
# Elastic Constant Matrix: (Units=GPa)
#
#
# Indices 1 2 3 4 5 6 
#
# 1 65.8330 -7.2439 39.2014 0.0000 -3.4046 0.0000
# 2 -7.2439 18.0537 -16.5034 0.0000 4.9782 0.0000
# 3 39.2014 -16.5034 135.6703 0.0000 -16.5437 0.0000
# 4 0.0000 0.0000 0.0000 19.7707 0.0000 0.1721
# 5 -3.4046 4.9782 -16.5437 0.0000 33.6203 0.0000
# 6 0.0000 0.0000 0.0000 0.1721 0.0000 11.2061
#
#
#
# Elastic Compliance Matrix: (Units=1/GPa)
#
#
# Indices 1 2 3 4 5 6 
#
# 1 0.018513 0.003058 -0.005111 0.000000 -0.001093 0.000000
# 2 0.003058 0.063925 0.006145 0.000000 -0.006132 0.000000
# 3 -0.005111 0.006145 0.010022 0.000000 0.003504 0.000000
# 4 0.000000 0.000000 0.000000 0.050587 0.000000 -0.000777
# 5 -0.001093 -0.006132 0.003504 0.000000 0.032266 0.000000
# 6 0.000000 0.000000 0.000000 -0.000777 0.000000 0.089249
#
#
# Mechanical properties :
#
#
# Convention : Reuss Voigt Hill
#
# Bulk Modulus (GPa) = 9.93596 27.82947 18.88272
# Shear Modulus (GPa) = 17.24579 26.52629 21.88604
#
# Velocity S-wave (km/s) = 2.92786 3.63118 3.29832
# Velocity P-wave (km/s) = 4.04583 5.60480 4.88787
#
# Compressibility (1/GPa) = 0.10064449
#
# Stress axis : x y z
#
# Youngs Moduli (GPa) = 54.01584 15.64332 99.77770
#
# Poissons Ratio (x) = -0.04784 0.50992
# Poissons Ratio (y) = -0.16517 -0.61311
# Poissons Ratio (z) = 0.27605 -0.09612
#
# Static dielectric constant tensor:
#      x y z
#    x 1.721780 0.000000 -0.018760 
#    y 0.000000 1.731170 0.000000 
#    z -0.018760 0.000000 1.722400 
# 
# From -- ./inp_files/73163.got.cif
#   From: 2010.05.17/outbox.cif.g08.bks.cpg/sg11_37_cif.got.tgz:73163.got - 2010.06.03 12:22:45.
