data_PCOD9162318
_publ_section_title
;
Structure prediction by ZEFSAII (Michael W. Deem and Ramdas Pophale) SiO2 
 PCOD9162318
Probable space group: P 21/M
;
_chemical_formula_sum "Si O2"
_cell_formula_units_Z 32
_cell_length_a 20.790185
_cell_length_b 8.772727
_cell_length_c 14.451222
_cell_angle_alpha 90.000000
_cell_angle_beta 44.046192
_cell_angle_gamma 90.000000
_cell_volume 1832.445605
_symmetry_space_group_name_H-M "P 21/M"
_symmetry_group_IT_number 11
_symmetry_cell_setting 'monoclinic'
loop_
_space_group_symop_operation_xyz
x,y,z
-x,1/2+y,-z
-x,-y,-z
x,1/2-y,z
loop_
_atom_site_type_symbol
_atom_site_label
_atom_site_fract_x
_atom_site_fract_y
_atom_site_fract_z
Si Si1 0.009636 0.433006 0.092160
Si Si2 0.504669 0.432367 0.097674
Si Si3 0.007227 0.068198 0.594277
Si Si4 0.501207 0.067621 0.600327
Si Si5 0.856413 0.066774 0.401577
Si Si6 0.648202 0.566548 0.091868
Si Si7 0.357255 0.934558 0.390146
Si Si8 0.148240 0.932990 0.094670
O O1 0.016778 0.250000 0.081133
O O2 0.097082 0.500817 0.057103
O O3 0.919945 0.473619 0.247543
O O4 0.000000 0.500000 0.000000
O O5 0.507790 0.250000 0.091920
O O6 0.593454 0.496601 0.061427
O O7 0.415941 0.489434 0.247726
O O8 0.500000 0.500000 0.000000
O O9 0.011997 0.250000 0.583841
O O10 0.918467 0.027602 0.749647
O O11 0.000000 0.000000 0.500000
O O12 0.095564 0.005976 0.558719
O O13 0.501178 0.250000 0.592876
O O14 0.412927 0.024344 0.754560
O O15 0.591092 0.023502 0.567806
O O16 0.500000 0.000000 0.500000
O O17 0.859765 0.250000 0.407529
O O18 0.749933 0.021746 0.500143
O O19 0.648415 0.750000 0.083869
O O20 0.751044 0.503272 0.995211
O O21 0.364095 0.750000 0.373371
O O22 0.153710 0.750000 0.082272
#
# Coordination Sequence:
#
# PCOD9162318 Si02
#       8
#     4   4   4   4   4   4   4   4
#     4  10  20  35  55  81 111 145 182 223 269 318
#     4  11  22  37  57  81 108 141 178 219 266 319
#     4  10  21  36  55  79 108 139 175 218 264 315
#     4   9  19  34  53  78 108 140 175 215 263 314
#     4   9  19  36  57  78 105 141 179 219 267 316
#     4  10  21  38  57  80 109 141 178 223 269 317
#     4   9  19  37  56  77 107 141 177 221 266 313
#     4  10  21  37  56  80 108 142 182 224 268 318
#
# _framework density 17.463000999999998
#
# number of rings (size 3 to 8) (size 9 to 14) (size 15 to 20)
#    0.000    2.250    0.000    3.375    0.000    7.000 
#    0.000    2.500    0.000    0.000    0.000    0.000 
#    0.000    0.000    0.000    0.000    0.000    0.000 
#
# Total GULP energy -178635.739807 kJ/mol
# GULP energy per Si atom -5582.366869 kJ/mol
# Density = 1.742325 g / cm^3
# Si number density = 17.463001 Si / 1000 Ang^3
#
#
#
# Elastic Constant Matrix: (Units=GPa)
#
#
# Indices 1 2 3 4 5 6 
#
# 1 192.4170 68.4197 132.4463 0.0000 2.7528 0.0000
# 2 68.4197 60.7449 53.3240 0.0000 -0.2266 0.0000
# 3 132.4463 53.3240 110.1303 0.0000 -4.5258 0.0000
# 4 0.0000 0.0000 0.0000 31.0743 0.0000 2.9345
# 5 2.7528 -0.2266 -4.5258 0.0000 44.7790 0.0000
# 6 0.0000 0.0000 0.0000 2.9345 0.0000 37.2129
#
#
#
# Elastic Compliance Matrix: (Units=1/GPa)
#
#
# Indices 1 2 3 4 5 6 
#
# 1 0.032069 -0.003617 -0.037051 0.000000 -0.005734 0.000000
# 2 -0.003617 0.029111 -0.009771 0.000000 -0.000618 0.000000
# 3 -0.037051 -0.009771 0.058705 0.000000 0.008162 0.000000
# 4 0.000000 0.000000 0.000000 0.032422 0.000000 -0.002557
# 5 -0.005734 -0.000618 0.008162 0.000000 0.023506 0.000000
# 6 0.000000 0.000000 0.000000 -0.002557 0.000000 0.027074
#
#
# Mechanical properties :
#
#
# Convention : Reuss Voigt Hill
#
# Bulk Modulus (GPa) = 52.61151 96.85249 74.73200
# Shear Modulus (GPa) = 16.12376 29.88672 23.00524
#
# Velocity S-wave (km/s) = 3.04190 4.14143 3.63350
# Velocity P-wave (km/s) = 6.52153 8.85723 7.77756
#
# Compressibility (1/GPa) = 0.01900725
#
# Stress axis : x y z
#
# Youngs Moduli (GPa) = 31.18321 34.35115 17.03418
#
# Poissons Ratio (x) = 0.12424 0.63114
# Poissons Ratio (y) = 0.11278 0.16644
# Poissons Ratio (z) = 1.15537 0.33565
#
# Static dielectric constant tensor:
#      x y z
#    x 1.563070 0.000000 -0.005850 
#    y 0.000000 1.593370 0.000000 
#    z -0.005850 0.000000 1.579770 
# 
# From -- ./inp_files/54274.got.cif
#   From: 2010.05.17/outbox.cif.g08.bks.cpg/sg11_28_cif.got.tgz:54274.got - 2010.06.03 12:22:45.
