data_PCOD9162904
_publ_section_title
;
Structure prediction by ZEFSAII (Michael W. Deem and Ramdas Pophale) SiO2 
 PCOD9162904
Probable space group: P 21/M
;
_chemical_formula_sum "Si O2"
_cell_formula_units_Z 32
_cell_length_a 26.829821
_cell_length_b 8.542419
_cell_length_c 20.850097
_cell_angle_alpha 90.000000
_cell_angle_beta 21.144159
_cell_angle_gamma 90.000000
_cell_volume 1723.740264
_symmetry_space_group_name_H-M "P 21/M"
_symmetry_group_IT_number 11
_symmetry_cell_setting 'monoclinic'
loop_
_space_group_symop_operation_xyz
x,y,z
-x,1/2+y,-z
-x,-y,-z
x,1/2-y,z
loop_
_atom_site_type_symbol
_atom_site_label
_atom_site_fract_x
_atom_site_fract_y
_atom_site_fract_z
Si Si1 0.346933 0.436450 0.697046
Si Si2 0.594126 0.060922 0.979318
Si Si3 0.401925 0.561172 0.882343
Si Si4 0.292554 0.561123 0.513369
Si Si5 0.301543 0.939138 0.280359
Si Si6 0.911167 0.060759 0.358448
Si Si7 0.779521 0.437622 0.019872
Si Si8 0.843955 0.061975 0.187887
O O1 0.500000 0.500000 0.500000
O O2 0.348905 0.250000 0.692202
O O3 0.294882 0.491522 0.828854
O O4 0.242177 0.499526 0.768924
O O5 0.592126 0.250000 0.981914
O O6 0.634189 0.006433 0.002267
O O7 0.439963 0.002379 0.148120
O O8 0.689104 0.011008 0.805245
O O9 0.398836 0.750000 0.886504
O O10 0.556958 0.508373 0.679922
O O11 0.298022 0.507599 0.951650
O O12 0.303853 0.750000 0.498836
O O13 0.186516 0.516195 0.584189
O O14 0.231509 0.513683 0.655477
O O15 0.307488 0.750000 0.275407
O O16 0.169007 0.987522 0.480506
O O17 0.923928 0.250000 0.342535
O O18 0.061392 0.987824 0.172299
O O19 0.769854 0.250000 0.035149
O O20 0.846479 0.250000 0.182840
O O21 0.000000 0.000000 0.000000
#
# Coordination Sequence:
#
# PCOD9162904 Si02
#       8
#     4   4   4   4   4   4   4   4
#     4  12  25  43  64  86 114 151 195 244 294 353
#     4   9  17  31  53  82 113 146 185 231 281 330
#     4  10  21  36  55  82 113 145 185 233 282 332
#     4  10  21  36  57  83 111 141 183 231 278 334
#     4   9  17  31  54  82 113 147 185 230 278 333
#     4  10  20  36  56  83 116 151 189 231 282 337
#     4  11  24  40  58  82 114 152 192 235 285 345
#     4  11  23  39  60  88 118 152 191 239 293 348
#
# _framework density 18.564281999999999
#
# number of rings (size 3 to 8) (size 9 to 14) (size 15 to 20)
#    0.000    1.750    1.250    3.375    0.000    6.000 
#    0.000    0.625    0.000    0.000    0.000    0.000 
#    0.000    0.000    0.000    0.000    0.000    0.000 
#
# Total GULP energy -178757.230188 kJ/mol
# GULP energy per Si atom -5586.163443 kJ/mol
# Density = 1.852203 g / cm^3
# Si number density = 18.564282 Si / 1000 Ang^3
#
#
#
# Elastic Constant Matrix: (Units=GPa)
#
#
# Indices 1 2 3 4 5 6 
#
# 1 157.6805 31.2967 63.9822 0.0000 9.5628 0.0000
# 2 31.2967 35.0758 22.5404 0.0000 3.3525 0.0000
# 3 63.9822 22.5404 82.7379 0.0000 7.1758 0.0000
# 4 0.0000 0.0000 0.0000 30.9243 0.0000 -4.9596
# 5 9.5628 3.3525 7.1758 0.0000 39.3551 0.0000
# 6 0.0000 0.0000 0.0000 -4.9596 0.0000 16.9836
#
#
#
# Elastic Compliance Matrix: (Units=1/GPa)
#
#
# Indices 1 2 3 4 5 6 
#
# 1 0.009875 -0.004691 -0.006284 0.000000 -0.000854 0.000000
# 2 -0.004691 0.036849 -0.006338 0.000000 -0.000843 0.000000
# 3 -0.006284 -0.006338 0.018791 0.000000 -0.001359 0.000000
# 4 0.000000 0.000000 0.000000 0.033926 0.000000 0.009907
# 5 -0.000854 -0.000843 -0.001359 0.000000 0.025937 0.000000
# 6 0.000000 0.000000 0.000000 0.009907 0.000000 0.061774
#
#
# Mechanical properties :
#
#
# Convention : Reuss Voigt Hill
#
# Bulk Modulus (GPa) = 32.37537 56.79254 44.58396
# Shear Modulus (GPa) = 21.54496 27.96425 24.75460
#
# Velocity S-wave (km/s) = 3.41039 3.88538 3.65561
# Velocity P-wave (km/s) = 5.74327 7.12650 6.47195
#
# Compressibility (1/GPa) = 0.03088768
#
# Stress axis : x y z
#
# Youngs Moduli (GPa) = 101.26845 27.13798 53.21800
#
# Poissons Ratio (x) = 0.12730 0.33444
# Poissons Ratio (y) = 0.47503 0.33730
# Poissons Ratio (z) = 0.63640 0.17200
#
# Static dielectric constant tensor:
#      x y z
#    x 1.643930 0.000000 0.030450 
#    y 0.000000 1.629830 0.000000 
#    z 0.030450 0.000000 1.601640 
# 
# From -- ./inp_files/66941.got.cif
#   From: 2010.05.17/outbox.cif.g08.bks.cpg/sg11_34_cif.got.tgz:66941.got - 2010.06.03 12:22:45.
