data_PCOD9162128
_publ_section_title
;
Structure prediction by ZEFSAII (Michael W. Deem and Ramdas Pophale) SiO2 
 PCOD9162128
Probable space group: P 21/M
;
_chemical_formula_sum "Si O2"
_cell_formula_units_Z 22
_cell_length_a 15.698167
_cell_length_b 11.587424
_cell_length_c 10.909431
_cell_angle_alpha 90.000000
_cell_angle_beta 23.575507
_cell_angle_gamma 90.000000
_cell_volume 793.691144
_symmetry_space_group_name_H-M "P 21/M"
_symmetry_group_IT_number 11
_symmetry_cell_setting 'monoclinic'
loop_
_space_group_symop_operation_xyz
x,y,z
-x,1/2+y,-z
-x,-y,-z
x,1/2-y,z
loop_
_atom_site_type_symbol
_atom_site_label
_atom_site_fract_x
_atom_site_fract_y
_atom_site_fract_z
Si Si1 0.195326 0.250000 0.313760
Si Si2 0.175616 0.750000 0.398223
Si Si3 0.182604 0.998493 0.364115
Si Si4 0.582001 0.510354 0.252603
Si Si5 0.948035 0.750000 0.226984
Si Si6 0.215786 0.250000 0.954782
Si Si7 0.381020 0.750000 0.751103
Si Si8 0.166806 0.488456 0.669745
O O1 0.027828 0.250000 0.424511
O O2 0.298937 0.378388 0.186436
O O3 0.059979 0.250000 0.616385
O O4 0.289548 0.871255 0.219731
O O5 0.045320 0.750000 0.701954
O O6 0.105171 0.996460 0.608528
O O7 0.000000 0.000000 0.500000
O O8 0.500000 0.500000 0.500000
O O9 0.723993 0.625901 0.065064
O O10 0.654361 0.375976 0.136711
O O11 0.388060 0.540355 0.418513
O O12 0.813513 0.853012 0.354331
O O13 0.203662 0.750000 0.872753
O O14 0.381161 0.250000 0.621973
O O15 0.000000 0.500000 0.000000
#
# Coordination Sequence:
#
# PCOD9162128 Si02
#       8
#     2   2   4   4   2   2   2   4
#     4   8  18  37  60  86 115 154 209 253 308 362
#     4  10  20  34  61  92 112 164 206 264 305 365
#     4   9  20  37  59  90 119 156 205 259 309 358
#     4  10  22  38  55  86 130 168 196 251 319 382
#     4  10  21  38  64  91 123 155 212 273 306 376
#     4  10  22  34  56  83 132 163 204 239 324 378
#     4  10  21  37  61  84 126 172 205 241 331 389
#     4  11  22  35  62  94 122 157 215 263 309 365
#
# _framework density 27.718591
#
# number of rings (size 3 to 8) (size 9 to 14) (size 15 to 20)
#    0.000    2.182    0.000    2.727   10.182    1.455 
#    0.000    0.000    0.000    9.818   33.091    0.000 
#    0.000    0.000    0.000    0.000    0.000    0.000 
#
# Total GULP energy -122517.222479 kJ/mol
# GULP energy per Si atom -5568.964658 kJ/mol
# Density = 2.765550 g / cm^3
# Si number density = 27.718591 Si / 1000 Ang^3
#
#
#
# Elastic Constant Matrix: (Units=GPa)
#
#
# Indices 1 2 3 4 5 6 
#
# 1 168.2517 16.8720 57.8743 0.0000 6.4205 0.0000
# 2 16.8720 272.9232 37.4532 0.0000 -1.9704 0.0000
# 3 57.8743 37.4532 69.5300 0.0000 -1.2886 0.0000
# 4 0.0000 0.0000 0.0000 7.2292 0.0000 4.0117
# 5 6.4205 -1.9704 -1.2886 0.0000 60.9676 0.0000
# 6 0.0000 0.0000 0.0000 4.0117 0.0000 20.8932
#
#
#
# Elastic Compliance Matrix: (Units=1/GPa)
#
#
# Indices 1 2 3 4 5 6 
#
# 1 0.008448 0.000473 -0.007306 0.000000 -0.001029 0.000000
# 2 0.000473 0.003983 -0.002539 0.000000 0.000025 0.000000
# 3 -0.007306 -0.002539 0.021852 0.000000 0.001149 0.000000
# 4 0.000000 0.000000 0.000000 0.154825 0.000000 -0.029728
# 5 -0.001029 0.000025 0.001149 0.000000 0.016536 0.000000
# 6 0.000000 0.000000 0.000000 -0.029728 0.000000 0.053570
#
#
# Mechanical properties :
#
#
# Convention : Reuss Voigt Hill
#
# Bulk Modulus (GPa) = 64.34862 81.67820 73.01341
# Shear Modulus (GPa) = 17.65919 44.38503 31.02211
#
# Velocity S-wave (km/s) = 2.52680 4.00593 3.34904
# Velocity P-wave (km/s) = 5.63723 7.13635 6.43063
#
# Compressibility (1/GPa) = 0.01554035
#
# Stress axis : x y z
#
# Youngs Moduli (GPa) = 118.36614 251.04258 45.76173
#
# Poissons Ratio (x) = -0.11871 0.33433
# Poissons Ratio (y) = -0.05597 0.11618
# Poissons Ratio (z) = 0.86477 0.63736
#
# Static dielectric constant tensor:
#      x y z
#    x 1.604800 0.000000 -0.431750 
#    y 0.000000 2.152940 0.000000 
#    z -0.431750 0.000000 1.776460 
# 
# From -- ./inp_files/39178.got.cif
#   From: 2010.05.17/outbox.cif.g08.bks.cpg/sg11_20_cif.got.tgz:39178.got - 2010.06.03 12:22:45.
