data_PCOD9162627
_publ_section_title
;
Structure prediction by ZEFSAII (Michael W. Deem and Ramdas Pophale) SiO2 
 PCOD9162627
Probable space group: P 21/M
;
_chemical_formula_sum "Si O2"
_cell_formula_units_Z 32
_cell_length_a 12.482626
_cell_length_b 8.811543
_cell_length_c 29.498315
_cell_angle_alpha 90.000000
_cell_angle_beta 33.941228
_cell_angle_gamma 90.000000
_cell_volume 1811.571981
_symmetry_space_group_name_H-M "P 21/M"
_symmetry_group_IT_number 11
_symmetry_cell_setting 'monoclinic'
loop_
_space_group_symop_operation_xyz
x,y,z
-x,1/2+y,-z
-x,-y,-z
x,1/2-y,z
loop_
_atom_site_type_symbol
_atom_site_label
_atom_site_fract_x
_atom_site_fract_y
_atom_site_fract_z
Si Si1 0.826991 0.930125 0.531240
Si Si2 0.458570 0.430883 0.231215
Si Si3 0.491913 0.569022 0.122305
Si Si4 0.071907 0.430693 0.257459
Si Si5 0.664477 0.431785 0.974554
Si Si6 0.002976 0.070275 0.383905
Si Si7 0.064437 0.068173 0.785187
Si Si8 0.444052 0.067988 0.708220
O O1 0.823206 0.750000 0.538834
O O2 0.873539 0.974780 0.463220
O O3 0.629028 0.001287 0.617832
O O4 0.000000 0.000000 0.500000
O O5 0.484578 0.250000 0.220098
O O6 0.526691 0.505326 0.160435
O O7 0.555682 0.500396 0.241352
O O8 0.228335 0.459040 0.315262
O O9 0.499573 0.750000 0.119152
O O10 0.277313 0.514329 0.184125
O O11 0.633011 0.499929 0.035352
O O12 0.107546 0.250000 0.243266
O O13 0.978970 0.463657 0.339090
O O14 0.948822 0.484726 0.258212
O O15 0.643889 0.250000 0.983257
O O16 0.871384 0.468782 0.880847
O O17 0.500000 0.500000 0.000000
O O18 0.969073 0.250000 0.403237
O O19 0.064910 0.250000 0.777296
O O20 0.252108 0.028707 0.748061
O O21 0.459772 0.250000 0.705221
#
# Coordination Sequence:
#
# PCOD9162627 Si02
#       8
#     4   4   4   4   4   4   4   4
#     4  12  23  36  58  87 116 150 193 241 286 340
#     4  10  20  36  58  85 116 150 191 239 288 342
#     4  11  21  34  56  86 118 151 191 240 290 342
#     4  10  20  35  58  85 116 151 191 238 289 342
#     4  11  21  36  58  87 117 150 194 243 290 343
#     4   9  19  35  56  85 116 145 186 239 289 337
#     4  10  23  40  59  84 118 155 193 236 290 350
#     4  11  23  40  60  84 117 156 192 236 291 350
#
# _framework density 17.664218000000002
#
# number of rings (size 3 to 8) (size 9 to 14) (size 15 to 20)
#    0.000    1.500    2.500    4.500    0.000    4.000 
#    0.000    1.250    0.000    0.000    0.000    0.000 
#    0.000    0.000    0.000    0.000    0.000    0.000 
#
# Total GULP energy -178813.495003 kJ/mol
# GULP energy per Si atom -5587.921719 kJ/mol
# Density = 1.762401 g / cm^3
# Si number density = 17.664218 Si / 1000 Ang^3
#
#
#
# Elastic Constant Matrix: (Units=GPa)
#
#
# Indices 1 2 3 4 5 6 
#
# 1 157.5434 72.5131 74.7709 0.0000 10.7159 0.0000
# 2 72.5131 88.8715 54.5297 0.0000 3.7131 0.0000
# 3 74.7709 54.5297 97.8108 0.0000 4.4358 0.0000
# 4 0.0000 0.0000 0.0000 26.4870 0.0000 7.3331
# 5 10.7159 3.7131 4.4358 0.0000 27.8639 0.0000
# 6 0.0000 0.0000 0.0000 7.3331 0.0000 32.5067
#
#
#
# Elastic Compliance Matrix: (Units=1/GPa)
#
#
# Indices 1 2 3 4 5 6 
#
# 1 0.012118 -0.006327 -0.005604 0.000000 -0.002925 0.000000
# 2 -0.006327 0.020422 -0.006583 0.000000 0.000760 0.000000
# 3 -0.005604 -0.006583 0.018171 0.000000 0.000140 0.000000
# 4 0.000000 0.000000 0.000000 0.040269 0.000000 -0.009084
# 5 -0.002925 0.000760 0.000140 0.000000 0.036890 0.000000
# 6 0.000000 0.000000 0.000000 -0.009084 0.000000 0.032812
#
#
# Mechanical properties :
#
#
# Convention : Reuss Voigt Hill
#
# Bulk Modulus (GPa) = 73.07873 83.09476 78.08675
# Shear Modulus (GPa) = 24.71916 26.86568 25.79242
#
# Velocity S-wave (km/s) = 3.74490 3.90412 3.82534
# Velocity P-wave (km/s) = 7.75628 8.21378 7.98831
#
# Compressibility (1/GPa) = 0.01368387
#
# Stress axis : x y z
#
# Youngs Moduli (GPa) = 82.52112 48.96628 55.03202
#
# Poissons Ratio (x) = 0.30981 0.30838
# Poissons Ratio (y) = 0.52212 0.36228
# Poissons Ratio (z) = 0.46241 0.32235
#
# Static dielectric constant tensor:
#      x y z
#    x 1.596510 0.000000 0.016710 
#    y 0.000000 1.589190 0.000000 
#    z 0.016710 0.000000 1.584360 
# 
# From -- ./inp_files/73036.got.cif
#   From: 2010.05.17/outbox.cif.g08.bks.cpg/sg11_37_cif.got.tgz:73036.got - 2010.06.03 12:22:45.
