data_PCOD9162601
_publ_section_title
;
Structure prediction by ZEFSAII (Michael W. Deem and Ramdas Pophale) SiO2 
 PCOD9162601
Probable space group: P 21/M
;
_chemical_formula_sum "Si O2"
_cell_formula_units_Z 30
_cell_length_a 12.486571
_cell_length_b 18.225597
_cell_length_c 7.133733
_cell_angle_alpha 90.000000
_cell_angle_beta 58.974774
_cell_angle_gamma 90.000000
_cell_volume 1391.209236
_symmetry_space_group_name_H-M "P 21/M"
_symmetry_group_IT_number 11
_symmetry_cell_setting 'monoclinic'
loop_
_space_group_symop_operation_xyz
x,y,z
-x,1/2+y,-z
-x,-y,-z
x,1/2-y,z
loop_
_atom_site_type_symbol
_atom_site_label
_atom_site_fract_x
_atom_site_fract_y
_atom_site_fract_z
Si Si1 0.678753 0.831337 0.608270
Si Si2 0.893877 0.924998 0.496599
Si Si3 0.336902 0.836696 0.486650
Si Si4 0.539840 0.065907 0.325898
Si Si5 0.613198 0.668827 0.104230
Si Si6 0.915528 0.081697 0.352974
Si Si7 0.747920 0.976313 0.990722
Si Si8 0.000000 0.000000 0.000000
O O1 0.658534 0.750000 0.550434
O O2 0.819998 0.860038 0.468323
O O3 0.584253 0.892222 0.620529
O O4 0.650506 0.827785 0.854615
O O5 0.010276 0.903508 0.522218
O O6 0.922305 0.990091 0.322311
O O7 0.804829 0.964209 0.731866
O O8 0.309654 0.750000 0.522961
O O9 0.375368 0.873762 0.647097
O O10 0.465266 0.845948 0.254037
O O11 0.217865 0.881574 0.520673
O O12 0.500000 0.000000 0.500000
O O13 0.627554 0.028997 0.091414
O O14 0.636100 0.750000 0.163760
O O15 0.694524 0.602172 0.110029
O O16 0.989265 0.089701 0.093851
O O17 0.854832 0.006550 0.029526
#
# Coordination Sequence:
#
# PCOD9162601 Si02
#       8
#     4   4   4   4   4   4   4   2
#     4  10  22  38  57  82 117 151 185 234 287 344
#     4   9  21  36  60  84 107 146 194 232 276 335
#     4  11  22  36  57  86 117 150 186 234 294 349
#     4  12  22  35  57  85 114 150 189 238 284 340
#     4   9  20  37  56  85 116 146 187 231 291 351
#     4  10  20  38  58  85 113 148 188 241 279 336
#     4  10  20  35  58  82 109 148 186 238 275 335
#     4  10  20  36  56  82 112 144 192 230 282 330
#
# _framework density 21.563974999999999
#
# number of rings (size 3 to 8) (size 9 to 14) (size 15 to 20)
#    0.000    1.867    2.667    1.200    1.867    1.600 
#    0.000    2.000    0.000    0.800    0.000    0.000 
#    0.000    0.000    0.000    0.000    0.000    0.000 
#
# Total GULP energy -167019.347574 kJ/mol
# GULP energy per Si atom -5567.311586 kJ/mol
# Density = 2.151489 g / cm^3
# Si number density = 21.563975 Si / 1000 Ang^3
#
#
#
# Elastic Constant Matrix: (Units=GPa)
#
#
# Indices 1 2 3 4 5 6 
#
# 1 105.9676 57.2800 17.2593 0.0000 -2.6347 0.0000
# 2 57.2800 101.5624 17.8686 0.0000 -14.7433 0.0000
# 3 17.2593 17.8686 65.3007 0.0000 -10.0880 0.0000
# 4 0.0000 0.0000 0.0000 21.3054 0.0000 0.6287
# 5 -2.6347 -14.7433 -10.0880 0.0000 31.7192 0.0000
# 6 0.0000 0.0000 0.0000 0.6287 0.0000 5.2398
#
#
#
# Elastic Compliance Matrix: (Units=1/GPa)
#
#
# Indices 1 2 3 4 5 6 
#
# 1 0.014018 -0.008018 -0.002005 0.000000 -0.003200 0.000000
# 2 -0.008018 0.015466 -0.001162 0.000000 0.006153 0.000000
# 3 -0.002005 -0.001162 0.016882 0.000000 0.004662 0.000000
# 4 0.000000 0.000000 0.000000 0.047103 0.000000 -0.005652
# 5 -0.003200 0.006153 0.004662 0.000000 0.035604 0.000000
# 6 0.000000 0.000000 0.000000 -0.005652 0.000000 0.191525
#
#
# Mechanical properties :
#
#
# Convention : Reuss Voigt Hill
#
# Bulk Modulus (GPa) = 41.67555 50.84962 46.26259
# Shear Modulus (GPa) = 14.24639 23.68107 18.96373
#
# Velocity S-wave (km/s) = 2.57311 3.31747 2.96871
# Velocity P-wave (km/s) = 5.31002 6.18920 5.76639
#
# Compressibility (1/GPa) = 0.02399488
#
# Stress axis : x y z
#
# Youngs Moduli (GPa) = 71.33818 64.65944 59.23420
#
# Poissons Ratio (x) = 0.51841 0.11879
# Poissons Ratio (y) = 0.57196 0.06885
# Poissons Ratio (z) = 0.14306 0.07516
#
# Static dielectric constant tensor:
#      x y z
#    x 1.810750 0.000000 0.074530 
#    y 0.000000 1.887610 0.000000 
#    z 0.074530 0.000000 2.234310 
# 
# From -- ./inp_files/18795.got.cif
#   From: 2010.05.17/outbox.cif.g08.bks.cpg/sg11_10_cif.got.tgz:18795.got - 2010.06.03 12:22:45.
