data_PCOD9162925
_publ_section_title
;
Structure prediction by ZEFSAII (Michael W. Deem and Ramdas Pophale) SiO2 
 PCOD9162925
Probable space group: P 21/M
;
_chemical_formula_sum "Si O2"
_cell_formula_units_Z 32
_cell_length_a 13.318740
_cell_length_b 18.928992
_cell_length_c 13.925470
_cell_angle_alpha 90.000000
_cell_angle_beta 22.236953
_cell_angle_gamma 90.000000
_cell_volume 1328.602474
_symmetry_space_group_name_H-M "P 21/M"
_symmetry_group_IT_number 11
_symmetry_cell_setting 'monoclinic'
loop_
_space_group_symop_operation_xyz
x,y,z
-x,1/2+y,-z
-x,-y,-z
x,1/2-y,z
loop_
_atom_site_type_symbol
_atom_site_label
_atom_site_fract_x
_atom_site_fract_y
_atom_site_fract_z
Si Si1 0.823646 0.672880 0.891512
Si Si2 0.023750 0.831488 0.275112
Si Si3 0.967700 0.564709 0.626685
Si Si4 0.883705 0.902122 0.021567
Si Si5 0.258578 0.943920 0.932911
Si Si6 0.519458 0.416457 0.461259
Si Si7 0.679316 0.172375 0.802013
Si Si8 0.304014 0.431652 0.313237
O O1 0.952736 0.750000 0.780008
O O2 0.986468 0.606475 0.708727
O O3 0.743511 0.648191 0.067801
O O4 0.593551 0.676631 0.015148
O O5 0.984946 0.750000 0.281624
O O6 0.285083 0.834815 0.114478
O O7 0.789257 0.859779 0.552323
O O8 0.068752 0.884629 0.146792
O O9 0.701372 0.566911 0.797564
O O10 0.160582 0.609853 0.388002
O O11 0.069664 0.486519 0.547831
O O12 0.732053 0.889228 0.256226
O O13 0.858123 0.984665 0.010655
O O14 0.197746 0.888044 0.750090
O O15 0.445321 0.910588 0.684509
O O16 0.441511 0.964413 0.861238
O O17 0.500000 0.500000 0.500000
O O18 0.810247 0.250000 0.667064
#
# Coordination Sequence:
#
# PCOD9162925 Si02
#       8
#     4   4   4   4   4   4   4   4
#     4  11  23  37  62  89 127 177 212 257 326 395
#     4  10  22  38  58  89 126 164 211 263 322 394
#     4  10  20  36  56  93 131 162 210 260 320 375
#     4  11  25  43  67 101 130 163 221 280 323 386
#     4  11  22  38  69  88 119 164 213 266 332 385
#     4  10  24  43  70  97 128 163 216 277 332 383
#     4   9  19  36  56  85 127 171 213 255 310 390
#     4  10  22  35  61  94 125 164 206 271 320 383
#
# _framework density 24.085459
#
# number of rings (size 3 to 8) (size 9 to 14) (size 15 to 20)
#    0.000    1.750    0.000    4.125   10.500    1.000 
#    0.000    6.250    0.000    0.000    0.000    0.000 
#    0.000    0.000    0.000    0.000    0.000    0.000 
#
# Total GULP energy -178658.608480 kJ/mol
# GULP energy per Si atom -5583.081515 kJ/mol
# Density = 2.403064 g / cm^3
# Si number density = 24.085459 Si / 1000 Ang^3
#
#
#
# Elastic Constant Matrix: (Units=GPa)
#
#
# Indices 1 2 3 4 5 6 
#
# 1 100.2080 15.5857 20.3708 0.0000 10.1776 0.0000
# 2 15.5857 82.1090 8.8307 0.0000 10.9938 0.0000
# 3 20.3708 8.8307 74.9928 0.0000 13.9967 0.0000
# 4 0.0000 0.0000 0.0000 -29.9064 0.0000 -44.6615
# 5 10.1776 10.9938 13.9967 0.0000 44.8174 0.0000
# 6 0.0000 0.0000 0.0000 -44.6615 0.0000 -29.7661
#
#
#
# Elastic Compliance Matrix: (Units=1/GPa)
#
#
# Indices 1 2 3 4 5 6 
#
# 1 0.010875 -0.001621 -0.002523 0.000000 -0.001284 0.000000
# 2 -0.001621 0.012900 -0.000591 0.000000 -0.002612 0.000000
# 3 -0.002523 -0.000591 0.014820 0.000000 -0.003910 0.000000
# 4 0.000000 0.000000 0.000000 0.026951 0.000000 -0.040438
# 5 -0.001284 -0.002612 -0.003910 0.000000 0.024466 0.000000
# 6 0.000000 0.000000 0.000000 -0.040438 0.000000 0.027078
#
#
# Mechanical properties :
#
#
# Convention : Reuss Voigt Hill
#
# Bulk Modulus (GPa) = 34.33743 38.54270 36.44006
# Shear Modulus (GPa) = 36.69233 11.19715 23.94474
#
# Velocity S-wave (km/s) = 3.90734 2.15848 3.15645
# Velocity P-wave (km/s) = 5.88590 4.71691 5.33353
#
# Compressibility (1/GPa) = 0.02912274
#
# Stress axis : x y z
#
# Youngs Moduli (GPa) = 91.95632 77.52012 67.47863
#
# Poissons Ratio (x) = 0.12565 0.17028
# Poissons Ratio (y) = 0.14905 0.03990
# Poissons Ratio (z) = 0.23205 0.04584
#
# Static dielectric constant tensor:
#      x y z
#    x 1.988670 0.000000 -0.051810 
#    y 0.000000 1.934690 0.000000 
#    z -0.051810 0.000000 2.013570 
# 
# From -- ./inp_files/52689.got.cif
#   From: 2010.05.17/outbox.cif.g08.bks.cpg/sg11_27_cif.got.tgz:52689.got - 2010.06.03 12:22:45.
