data_PCOD9162539
_publ_section_title
;
Structure prediction by ZEFSAII (Michael W. Deem and Ramdas Pophale) SiO2 
 PCOD9162539
Probable space group: P 21/M
;
_chemical_formula_sum "Si O2"
_cell_formula_units_Z 28
_cell_length_a 15.620872
_cell_length_b 7.495094
_cell_length_c 19.564747
_cell_angle_alpha 90.000000
_cell_angle_beta 148.165129
_cell_angle_gamma 90.000000
_cell_volume 1208.249963
_symmetry_space_group_name_H-M "P 21/M"
_symmetry_group_IT_number 11
_symmetry_cell_setting 'monoclinic'
loop_
_space_group_symop_operation_xyz
x,y,z
-x,1/2+y,-z
-x,-y,-z
x,1/2-y,z
loop_
_atom_site_type_symbol
_atom_site_label
_atom_site_fract_x
_atom_site_fract_y
_atom_site_fract_z
Si Si1 0.389015 0.537688 0.359126
Si Si2 0.088888 0.968610 0.378252
Si Si3 0.870054 0.536578 0.352085
Si Si4 0.943423 0.031322 0.801309
Si Si5 0.511038 0.538044 0.087683
Si Si6 0.297720 0.044511 0.061924
Si Si7 0.564921 0.046493 0.340794
O O1 0.500000 0.500000 0.500000
O O2 0.384654 0.750000 0.344491
O O3 0.208279 0.475570 0.255622
O O4 0.471187 0.452416 0.349118
O O5 0.091287 0.750000 0.378972
O O6 0.078001 0.024626 0.292183
O O7 0.258241 0.032345 0.525990
O O8 0.945033 0.026011 0.330797
O O9 0.857301 0.750000 0.339166
O O10 0.685397 0.470652 0.234691
O O11 0.000000 0.500000 0.500000
O O12 0.943673 0.250000 0.800941
O O13 0.118336 0.967929 0.945529
O O14 0.502411 0.750000 0.091679
O O15 0.361115 0.457454 0.027465
O O16 0.500000 0.500000 0.000000
O O17 0.284037 0.250000 0.076011
O O18 0.442127 0.960038 0.203888
O O19 0.595665 0.250000 0.338548
#
# Coordination Sequence:
#
# PCOD9162539 Si02
#       7
#     4   4   4   4   4   4   4
#     4  11  21  36  59  84 113 147 187 235 287 340
#     4   9  16  31  54  76 103 143 186 223 270 332
#     4  10  21  36  57  83 112 149 191 238 286 341
#     4   9  18  34  57  81 108 145 188 231 279 340
#     4  11  23  39  60  86 120 157 197 242 291 346
#     4  10  21  38  60  84 113 152 195 234 284 344
#     4  10  20  35  57  84 114 148 187 232 283 342
#
# _framework density 23.174014
#
# number of rings (size 3 to 8) (size 9 to 14) (size 15 to 20)
#    0.000    2.000    1.429    2.571    0.000    5.714 
#    0.000    2.143    0.000    0.000    0.000    0.000 
#    0.000    0.000    0.000    0.000    0.000    0.000 
#
# Total GULP energy -156536.775817 kJ/mol
# GULP energy per Si atom -5590.599136 kJ/mol
# Density = 2.312127 g / cm^3
# Si number density = 23.174014 Si / 1000 Ang^3
#
#
#
# Elastic Constant Matrix: (Units=GPa)
#
#
# Indices 1 2 3 4 5 6 
#
# 1 57.5827 -10.0276 -7.8110 0.0000 17.2687 0.0000
# 2 -10.0276 75.5522 3.3985 0.0000 4.0248 0.0000
# 3 -7.8110 3.3985 100.8468 0.0000 20.9047 0.0000
# 4 0.0000 0.0000 0.0000 1.6728 0.0000 -0.1175
# 5 17.2687 4.0248 20.9047 0.0000 47.1882 0.0000
# 6 0.0000 0.0000 0.0000 -0.1175 0.0000 19.7575
#
#
#
# Elastic Compliance Matrix: (Units=1/GPa)
#
#
# Indices 1 2 3 4 5 6 
#
# 1 0.021287 0.003179 0.003538 0.000000 -0.009629 0.000000
# 2 0.003179 0.013776 0.000294 0.000000 -0.002469 0.000000
# 3 0.003538 0.000294 0.011511 0.000000 -0.006419 0.000000
# 4 0.000000 0.000000 0.000000 0.598058 0.000000 0.003556
# 5 -0.009629 -0.002469 -0.006419 0.000000 0.027770 0.000000
# 6 0.000000 0.000000 0.000000 0.003556 0.000000 0.050635
#
#
# Mechanical properties :
#
#
# Convention : Reuss Voigt Hill
#
# Bulk Modulus (GPa) = 16.50298 22.78904 19.64601
# Shear Modulus (GPa) = 6.85670 30.28516 18.57093
#
# Velocity S-wave (km/s) = 1.72198 3.61897 2.83392
# Velocity P-wave (km/s) = 3.33023 5.22665 4.38225
#
# Compressibility (1/GPa) = 0.06059512
#
# Stress axis : x y z
#
# Youngs Moduli (GPa) = 46.97622 72.58933 86.87542
#
# Poissons Ratio (x) = -0.23077 -0.30733
# Poissons Ratio (y) = -0.14934 -0.02552
# Poissons Ratio (z) = -0.16618 -0.02132
#
# Static dielectric constant tensor:
#      x y z
#    x 1.831380 0.000000 0.012570 
#    y 0.000000 1.863340 0.000000 
#    z 0.012570 0.000000 1.896240 
# 
# From -- ./inp_files/65428.got.cif
#   From: 2010.05.17/outbox.cif.g08.bks.cpg/sg11_33_cif.got.tgz:65428.got - 2010.06.03 12:22:45.
