data_PCOD9162396
_publ_section_title
;
Structure prediction by ZEFSAII (Michael W. Deem and Ramdas Pophale) SiO2 
 PCOD9162396
Probable space group: P 21/M
;
_chemical_formula_sum "Si O2"
_cell_formula_units_Z 32
_cell_length_a 12.410119
_cell_length_b 8.379710
_cell_length_c 22.445617
_cell_angle_alpha 90.000000
_cell_angle_beta 46.250013
_cell_angle_gamma 90.000000
_cell_volume 1686.136186
_symmetry_space_group_name_H-M "P 21/M"
_symmetry_group_IT_number 11
_symmetry_cell_setting 'monoclinic'
loop_
_space_group_symop_operation_xyz
x,y,z
-x,1/2+y,-z
-x,-y,-z
x,1/2-y,z
loop_
_atom_site_type_symbol
_atom_site_label
_atom_site_fract_x
_atom_site_fract_y
_atom_site_fract_z
Si Si1 0.913650 0.438726 0.374853
Si Si2 0.412219 0.059911 0.475277
Si Si3 0.892403 0.439165 0.593217
Si Si4 0.478089 0.557695 0.103507
Si Si5 0.436183 0.945119 0.254595
Si Si6 0.733863 0.442862 0.922753
Si Si7 0.628839 0.943324 0.289088
Si Si8 0.935540 0.943166 0.230859
O O1 0.933842 0.250000 0.368604
O O2 0.750959 0.482852 0.462471
O O3 0.920821 0.498926 0.304349
O O4 0.036091 0.518371 0.370438
O O5 0.396556 0.250000 0.484004
O O6 0.500000 0.000000 0.500000
O O7 0.509616 0.008451 0.381784
O O8 0.886165 0.250000 0.589353
O O9 0.722115 0.499929 0.657644
O O10 0.000000 0.500000 0.500000
O O11 0.473767 0.750000 0.106269
O O12 0.453358 0.499845 0.180060
O O13 0.349925 0.504478 0.106072
O O14 0.634249 0.504881 0.015113
O O15 0.432651 0.750000 0.254772
O O16 0.571826 0.991829 0.245700
O O17 0.731061 0.250000 0.925034
O O18 0.905090 0.495671 0.855896
O O19 0.626051 0.750000 0.293127
O O20 0.792970 0.996209 0.246919
O O21 0.934750 0.750000 0.232414
#
# Coordination Sequence:
#
# PCOD9162396 Si02
#       8
#     4   4   4   4   4   4   4   4
#     4  12  24  37  56  82 113 147 190 237 283 337
#     4  12  23  37  56  80 111 148 189 234 282 331
#     4  11  22  38  58  82 115 150 188 235 287 340
#     4   9  17  33  56  79 105 141 184 228 278 337
#     4   9  19  36  58  81 109 148 189 229 278 339
#     4   9  18  33  54  81 110 140 178 229 289 343
#     4  10  20  36  58  82 110 147 191 233 279 339
#     4  10  20  35  56  81 111 145 182 230 286 339
#
# _framework density 18.978303
#
# number of rings (size 3 to 8) (size 9 to 14) (size 15 to 20)
#    0.000    1.750    1.250    4.125    0.000    3.500 
#    0.000    5.625    0.000    0.000    0.000    0.000 
#    0.000    0.000    0.000    0.000    0.000    0.000 
#
# Total GULP energy -178766.250750 kJ/mol
# GULP energy per Si atom -5586.445336 kJ/mol
# Density = 1.893511 g / cm^3
# Si number density = 18.978303 Si / 1000 Ang^3
#
#
#
# Elastic Constant Matrix: (Units=GPa)
#
#
# Indices 1 2 3 4 5 6 
#
# 1 107.4045 5.6519 70.5439 0.0000 -1.3311 0.0000
# 2 5.6519 16.6568 12.9585 0.0000 1.2827 0.0000
# 3 70.5439 12.9585 130.5576 0.0000 -3.9870 0.0000
# 4 0.0000 0.0000 0.0000 29.2530 0.0000 1.0049
# 5 -1.3311 1.2827 -3.9870 0.0000 34.9707 0.0000
# 6 0.0000 0.0000 0.0000 1.0049 0.0000 16.5091
#
#
#
# Elastic Compliance Matrix: (Units=1/GPa)
#
#
# Indices 1 2 3 4 5 6 
#
# 1 0.014463 0.001314 -0.007958 0.000000 -0.000405 0.000000
# 2 0.001314 0.065523 -0.007311 0.000000 -0.003187 0.000000
# 3 -0.007958 -0.007311 0.012728 0.000000 0.001416 0.000000
# 4 0.000000 0.000000 0.000000 0.034256 0.000000 -0.002085
# 5 -0.000405 -0.003187 0.001416 0.000000 0.028858 0.000000
# 6 0.000000 0.000000 0.000000 -0.002085 0.000000 0.060699
#
#
# Mechanical properties :
#
#
# Convention : Reuss Voigt Hill
#
# Bulk Modulus (GPa) = 15.43083 48.10306 31.76694
# Shear Modulus (GPa) = 18.79434 27.17755 22.98594
#
# Velocity S-wave (km/s) = 3.15033 3.78833 3.48396
# Velocity P-wave (km/s) = 4.62398 6.67357 5.74098
#
# Compressibility (1/GPa) = 0.06480534
#
# Stress axis : x y z
#
# Youngs Moduli (GPa) = 69.14195 15.26191 78.56660
#
# Poissons Ratio (x) = -0.02006 0.62520
# Poissons Ratio (y) = -0.09088 0.57440
# Poissons Ratio (z) = 0.55020 0.11158
#
# Static dielectric constant tensor:
#      x y z
#    x 1.666180 0.000000 -0.008480 
#    y 0.000000 1.654170 0.000000 
#    z -0.008480 0.000000 1.638640 
# 
# From -- ./inp_files/64376.got.cif
#   From: 2010.05.17/outbox.cif.g08.bks.cpg/sg11_33_cif.got.tgz:64376.got - 2010.06.03 12:22:45.
