data_PCOD9162271
_publ_section_title
;
Structure prediction by ZEFSAII (Michael W. Deem and Ramdas Pophale) SiO2 
 PCOD9162271
Probable space group: P 21/M
;
_chemical_formula_sum "Si O2"
_cell_formula_units_Z 32
_cell_length_a 22.901818
_cell_length_b 9.285692
_cell_length_c 14.282109
_cell_angle_alpha 90.000000
_cell_angle_beta 36.288274
_cell_angle_gamma 90.000000
_cell_volume 1797.574620
_symmetry_space_group_name_H-M "P 21/M"
_symmetry_group_IT_number 11
_symmetry_cell_setting 'monoclinic'
loop_
_space_group_symop_operation_xyz
x,y,z
-x,1/2+y,-z
-x,-y,-z
x,1/2-y,z
loop_
_atom_site_type_symbol
_atom_site_label
_atom_site_fract_x
_atom_site_fract_y
_atom_site_fract_z
Si Si1 0.346187 0.418401 0.063473
Si Si2 0.878228 0.920909 0.955901
Si Si3 0.889615 0.420371 0.332048
Si Si4 0.511441 0.419678 0.386715
Si Si5 0.297035 0.921142 0.316339
Si Si6 0.271244 0.580766 0.984360
Si Si7 0.563428 0.418429 0.692325
Si Si8 0.105674 0.421552 0.856275
O O1 0.321286 0.250000 0.099810
O O2 0.333649 0.491199 0.180192
O O3 0.281059 0.499859 0.070341
O O4 0.458383 0.430746 0.881303
O O5 0.866804 0.750000 0.952909
O O6 0.995426 0.954533 0.798513
O O7 0.845302 0.948309 0.106226
O O8 0.813911 0.011945 0.968198
O O9 0.885010 0.250000 0.314510
O O10 0.818073 0.445170 0.511892
O O11 0.850365 0.509853 0.293855
O O12 0.500000 0.500000 0.500000
O O13 0.490975 0.250000 0.423336
O O14 0.623991 0.437200 0.204591
O O15 0.443814 0.488590 0.392495
O O16 0.313133 0.750000 0.279961
O O17 0.355936 0.960348 0.334797
O O18 0.255517 0.750000 0.019203
O O19 0.578284 0.250000 0.648443
O O20 0.093315 0.250000 0.862732
O O21 0.000000 0.500000 0.000000
#
# Coordination Sequence:
#
# PCOD9162271 Si02
#       8
#     4   4   4   4   4   4   4   4
#     4  10  20  35  55  78 104 133 169 214 259 307
#     4   9  18  33  52  75 103 136 173 212 255 301
#     4   9  19  34  51  75 107 138 170 212 257 301
#     4  10  21  36  54  78 109 140 171 210 254 303
#     4  10  20  35  55  78 106 137 169 211 260 307
#     4  10  21  36  55  77 100 134 177 214 253 305
#     4   9  19  35  55  79 106 137 171 208 254 306
#     4   9  17  30  49  72 100 133 168 207 250 298
#
# _framework density 17.801765
#
# number of rings (size 3 to 8) (size 9 to 14) (size 15 to 20)
#    0.000    2.500    0.000    2.625    0.000    6.500 
#    0.000    4.375    0.000    0.000    0.000    0.000 
#    0.000    0.000    0.000    0.000    0.000    0.000 
#
# Total GULP energy -178483.403005 kJ/mol
# GULP energy per Si atom -5577.606344 kJ/mol
# Density = 1.776125 g / cm^3
# Si number density = 17.801765 Si / 1000 Ang^3
#
#
#
# Elastic Constant Matrix: (Units=GPa)
#
#
# Indices 1 2 3 4 5 6 
#
# 1 111.2702 72.6399 39.6383 0.0000 20.0088 0.0000
# 2 72.6399 92.1059 56.7733 0.0000 21.9799 0.0000
# 3 39.6383 56.7733 58.1887 0.0000 28.1824 0.0000
# 4 0.0000 0.0000 0.0000 28.7822 0.0000 9.4790
# 5 20.0088 21.9799 28.1824 0.0000 23.4560 0.0000
# 6 0.0000 0.0000 0.0000 9.4790 0.0000 34.8101
#
#
#
# Elastic Compliance Matrix: (Units=1/GPa)
#
#
# Indices 1 2 3 4 5 6 
#
# 1 0.020430 -0.020924 0.013017 0.000000 -0.013461 0.000000
# 2 -0.020924 0.051183 -0.050469 0.000000 0.030525 0.000000
# 3 0.013017 -0.050469 0.095752 0.000000 -0.078858 0.000000
# 4 0.000000 0.000000 0.000000 0.038167 0.000000 -0.010393
# 5 -0.013461 0.030525 -0.078858 0.000000 0.120260 0.000000
# 6 0.000000 0.000000 0.000000 -0.010393 0.000000 0.031557
#
#
# Mechanical properties :
#
#
# Convention : Reuss Voigt Hill
#
# Bulk Modulus (GPa) = 19.75702 66.62976 43.19339
# Shear Modulus (GPa) = 10.18391 23.57721 16.88056
#
# Velocity S-wave (km/s) = 2.39440 3.64322 3.08271
# Velocity P-wave (km/s) = 4.33205 7.43017 6.08170
#
# Compressibility (1/GPa) = 0.05061492
#
# Stress axis : x y z
#
# Youngs Moduli (GPa) = 48.94754 19.53785 10.44362
#
# Poissons Ratio (x) = 0.40881 -0.13595
# Poissons Ratio (y) = 1.02417 0.52707
# Poissons Ratio (z) = -0.63716 0.98605
#
# Static dielectric constant tensor:
#      x y z
#    x 1.594090 0.000000 -0.012910 
#    y 0.000000 1.594060 0.000000 
#    z -0.012910 0.000000 1.621640 
# 
# From -- ./inp_files/42762.got.cif
#   From: 2010.05.17/outbox.cif.g08.bks.cpg/sg11_22_cif.got.tgz:42762.got - 2010.06.03 12:22:45.
