data_PCOD9162215
_publ_section_title
;
Structure prediction by ZEFSAII (Michael W. Deem and Ramdas Pophale) SiO2 
 PCOD9162215
Probable space group: P 21/M
;
_chemical_formula_sum "Si O2"
_cell_formula_units_Z 32
_cell_length_a 28.498179
_cell_length_b 8.893054
_cell_length_c 20.126481
_cell_angle_alpha 90.000000
_cell_angle_beta 160.083986
_cell_angle_gamma 90.000000
_cell_volume 1737.538836
_symmetry_space_group_name_H-M "P 21/M"
_symmetry_group_IT_number 11
_symmetry_cell_setting 'monoclinic'
loop_
_space_group_symop_operation_xyz
x,y,z
-x,1/2+y,-z
-x,-y,-z
x,1/2-y,z
loop_
_atom_site_type_symbol
_atom_site_label
_atom_site_fract_x
_atom_site_fract_y
_atom_site_fract_z
Si Si1 0.305746 0.925213 0.044058
Si Si2 0.840076 0.431976 0.021314
Si Si3 0.112840 0.569193 0.061361
Si Si4 0.466076 0.931212 0.744314
Si Si5 0.997134 0.425325 0.424373
Si Si6 0.180535 0.931384 0.298619
Si Si7 0.110308 0.570171 0.446449
Si Si8 0.575311 0.430991 0.163551
O O1 0.345893 0.750000 0.100520
O O2 0.417834 0.012552 0.151078
O O3 0.273281 0.981344 0.075541
O O4 0.158090 0.934384 0.810775
O O5 0.847258 0.250000 0.035784
O O6 0.815712 0.475055 0.912544
O O7 0.987620 0.496223 0.240760
O O8 0.100930 0.750000 0.045540
O O9 0.959925 0.500570 0.860409
O O10 0.186515 0.526470 0.228383
O O11 0.466602 0.750000 0.745260
O O12 0.316181 0.980104 0.518257
O O13 0.485181 0.981669 0.845968
O O14 0.036253 0.250000 0.480055
O O15 0.000000 0.500000 0.500000
O O16 0.091722 0.510083 0.496726
O O17 0.170966 0.750000 0.290383
O O18 0.094415 0.750000 0.423884
O O19 0.262021 0.531986 0.622132
O O20 0.564126 0.250000 0.144987
O O21 0.500000 0.500000 0.000000
#
# Coordination Sequence:
#
# PCOD9162215 Si02
#       8
#     4   4   4   4   4   4   4   4
#     4   9  20  36  52  73 102 138 176 216 259 308
#     4   9  18  34  54  78 106 137 175 216 263 312
#     4   9  17  31  55  82 108 138 175 216 261 316
#     4  10  21  37  54  74 105 141 176 214 264 319
#     4  10  21  36  55  78 104 134 173 221 269 313
#     4   9  18  33  53  80 111 140 171 215 266 314
#     4  10  20  35  54  77 104 133 172 217 266 316
#     4  10  23  38  52  74 102 135 173 216 263 316
#
# _framework density 18.416855000000002
#
# number of rings (size 3 to 8) (size 9 to 14) (size 15 to 20)
#    0.000    2.500    0.000    2.250    1.750    6.000 
#    0.000    0.625    0.000    0.000    0.000    0.000 
#    0.000    0.000    0.000    0.000    0.000    0.000 
#
# Total GULP energy -178519.012051 kJ/mol
# GULP energy per Si atom -5578.719127 kJ/mol
# Density = 1.837494 g / cm^3
# Si number density = 18.416855 Si / 1000 Ang^3
#
#
#
# Elastic Constant Matrix: (Units=GPa)
#
#
# Indices 1 2 3 4 5 6 
#
# 1 169.0878 25.0739 42.3067 0.0000 -0.9672 0.0000
# 2 25.0739 13.7420 15.7359 0.0000 1.0057 0.0000
# 3 42.3067 15.7359 47.2283 0.0000 4.2463 0.0000
# 4 0.0000 0.0000 0.0000 26.9254 0.0000 4.7092
# 5 -0.9672 1.0057 4.2463 0.0000 20.8476 0.0000
# 6 0.0000 0.0000 0.0000 4.7092 0.0000 26.9270
#
#
#
# Elastic Compliance Matrix: (Units=1/GPa)
#
#
# Indices 1 2 3 4 5 6 
#
# 1 0.008611 -0.011037 -0.004197 0.000000 0.001787 0.000000
# 2 -0.011037 0.131920 -0.034073 0.000000 0.000064 0.000000
# 3 -0.004197 -0.034073 0.036830 0.000000 -0.006053 0.000000
# 4 0.000000 0.000000 0.000000 0.038312 0.000000 -0.006700
# 5 0.001787 0.000064 -0.006053 0.000000 0.049280 0.000000
# 6 0.000000 0.000000 0.000000 -0.006700 0.000000 0.038309
#
#
# Mechanical properties :
#
#
# Convention : Reuss Voigt Hill
#
# Bulk Modulus (GPa) = 12.69881 44.03234 28.36557
# Shear Modulus (GPa) = 11.67882 24.73611 18.20747
#
# Velocity S-wave (km/s) = 2.52094 3.66884 3.14766
# Velocity P-wave (km/s) = 3.92221 6.47362 5.35217
#
# Compressibility (1/GPa) = 0.07874757
#
# Stress axis : x y z
#
# Youngs Moduli (GPa) = 116.12968 7.58034 27.15146
#
# Poissons Ratio (x) = 0.08366 0.11396
# Poissons Ratio (y) = 1.28168 0.92514
# Poissons Ratio (z) = 0.48741 0.25829
#
# Static dielectric constant tensor:
#      x y z
#    x 1.663580 0.000000 -0.008890 
#    y 0.000000 1.622700 0.000000 
#    z -0.008890 0.000000 1.602890 
# 
# From -- ./inp_files/67296.got.cif
#   From: 2010.05.17/outbox.cif.g08.bks.cpg/sg11_34_cif.got.tgz:67296.got - 2010.06.03 12:22:45.
