data_PCOD9162359
_publ_section_title
;
Structure prediction by ZEFSAII (Michael W. Deem and Ramdas Pophale) SiO2 
 PCOD9162359
Probable space group: P 21/M
;
_chemical_formula_sum "Si O2"
_cell_formula_units_Z 28
_cell_length_a 5.157512
_cell_length_b 25.481833
_cell_length_c 10.600989
_cell_angle_alpha 90.000000
_cell_angle_beta 104.308173
_cell_angle_gamma 90.000000
_cell_volume 1349.995523
_symmetry_space_group_name_H-M "P 21/M"
_symmetry_group_IT_number 11
_symmetry_cell_setting 'monoclinic'
loop_
_space_group_symop_operation_xyz
x,y,z
-x,1/2+y,-z
-x,-y,-z
x,1/2-y,z
loop_
_atom_site_type_symbol
_atom_site_label
_atom_site_fract_x
_atom_site_fract_y
_atom_site_fract_z
Si Si1 0.331805 0.096055 0.511609
Si Si2 0.211431 0.597881 0.257668
Si Si3 0.005916 0.691025 0.078955
Si Si4 0.495472 0.447507 0.923670
Si Si5 0.886330 0.984239 0.338819
Si Si6 0.769776 0.394401 0.348114
Si Si7 0.553531 0.343760 0.073441
O O1 0.509579 0.118993 0.647985
O O2 0.244067 0.037015 0.546971
O O3 0.514317 0.099563 0.409282
O O4 0.043912 0.123064 0.451101
O O5 0.149410 0.551342 0.350982
O O6 0.250017 0.566909 0.130803
O O7 0.035296 0.647948 0.195233
O O8 0.046814 0.750000 0.131704
O O9 0.719872 0.688319 0.973752
O O10 0.231856 0.677564 0.001608
O O11 0.272482 0.455760 0.792682
O O12 0.500000 0.500000 0.000000
O O13 0.457820 0.400765 0.014695
O O14 0.849506 0.046031 0.313032
O O15 0.688259 0.355782 0.224512
#
# Coordination Sequence:
#
# PCOD9162359 Si02
#       7
#     4   4   4   4   4   4   4
#     4  11  24  39  55  90 130 172 213 238 279 360
#     4  10  23  38  63  89 126 162 213 260 307 355
#     4  11  24  45  70  92 116 150 206 274 326 367
#     4  10  20  35  55  90 129 165 200 251 301 367
#     4  11  21  36  58  88 131 170 207 249 287 362
#     4  12  24  36  61  88 133 175 199 236 296 371
#     4  11  23  41  62  97 121 160 203 247 320 376
#
# _framework density 20.740808999999999
#
# number of rings (size 3 to 8) (size 9 to 14) (size 15 to 20)
#    0.000    1.143    4.286    2.143    4.000    1.714 
#    0.000    0.000    0.000    5.143    0.000    0.000 
#    0.000    0.000    0.000    0.000    0.000    0.000 
#
# Total GULP energy -155927.893633 kJ/mol
# GULP energy per Si atom -5568.853344 kJ/mol
# Density = 2.069360 g / cm^3
# Si number density = 20.740809 Si / 1000 Ang^3
#
#
#
# Elastic Constant Matrix: (Units=GPa)
#
#
# Indices 1 2 3 4 5 6 
#
# 1 90.3821 15.2043 6.2883 0.0000 5.5910 0.0000
# 2 15.2043 93.6539 18.5391 0.0000 -3.6087 0.0000
# 3 6.2883 18.5391 61.3214 0.0000 7.7491 0.0000
# 4 0.0000 0.0000 0.0000 20.4453 0.0000 -0.7858
# 5 5.5910 -3.6087 7.7491 0.0000 32.9628 0.0000
# 6 0.0000 0.0000 0.0000 -0.7858 0.0000 2.1564
#
#
#
# Elastic Compliance Matrix: (Units=1/GPa)
#
#
# Indices 1 2 3 4 5 6 
#
# 1 0.011534 -0.001883 -0.000351 0.000000 -0.002080 0.000000
# 2 -0.001883 0.011809 -0.003691 0.000000 0.002480 0.000000
# 3 -0.000351 -0.003691 0.018039 0.000000 -0.004585 0.000000
# 4 0.000000 0.000000 0.000000 0.049606 0.000000 0.018076
# 5 -0.002080 0.002480 -0.004585 0.000000 0.032039 0.000000
# 6 0.000000 0.000000 0.000000 0.018076 0.000000 0.470318
#
#
# Mechanical properties :
#
#
# Convention : Reuss Voigt Hill
#
# Bulk Modulus (GPa) = 33.86002 36.15787 35.00894
# Shear Modulus (GPa) = 8.12957 24.80128 16.46543
#
# Velocity S-wave (km/s) = 1.98195 3.46175 2.82062
# Velocity P-wave (km/s) = 4.64739 5.78354 5.24631
#
# Compressibility (1/GPa) = 0.02953336
#
# Stress axis : x y z
#
# Youngs Moduli (GPa) = 86.70012 84.67779 55.43647
#
# Poissons Ratio (x) = 0.15947 0.01943
# Poissons Ratio (y) = 0.16328 0.20459
# Poissons Ratio (z) = 0.03039 0.31251
#
# Static dielectric constant tensor:
#      x y z
#    x 4.582850 0.000000 0.259620 
#    y 0.000000 1.665560 0.000000 
#    z 0.259620 0.000000 1.817680 
# 
# From -- ./inp_files/30089.got.cif
#   From: 2010.05.17/outbox.cif.g08.bks.cpg/sg11_16_cif.got.tgz:30089.got - 2010.06.03 12:22:45.
