data_PCOD9162680
_publ_section_title
;
Structure prediction by ZEFSAII (Michael W. Deem and Ramdas Pophale) SiO2 
 PCOD9162680
Probable space group: P 21/M
;
_chemical_formula_sum "Si O2"
_cell_formula_units_Z 24
_cell_length_a 22.276262
_cell_length_b 8.621143
_cell_length_c 11.301619
_cell_angle_alpha 90.000000
_cell_angle_beta 32.649350
_cell_angle_gamma 90.000000
_cell_volume 1170.944263
_symmetry_space_group_name_H-M "P 21/M"
_symmetry_group_IT_number 11
_symmetry_cell_setting 'monoclinic'
loop_
_space_group_symop_operation_xyz
x,y,z
-x,1/2+y,-z
-x,-y,-z
x,1/2-y,z
loop_
_atom_site_type_symbol
_atom_site_label
_atom_site_fract_x
_atom_site_fract_y
_atom_site_fract_z
Si Si1 0.376239 0.064965 0.718169
Si Si2 0.835077 0.563679 0.334479
Si Si3 0.165638 0.437268 0.927022
Si Si4 0.620266 0.564835 0.829788
Si Si5 0.252834 0.934263 0.152798
Si Si6 0.953864 0.935967 0.378939
O O1 0.383423 0.250000 0.712129
O O2 0.292363 0.023968 0.750305
O O3 0.500000 0.000000 0.500000
O O4 0.313441 0.004054 0.938561
O O5 0.850594 0.750000 0.305119
O O6 0.861886 0.503385 0.159629
O O7 0.706490 0.534801 0.579956
O O8 0.903577 0.508337 0.334929
O O9 0.154910 0.250000 0.947185
O O10 0.080123 0.507253 0.163648
O O11 0.617104 0.750000 0.854173
O O12 0.673649 0.486014 0.856280
O O13 0.500000 0.500000 0.000000
O O14 0.248935 0.750000 0.150190
O O15 0.128628 0.997257 0.385401
O O16 0.948728 0.750000 0.392643
#
# Coordination Sequence:
#
# PCOD9162680 Si02
#       6
#     4   4   4   4   4   4
#     4  11  25  43  63  88 121 160 205 255 303 362
#     4   8  17  34  56  86 123 156 190 239 297 358
#     4  10  21  38  61  88 120 161 200 241 300 367
#     4  10  20  35  58  89 122 158 201 249 303 363
#     4  11  23  41  63  85 118 161 205 254 305 358
#     4  10  20  37  62  92 124 154 194 251 305 362
#
# _framework density 20.496278
#
# number of rings (size 3 to 8) (size 9 to 14) (size 15 to 20)
#    0.000    2.000    0.000    4.500    2.333    2.000 
#    0.000    4.167    0.000    0.000    0.000    0.000 
#    0.000    0.000    0.000    0.000    0.000    0.000 
#
# Total GULP energy -134070.129762 kJ/mol
# GULP energy per Si atom -5586.255407 kJ/mol
# Density = 2.044963 g / cm^3
# Si number density = 20.496278 Si / 1000 Ang^3
#
#
#
# Elastic Constant Matrix: (Units=GPa)
#
#
# Indices 1 2 3 4 5 6 
#
# 1 44.9376 21.7469 42.0303 0.0000 4.1717 0.0000
# 2 21.7469 53.1458 33.9942 0.0000 -7.8104 0.0000
# 3 42.0303 33.9942 138.1960 0.0000 -7.1203 0.0000
# 4 0.0000 0.0000 0.0000 36.7881 0.0000 -3.9146
# 5 4.1717 -7.8104 -7.1203 0.0000 40.0015 0.0000
# 6 0.0000 0.0000 0.0000 -3.9146 0.0000 20.9915
#
#
#
# Elastic Compliance Matrix: (Units=1/GPa)
#
#
# Indices 1 2 3 4 5 6 
#
# 1 0.036168 -0.010207 -0.008868 0.000000 -0.007343 0.000000
# 2 -0.010207 0.025682 -0.002927 0.000000 0.005558 0.000000
# 3 -0.008868 -0.002927 0.010770 0.000000 0.002270 0.000000
# 4 0.000000 0.000000 0.000000 0.027733 0.000000 0.005172
# 5 -0.007343 0.005558 0.002270 0.000000 0.027254 0.000000
# 6 0.000000 0.000000 0.000000 0.005172 0.000000 0.048603
#
#
# Mechanical properties :
#
#
# Convention : Reuss Voigt Hill
#
# Bulk Modulus (GPa) = 34.94383 47.98025 41.46204
# Shear Modulus (GPa) = 21.76268 28.79008 25.27638
#
# Velocity S-wave (km/s) = 3.26204 3.75193 3.51553
# Velocity P-wave (km/s) = 5.59230 6.49841 6.06231
#
# Compressibility (1/GPa) = 0.02861735
#
# Stress axis : x y z
#
# Youngs Moduli (GPa) = 27.64866 38.93842 92.85099
#
# Poissons Ratio (x) = 0.39744 0.82337
# Poissons Ratio (y) = 0.28221 0.27174
# Poissons Ratio (z) = 0.24518 0.11396
#
# Static dielectric constant tensor:
#      x y z
#    x 1.766740 0.000000 0.002950 
#    y 0.000000 1.685910 0.000000 
#    z 0.002950 0.000000 1.704830 
# 
# From -- ./inp_files/43892.got.cif
#   From: 2010.05.17/outbox.cif.g08.bks.cpg/sg11_22_cif.got.tgz:43892.got - 2010.06.03 12:22:45.
