data_PCOD9162559
_publ_section_title
;
Structure prediction by ZEFSAII (Michael W. Deem and Ramdas Pophale) SiO2 
 PCOD9162559
Probable space group: P 21/M
;
_chemical_formula_sum "Si O2"
_cell_formula_units_Z 32
_cell_length_a 15.731155
_cell_length_b 20.132091
_cell_length_c 9.416443
_cell_angle_alpha 90.000000
_cell_angle_beta 149.954492
_cell_angle_gamma 90.000000
_cell_volume 1493.149508
_symmetry_space_group_name_H-M "P 21/M"
_symmetry_group_IT_number 11
_symmetry_cell_setting 'monoclinic'
loop_
_space_group_symop_operation_xyz
x,y,z
-x,1/2+y,-z
-x,-y,-z
x,1/2-y,z
loop_
_atom_site_type_symbol
_atom_site_label
_atom_site_fract_x
_atom_site_fract_y
_atom_site_fract_z
Si Si1 0.005582 0.534277 0.854461
Si Si2 0.871929 0.038481 0.416891
Si Si3 0.484891 0.681099 0.120835
Si Si4 0.149497 0.672554 0.137446
Si Si5 0.340162 0.462920 0.329357
Si Si6 0.873366 0.176453 0.554549
Si Si7 0.501498 0.825053 0.478903
Si Si8 0.518627 0.957457 0.165572
O O1 0.034323 0.613029 0.909201
O O2 0.174611 0.499489 0.036364
O O3 0.000000 0.500000 0.000000
O O4 0.861206 0.507867 0.541654
O O5 0.938537 0.110797 0.567512
O O6 0.682361 0.047741 0.078825
O O7 0.000000 0.000000 0.500000
O O8 0.580448 0.750000 0.239103
O O9 0.443178 0.675951 0.228798
O O10 0.316256 0.681919 0.783165
O O11 0.581905 0.615940 0.218055
O O12 0.104569 0.750000 0.039966
O O13 0.140174 0.665213 0.295410
O O14 0.339776 0.662453 0.347648
O O15 0.500000 0.500000 0.500000
O O16 0.362412 0.385017 0.322962
O O17 0.366166 0.475684 0.535070
O O18 0.953780 0.250000 0.647859
O O19 0.565496 0.750000 0.602023
O O20 0.500000 0.000000 0.000000
#
# Coordination Sequence:
#
# PCOD9162559 Si02
#       8
#     4   4   4   4   4   4   4   4
#     4  12  23  38  58  87 121 154 193 242 298 349
#     4  11  23  38  57  85 120 153 191 239 292 348
#     4   8  16  30  52  78 104 138 186 233 273 323
#     4  10  20  35  57  85 114 151 199 242 287 352
#     4  11  21  35  58  84 113 148 194 241 288 342
#     4   9  18  34  54  80 110 151 192 233 284 347
#     4   9  18  34  55  83 113 146 193 245 290 341
#     4  10  21  36  57  80 111 148 189 231 277 339
#
# _framework density 21.431208999999999
#
# number of rings (size 3 to 8) (size 9 to 14) (size 15 to 20)
#    0.000    2.000    2.500    1.500    5.250    0.000 
#    0.000    1.250    0.000    3.000    0.000    0.000 
#    0.000    0.000    0.000    0.000    0.000    0.000 
#
# Total GULP energy -178300.415353 kJ/mol
# GULP energy per Si atom -5571.887980 kJ/mol
# Density = 2.138243 g / cm^3
# Si number density = 21.431209 Si / 1000 Ang^3
#
#
#
# Elastic Constant Matrix: (Units=GPa)
#
#
# Indices 1 2 3 4 5 6 
#
# 1 51.4322 49.8913 -1.8059 0.0000 -6.2771 0.0000
# 2 49.8913 156.6761 30.3014 0.0000 -12.2918 0.0000
# 3 -1.8059 30.3014 73.7397 0.0000 -0.6686 0.0000
# 4 0.0000 0.0000 0.0000 21.0193 0.0000 -4.4777
# 5 -6.2771 -12.2918 -0.6686 0.0000 24.5677 0.0000
# 6 0.0000 0.0000 0.0000 -4.4777 0.0000 35.0514
#
#
#
# Elastic Compliance Matrix: (Units=1/GPa)
#
#
# Indices 1 2 3 4 5 6 
#
# 1 0.029914 -0.010282 0.004982 0.000000 0.002634 0.000000
# 2 -0.010282 0.010763 -0.004651 0.000000 0.002631 0.000000
# 3 0.004982 -0.004651 0.015589 0.000000 -0.000630 0.000000
# 4 0.000000 0.000000 0.000000 0.048906 0.000000 0.006248
# 5 0.002634 0.002631 -0.000630 0.000000 0.042676 0.000000
# 6 0.000000 0.000000 0.000000 0.006248 0.000000 0.029328
#
#
# Mechanical properties :
#
#
# Convention : Reuss Voigt Hill
#
# Bulk Modulus (GPa) = 27.50078 48.73572 38.11825
# Shear Modulus (GPa) = 23.90071 29.69176 26.79623
#
# Velocity S-wave (km/s) = 3.34313 3.72619 3.53985
# Velocity P-wave (km/s) = 5.26896 6.42671 5.87642
#
# Compressibility (1/GPa) = 0.03636260
#
# Stress axis : x y z
#
# Youngs Moduli (GPa) = 33.42926 92.91291 64.14953
#
# Poissons Ratio (x) = 0.95538 -0.31958
# Poissons Ratio (y) = 0.34374 0.29834
# Poissons Ratio (z) = -0.16654 0.43210
#
# Static dielectric constant tensor:
#      x y z
#    x -1.119220 0.000000 0.369980 
#    y 0.000000 1.868010 0.000000 
#    z 0.369980 0.000000 1.768510 
# 
# From -- ./inp_files/23142.got.cif
#   From: 2010.05.17/outbox.cif.g08.bks.cpg/sg11_12_cif.got.tgz:23142.got - 2010.06.03 12:22:45.
