data_PCOD9162458
_publ_section_title
;
Structure prediction by ZEFSAII (Michael W. Deem and Ramdas Pophale) SiO2 
 PCOD9162458
Probable space group: P 21/M
;
_chemical_formula_sum "Si O2"
_cell_formula_units_Z 32
_cell_length_a 15.880545
_cell_length_b 7.667120
_cell_length_c 25.459434
_cell_angle_alpha 90.000000
_cell_angle_beta 27.888975
_cell_angle_gamma 90.000000
_cell_volume 1450.004185
_symmetry_space_group_name_H-M "P 21/M"
_symmetry_group_IT_number 11
_symmetry_cell_setting 'monoclinic'
loop_
_space_group_symop_operation_xyz
x,y,z
-x,1/2+y,-z
-x,-y,-z
x,1/2-y,z
loop_
_atom_site_type_symbol
_atom_site_label
_atom_site_fract_x
_atom_site_fract_y
_atom_site_fract_z
Si Si1 0.871281 0.540622 0.522629
Si Si2 0.471396 0.959492 0.762609
Si Si3 0.853457 0.040707 0.125079
Si Si4 0.020507 0.962415 0.829782
Si Si5 0.306299 0.449159 0.583557
Si Si6 0.641177 0.040730 0.876439
Si Si7 0.041938 0.464712 0.642640
Si Si8 0.620237 0.959694 0.067644
O O1 0.860998 0.750000 0.524706
O O2 0.672022 0.471989 0.644656
O O3 0.938883 0.480636 0.428451
O O4 0.000000 0.500000 0.500000
O O5 0.476935 0.750000 0.754324
O O6 0.334957 0.026746 0.793615
O O7 0.398273 0.996480 0.861071
O O8 0.841991 0.250000 0.135685
O O9 0.912559 0.978453 0.149629
O O10 0.000000 0.000000 0.000000
O O11 0.025149 0.750000 0.825116
O O12 0.155900 0.031246 0.711533
O O13 0.812863 0.019662 0.938889
O O14 0.500000 0.500000 0.500000
O O15 0.333609 0.250000 0.553652
O O16 0.208246 0.530394 0.586513
O O17 0.653805 0.250000 0.865770
O O18 0.547481 0.975540 0.874345
O O19 0.845264 0.977202 0.771690
O O20 0.500000 0.000000 0.000000
O O21 0.043273 0.250000 0.643569
O O22 0.621426 0.750000 0.063401
#
# Coordination Sequence:
#
# PCOD9162458 Si02
#       8
#     4   4   4   4   4   4   4   4
#     4  10  21  39  61  85 114 151 192 235 285 342
#     4  10  21  34  55  84 112 148 191 229 278 343
#     4  10  20  35  56  84 117 154 190 232 286 343
#     4  10  21  37  58  84 118 153 189 237 291 339
#     4  11  24  41  62  85 112 153 201 246 292 344
#     4  10  20  35  57  84 110 144 185 226 280 339
#     4   9  20  39  61  82 113 155 193 229 283 351
#     4  10  20  35  57  85 116 149 182 227 284 338
#
# _framework density 22.068904
#
# number of rings (size 3 to 8) (size 9 to 14) (size 15 to 20)
#    0.000    2.000    1.250    1.875    1.750    3.000 
#    0.000    2.500    0.000    0.000    0.000    0.000 
#    0.000    0.000    0.000    0.000    0.000    0.000 
#
# Total GULP energy -178752.779585 kJ/mol
# GULP energy per Si atom -5586.024362 kJ/mol
# Density = 2.201867 g / cm^3
# Si number density = 22.068904 Si / 1000 Ang^3
#
#
#
# Elastic Constant Matrix: (Units=GPa)
#
#
# Indices 1 2 3 4 5 6 
#
# 1 158.7674 6.9480 54.0381 0.0000 -25.5430 0.0000
# 2 6.9480 34.5667 -1.4882 0.0000 -11.9888 0.0000
# 3 54.0381 -1.4882 125.9716 0.0000 -28.7409 0.0000
# 4 0.0000 0.0000 0.0000 22.6083 0.0000 0.1963
# 5 -25.5430 -11.9888 -28.7409 0.0000 46.2971 0.0000
# 6 0.0000 0.0000 0.0000 0.1963 0.0000 15.3157
#
#
#
# Elastic Compliance Matrix: (Units=1/GPa)
#
#
# Indices 1 2 3 4 5 6 
#
# 1 0.007645 -0.000868 -0.002771 0.000000 0.002273 0.000000
# 2 -0.000868 0.032646 0.003003 0.000000 0.009839 0.000000
# 3 -0.002771 0.003003 0.010475 0.000000 0.005751 0.000000
# 4 0.000000 0.000000 0.000000 0.044237 0.000000 -0.000567
# 5 0.002273 0.009839 0.005751 0.000000 0.028972 0.000000
# 6 0.000000 0.000000 0.000000 -0.000567 0.000000 0.065300
#
#
# Mechanical properties :
#
#
# Convention : Reuss Voigt Hill
#
# Bulk Modulus (GPa) = 20.20473 48.70015 34.45244
# Shear Modulus (GPa) = 24.14940 34.16473 29.15707
#
# Velocity S-wave (km/s) = 3.31157 3.93885 3.63875
# Velocity P-wave (km/s) = 4.87823 6.54227 5.77055
#
# Compressibility (1/GPa) = 0.04949335
#
# Stress axis : x y z
#
# Youngs Moduli (GPa) = 130.79709 30.63185 95.46761
#
# Poissons Ratio (x) = 0.02658 0.26457
# Poissons Ratio (y) = 0.11349 -0.28666
# Poissons Ratio (z) = 0.36248 -0.09198
#
# Static dielectric constant tensor:
#      x y z
#    x 1.822880 0.000000 -0.033190 
#    y 0.000000 1.830830 0.000000 
#    z -0.033190 0.000000 1.781520 
# 
# From -- ./inp_files/55596.got.cif
#   From: 2010.05.17/outbox.cif.g08.bks.cpg/sg11_28_cif.got.tgz:55596.got - 2010.06.03 12:22:45.
