data_PCOD9162060
_publ_section_title
;
Structure prediction by ZEFSAII (Michael W. Deem and Ramdas Pophale) SiO2 
 PCOD9162060
Probable space group: P 21/M
;
_chemical_formula_sum "Si O2"
_cell_formula_units_Z 28
_cell_length_a 8.781829
_cell_length_b 14.380237
_cell_length_c 9.558738
_cell_angle_alpha 90.000000
_cell_angle_beta 105.243379
_cell_angle_gamma 90.000000
_cell_volume 1164.653794
_symmetry_space_group_name_H-M "P 21/M"
_symmetry_group_IT_number 11
_symmetry_cell_setting 'monoclinic'
loop_
_space_group_symop_operation_xyz
x,y,z
-x,1/2+y,-z
-x,-y,-z
x,1/2-y,z
loop_
_atom_site_type_symbol
_atom_site_label
_atom_site_fract_x
_atom_site_fract_y
_atom_site_fract_z
Si Si1 0.974177 0.361679 0.389186
Si Si2 0.415583 0.529372 0.262662
Si Si3 0.232796 0.149494 0.951766
Si Si4 0.363670 0.856502 0.666901
Si Si5 0.605385 0.350314 0.003695
Si Si6 0.901208 0.536369 0.841671
Si Si7 0.734527 0.862045 0.341430
O O1 0.972537 0.250000 0.364868
O O2 0.994939 0.415643 0.249676
O O3 0.130253 0.383505 0.515943
O O4 0.810113 0.382230 0.430249
O O5 0.500405 0.432157 0.321838
O O6 0.380804 0.560775 0.092206
O O7 0.232920 0.527579 0.264724
O O8 0.559110 0.600037 0.334055
O O9 0.152164 0.250000 0.923598
O O10 0.419973 0.157720 0.985991
O O11 0.203078 0.100347 0.795029
O O12 0.199164 0.112119 0.096448
O O13 0.406479 0.750000 0.639065
O O14 0.329538 0.858860 0.825677
O O15 0.659794 0.250000 0.954921
O O16 0.000000 0.500000 0.000000
O O17 0.720966 0.750000 0.326013
#
# Coordination Sequence:
#
# PCOD9162060 Si02
#       7
#     4   4   4   4   4   4   4
#     4  10  23  42  60  85 124 162 196 248 311 365
#     4  11  21  35  61  86 120 155 206 249 295 351
#     4   9  18  36  60  84 110 151 200 249 294 350
#     4  10  20  34  57  88 116 152 203 246 292 360
#     4   9  17  31  56  86 112 147 200 251 293 341
#     4  12  25  36  56  92 128 157 196 245 312 369
#     4   9  21  41  66  88 113 159 212 251 298 360
#
# _framework density 24.041478000000001
#
# number of rings (size 3 to 8) (size 9 to 14) (size 15 to 20)
#    0.000    2.000    1.429    3.000    6.000    1.714 
#    0.000    2.143    0.000    0.000    0.000    0.000 
#    0.000    0.000    0.000    0.000    0.000    0.000 
#
# Total GULP energy -156019.225267 kJ/mol
# GULP energy per Si atom -5572.115188 kJ/mol
# Density = 2.398676 g / cm^3
# Si number density = 24.041478 Si / 1000 Ang^3
#
#
#
# Elastic Constant Matrix: (Units=GPa)
#
#
# Indices 1 2 3 4 5 6 
#
# 1 44.4093 9.1276 24.6019 0.0000 25.9609 0.0000
# 2 9.1276 71.0131 18.0150 0.0000 0.9780 0.0000
# 3 24.6019 18.0150 89.0414 0.0000 18.5918 0.0000
# 4 0.0000 0.0000 0.0000 26.2161 0.0000 8.5198
# 5 25.9609 0.9780 18.5918 0.0000 39.1377 0.0000
# 6 0.0000 0.0000 0.0000 8.5198 0.0000 13.4333
#
#
#
# Elastic Compliance Matrix: (Units=1/GPa)
#
#
# Indices 1 2 3 4 5 6 
#
# 1 0.040303 -0.003478 -0.005404 0.000000 -0.024080 0.000000
# 2 -0.003478 0.015192 -0.002792 0.000000 0.003254 0.000000
# 3 -0.005404 -0.002792 0.013905 0.000000 -0.002951 0.000000
# 4 0.000000 0.000000 0.000000 0.048048 0.000000 -0.030473
# 5 -0.024080 0.003254 -0.002951 0.000000 0.042844 0.000000
# 6 0.000000 0.000000 0.000000 -0.030473 0.000000 0.093769
#
#
# Mechanical properties :
#
#
# Convention : Reuss Voigt Hill
#
# Bulk Modulus (GPa) = 21.71443 34.21695 27.96569
# Shear Modulus (GPa) = 17.07883 25.93871 21.50877
#
# Velocity S-wave (km/s) = 2.66821 3.28825 2.99432
# Velocity P-wave (km/s) = 4.30629 5.35538 4.85923
#
# Compressibility (1/GPa) = 0.04605232
#
# Stress axis : x y z
#
# Youngs Moduli (GPa) = 24.81198 65.82214 71.91682
#
# Poissons Ratio (x) = 0.22891 0.38865
# Poissons Ratio (y) = 0.08629 0.20081
# Poissons Ratio (z) = 0.13409 0.18379
#
# Static dielectric constant tensor:
#      x y z
#    x 2.004660 0.000000 -0.027700 
#    y 0.000000 2.084460 0.000000 
#    z -0.027700 0.000000 2.109610 
# 
# From -- ./inp_files/31728.got.cif
#   From: 2010.05.17/outbox.cif.g08.bks.cpg/sg11_16_cif.got.tgz:31728.got - 2010.06.03 12:22:45.
