data_PCOD9162370
_publ_section_title
;
Structure prediction by ZEFSAII (Michael W. Deem and Ramdas Pophale) SiO2 
 PCOD9162370
Probable space group: P 21/M
;
_chemical_formula_sum "Si O2"
_cell_formula_units_Z 32
_cell_length_a 14.784743
_cell_length_b 8.381461
_cell_length_c 23.882138
_cell_angle_alpha 90.000000
_cell_angle_beta 36.366834
_cell_angle_gamma 90.000000
_cell_volume 1754.797015
_symmetry_space_group_name_H-M "P 21/M"
_symmetry_group_IT_number 11
_symmetry_cell_setting 'monoclinic'
loop_
_space_group_symop_operation_xyz
x,y,z
-x,1/2+y,-z
-x,-y,-z
x,1/2-y,z
loop_
_atom_site_type_symbol
_atom_site_label
_atom_site_fract_x
_atom_site_fract_y
_atom_site_fract_z
Si Si1 0.255450 0.059430 0.619611
Si Si2 0.540823 0.938045 0.688671
Si Si3 0.546034 0.943306 0.808835
Si Si4 0.911587 0.557468 0.796659
Si Si5 0.881818 0.442060 0.512115
Si Si6 0.506627 0.060090 0.583953
Si Si7 0.398488 0.441750 0.997589
Si Si8 0.135269 0.056695 0.304490
O O1 0.254358 0.250000 0.620174
O O2 0.369513 0.002088 0.612178
O O3 0.336299 0.003826 0.521714
O O4 0.084364 0.000830 0.715754
O O5 0.511719 0.750000 0.700336
O O6 0.488312 0.997748 0.776415
O O7 0.721922 0.971543 0.597400
O O8 0.481600 0.013921 0.660804
O O9 0.546473 0.750000 0.807334
O O10 0.721236 0.999399 0.730719
O O11 0.458954 0.996814 0.907914
O O12 0.916460 0.750000 0.794447
O O13 0.852146 0.503496 0.765316
O O14 0.778095 0.507440 0.905470
O O15 0.860713 0.250000 0.524948
O O16 0.000000 0.500000 0.500000
O O17 0.971581 0.486003 0.410742
O O18 0.514126 0.250000 0.576623
O O19 0.404784 0.250000 0.994984
O O20 0.500000 0.500000 0.000000
O O21 0.141848 0.250000 0.302173
#
# Coordination Sequence:
#
# PCOD9162370 Si02
#       8
#     4   4   4   4   4   4   4   4
#     4  10  21  37  59  87 114 143 184 228 274 333
#     4  11  22  36  55  79 108 147 190 229 274 331
#     4  10  20  37  54  73 108 147 183 226 271 321
#     4  10  20  35  56  79 109 145 180 227 283 328
#     4  11  20  31  48  72 106 146 183 221 266 321
#     4  10  21  38  59  84 116 148 179 226 281 331
#     4  11  22  36  56  82 110 145 188 232 278 329
#     4   9  17  32  49  69 104 144 177 215 266 319
#
# _framework density 18.235728000000002
#
# number of rings (size 3 to 8) (size 9 to 14) (size 15 to 20)
#    0.000    1.750    2.500    2.625    0.000    4.500 
#    0.000    0.625    0.000    0.750    0.000    0.000 
#    0.000    0.000    0.000    0.000    0.000    0.000 
#
# Total GULP energy -178517.313954 kJ/mol
# GULP energy per Si atom -5578.666061 kJ/mol
# Density = 1.819422 g / cm^3
# Si number density = 18.235728 Si / 1000 Ang^3
#
#
#
# Elastic Constant Matrix: (Units=GPa)
#
#
# Indices 1 2 3 4 5 6 
#
# 1 88.1746 12.2023 49.8228 0.0000 12.1156 0.0000
# 2 12.2023 18.7023 12.8755 0.0000 -0.3679 0.0000
# 3 49.8228 12.8755 125.8385 0.0000 14.2769 0.0000
# 4 0.0000 0.0000 0.0000 28.7822 0.0000 0.9748
# 5 12.1156 -0.3679 14.2769 0.0000 31.2559 0.0000
# 6 0.0000 0.0000 0.0000 0.9748 0.0000 26.3389
#
#
#
# Elastic Compliance Matrix: (Units=1/GPa)
#
#
# Indices 1 2 3 4 5 6 
#
# 1 0.015679 -0.006811 -0.005075 0.000000 -0.003840 0.000000
# 2 -0.006811 0.060856 -0.004124 0.000000 0.005240 0.000000
# 3 -0.005075 -0.004124 0.010716 0.000000 -0.002976 0.000000
# 4 0.000000 0.000000 0.000000 0.034787 0.000000 -0.001287
# 5 -0.003840 0.005240 -0.002976 0.000000 0.034903 0.000000
# 6 0.000000 0.000000 0.000000 -0.001287 0.000000 0.038014
#
#
# Mechanical properties :
#
#
# Convention : Reuss Voigt Hill
#
# Bulk Modulus (GPa) = 18.10645 42.50185 30.30415
# Shear Modulus (GPa) = 20.37596 27.79640 24.08618
#
# Velocity S-wave (km/s) = 3.34633 3.90844 3.63826
# Velocity P-wave (km/s) = 4.98811 6.61252 5.85690
#
# Compressibility (1/GPa) = 0.05522892
#
# Stress axis : x y z
#
# Youngs Moduli (GPa) = 63.77938 16.43221 93.32065
#
# Poissons Ratio (x) = 0.11193 0.47362
# Poissons Ratio (y) = 0.43442 0.38489
# Poissons Ratio (z) = 0.32369 0.06777
#
# Static dielectric constant tensor:
#      x y z
#    x 1.659890 0.000000 0.005490 
#    y 0.000000 1.626330 0.000000 
#    z 0.005490 0.000000 1.660130 
# 
# From -- ./inp_files/65206.got.cif
#   From: 2010.05.17/outbox.cif.g08.bks.cpg/sg11_33_cif.got.tgz:65206.got - 2010.06.03 12:22:45.
