data_PCOD9162277
_publ_section_title
;
Structure prediction by ZEFSAII (Michael W. Deem and Ramdas Pophale) SiO2 
 PCOD9162277
Probable space group: P 21/M
;
_chemical_formula_sum "Si O2"
_cell_formula_units_Z 24
_cell_length_a 21.872980
_cell_length_b 10.083494
_cell_length_c 15.118725
_cell_angle_alpha 90.000000
_cell_angle_beta 162.260276
_cell_angle_gamma 90.000000
_cell_volume 1016.008477
_symmetry_space_group_name_H-M "P 21/M"
_symmetry_group_IT_number 11
_symmetry_cell_setting 'monoclinic'
loop_
_space_group_symop_operation_xyz
x,y,z
-x,1/2+y,-z
-x,-y,-z
x,1/2-y,z
loop_
_atom_site_type_symbol
_atom_site_label
_atom_site_fract_x
_atom_site_fract_y
_atom_site_fract_z
Si Si1 0.788021 0.101462 0.420391
Si Si2 0.245163 0.399253 0.118251
Si Si3 0.290257 0.996942 0.495145
Si Si4 0.377192 0.603411 0.166728
Si Si5 0.930092 0.598496 0.481883
Si Si6 0.868047 0.110557 0.899215
O O1 0.724133 0.250000 0.303142
O O2 0.694529 0.063193 0.386316
O O3 0.776172 0.983691 0.331974
O O4 0.026478 0.108931 0.770383
O O5 0.316457 0.250000 0.225295
O O6 0.386540 0.489759 0.253093
O O7 0.796902 0.521825 0.849959
O O8 0.208273 0.896744 0.306487
O O9 0.497920 0.055189 0.745863
O O10 0.108726 0.102866 0.241441
O O11 0.450117 0.750000 0.291092
O O12 0.140734 0.615132 0.822977
O O13 0.864713 0.750000 0.366809
O O14 0.000000 0.500000 0.500000
O O15 0.800176 0.250000 0.846688
#
# Coordination Sequence:
#
# PCOD9162277 Si02
#       6
#     4   4   4   4   4   4
#     4   9  18  35  57  81 111 145 181 222 272 328
#     4   9  19  34  53  78 109 148 190 231 274 318
#     4  10  21  34  55  83 113 147 186 229 274 317
#     4  10  21  37  58  83 111 143 183 230 276 324
#     4  10  21  39  63  87 109 138 177 221 274 335
#     4  10  20  35  55  78 110 152 194 229 267 319
#
# _framework density 23.621849999999998
#
# number of rings (size 3 to 8) (size 9 to 14) (size 15 to 20)
#    0.000    2.333    0.000    2.000    0.000   12.000 
#    0.000    0.833    0.000    0.000    0.000    0.000 
#    0.000    0.000    0.000    0.000    0.000    0.000 
#
# Total GULP energy -133980.001566 kJ/mol
# GULP energy per Si atom -5582.500065 kJ/mol
# Density = 2.356809 g / cm^3
# Si number density = 23.621850 Si / 1000 Ang^3
#
#
#
# Elastic Constant Matrix: (Units=GPa)
#
#
# Indices 1 2 3 4 5 6 
#
# 1 130.6975 97.6048 -9.0161 0.0000 24.8007 0.0000
# 2 97.6048 253.2111 2.2477 0.0000 16.4360 0.0000
# 3 -9.0161 2.2477 38.6511 0.0000 11.6365 0.0000
# 4 0.0000 0.0000 0.0000-1694.2401 0.0000 1103.5629
# 5 24.8007 16.4360 11.6365 0.0000 36.4634 0.0000
# 6 0.0000 0.0000 0.0000 1103.5629 0.0000 -692.1505
#
#
#
# Elastic Compliance Matrix: (Units=1/GPa)
#
#
# Indices 1 2 3 4 5 6 
#
# 1 0.013120 -0.004540 0.005968 0.000000 -0.008782 0.000000
# 2 -0.004540 0.005644 -0.001716 0.000000 0.001092 0.000000
# 3 0.005968 -0.001716 0.031368 0.000000 -0.013296 0.000000
# 4 0.000000 0.000000 0.000000 0.015319 0.000000 0.024425
# 5 -0.008782 0.001092 -0.013296 0.000000 0.037149 0.000000
# 6 0.000000 0.000000 0.000000 0.024425 0.000000 0.037498
#
#
# Mechanical properties :
#
#
# Convention : Reuss Voigt Hill
#
# Bulk Modulus (GPa) = 20.17932 67.13696 43.65814
# Shear Modulus (GPa) = 31.80822 -447.87054 -208.03116
#
# Velocity S-wave (km/s) = 3.67353 -13.78447 -9.39460
# Velocity P-wave (km/s) = 5.15309 14.99552 9.95770
#
# Compressibility (1/GPa) = 0.04955568
#
# Stress axis : x y z
#
# Youngs Moduli (GPa) = 76.21881 177.18581 31.88004
#
# Poissons Ratio (x) = 0.80448 -0.19027
# Poissons Ratio (y) = 0.34606 0.05471
# Poissons Ratio (z) = -0.45491 0.30406
#
# Static dielectric constant tensor:
#      x y z
#    x 1.904110 0.000000 -0.019900 
#    y 0.000000 1.922570 0.000000 
#    z -0.019900 0.000000 1.912100 
# 
# From -- ./inp_files/61886.got.cif
#   From: 2010.05.17/outbox.cif.g08.bks.cpg/sg11_31_cif.got.tgz:61886.got - 2010.06.03 12:22:45.
