data_PCOD9162890
_publ_section_title
;
Structure prediction by ZEFSAII (Michael W. Deem and Ramdas Pophale) SiO2 
 PCOD9162890
Probable space group: P 21/M
;
_chemical_formula_sum "Si O2"
_cell_formula_units_Z 32
_cell_length_a 29.576683
_cell_length_b 8.406852
_cell_length_c 12.790989
_cell_angle_alpha 90.000000
_cell_angle_beta 30.220594
_cell_angle_gamma 90.000000
_cell_volume 1600.811871
_symmetry_space_group_name_H-M "P 21/M"
_symmetry_group_IT_number 11
_symmetry_cell_setting 'monoclinic'
loop_
_space_group_symop_operation_xyz
x,y,z
-x,1/2+y,-z
-x,-y,-z
x,1/2-y,z
loop_
_atom_site_type_symbol
_atom_site_label
_atom_site_fract_x
_atom_site_fract_y
_atom_site_fract_z
Si Si1 0.731138 0.065130 0.083349
Si Si2 0.029365 0.438516 0.555786
Si Si3 0.288858 0.444540 0.540643
Si Si4 0.230632 0.056851 0.211791
Si Si5 0.317707 0.059515 0.254710
Si Si6 0.506448 0.939793 0.819841
Si Si7 0.142759 0.063553 0.001597
Si Si8 0.453283 0.439496 0.489454
O O1 0.754982 0.250000 0.039485
O O2 0.807686 0.963486 0.986548
O O3 0.641081 0.029100 0.326564
O O4 0.716817 0.010374 0.993225
O O5 0.034158 0.250000 0.537602
O O6 0.000000 0.500000 0.500000
O O7 0.127603 0.494869 0.396735
O O8 0.953406 0.483450 0.791831
O O9 0.289175 0.250000 0.547019
O O10 0.272699 0.493686 0.453081
O O11 0.391606 0.493718 0.360676
O O12 0.212018 0.498998 0.774893
O O13 0.234782 0.250000 0.201140
O O14 0.270915 0.000675 0.241789
O O15 0.311286 0.250000 0.265681
O O16 0.423273 0.016724 0.045473
O O17 0.503587 0.750000 0.843423
O O18 0.492166 0.970960 0.724929
O O19 0.129630 0.250000 0.010104
O O20 0.500000 0.500000 0.500000
O O21 0.436721 0.250000 0.527676
#
# Coordination Sequence:
#
# PCOD9162890 Si02
#       8
#     4   4   4   4   4   4   4   4
#     4  12  23  35  56  84 115 151 193 237 287 348
#     4  11  22  37  59  88 118 151 190 238 291 348
#     4   9  19  38  61  83 113 153 195 235 287 342
#     4  10  22  39  59  83 118 154 187 236 295 347
#     4  10  21  38  60  85 111 150 198 238 281 343
#     4  10  20  36  56  81 114 152 190 237 287 334
#     4  11  21  38  61  85 115 150 188 238 291 343
#     4  11  22  36  53  78 117 157 194 235 289 347
#
# _framework density 19.989858000000002
#
# number of rings (size 3 to 8) (size 9 to 14) (size 15 to 20)
#    0.000    1.500    2.500    3.375    0.000    4.000 
#    0.000    1.875    0.000    0.000    0.000    0.000 
#    0.000    0.000    0.000    0.000    0.000    0.000 
#
# Total GULP energy -178711.412398 kJ/mol
# GULP energy per Si atom -5584.731637 kJ/mol
# Density = 1.994436 g / cm^3
# Si number density = 19.989858 Si / 1000 Ang^3
#
#
#
# Elastic Constant Matrix: (Units=GPa)
#
#
# Indices 1 2 3 4 5 6 
#
# 1 72.7136 7.6568 42.5958 0.0000 17.4963 0.0000
# 2 7.6568 15.1888 9.8032 0.0000 4.9500 0.0000
# 3 42.5958 9.8032 117.5061 0.0000 11.6957 0.0000
# 4 0.0000 0.0000 0.0000 29.3272 0.0000 -4.2624
# 5 17.4963 4.9500 11.6957 0.0000 35.0179 0.0000
# 6 0.0000 0.0000 0.0000 -4.2624 0.0000 11.5468
#
#
#
# Elastic Compliance Matrix: (Units=1/GPa)
#
#
# Indices 1 2 3 4 5 6 
#
# 1 0.019374 -0.003549 -0.006013 0.000000 -0.007170 0.000000
# 2 -0.003549 0.072570 -0.004058 0.000000 -0.007130 0.000000
# 3 -0.006013 -0.004058 0.011039 0.000000 -0.000109 0.000000
# 4 0.000000 0.000000 0.000000 0.036031 0.000000 0.013301
# 5 -0.007170 -0.007130 -0.000109 0.000000 0.033183 0.000000
# 6 0.000000 0.000000 0.000000 0.013301 0.000000 0.091514
#
#
# Mechanical properties :
#
#
# Convention : Reuss Voigt Hill
#
# Bulk Modulus (GPa) = 13.20265 36.16891 24.68578
# Shear Modulus (GPa) = 15.81278 24.86857 20.34067
#
# Velocity S-wave (km/s) = 2.81560 3.53095 3.19337
# Velocity P-wave (km/s) = 4.14598 5.89545 5.09635
#
# Compressibility (1/GPa) = 0.07574238
#
# Stress axis : x y z
#
# Youngs Moduli (GPa) = 51.61507 13.77988 90.58416
#
# Poissons Ratio (x) = 0.04890 0.54472
# Poissons Ratio (y) = 0.18317 0.36761
# Poissons Ratio (z) = 0.31038 0.05592
#
# Static dielectric constant tensor:
#      x y z
#    x 1.720750 0.000000 -0.001000 
#    y 0.000000 1.691990 0.000000 
#    z -0.001000 0.000000 1.715930 
# 
# From -- ./inp_files/38121.got.cif
#   From: 2010.05.17/outbox.cif.g08.bks.cpg/sg11_20_cif.got.tgz:38121.got - 2010.06.03 12:22:45.
