data_PCOD9162398
_publ_section_title
;
Structure prediction by ZEFSAII (Michael W. Deem and Ramdas Pophale) SiO2 
 PCOD9162398
Probable space group: P 21/M
;
_chemical_formula_sum "Si O2"
_cell_formula_units_Z 28
_cell_length_a 21.530934
_cell_length_b 7.771821
_cell_length_c 16.047154
_cell_angle_alpha 90.000000
_cell_angle_beta 28.981305
_cell_angle_gamma 90.000000
_cell_volume 1301.065517
_symmetry_space_group_name_H-M "P 21/M"
_symmetry_group_IT_number 11
_symmetry_cell_setting 'monoclinic'
loop_
_space_group_symop_operation_xyz
x,y,z
-x,1/2+y,-z
-x,-y,-z
x,1/2-y,z
loop_
_atom_site_type_symbol
_atom_site_label
_atom_site_fract_x
_atom_site_fract_y
_atom_site_fract_z
Si Si1 0.905319 0.545148 0.686015
Si Si2 0.815115 0.051303 0.375849
Si Si3 0.645686 0.452456 0.908404
Si Si4 0.660247 0.957419 0.229359
Si Si5 0.619914 0.456975 0.469279
Si Si6 0.638333 0.549909 0.729862
Si Si7 0.932001 0.961560 0.840002
O O1 0.897045 0.750000 0.700111
O O2 0.763535 0.479269 0.831321
O O3 0.953211 0.483125 0.719707
O O4 0.000000 0.500000 0.500000
O O5 0.837412 0.250000 0.325621
O O6 0.724806 0.973022 0.410506
O O7 0.953923 0.975631 0.234354
O O8 0.733862 0.046086 0.556569
O O9 0.628728 0.250000 0.912331
O O10 0.674580 0.534412 0.784563
O O11 0.508399 0.516789 0.102767
O O12 0.659625 0.750000 0.224016
O O13 0.526210 0.021233 0.347248
O O14 0.656602 0.004238 0.331094
O O15 0.791300 0.017988 0.033913
O O16 0.615413 0.250000 0.485007
O O17 0.641096 0.750000 0.702312
O O18 0.935119 0.750000 0.837913
#
# Coordination Sequence:
#
# PCOD9162398 Si02
#       7
#     4   4   4   4   4   4   4
#     4  11  22  36  57  81 112 151 194 235 283 338
#     4  10  20  35  56  81 111 146 183 228 278 333
#     4  10  21  37  55  78 109 146 188 235 285 335
#     4   9  18  36  57  78 108 144 183 225 275 334
#     4   9  19  34  56  83 109 141 182 228 278 332
#     4  10  21  36  55  81 111 143 186 235 284 337
#     4   9  20  36  55  80 110 147 186 227 276 334
#
# _framework density 21.520821000000002
#
# number of rings (size 3 to 8) (size 9 to 14) (size 15 to 20)
#    0.000    2.286    0.000    2.143    2.000    4.000 
#    0.000    2.857    0.000    0.000    0.000    0.000 
#    0.000    0.000    0.000    0.000    0.000    0.000 
#
# Total GULP energy -156380.378513 kJ/mol
# GULP energy per Si atom -5585.013518 kJ/mol
# Density = 2.147184 g / cm^3
# Si number density = 21.520821 Si / 1000 Ang^3
#
#
#
# Elastic Constant Matrix: (Units=GPa)
#
#
# Indices 1 2 3 4 5 6 
#
# 1 148.0204 2.5955 64.8709 0.0000 -33.1530 0.0000
# 2 2.5955 33.4534 -0.4135 0.0000 -5.7232 0.0000
# 3 64.8709 -0.4135 110.6643 0.0000 -15.8420 0.0000
# 4 0.0000 0.0000 0.0000 15.2975 0.0000 6.3637
# 5 -33.1530 -5.7232 -15.8420 0.0000 22.0434 0.0000
# 6 0.0000 0.0000 0.0000 6.3637 0.0000 17.4398
#
#
#
# Elastic Compliance Matrix: (Units=1/GPa)
#
#
# Indices 1 2 3 4 5 6 
#
# 1 0.012399 0.001617 -0.005052 0.000000 0.015437 0.000000
# 2 0.001617 0.031696 0.000777 0.000000 0.011219 0.000000
# 3 -0.005052 0.000777 0.012197 0.000000 0.001368 0.000000
# 4 0.000000 0.000000 0.000000 0.077069 0.000000 -0.028122
# 5 0.015437 0.011219 0.001368 0.000000 0.072478 0.000000
# 6 0.000000 0.000000 0.000000 -0.028122 0.000000 0.067602
#
#
# Mechanical properties :
#
#
# Convention : Reuss Voigt Hill
#
# Bulk Modulus (GPa) = 19.61798 47.36041 33.48920
# Shear Modulus (GPa) = 16.90617 25.96184 21.43401
#
# Velocity S-wave (km/s) = 2.80585 3.47704 3.15932
# Velocity P-wave (km/s) = 4.43087 6.17853 5.37619
#
# Compressibility (1/GPa) = 0.05097366
#
# Stress axis : x y z
#
# Youngs Moduli (GPa) = 80.64992 31.54994 81.98817
#
# Poissons Ratio (x) = -0.05100 0.41425
# Poissons Ratio (y) = -0.13037 -0.06369
# Poissons Ratio (z) = 0.40748 -0.02451
#
# Static dielectric constant tensor:
#      x y z
#    x 1.777700 0.000000 -0.032070 
#    y 0.000000 1.793720 0.000000 
#    z -0.032070 0.000000 1.754780 
# 
# From -- ./inp_files/54500.got.cif
#   From: 2010.05.17/outbox.cif.g08.bks.cpg/sg11_28_cif.got.tgz:54500.got - 2010.06.03 12:22:45.
