data_PCOD9162049
_publ_section_title
;
Structure prediction by ZEFSAII (Michael W. Deem and Ramdas Pophale) SiO2 
 PCOD9162049
Probable space group: P 21/M
;
_chemical_formula_sum "Si O2"
_cell_formula_units_Z 32
_cell_length_a 13.407215
_cell_length_b 7.590998
_cell_length_c 24.667273
_cell_angle_alpha 90.000000
_cell_angle_beta 147.824767
_cell_angle_gamma 90.000000
_cell_volume 1336.862443
_symmetry_space_group_name_H-M "P 21/M"
_symmetry_group_IT_number 11
_symmetry_cell_setting 'monoclinic'
loop_
_space_group_symop_operation_xyz
x,y,z
-x,1/2+y,-z
-x,-y,-z
x,1/2-y,z
loop_
_atom_site_type_symbol
_atom_site_label
_atom_site_fract_x
_atom_site_fract_y
_atom_site_fract_z
Si Si1 0.429526 0.037766 0.868754
Si Si2 0.287736 0.952437 0.489346
Si Si3 0.037701 0.960393 0.579298
Si Si4 0.029636 0.466187 0.733217
Si Si5 0.184492 0.038756 0.917485
Si Si6 0.004495 0.552647 0.065036
Si Si7 0.588615 0.955749 0.711560
Si Si8 0.547838 0.552490 0.234822
O O1 0.420470 0.250000 0.859920
O O2 0.220511 0.977332 0.789227
O O3 0.512274 0.965281 0.849328
O O4 0.594836 0.995566 0.986595
O O5 0.335308 0.750000 0.497847
O O6 0.466638 0.027920 0.604708
O O7 0.167885 0.028039 0.383645
O O8 0.125990 0.959511 0.460369
O O9 0.049721 0.750000 0.594063
O O10 0.233183 0.054716 0.678107
O O11 0.000000 0.000000 0.500000
O O12 0.026006 0.250000 0.728739
O O13 0.065434 0.523434 0.811172
O O14 0.158473 0.250000 0.905712
O O15 0.111727 0.959507 0.940771
O O16 0.933202 0.750000 0.029816
O O17 0.215540 0.545809 0.184996
O O18 0.000000 0.500000 0.000000
O O19 0.623262 0.750000 0.717141
O O20 0.479694 0.967105 0.719297
O O21 0.469176 0.750000 0.203479
#
# Coordination Sequence:
#
# PCOD9162049 Si02
#       8
#     4   4   4   4   4   4   4   4
#     4  10  20  34  57  86 118 155 191 234 295 355
#     4  10  20  37  58  82 117 157 197 238 290 355
#     4  12  22  32  50  78 117 160 199 240 287 342
#     4   9  18  37  60  84 117 156 194 235 292 356
#     4  10  22  39  61  85 112 150 198 247 296 352
#     4  11  24  43  65  88 115 151 195 247 301 352
#     4  11  23  37  59  88 117 155 198 244 296 352
#     4  11  21  34  54  83 119 158 196 239 291 350
#
# _framework density 23.936644000000001
#
# number of rings (size 3 to 8) (size 9 to 14) (size 15 to 20)
#    0.000    1.500    2.500    3.375    0.000    4.500 
#    0.000    1.250    0.000    0.000    0.000    0.000 
#    0.000    0.000    0.000    0.000    0.000    0.000 
#
# Total GULP energy -178509.985507 kJ/mol
# GULP energy per Si atom -5578.437047 kJ/mol
# Density = 2.388216 g / cm^3
# Si number density = 23.936644 Si / 1000 Ang^3
#
#
#
# Elastic Constant Matrix: (Units=GPa)
#
#
# Indices 1 2 3 4 5 6 
#
# 1 66.2002 6.2209 50.1186 0.0000 -18.7541 0.0000
# 2 6.2209 76.9988 -3.4624 0.0000 -10.4524 0.0000
# 3 50.1186 -3.4624 196.6741 0.0000 -22.3116 0.0000
# 4 0.0000 0.0000 0.0000 23.0116 0.0000 2.5040
# 5 -18.7541 -10.4524 -22.3116 0.0000 40.6258 0.0000
# 6 0.0000 0.0000 0.0000 2.5040 0.0000 8.0337
#
#
#
# Elastic Compliance Matrix: (Units=1/GPa)
#
#
# Indices 1 2 3 4 5 6 
#
# 1 0.020496 -0.000939 -0.004472 0.000000 0.006764 0.000000
# 2 -0.000939 0.013584 0.000881 0.000000 0.003545 0.000000
# 3 -0.004472 0.000881 0.006432 0.000000 0.001694 0.000000
# 4 0.000000 0.000000 0.000000 0.044982 0.000000 -0.014020
# 5 0.006764 0.003545 0.001694 0.000000 0.029580 0.000000
# 6 0.000000 0.000000 0.000000 -0.014020 0.000000 0.128846
#
#
# Mechanical properties :
#
#
# Convention : Reuss Voigt Hill
#
# Bulk Modulus (GPa) = 31.79570 49.51415 40.65493
# Shear Modulus (GPa) = 18.97793 33.46729 26.22261
#
# Velocity S-wave (km/s) = 2.81880 3.74326 3.31343
# Velocity P-wave (km/s) = 4.88940 6.27798 5.62669
#
# Compressibility (1/GPa) = 0.03145079
#
# Stress axis : x y z
#
# Youngs Moduli (GPa) = 48.79031 73.61659 155.47425
#
# Poissons Ratio (x) = 0.06911 0.69531
# Poissons Ratio (y) = 0.04581 -0.13690
# Poissons Ratio (z) = 0.21820 -0.06482
#
# Static dielectric constant tensor:
#      x y z
#    x 1.915960 0.000000 0.024630 
#    y 0.000000 1.852050 0.000000 
#    z 0.024630 0.000000 1.851410 
# 
# From -- ./inp_files/69098.got.cif
#   From: 2010.05.17/outbox.cif.g08.bks.cpg/sg11_35_cif.got.tgz:69098.got - 2010.06.03 12:22:45.
