data_PCOD9162244
_publ_section_title
;
Structure prediction by ZEFSAII (Michael W. Deem and Ramdas Pophale) SiO2 
 PCOD9162244
Probable space group: P 21/M
;
_chemical_formula_sum "Si O2"
_cell_formula_units_Z 28
_cell_length_a 24.027127
_cell_length_b 8.884583
_cell_length_c 16.566922
_cell_angle_alpha 90.000000
_cell_angle_beta 23.210502
_cell_angle_gamma 90.000000
_cell_volume 1393.793994
_symmetry_space_group_name_H-M "P 21/M"
_symmetry_group_IT_number 11
_symmetry_cell_setting 'monoclinic'
loop_
_space_group_symop_operation_xyz
x,y,z
-x,1/2+y,-z
-x,-y,-z
x,1/2-y,z
loop_
_atom_site_type_symbol
_atom_site_label
_atom_site_fract_x
_atom_site_fract_y
_atom_site_fract_z
Si Si1 0.911919 0.074300 0.388618
Si Si2 0.815701 0.578697 0.071366
Si Si3 0.670392 0.068884 0.596914
Si Si4 0.154409 0.071805 0.784102
Si Si5 0.429935 0.924936 0.670437
Si Si6 0.594519 0.067718 0.118853
Si Si7 0.073797 0.930452 0.323521
O O1 0.900444 0.250000 0.427587
O O2 0.761347 0.022477 0.554603
O O3 0.019488 0.067662 0.168984
O O4 0.987953 0.988381 0.359841
O O5 0.772465 0.750000 0.106453
O O6 0.782509 0.556971 0.209644
O O7 0.734815 0.457976 0.125670
O O8 0.669743 0.250000 0.594806
O O9 0.754744 0.005897 0.406480
O O10 0.512069 0.004708 0.802878
O O11 0.143455 0.250000 0.781467
O O12 0.000000 0.000000 0.000000
O O13 0.461530 0.750000 0.627061
O O14 0.460953 0.982034 0.718543
O O15 0.500000 0.000000 0.500000
O O16 0.585297 0.250000 0.126867
O O17 0.759736 0.026042 0.895736
O O18 0.068680 0.750000 0.331990
O O19 0.000000 0.000000 0.500000
#
# Coordination Sequence:
#
# PCOD9162244 Si02
#       7
#     4   4   4   4   4   4   4
#     4  10  21  40  63  90 124 158 201 255 307 366
#     4  10  20  35  54  79 116 159 206 258 305 352
#     4  11  23  39  60  91 127 168 213 257 311 369
#     4  11  21  34  52  80 122 170 217 262 308 362
#     4  11  22  36  54  82 120 162 210 255 304 363
#     4  10  23  42  61  89 128 164 204 258 312 373
#     4  11  24  45  72 100 125 157 205 258 321 383
#
# _framework density 20.089051000000001
#
# number of rings (size 3 to 8) (size 9 to 14) (size 15 to 20)
#    0.000    1.429    2.857    2.571    0.000    8.000 
#    0.000    0.714    0.000    0.000    0.000    0.000 
#    0.000    0.000    0.000    0.000    0.000    0.000 
#
# Total GULP energy -156339.818277 kJ/mol
# GULP energy per Si atom -5583.564938 kJ/mol
# Density = 2.004333 g / cm^3
# Si number density = 20.089051 Si / 1000 Ang^3
#
#
#
# Elastic Constant Matrix: (Units=GPa)
#
#
# Indices 1 2 3 4 5 6 
#
# 1 126.2548 46.3234 71.3108 0.0000 -26.6581 0.0000
# 2 46.3234 41.6939 36.9445 0.0000 -8.8477 0.0000
# 3 71.3108 36.9445 97.4094 0.0000 -16.2645 0.0000
# 4 0.0000 0.0000 0.0000 31.5709 0.0000 -4.9220
# 5 -26.6581 -8.8477 -16.2645 0.0000 36.3780 0.0000
# 6 0.0000 0.0000 0.0000 -4.9220 0.0000 31.5011
#
#
#
# Elastic Compliance Matrix: (Units=1/GPa)
#
#
# Indices 1 2 3 4 5 6 
#
# 1 0.017968 -0.011842 -0.007505 0.000000 0.006931 0.000000
# 2 -0.011842 0.044209 -0.008377 0.000000 -0.001671 0.000000
# 3 -0.007505 -0.008377 0.019105 0.000000 0.001005 0.000000
# 4 0.000000 0.000000 0.000000 0.032466 0.000000 0.005073
# 5 0.006931 -0.001671 0.001005 0.000000 0.032611 0.000000
# 6 0.000000 0.000000 0.000000 0.005073 0.000000 0.032538
#
#
# Mechanical properties :
#
#
# Convention : Reuss Voigt Hill
#
# Bulk Modulus (GPa) = 38.70861 63.83506 51.27184
# Shear Modulus (GPa) = 20.57978 27.27527 23.92752
#
# Velocity S-wave (km/s) = 3.20414 3.68872 3.45494
# Velocity P-wave (km/s) = 5.74448 7.07017 6.44152
#
# Compressibility (1/GPa) = 0.02583404
#
# Stress axis : x y z
#
# Youngs Moduli (GPa) = 55.65477 22.61964 52.34144
#
# Poissons Ratio (x) = 0.26786 0.39284
# Poissons Ratio (y) = 0.65905 0.43848
# Poissons Ratio (z) = 0.41770 0.18949
#
# Static dielectric constant tensor:
#      x y z
#    x 1.739220 0.000000 -0.042030 
#    y 0.000000 1.681900 0.000000 
#    z -0.042030 0.000000 1.753980 
# 
# From -- ./inp_files/54494.got.cif
#   From: 2010.05.17/outbox.cif.g08.bks.cpg/sg11_28_cif.got.tgz:54494.got - 2010.06.03 12:22:45.
