data_PCOD9162110
_publ_section_title
;
Structure prediction by ZEFSAII (Michael W. Deem and Ramdas Pophale) SiO2 
 PCOD9162110
Probable space group: P 21/M
;
_chemical_formula_sum "Si O2"
_cell_formula_units_Z 32
_cell_length_a 26.541640
_cell_length_b 7.754323
_cell_length_c 20.622218
_cell_angle_alpha 90.000000
_cell_angle_beta 159.623571
_cell_angle_gamma 90.000000
_cell_volume 1477.810860
_symmetry_space_group_name_H-M "P 21/M"
_symmetry_group_IT_number 11
_symmetry_cell_setting 'monoclinic'
loop_
_space_group_symop_operation_xyz
x,y,z
-x,1/2+y,-z
-x,-y,-z
x,1/2-y,z
loop_
_atom_site_type_symbol
_atom_site_label
_atom_site_fract_x
_atom_site_fract_y
_atom_site_fract_z
Si Si1 0.191380 0.449802 0.903770
Si Si2 0.636207 0.960034 0.765489
Si Si3 0.688847 0.461156 0.605478
Si Si4 0.182588 0.551532 0.371403
Si Si5 0.842064 0.541921 0.281482
Si Si6 0.125330 0.547473 0.052647
Si Si7 0.334019 0.457169 0.809450
Si Si8 0.875755 0.950333 0.557221
O O1 0.233944 0.250000 0.947645
O O2 0.183375 0.526145 0.821854
O O3 0.030056 0.457601 0.738527
O O4 0.299274 0.522445 0.087785
O O5 0.642426 0.750000 0.771127
O O6 0.468892 0.012532 0.559127
O O7 0.741596 0.026294 0.836664
O O8 0.692211 0.250000 0.609224
O O9 0.720378 0.518965 0.570297
O O10 0.815090 0.517772 0.806601
O O11 0.223494 0.750000 0.431319
O O12 0.187601 0.463642 0.447194
O O13 0.017408 0.542775 0.146457
O O14 0.833891 0.750000 0.268300
O O15 0.727698 0.478516 0.196587
O O16 0.000000 0.500000 0.500000
O O17 0.090254 0.750000 0.015365
O O18 0.321140 0.250000 0.794216
O O19 0.233563 0.519700 0.629071
O O20 0.500000 0.500000 0.000000
O O21 0.905505 0.750000 0.578962
#
# Coordination Sequence:
#
# PCOD9162110 Si02
#       8
#     4   4   4   4   4   4   4   4
#     4  10  20  34  59  87 112 146 194 237 282 339
#     4  10  20  37  58  84 114 148 192 240 287 343
#     4   9  21  38  57  83 116 150 192 243 290 339
#     4  11  22  38  60  85 113 154 199 235 282 344
#     4  10  20  36  58  86 114 149 193 236 281 331
#     4  11  21  36  58  85 115 151 192 239 291 341
#     4  10  23  40  59  87 121 155 190 233 284 339
#     4  11  22  38  59  85 119 150 187 239 290 338
#
# _framework density 21.653649999999999
#
# number of rings (size 3 to 8) (size 9 to 14) (size 15 to 20)
#    0.000    1.750    2.500    1.875    0.000    2.500 
#    0.000    6.250    0.000    0.000    0.000    0.000 
#    0.000    0.000    0.000    0.000    0.000    0.000 
#
# Total GULP energy -178838.857158 kJ/mol
# GULP energy per Si atom -5588.714286 kJ/mol
# Density = 2.160437 g / cm^3
# Si number density = 21.653650 Si / 1000 Ang^3
#
#
#
# Elastic Constant Matrix: (Units=GPa)
#
#
# Indices 1 2 3 4 5 6 
#
# 1 93.4692 -7.1325 -11.1699 0.0000 -5.0315 0.0000
# 2 -7.1325 37.3810 -8.2266 0.0000 -5.7465 0.0000
# 3 -11.1699 -8.2266 36.1308 0.0000 -2.9357 0.0000
# 4 0.0000 0.0000 0.0000 10.1844 0.0000 3.9136
# 5 -5.0315 -5.7465 -2.9357 0.0000 43.1456 0.0000
# 6 0.0000 0.0000 0.0000 3.9136 0.0000 16.2105
#
#
#
# Elastic Compliance Matrix: (Units=1/GPa)
#
#
# Indices 1 2 3 4 5 6 
#
# 1 0.011633 0.003557 0.004580 0.000000 0.002142 0.000000
# 2 0.003557 0.030032 0.008342 0.000000 0.004982 0.000000
# 3 0.004580 0.008342 0.031299 0.000000 0.003775 0.000000
# 4 0.000000 0.000000 0.000000 0.108230 0.000000 -0.026129
# 5 0.002142 0.004982 0.003775 0.000000 0.024348 0.000000
# 6 0.000000 0.000000 0.000000 -0.026129 0.000000 0.067996
#
#
# Mechanical properties :
#
#
# Convention : Reuss Voigt Hill
#
# Bulk Modulus (GPa) = 9.44078 12.65810 11.04944
# Shear Modulus (GPa) = 18.12338 26.80879 22.46609
#
# Velocity S-wave (km/s) = 2.89618 3.52244 3.22455
# Velocity P-wave (km/s) = 3.94375 4.73306 4.35632
#
# Compressibility (1/GPa) = 0.10592347
#
# Stress axis : x y z
#
# Youngs Moduli (GPa) = 85.96395 33.29769 31.94944
#
# Poissons Ratio (x) = -0.11844 -0.14634
# Poissons Ratio (y) = -0.30576 -0.26654
# Poissons Ratio (z) = -0.39373 -0.27779
#
# Static dielectric constant tensor:
#      x y z
#    x 1.805660 0.000000 -0.017870 
#    y 0.000000 1.800400 0.000000 
#    z -0.017870 0.000000 1.742260 
# 
# From -- ./inp_files/67006.got.cif
#   From: 2010.05.17/outbox.cif.g08.bks.cpg/sg11_34_cif.got.tgz:67006.got - 2010.06.03 12:22:45.
