data_PCOD9162390
_publ_section_title
;
Structure prediction by ZEFSAII (Michael W. Deem and Ramdas Pophale) SiO2 
 PCOD9162390
Probable space group: P 21/M
;
_chemical_formula_sum "Si O2"
_cell_formula_units_Z 24
_cell_length_a 8.190460
_cell_length_b 9.242950
_cell_length_c 20.992025
_cell_angle_alpha 90.000000
_cell_angle_beta 44.752238
_cell_angle_gamma 90.000000
_cell_volume 1118.850568
_symmetry_space_group_name_H-M "P 21/M"
_symmetry_group_IT_number 11
_symmetry_cell_setting 'monoclinic'
loop_
_space_group_symop_operation_xyz
x,y,z
-x,1/2+y,-z
-x,-y,-z
x,1/2-y,z
loop_
_atom_site_type_symbol
_atom_site_label
_atom_site_fract_x
_atom_site_fract_y
_atom_site_fract_z
Si Si1 0.412856 0.590164 0.465430
Si Si2 0.364651 0.418047 0.900796
Si Si3 0.877788 0.422462 0.807748
Si Si4 0.768346 0.923826 0.592333
Si Si5 0.938414 0.590492 0.671425
Si Si6 0.936573 0.081783 0.118206
O O1 0.500000 0.500000 0.500000
O O2 0.513236 0.750000 0.429670
O O3 0.425294 0.498143 0.397650
O O4 0.150134 0.608481 0.564040
O O5 0.393985 0.250000 0.873052
O O6 0.608256 0.464441 0.865903
O O7 0.263807 0.508862 0.869449
O O8 0.165709 0.423480 0.009878
O O9 0.888029 0.250000 0.812687
O O10 0.996415 0.478165 0.709937
O O11 0.991232 0.499676 0.837104
O O12 0.773039 0.750000 0.582099
O O13 0.744468 0.956187 0.673961
O O14 0.000000 0.000000 0.500000
O O15 0.885778 0.750000 0.713262
O O16 0.880145 0.250000 0.147010
#
# Coordination Sequence:
#
# PCOD9162390 Si02
#       6
#     4   4   4   4   4   4
#     4  10  20  35  56  81 107 139 181 227 273 328
#     4   9  20  38  58  84 114 148 193 236 281 335
#     4  11  22  36  57  84 117 152 187 235 286 337
#     4   9  17  32  54  76 101 135 174 219 265 318
#     4   9  20  37  54  77 109 143 180 222 271 331
#     4  10  20  36  60  85 113 150 190 236 283 337
#
# _framework density 21.450586999999999
#
# number of rings (size 3 to 8) (size 9 to 14) (size 15 to 20)
#    0.000    2.333    0.000    3.500    0.000    6.000 
#    3.000    0.000    0.000    0.000    0.000    0.000 
#    0.000    0.000    0.000    0.000    0.000    0.000 
#
# Total GULP energy -133744.405457 kJ/mol
# GULP energy per Si atom -5572.683561 kJ/mol
# Density = 2.140176 g / cm^3
# Si number density = 21.450587 Si / 1000 Ang^3
#
#
#
# Elastic Constant Matrix: (Units=GPa)
#
#
# Indices 1 2 3 4 5 6 
#
# 1 134.3840 95.7790 33.4248 0.0000 56.1388 0.0000
# 2 95.7790 153.4330 31.6162 0.0000 45.3498 0.0000
# 3 33.4248 31.6162 40.0441 0.0000 12.5500 0.0000
# 4 0.0000 0.0000 0.0000 20.9243 0.0000 10.2038
# 5 56.1388 45.3498 12.5500 0.0000 42.4602 0.0000
# 6 0.0000 0.0000 0.0000 10.2038 0.0000 37.3997
#
#
#
# Elastic Compliance Matrix: (Units=1/GPa)
#
#
# Indices 1 2 3 4 5 6 
#
# 1 0.022451 -0.006413 -0.007186 0.000000 -0.020710 0.000000
# 2 -0.006413 0.012263 -0.003176 0.000000 -0.003680 0.000000
# 3 -0.007186 -0.003176 0.032443 0.000000 0.003304 0.000000
# 4 0.000000 0.000000 0.000000 0.055125 0.000000 -0.015040
# 5 -0.020710 -0.003680 0.003304 0.000000 0.053888 0.000000
# 6 0.000000 0.000000 0.000000 -0.015040 0.000000 0.030841
#
#
# Mechanical properties :
#
#
# Convention : Reuss Voigt Hill
#
# Bulk Modulus (GPa) = 29.75554 72.16680 50.96117
# Shear Modulus (GPa) = 19.86000 31.29293 25.57646
#
# Velocity S-wave (km/s) = 3.04608 3.82362 3.45678
# Velocity P-wave (km/s) = 5.12574 7.29450 6.30408
#
# Compressibility (1/GPa) = 0.03360718
#
# Stress axis : x y z
#
# Youngs Moduli (GPa) = 44.54140 81.54849 30.82364
#
# Poissons Ratio (x) = 0.52295 0.22150
# Poissons Ratio (y) = 0.28563 0.09789
# Poissons Ratio (z) = 0.32008 0.25898
#
# Static dielectric constant tensor:
#      x y z
#    x 1.861970 0.000000 -0.078260 
#    y 0.000000 1.772950 0.000000 
#    z -0.078260 0.000000 1.801940 
# 
# From -- ./inp_files/63172.got.cif
#   From: 2010.05.17/outbox.cif.g08.bks.cpg/sg11_32_cif.got.tgz:63172.got - 2010.06.03 12:22:45.
