data_PCOD9162139
_publ_section_title
;
Structure prediction by ZEFSAII (Michael W. Deem and Ramdas Pophale) SiO2 
 PCOD9162139
Probable space group: P 21/M
;
_chemical_formula_sum "Si O2"
_cell_formula_units_Z 28
_cell_length_a 10.308918
_cell_length_b 14.205798
_cell_length_c 15.452566
_cell_angle_alpha 90.000000
_cell_angle_beta 46.652875
_cell_angle_gamma 90.000000
_cell_volume 1645.652884
_symmetry_space_group_name_H-M "P 21/M"
_symmetry_group_IT_number 11
_symmetry_cell_setting 'monoclinic'
loop_
_space_group_symop_operation_xyz
x,y,z
-x,1/2+y,-z
-x,-y,-z
x,1/2-y,z
loop_
_atom_site_type_symbol
_atom_site_label
_atom_site_fract_x
_atom_site_fract_y
_atom_site_fract_z
Si Si1 0.774365 0.478989 0.339667
Si Si2 0.684881 0.642416 0.951408
Si Si3 0.083626 0.503182 0.057347
Si Si4 0.682352 0.636336 0.673832
Si Si5 0.397467 0.636804 0.946971
Si Si6 0.978457 0.641284 0.661875
Si Si7 0.425606 0.137400 0.470820
O O1 0.682682 0.576547 0.409495
O O2 0.624395 0.404777 0.379176
O O3 0.921072 0.493942 0.198794
O O4 0.870576 0.429408 0.376829
O O5 0.662980 0.750000 0.990769
O O6 0.772696 0.578908 0.985198
O O7 0.500867 0.610980 0.988931
O O8 0.828945 0.642767 0.806738
O O9 0.202121 0.595011 0.023462
O O10 0.000000 0.500000 0.000000
O O11 0.681337 0.750000 0.682577
O O12 0.522083 0.603365 0.809786
O O13 0.871190 0.607181 0.627106
O O14 0.653816 0.615208 0.587331
O O15 0.392704 0.750000 0.947713
O O16 0.040169 0.750000 0.623574
O O17 0.423113 0.250000 0.485859
#
# Coordination Sequence:
#
# PCOD9162139 Si02
#       7
#     4   4   4   4   4   4   4
#     4  10  21  33  48  72  94 127 166 193 241 288
#     4   8  16  31  49  69  95 129 164 195 233 284
#     4  11  21  31  48  75 103 128 160 203 244 285
#     4   8  15  29  51  75  94 121 158 193 233 278
#     4   9  17  31  51  73  98 127 157 193 242 296
#     4   8  14  28  50  74  97 117 151 200 235 273
#     4  10  20  35  51  66  93 127 161 200 236 283
#
# _framework density 17.014521999999999
#
# number of rings (size 3 to 8) (size 9 to 14) (size 15 to 20)
#    0.000    2.857    0.000    3.429    0.000    2.286 
#    0.000    0.000    0.000    0.000    0.000    4.000 
#    0.000    0.000    0.000    0.000    0.000    0.000 
#
# Total GULP energy -155901.403316 kJ/mol
# GULP energy per Si atom -5567.907261 kJ/mol
# Density = 1.697580 g / cm^3
# Si number density = 17.014522 Si / 1000 Ang^3
#
#
#
# Elastic Constant Matrix: (Units=GPa)
#
#
# Indices 1 2 3 4 5 6 
#
# 1 195.9749 65.6931 66.3384 0.0000 -29.0767 0.0000
# 2 65.6931 87.9478 36.6659 0.0000 -9.2913 0.0000
# 3 66.3384 36.6659 68.0910 0.0000 -23.7757 0.0000
# 4 0.0000 0.0000 0.0000 9.0842 0.0000 -4.5294
# 5 -29.0767 -9.2913 -23.7757 0.0000 38.0892 0.0000
# 6 0.0000 0.0000 0.0000 -4.5294 0.0000 12.2288
#
#
#
# Elastic Compliance Matrix: (Units=1/GPa)
#
#
# Indices 1 2 3 4 5 6 
#
# 1 0.008599 -0.003890 -0.005527 0.000000 0.002165 0.000000
# 2 -0.003890 0.016511 -0.006050 0.000000 -0.002719 0.000000
# 3 -0.005527 -0.006050 0.027288 0.000000 0.011339 0.000000
# 4 0.000000 0.000000 0.000000 0.135016 0.000000 0.050009
# 5 0.002165 -0.002719 0.011339 0.000000 0.034322 0.000000
# 6 0.000000 0.000000 0.000000 0.050009 0.000000 0.100297
#
#
# Mechanical properties :
#
#
# Convention : Reuss Voigt Hill
#
# Bulk Modulus (GPa) = 46.59027 76.60094 61.59560
# Shear Modulus (GPa) = 13.88422 24.10153 18.99287
#
# Velocity S-wave (km/s) = 2.85971 3.76776 3.34469
# Velocity P-wave (km/s) = 6.19242 8.00292 7.15516
#
# Compressibility (1/GPa) = 0.02146371
#
# Stress axis : x y z
#
# Youngs Moduli (GPa) = 116.29604 60.56456 36.64654
#
# Poissons Ratio (x) = 0.23560 0.20253
# Poissons Ratio (y) = 0.45240 0.22173
# Poissons Ratio (z) = 0.64272 0.36644
#
# Static dielectric constant tensor:
#      x y z
#    x 1.607130 0.000000 -0.002440 
#    y 0.000000 1.585430 0.000000 
#    z -0.002440 0.000000 1.560390 
# 
# From -- ./inp_files/21800.got.cif
#   From: 2010.05.17/outbox.cif.g08.bks.cpg/sg11_11_cif.got.tgz:21800.got - 2010.06.03 12:22:45.
