data_PCOD9162361
_publ_section_title
;
Structure prediction by ZEFSAII (Michael W. Deem and Ramdas Pophale) SiO2 
 PCOD9162361
Probable space group: P 21/M
;
_chemical_formula_sum "Si O2"
_cell_formula_units_Z 22
_cell_length_a 18.011946
_cell_length_b 9.842807
_cell_length_c 11.069482
_cell_angle_alpha 90.000000
_cell_angle_beta 29.511090
_cell_angle_gamma 90.000000
_cell_volume 966.705682
_symmetry_space_group_name_H-M "P 21/M"
_symmetry_group_IT_number 11
_symmetry_cell_setting 'monoclinic'
loop_
_space_group_symop_operation_xyz
x,y,z
-x,1/2+y,-z
-x,-y,-z
x,1/2-y,z
loop_
_atom_site_type_symbol
_atom_site_label
_atom_site_fract_x
_atom_site_fract_y
_atom_site_fract_z
Si Si1 0.269276 0.250000 0.816156
Si Si2 0.192756 0.591354 0.344342
Si Si3 0.275129 0.750000 0.620789
Si Si4 0.762926 0.250000 0.068884
Si Si5 0.302296 0.474190 0.436676
Si Si6 0.081995 0.250000 0.858317
Si Si7 0.505090 0.750000 0.730965
Si Si8 0.846900 0.975478 0.860858
O O1 0.115526 0.250000 0.954369
O O2 0.386819 0.250000 0.540950
O O3 0.267188 0.380330 0.904700
O O4 0.240063 0.750000 0.277092
O O5 0.271679 0.512177 0.341889
O O6 0.207252 0.511764 0.197137
O O7 0.011488 0.590352 0.621583
O O8 0.336925 0.750000 0.669212
O O9 0.313035 0.614094 0.495204
O O10 0.095886 0.750000 0.901416
O O11 0.653600 0.250000 0.108629
O O12 0.859758 0.115087 0.916738
O O13 0.163972 0.381579 0.683856
O O14 0.447581 0.381031 0.258240
#
# Coordination Sequence:
#
# PCOD9162361 Si02
#       8
#     2   4   2   2   4   2   2   4
#     4  10  20  39  61  92 132 161 208 251 308 371
#     4  11  21  40  64  98 134 154 199 261 310 384
#     4  12  20  31  62  89 115 168 204 250 327 370
#     4  12  24  42  61  91 127 163 220 253 303 367
#     4  10  21  38  61  87 124 169 203 249 318 356
#     4  10  20  35  55  96 130 155 198 261 308 387
#     4  10  26  45  59  86 130 167 214 271 286 355
#     4  11  23  37  66  95 129 165 194 254 320 372
#
# _framework density 22.757702999999999
#
# number of rings (size 3 to 8) (size 9 to 14) (size 15 to 20)
#    0.000    1.455    2.727    4.909    0.000    5.091 
#    0.000    0.909    0.000    0.000    0.000    0.000 
#    0.000    0.000    0.000    0.000    0.000    0.000 
#
# Total GULP energy -123064.356225 kJ/mol
# GULP energy per Si atom -5593.834374 kJ/mol
# Density = 2.270591 g / cm^3
# Si number density = 22.757703 Si / 1000 Ang^3
#
#
#
# Elastic Constant Matrix: (Units=GPa)
#
#
# Indices 1 2 3 4 5 6 
#
# 1 146.1910 49.1878 24.6016 0.0000 33.3154 0.0000
# 2 49.1878 168.6277 20.4646 0.0000 26.0503 0.0000
# 3 24.6016 20.4646 35.9969 0.0000 18.8948 0.0000
# 4 0.0000 0.0000 0.0000 34.0929 0.0000 12.8806
# 5 33.3154 26.0503 18.8948 0.0000 51.0404 0.0000
# 6 0.0000 0.0000 0.0000 12.8806 0.0000 36.3801
#
#
#
# Elastic Compliance Matrix: (Units=1/GPa)
#
#
# Indices 1 2 3 4 5 6 
#
# 1 0.008755 -0.001598 -0.003108 0.000000 -0.003749 0.000000
# 2 -0.001598 0.006901 -0.001899 0.000000 -0.001776 0.000000
# 3 -0.003108 -0.001899 0.036503 0.000000 -0.010516 0.000000
# 4 0.000000 0.000000 0.000000 0.033861 0.000000 -0.011989
# 5 -0.003749 -0.001776 -0.010516 0.000000 0.026839 0.000000
# 6 0.000000 0.000000 0.000000 -0.011989 0.000000 0.031732
#
#
# Mechanical properties :
#
#
# Convention : Reuss Voigt Hill
#
# Bulk Modulus (GPa) = 25.67307 59.92484 42.79895
# Shear Modulus (GPa) = 29.27674 41.40679 35.34177
#
# Velocity S-wave (km/s) = 3.59061 4.27014 3.94503
# Velocity P-wave (km/s) = 5.33812 7.12046 6.29271
#
# Compressibility (1/GPa) = 0.03895133
#
# Stress axis : x y z
#
# Youngs Moduli (GPa) = 114.21799 144.90393 27.39473
#
# Poissons Ratio (x) = 0.23149 0.08513
# Poissons Ratio (y) = 0.18247 0.05202
# Poissons Ratio (z) = 0.35494 0.27518
#
# Static dielectric constant tensor:
#      x y z
#    x 1.855000 0.000000 -0.013430 
#    y 0.000000 1.804490 0.000000 
#    z -0.013430 0.000000 1.886700 
# 
# From -- ./inp_files/40486.got.cif
#   From: 2010.05.17/outbox.cif.g08.bks.cpg/sg11_21_cif.got.tgz:40486.got - 2010.06.03 12:22:45.
