data_PCOD9162585
_publ_section_title
;
Structure prediction by ZEFSAII (Michael W. Deem and Ramdas Pophale) SiO2 
 PCOD9162585
Probable space group: P 21/M
;
_chemical_formula_sum "Si O2"
_cell_formula_units_Z 24
_cell_length_a 7.418043
_cell_length_b 15.958758
_cell_length_c 9.258862
_cell_angle_alpha 90.000000
_cell_angle_beta 115.044182
_cell_angle_gamma 90.000000
_cell_volume 993.037016
_symmetry_space_group_name_H-M "P 21/M"
_symmetry_group_IT_number 11
_symmetry_cell_setting 'monoclinic'
loop_
_space_group_symop_operation_xyz
x,y,z
-x,1/2+y,-z
-x,-y,-z
x,1/2-y,z
loop_
_atom_site_type_symbol
_atom_site_label
_atom_site_fract_x
_atom_site_fract_y
_atom_site_fract_z
Si Si1 0.683941 0.845672 0.968813
Si Si2 0.968150 0.840998 0.691662
Si Si3 0.638991 0.154018 0.379650
Si Si4 0.894836 0.152669 0.931070
Si Si5 0.221017 0.489362 0.511313
Si Si6 0.507825 0.064437 0.865218
O O1 0.731683 0.750000 0.952469
O O2 0.545521 0.870631 0.787156
O O3 0.901684 0.883936 0.069105
O O4 0.561022 0.852576 0.073362
O O5 0.874146 0.750000 0.632224
O O6 0.811922 0.914659 0.611515
O O7 0.164154 0.845857 0.656634
O O8 0.048250 0.843617 0.880438
O O9 0.614428 0.250000 0.423340
O O10 0.687945 0.078716 0.505957
O O11 0.849201 0.250000 0.868417
O O12 0.717148 0.086669 0.865701
O O13 0.355080 0.460540 0.690706
O O14 0.000000 0.500000 0.500000
O O15 0.500000 0.000000 0.000000
#
# Coordination Sequence:
#
# PCOD9162585 Si02
#       6
#     4   4   4   4   4   4
#     4  10  20  36  61  89 115 152 203 250 300 353
#     4   9  17  33  57  83 117 159 196 242 304 363
#     4   9  16  33  57  79 111 154 198 245 295 355
#     4  10  21  38  62  88 117 157 203 247 294 360
#     4  10  20  35  57  87 119 156 203 242 298 365
#     4  12  21  36  60  87 117 151 195 253 304 351
#
# _framework density 24.168282000000001
#
# number of rings (size 3 to 8) (size 9 to 14) (size 15 to 20)
#    0.000    2.000    3.333    1.500    0.000    2.000 
#    0.000    0.833    7.333    0.000    0.000    0.000 
#    0.000    1.333    0.000    0.000    0.000    0.000 
#
# Total GULP energy -134018.854814 kJ/mol
# GULP energy per Si atom -5584.118951 kJ/mol
# Density = 2.411327 g / cm^3
# Si number density = 24.168282 Si / 1000 Ang^3
#
#
#
# Elastic Constant Matrix: (Units=GPa)
#
#
# Indices 1 2 3 4 5 6 
#
# 1 81.2332 17.8678 28.3787 0.0000 25.8049 0.0000
# 2 17.8678 102.8268 46.0952 0.0000 23.0879 0.0000
# 3 28.3787 46.0952 83.9410 0.0000 24.4328 0.0000
# 4 0.0000 0.0000 0.0000 18.7064 0.0000 16.2634
# 5 25.8049 23.0879 24.4328 0.0000 41.4168 0.0000
# 6 0.0000 0.0000 0.0000 16.2634 0.0000 19.5054
#
#
#
# Elastic Compliance Matrix: (Units=1/GPa)
#
#
# Indices 1 2 3 4 5 6 
#
# 1 0.015982 0.000569 -0.003290 0.000000 -0.008334 0.000000
# 2 0.000569 0.013391 -0.006363 0.000000 -0.004066 0.000000
# 3 -0.003290 -0.006363 0.017977 0.000000 -0.005009 0.000000
# 4 0.000000 0.000000 0.000000 0.194320 0.000000 -0.162021
# 5 -0.008334 -0.004066 -0.005009 0.000000 0.034559 0.000000
# 6 0.000000 0.000000 0.000000 -0.162021 0.000000 0.186359
#
#
# Mechanical properties :
#
#
# Convention : Reuss Voigt Hill
#
# Bulk Modulus (GPa) = 34.26593 50.29827 42.28210
# Shear Modulus (GPa) = 10.19404 27.63633 18.91518
#
# Velocity S-wave (km/s) = 2.05599 3.38523 2.80061
# Velocity P-wave (km/s) = 4.45477 6.01137 5.29063
#
# Compressibility (1/GPa) = 0.02918351
#
# Stress axis : x y z
#
# Youngs Moduli (GPa) = 62.57135 74.67469 55.62631
#
# Poissons Ratio (x) = -0.04248 0.18299
# Poissons Ratio (y) = -0.03559 0.35392
# Poissons Ratio (z) = 0.20584 0.47512
#
# Static dielectric constant tensor:
#      x y z
#    x 2.015700 0.000000 0.034770 
#    y 0.000000 2.202040 0.000000 
#    z 0.034770 0.000000 1.864130 
# 
# From -- ./inp_files/32283.got.cif
#   From: 2010.05.17/outbox.cif.g08.bks.cpg/sg11_17_cif.got.tgz:32283.got - 2010.06.03 12:22:45.
