data_PCOD9162122
_publ_section_title
;
Structure prediction by ZEFSAII (Michael W. Deem and Ramdas Pophale) SiO2 
 PCOD9162122
Probable space group: P 21/M
;
_chemical_formula_sum "Si O2"
_cell_formula_units_Z 30
_cell_length_a 24.380847
_cell_length_b 8.517271
_cell_length_c 10.425629
_cell_angle_alpha 90.000000
_cell_angle_beta 33.629146
_cell_angle_gamma 90.000000
_cell_volume 1198.992251
_symmetry_space_group_name_H-M "P 21/M"
_symmetry_group_IT_number 11
_symmetry_cell_setting 'monoclinic'
loop_
_space_group_symop_operation_xyz
x,y,z
-x,1/2+y,-z
-x,-y,-z
x,1/2-y,z
loop_
_atom_site_type_symbol
_atom_site_label
_atom_site_fract_x
_atom_site_fract_y
_atom_site_fract_z
Si Si1 0.254605 0.250000 0.687422
Si Si2 0.578911 0.581975 0.473495
Si Si3 0.712298 0.070632 0.021748
Si Si4 0.077984 0.565952 0.244138
Si Si5 0.011923 0.937745 0.830544
Si Si6 0.226147 0.431670 0.356755
Si Si7 0.254509 0.576018 0.559243
Si Si8 0.518456 0.421314 0.827364
O O1 0.318304 0.121964 0.650954
O O2 0.215074 0.400154 0.675873
O O3 0.547641 0.750000 0.480338
O O4 0.615218 0.465928 0.293758
O O5 0.503050 0.522866 0.729912
O O6 0.712934 0.250000 0.976458
O O7 0.811819 0.049256 0.913932
O O8 0.726601 0.959651 0.872989
O O9 0.058261 0.750000 0.264011
O O10 0.000000 0.500000 0.500000
O O11 0.065322 0.480176 0.132591
O O12 0.020727 0.750000 0.817566
O O13 0.111401 0.017497 0.581580
O O14 0.000000 0.000000 0.000000
O O15 0.235853 0.250000 0.371554
O O16 0.270653 0.548133 0.376110
O O17 0.203211 0.750000 0.680630
O O18 0.363374 0.597699 0.402925
O O19 0.470208 0.250000 0.916217
O O20 0.500000 0.500000 0.000000
#
# Coordination Sequence:
#
# PCOD9162122 Si02
#       8
#     2   4   4   4   4   4   4   4
#     4   8  18  36  54  84 122 150 194 242 302 356
#     4   9  19  35  56  84 123 152 203 247 296 362
#     4  11  23  39  62  89 119 161 211 262 308 371
#     4  11  23  41  65  89 119 159 206 256 311 376
#     4  12  26  44  62  88 121 158 204 261 317 377
#     4  12  24  40  64  86 118 161 206 257 311 371
#     4  10  20  37  60  89 122 162 200 248 305 365
#     4  10  20  34  60  90 125 162 198 248 307 367
#
# _framework density 25.021014000000001
#
# number of rings (size 3 to 8) (size 9 to 14) (size 15 to 20)
#    0.400    1.067    2.000    4.000    0.933    4.267 
#    2.400    2.667    0.000    0.800    0.000    0.000 
#    0.000    0.000    0.000    0.000    0.000    0.000 
#
# Total GULP energy -167045.707986 kJ/mol
# GULP energy per Si atom -5568.190266 kJ/mol
# Density = 2.496407 g / cm^3
# Si number density = 25.021014 Si / 1000 Ang^3
#
#
#
# Elastic Constant Matrix: (Units=GPa)
#
#
# Indices 1 2 3 4 5 6 
#
# 1 77.9548 22.8465 10.9206 0.0000 12.5750 0.0000
# 2 22.8465 173.2783 64.8035 0.0000 1.1358 0.0000
# 3 10.9206 64.8035 139.6387 0.0000 12.0419 0.0000
# 4 0.0000 0.0000 0.0000 47.6562 0.0000 14.8556
# 5 12.5750 1.1358 12.0419 0.0000 32.3375 0.0000
# 6 0.0000 0.0000 0.0000 14.8556 0.0000 34.9760
#
#
#
# Elastic Compliance Matrix: (Units=1/GPa)
#
#
# Indices 1 2 3 4 5 6 
#
# 1 0.014260 -0.001944 0.000268 0.000000 -0.005577 0.000000
# 2 -0.001944 0.007279 -0.003378 0.000000 0.001758 0.000000
# 3 0.000268 -0.003378 0.008996 0.000000 -0.003335 0.000000
# 4 0.000000 0.000000 0.000000 0.024186 0.000000 -0.010273
# 5 -0.005577 0.001758 -0.003335 0.000000 0.034273 0.000000
# 6 0.000000 0.000000 0.000000 -0.010273 0.000000 0.032954
#
#
# Mechanical properties :
#
#
# Convention : Reuss Voigt Hill
#
# Bulk Modulus (GPa) = 48.95488 65.33479 57.14483
# Shear Modulus (GPa) = 36.00672 42.48068 39.24370
#
# Velocity S-wave (km/s) = 3.79761 4.12491 3.96464
# Velocity P-wave (km/s) = 6.23194 6.98964 6.62164
#
# Compressibility (1/GPa) = 0.02042697
#
# Stress axis : x y z
#
# Youngs Moduli (GPa) = 70.12804 137.38166 111.16659
#
# Poissons Ratio (x) = 0.26703 -0.02976
# Poissons Ratio (y) = 0.13631 0.37548
# Poissons Ratio (z) = -0.01878 0.46402
#
# Static dielectric constant tensor:
#      x y z
#    x 2.293220 0.000000 -0.148970 
#    y 0.000000 1.848110 0.000000 
#    z -0.148970 0.000000 2.021680 
# 
# From -- ./inp_files/29045.got.cif
#   From: 2010.05.17/outbox.cif.g08.bks.cpg/sg11_15_cif.got.tgz:29045.got - 2010.06.03 12:22:45.
