data_PCOD9162126
_publ_section_title
;
Structure prediction by ZEFSAII (Michael W. Deem and Ramdas Pophale) SiO2 
 PCOD9162126
Probable space group: P 21/M
;
_chemical_formula_sum "Si O2"
_cell_formula_units_Z 28
_cell_length_a 9.940075
_cell_length_b 14.499540
_cell_length_c 13.693090
_cell_angle_alpha 90.000000
_cell_angle_beta 146.405167
_cell_angle_gamma 90.000000
_cell_volume 1091.990643
_symmetry_space_group_name_H-M "P 21/M"
_symmetry_group_IT_number 11
_symmetry_cell_setting 'monoclinic'
loop_
_space_group_symop_operation_xyz
x,y,z
-x,1/2+y,-z
-x,-y,-z
x,1/2-y,z
loop_
_atom_site_type_symbol
_atom_site_label
_atom_site_fract_x
_atom_site_fract_y
_atom_site_fract_z
Si Si1 0.212703 0.150834 0.895817
Si Si2 0.896409 0.072840 0.861316
Si Si3 0.257054 0.650005 0.045274
Si Si4 0.701319 0.149422 0.471041
Si Si5 0.734573 0.900729 0.653269
Si Si6 0.152481 0.052592 0.492903
Si Si7 0.352684 0.037859 0.809685
O O1 0.330698 0.250000 0.968553
O O2 0.120456 0.123587 0.946028
O O3 0.372138 0.081766 0.929606
O O4 0.960522 0.153156 0.682633
O O5 0.743595 0.139852 0.837692
O O6 0.756726 0.008934 0.699219
O O7 0.000000 0.000000 0.000000
O O8 0.360780 0.750000 0.079012
O O9 0.383239 0.559708 0.075720
O O10 0.979812 0.645741 0.841743
O O11 0.672364 0.250000 0.402260
O O12 0.488953 0.142265 0.423325
O O13 0.715554 0.050031 0.425136
O O14 0.751389 0.899163 0.546422
O O15 0.214083 0.094837 0.635580
O O16 0.861077 0.038462 0.307611
#
# Coordination Sequence:
#
# PCOD9162126 Si02
#       7
#     4   4   4   4   4   4   4
#     4  10  20  38  62  92 123 159 208 260 311 363
#     4  10  21  38  59  89 115 162 210 254 305 364
#     4  11  24  39  59  91 129 162 203 255 312 374
#     4  10  20  34  61  90 122 160 203 262 316 362
#     4  11  21  39  60  91 125 163 205 255 312 372
#     4  10  21  39  63  94 120 159 214 259 304 370
#     4  10  21  39  65  91 120 163 204 253 306 371
#
# _framework density 25.641245000000001
#
# number of rings (size 3 to 8) (size 9 to 14) (size 15 to 20)
#    0.000    1.714    2.857    2.571    2.000    1.143 
#    0.000    2.143    0.000    1.714    0.000    0.000 
#    0.000    0.000    0.000    0.000    0.000    0.000 
#
# Total GULP energy -156219.313451 kJ/mol
# GULP energy per Si atom -5579.261195 kJ/mol
# Density = 2.558288 g / cm^3
# Si number density = 25.641245 Si / 1000 Ang^3
#
#
#
# Elastic Constant Matrix: (Units=GPa)
#
#
# Indices 1 2 3 4 5 6 
#
# 1 145.5248 16.1486 -6.6563 0.0000 9.6248 0.0000
# 2 16.1486 105.1543 0.7766 0.0000 5.2534 0.0000
# 3 -6.6563 0.7766 51.6264 0.0000 18.4075 0.0000
# 4 0.0000 0.0000 0.0000 12.6367 0.0000 8.6288
# 5 9.6248 5.2534 18.4075 0.0000 49.4605 0.0000
# 6 0.0000 0.0000 0.0000 8.6288 0.0000 19.3150
#
#
#
# Elastic Compliance Matrix: (Units=1/GPa)
#
#
# Indices 1 2 3 4 5 6 
#
# 1 0.007184 -0.001021 0.001616 0.000000 -0.001891 0.000000
# 2 -0.001021 0.009708 0.000022 0.000000 -0.000841 0.000000
# 3 0.001616 0.000022 0.022704 0.000000 -0.008766 0.000000
# 4 0.000000 0.000000 0.000000 0.113871 0.000000 -0.050871
# 5 -0.001891 -0.000841 -0.008766 0.000000 0.023938 0.000000
# 6 0.000000 0.000000 0.000000 -0.050871 0.000000 0.074499
#
#
# Mechanical properties :
#
#
# Convention : Reuss Voigt Hill
#
# Bulk Modulus (GPa) = 24.49158 35.87148 30.18153
# Shear Modulus (GPa) = 18.91930 35.75155 27.33543
#
# Velocity S-wave (km/s) = 2.71928 3.73808 3.26862
# Velocity P-wave (km/s) = 4.40814 5.71412 5.10308
#
# Compressibility (1/GPa) = 0.04083037
#
# Stress axis : x y z
#
# Youngs Moduli (GPa) = 139.19985 103.00333 44.04597
#
# Poissons Ratio (x) = 0.10514 -0.07117
# Poissons Ratio (y) = 0.14208 -0.00098
# Poissons Ratio (z) = -0.22492 -0.00228
#
# Static dielectric constant tensor:
#      x y z
#    x 2.041590 0.000000 0.005560 
#    y 0.000000 2.395760 0.000000 
#    z 0.005560 0.000000 2.089020 
# 
# From -- ./inp_files/48015.got.cif
#   From: 2010.05.17/outbox.cif.g08.bks.cpg/sg11_25_cif.got.tgz:48015.got - 2010.06.03 12:22:45.
