data_PCOD9162117
_publ_section_title
;
Structure prediction by ZEFSAII (Michael W. Deem and Ramdas Pophale) SiO2 
 PCOD9162117
Probable space group: P 21/M
;
_chemical_formula_sum "Si O2"
_cell_formula_units_Z 28
_cell_length_a 13.502514
_cell_length_b 20.709402
_cell_length_c 9.029263
_cell_angle_alpha 90.000000
_cell_angle_beta 147.970848
_cell_angle_gamma 90.000000
_cell_volume 1339.052574
_symmetry_space_group_name_H-M "P 21/M"
_symmetry_group_IT_number 11
_symmetry_cell_setting 'monoclinic'
loop_
_space_group_symop_operation_xyz
x,y,z
-x,1/2+y,-z
-x,-y,-z
x,1/2-y,z
loop_
_atom_site_type_symbol
_atom_site_label
_atom_site_fract_x
_atom_site_fract_y
_atom_site_fract_z
Si Si1 0.866217 0.919540 0.308869
Si Si2 0.464576 0.494639 0.195000
Si Si3 0.441014 0.913243 0.393056
Si Si4 0.827704 0.438342 0.551776
Si Si5 0.986721 0.175673 0.925774
Si Si6 0.996988 0.925898 0.808385
Si Si7 0.661437 0.820770 0.848849
O O1 0.924443 0.912061 0.551179
O O2 0.046128 0.923223 0.430774
O O3 0.741663 0.983992 0.128063
O O4 0.724913 0.865396 0.066448
O O5 0.475320 0.455413 0.364763
O O6 0.513658 0.565162 0.322565
O O7 0.615531 0.463197 0.277212
O O8 0.501282 0.844426 0.532463
O O9 0.221394 0.924878 0.101887
O O10 0.927226 0.501018 0.753267
O O11 0.835655 0.372731 0.658656
O O12 0.930340 0.250000 0.887652
O O13 0.058927 0.132473 0.154256
O O14 0.154363 0.179396 0.020597
O O15 0.616761 0.750000 0.847617
#
# Coordination Sequence:
#
# PCOD9162117 Si02
#       7
#     4   4   4   4   4   4   4
#     4  10  23  39  57  92 126 155 197 251 311 369
#     4  10  20  37  58  88 120 157 199 241 300 362
#     4  10  20  34  59  92 119 151 207 255 294 356
#     4  11  21  39  64  87 124 166 200 250 304 365
#     4  10  22  39  61  88 117 159 212 250 297 365
#     4  12  22  37  61  94 126 153 198 264 309 355
#     4   9  20  41  62  81 116 166 207 244 301 374
#
# _framework density 20.910305999999999
#
# number of rings (size 3 to 8) (size 9 to 14) (size 15 to 20)
#    0.000    1.714    2.857    1.714    2.000    1.714 
#    2.571    0.000    0.000    0.000    0.000    0.000 
#    0.000    0.000    0.000    0.000    0.000    0.000 
#
# Total GULP energy -156057.600822 kJ/mol
# GULP energy per Si atom -5573.485744 kJ/mol
# Density = 2.086271 g / cm^3
# Si number density = 20.910306 Si / 1000 Ang^3
#
#
#
# Elastic Constant Matrix: (Units=GPa)
#
#
# Indices 1 2 3 4 5 6 
#
# 1 46.4263 1.3180 4.0786 0.0000 -8.4808 0.0000
# 2 1.3180 134.4171 26.3852 0.0000 -15.8383 0.0000
# 3 4.0786 26.3852 95.1899 0.0000 -16.7866 0.0000
# 4 0.0000 0.0000 0.0000 21.3385 0.0000 -2.3242
# 5 -8.4808 -15.8383 -16.7866 0.0000 34.7910 0.0000
# 6 0.0000 0.0000 0.0000 -2.3242 0.0000 22.2649
#
#
#
# Elastic Compliance Matrix: (Units=1/GPa)
#
#
# Indices 1 2 3 4 5 6 
#
# 1 0.022570 0.000465 -0.000097 0.000000 0.005667 0.000000
# 2 0.000465 0.008128 -0.001749 0.000000 0.002970 0.000000
# 3 -0.000097 -0.001749 0.011859 0.000000 0.004902 0.000000
# 4 0.000000 0.000000 0.000000 0.047403 0.000000 0.004948
# 5 0.005667 0.002970 0.004902 0.000000 0.033842 0.000000
# 6 0.000000 0.000000 0.000000 0.004948 0.000000 0.045430
#
#
# Mechanical properties :
#
#
# Convention : Reuss Voigt Hill
#
# Bulk Modulus (GPa) = 25.12820 37.73298 31.43059
# Shear Modulus (GPa) = 26.98939 31.96232 29.47585
#
# Velocity S-wave (km/s) = 3.59656 3.91390 3.75858
# Velocity P-wave (km/s) = 5.41204 6.20557 5.82234
#
# Compressibility (1/GPa) = 0.03979593
#
# Stress axis : x y z
#
# Youngs Moduli (GPa) = 44.30664 123.02757 84.32575
#
# Poissons Ratio (x) = -0.05726 0.00815
# Poissons Ratio (y) = -0.02062 0.14751
# Poissons Ratio (z) = 0.00428 0.21521
#
# Static dielectric constant tensor:
#      x y z
#    x 1.831200 0.000000 0.000560 
#    y 0.000000 1.871070 0.000000 
#    z 0.000560 0.000000 1.746930 
# 
# From -- ./inp_files/23196.got.cif
#   From: 2010.05.17/outbox.cif.g08.bks.cpg/sg11_12_cif.got.tgz:23196.got - 2010.06.03 12:22:45.
