data_PCOD9162059
_publ_section_title
;
Structure prediction by ZEFSAII (Michael W. Deem and Ramdas Pophale) SiO2 
 PCOD9162059
Probable space group: P 21/M
;
_chemical_formula_sum "Si O2"
_cell_formula_units_Z 32
_cell_length_a 14.336765
_cell_length_b 9.317876
_cell_length_c 12.082855
_cell_angle_alpha 90.000000
_cell_angle_beta 81.431081
_cell_angle_gamma 90.000000
_cell_volume 1596.108905
_symmetry_space_group_name_H-M "P 21/M"
_symmetry_group_IT_number 11
_symmetry_cell_setting 'monoclinic'
loop_
_space_group_symop_operation_xyz
x,y,z
-x,1/2+y,-z
-x,-y,-z
x,1/2-y,z
loop_
_atom_site_type_symbol
_atom_site_label
_atom_site_fract_x
_atom_site_fract_y
_atom_site_fract_z
Si Si1 0.044759 0.912457 0.659346
Si Si2 0.140237 0.090572 0.462243
Si Si3 0.952513 0.577053 0.904565
Si Si4 0.427183 0.579936 0.151019
Si Si5 0.697695 0.091217 0.620270
Si Si6 0.618690 0.423865 0.165957
Si Si7 0.417371 0.914899 0.574629
Si Si8 0.731048 0.576713 0.969060
O O1 0.080069 0.750000 0.667767
O O2 0.953278 0.907511 0.595813
O O3 0.007583 0.967950 0.783333
O O4 0.119229 0.002895 0.576979
O O5 0.166819 0.250000 0.488784
O O6 0.222241 0.023275 0.374359
O O7 0.961654 0.750000 0.912161
O O8 0.840093 0.547714 0.919255
O O9 0.000000 0.500000 0.000000
O O10 0.438549 0.750000 0.119618
O O11 0.391742 0.574599 0.284579
O O12 0.523676 0.490148 0.127569
O O13 0.342938 0.503670 0.098690
O O14 0.736959 0.250000 0.634491
O O15 0.666852 0.080155 0.498710
O O16 0.623232 0.250000 0.152073
O O17 0.611867 0.460247 0.297390
O O18 0.704991 0.504801 0.091584
O O19 0.449043 0.750000 0.579563
O O20 0.500000 0.000000 0.500000
O O21 0.716400 0.750000 0.971621
#
# Coordination Sequence:
#
# PCOD9162059 Si02
#       8
#     4   4   4   4   4   4   4   4
#     4   9  19  38  59  81 115 151 185 235 296 346
#     4  10  20  34  57  88 116 148 192 237 283 344
#     4  10  23  42  64  87 116 155 196 245 299 353
#     4  11  22  38  62  89 121 158 199 247 297 350
#     4  10  21  36  56  85 120 155 190 234 291 345
#     4  11  23  39  61  88 120 160 203 245 294 350
#     4  10  21  38  58  81 113 152 192 234 281 338
#     4  11  24  42  62  87 120 155 198 248 298 353
#
# _framework density 20.048759
#
# number of rings (size 3 to 8) (size 9 to 14) (size 15 to 20)
#    0.000    1.750    1.250    2.625    0.000    6.000 
#    0.000    3.750    0.000    0.000    0.000    0.000 
#    0.000    0.000    0.000    0.000    0.000    0.000 
#
# Total GULP energy -178621.215609 kJ/mol
# GULP energy per Si atom -5581.912988 kJ/mol
# Density = 2.000313 g / cm^3
# Si number density = 20.048759 Si / 1000 Ang^3
#
#
#
# Elastic Constant Matrix: (Units=GPa)
#
#
# Indices 1 2 3 4 5 6 
#
# 1 36.3800 23.4727 -0.4727 0.0000 -13.6314 0.0000
# 2 23.4727 70.5625 16.8875 0.0000 -9.6913 0.0000
# 3 -0.4727 16.8875 111.3969 0.0000 -7.6056 0.0000
# 4 0.0000 0.0000 0.0000 27.5707 0.0000 -2.7098
# 5 -13.6314 -9.6913 -7.6056 0.0000 22.9635 0.0000
# 6 0.0000 0.0000 0.0000 -2.7098 0.0000 29.3988
#
#
#
# Elastic Compliance Matrix: (Units=1/GPa)
#
#
# Indices 1 2 3 4 5 6 
#
# 1 0.043741 -0.012393 0.003561 0.000000 0.021915 0.000000
# 2 -0.012393 0.018954 -0.002949 0.000000 -0.000334 0.000000
# 3 0.003561 -0.002949 0.009718 0.000000 0.004088 0.000000
# 4 0.000000 0.000000 0.000000 0.036602 0.000000 0.003374
# 5 0.021915 -0.000334 0.004088 0.000000 0.057769 0.000000
# 6 0.000000 0.000000 0.000000 0.003374 0.000000 0.034326
#
#
# Mechanical properties :
#
#
# Convention : Reuss Voigt Hill
#
# Bulk Modulus (GPa) = 20.47029 33.12381 26.79705
# Shear Modulus (GPa) = 20.75061 27.88340 24.31700
#
# Velocity S-wave (km/s) = 3.22064 3.73336 3.48644
# Velocity P-wave (km/s) = 4.90535 5.92802 5.44077
#
# Compressibility (1/GPa) = 0.04885128
#
# Stress axis : x y z
#
# Youngs Moduli (GPa) = 22.86170 52.75871 102.90032
#
# Poissons Ratio (x) = 0.65384 -0.36638
# Poissons Ratio (y) = 0.28332 0.30343
# Poissons Ratio (z) = -0.08140 0.15558
#
# Static dielectric constant tensor:
#      x y z
#    x 1.711250 0.000000 -0.006020 
#    y 0.000000 1.700420 0.000000 
#    z -0.006020 0.000000 1.751700 
# 
# From -- ./inp_files/38168.got.cif
#   From: 2010.05.17/outbox.cif.g08.bks.cpg/sg11_20_cif.got.tgz:38168.got - 2010.06.03 12:22:45.
