data_PCOD9162573
_publ_section_title
;
Structure prediction by ZEFSAII (Michael W. Deem and Ramdas Pophale) SiO2 
 PCOD9162573
Probable space group: P 21/M
;
_chemical_formula_sum "Si O2"
_cell_formula_units_Z 32
_cell_length_a 27.134645
_cell_length_b 12.906974
_cell_length_c 10.065746
_cell_angle_alpha 90.000000
_cell_angle_beta 29.015815
_cell_angle_gamma 90.000000
_cell_volume 1709.944311
_symmetry_space_group_name_H-M "P 21/M"
_symmetry_group_IT_number 11
_symmetry_cell_setting 'monoclinic'
loop_
_space_group_symop_operation_xyz
x,y,z
-x,1/2+y,-z
-x,-y,-z
x,1/2-y,z
loop_
_atom_site_type_symbol
_atom_site_label
_atom_site_fract_x
_atom_site_fract_y
_atom_site_fract_z
Si Si1 0.186540 0.867461 0.048950
Si Si2 0.827282 0.476871 0.650566
Si Si3 0.642366 0.528522 0.444746
Si Si4 0.468191 0.131371 0.841193
Si Si5 0.355763 0.129159 0.843002
Si Si6 0.887560 0.036454 0.222696
Si Si7 0.725405 0.630367 0.512961
Si Si8 0.013799 0.866557 0.249144
O O1 0.221189 0.750000 0.942721
O O2 0.079167 0.880582 0.228034
O O3 0.176092 0.889966 0.229196
O O4 0.264969 0.951130 0.807774
O O5 0.833890 0.432051 0.486586
O O6 0.925700 0.549189 0.444243
O O7 0.732032 0.553093 0.896840
O O8 0.547025 0.455040 0.700712
O O9 0.620847 0.594951 0.362533
O O10 0.675588 0.597580 0.490753
O O11 0.503093 0.250000 0.783100
O O12 0.447316 0.119561 0.732706
O O13 0.361594 0.119527 0.169681
O O14 0.323904 0.250000 0.921043
O O15 0.819993 0.943235 0.323490
O O16 0.908003 0.117889 0.057798
O O17 0.000000 0.000000 0.000000
O O18 0.757592 0.750000 0.433924
O O19 0.971728 0.750000 0.344275
#
# Coordination Sequence:
#
# PCOD9162573 Si02
#       8
#     4   4   4   4   4   4   4   4
#     4  10  21  36  56  80 114 150 187 235 289 348
#     4  10  20  35  59  81 114 146 192 237 286 338
#     4  11  21  37  58  84 118 151 192 238 292 337
#     4  10  21  37  60  84 112 152 195 237 288 343
#     4  10  20  35  57  86 113 148 193 238 287 341
#     4  10  21  37  58  85 114 148 187 234 287 339
#     4  11  22  39  61  87 117 150 194 241 284 339
#     4  10  20  36  57  81 111 149 188 230 286 349
#
# _framework density 18.71406
#
# number of rings (size 3 to 8) (size 9 to 14) (size 15 to 20)
#    0.000    1.750    2.500    2.250    0.000    2.500 
#    0.000    1.875    0.000    1.500    0.000    0.000 
#    0.000    0.000    0.000    0.000    0.000    0.000 
#
# Total GULP energy -178565.006207 kJ/mol
# GULP energy per Si atom -5580.156444 kJ/mol
# Density = 1.867147 g / cm^3
# Si number density = 18.714060 Si / 1000 Ang^3
#
#
#
# Elastic Constant Matrix: (Units=GPa)
#
#
# Indices 1 2 3 4 5 6 
#
# 1 71.1034 4.0863 3.7981 0.0000 13.6342 0.0000
# 2 4.0863 18.9240 -2.5938 0.0000 -4.0190 0.0000
# 3 3.7981 -2.5938 28.7881 0.0000 -0.5577 0.0000
# 4 0.0000 0.0000 0.0000 8.1877 0.0000 16.0893
# 5 13.6342 -4.0190 -0.5577 0.0000 26.7574 0.0000
# 6 0.0000 0.0000 0.0000 16.0893 0.0000 8.2069
#
#
#
# Elastic Compliance Matrix: (Units=1/GPa)
#
#
# Indices 1 2 3 4 5 6 
#
# 1 0.016332 -0.005887 -0.002865 0.000000 -0.009266 0.000000
# 2 -0.005887 0.057459 0.006182 0.000000 0.011759 0.000000
# 3 -0.002865 0.006182 0.035732 0.000000 0.003133 0.000000
# 4 0.000000 0.000000 0.000000 -0.042817 0.000000 0.083942
# 5 -0.009266 0.011759 0.003133 0.000000 0.043926 0.000000
# 6 0.000000 0.000000 0.000000 0.083942 0.000000 -0.042717
#
#
# Mechanical properties :
#
#
# Convention : Reuss Voigt Hill
#
# Bulk Modulus (GPa) = 9.58014 14.37740 11.97877
# Shear Modulus (GPa) = 46.36106 16.19872 31.27989
#
# Velocity S-wave (km/s) = 4.98269 2.94528 4.09279
# Velocity P-wave (km/s) = 6.18330 4.38926 5.36185
#
# Compressibility (1/GPa) = 0.10438265
#
# Stress axis : x y z
#
# Youngs Moduli (GPa) = 61.22897 17.40377 27.98596
#
# Poissons Ratio (x) = 0.10246 0.08017
# Poissons Ratio (y) = 0.36046 -0.17300
# Poissons Ratio (z) = 0.17540 -0.10758
#
# Static dielectric constant tensor:
#      x y z
#    x 1.656900 0.000000 0.016550 
#    y 0.000000 1.614110 0.000000 
#    z 0.016550 0.000000 1.644290 
# 
# From -- ./inp_files/27784.got.cif
#   From: 2010.05.17/outbox.cif.g08.bks.cpg/sg11_14_cif.got.tgz:27784.got - 2010.06.03 12:22:45.
