data_PCOD9162375
_publ_section_title
;
Structure prediction by ZEFSAII (Michael W. Deem and Ramdas Pophale) SiO2 
 PCOD9162375
Probable space group: P 21/M
;
_chemical_formula_sum "Si O2"
_cell_formula_units_Z 32
_cell_length_a 20.075955
_cell_length_b 8.563169
_cell_length_c 11.708615
_cell_angle_alpha 90.000000
_cell_angle_beta 56.785356
_cell_angle_gamma 90.000000
_cell_volume 1684.018074
_symmetry_space_group_name_H-M "P 21/M"
_symmetry_group_IT_number 11
_symmetry_cell_setting 'monoclinic'
loop_
_space_group_symop_operation_xyz
x,y,z
-x,1/2+y,-z
-x,-y,-z
x,1/2-y,z
loop_
_atom_site_type_symbol
_atom_site_label
_atom_site_fract_x
_atom_site_fract_y
_atom_site_fract_z
Si Si1 0.115884 0.062210 0.822195
Si Si2 0.668479 0.560997 0.111470
Si Si3 0.416143 0.436973 0.037557
Si Si4 0.040027 0.438682 0.133470
Si Si5 0.174734 0.438987 0.172335
Si Si6 0.739863 0.064618 0.692493
Si Si7 0.410263 0.060779 0.579414
Si Si8 0.272806 0.061231 0.547948
O O1 0.115942 0.250000 0.824061
O O2 0.202951 0.011665 0.700634
O O3 0.088743 0.010608 0.973908
O O4 0.048037 0.005240 0.798759
O O5 0.673431 0.750000 0.113642
O O6 0.638894 0.507112 0.262264
O O7 0.604173 0.520885 0.074384
O O8 0.753856 0.509978 0.980981
O O9 0.413986 0.250000 0.048433
O O10 0.344714 0.505456 0.179697
O O11 0.500000 0.500000 0.000000
O O12 0.035791 0.250000 0.136281
O O13 0.091103 0.486569 0.195387
O O14 0.177478 0.250000 0.174203
O O15 0.195390 0.501938 0.277797
O O16 0.741900 0.250000 0.690409
O O17 0.747208 0.001924 0.557751
O O18 0.412741 0.250000 0.578669
O O19 0.358422 0.012103 0.517911
O O20 0.500000 0.000000 0.500000
O O21 0.272770 0.250000 0.543361
#
# Coordination Sequence:
#
# PCOD9162375 Si02
#       8
#     4   4   4   4   4   4   4   4
#     4   9  18  33  55  84 114 146 181 218 269 329
#     4   8  16  32  53  75 101 133 171 214 262 316
#     4  10  20  35  56  80 106 138 178 224 273 323
#     4   9  17  31  56  87 115 141 177 224 275 328
#     4   9  17  34  58  80 105 141 181 223 272 326
#     4  11  23  37  54  78 107 143 186 231 277 323
#     4  10  21  36  54  78 105 137 176 219 268 321
#     4  10  21  38  57  76 107 149 186 220 267 331
#
# _framework density 19.002171000000001
#
# number of rings (size 3 to 8) (size 9 to 14) (size 15 to 20)
#    0.000    2.500    0.000    3.000    1.750    4.500 
#    0.000    3.125    0.000    4.500    0.000    0.000 
#    0.000    0.000    0.000    0.000    0.000    0.000 
#
# Total GULP energy -178528.057983 kJ/mol
# GULP energy per Si atom -5579.001812 kJ/mol
# Density = 1.895892 g / cm^3
# Si number density = 19.002171 Si / 1000 Ang^3
#
#
#
# Elastic Constant Matrix: (Units=GPa)
#
#
# Indices 1 2 3 4 5 6 
#
# 1 140.1521 25.0361 29.0150 0.0000 -5.7074 0.0000
# 2 25.0361 22.6730 12.6231 0.0000 0.3717 0.0000
# 3 29.0150 12.6231 48.7421 0.0000 7.3103 0.0000
# 4 0.0000 0.0000 0.0000 14.6354 0.0000 -2.9389
# 5 -5.7074 0.3717 7.3103 0.0000 20.0081 0.0000
# 6 0.0000 0.0000 0.0000 -2.9389 0.0000 28.4706
#
#
#
# Elastic Compliance Matrix: (Units=1/GPa)
#
#
# Indices 1 2 3 4 5 6 
#
# 1 0.009705 -0.008412 -0.004271 0.000000 0.004485 0.000000
# 2 -0.008412 0.059154 -0.010355 0.000000 0.000285 0.000000
# 3 -0.004271 -0.010355 0.027395 0.000000 -0.011035 0.000000
# 4 0.000000 0.000000 0.000000 0.069774 0.000000 0.007202
# 5 0.004485 0.000285 -0.011035 0.000000 0.055286 0.000000
# 6 0.000000 0.000000 0.000000 0.007202 0.000000 0.035867
#
#
# Mechanical properties :
#
#
# Convention : Reuss Voigt Hill
#
# Bulk Modulus (GPa) = 19.92884 38.32396 29.12640
# Shear Modulus (GPa) = 15.62581 22.28235 18.95408
#
# Velocity S-wave (km/s) = 2.87072 3.42807 3.16170
# Velocity P-wave (km/s) = 4.63664 5.99006 5.35627
#
# Compressibility (1/GPa) = 0.05017854
#
# Stress axis : x y z
#
# Youngs Moduli (GPa) = 103.04380 16.90494 36.50238
#
# Poissons Ratio (x) = 0.14220 0.15591
# Poissons Ratio (y) = 0.86677 0.37799
# Poissons Ratio (z) = 0.44012 0.17505
#
# Static dielectric constant tensor:
#      x y z
#    x 1.662990 0.000000 0.011530 
#    y 0.000000 1.647060 0.000000 
#    z 0.011530 0.000000 1.651780 
# 
# From -- ./inp_files/42753.got.cif
#   From: 2010.05.17/outbox.cif.g08.bks.cpg/sg11_22_cif.got.tgz:42753.got - 2010.06.03 12:22:45.
