data_PCOD9162669
_publ_section_title
;
Structure prediction by ZEFSAII (Michael W. Deem and Ramdas Pophale) SiO2 
 PCOD9162669
Probable space group: P 21/M
;
_chemical_formula_sum "Si O2"
_cell_formula_units_Z 24
_cell_length_a 14.328539
_cell_length_b 8.320237
_cell_length_c 15.228699
_cell_angle_alpha 90.000000
_cell_angle_beta 140.827066
_cell_angle_gamma 90.000000
_cell_volume 1146.795435
_symmetry_space_group_name_H-M "P 21/M"
_symmetry_group_IT_number 11
_symmetry_cell_setting 'monoclinic'
loop_
_space_group_symop_operation_xyz
x,y,z
-x,1/2+y,-z
-x,-y,-z
x,1/2-y,z
loop_
_atom_site_type_symbol
_atom_site_label
_atom_site_fract_x
_atom_site_fract_y
_atom_site_fract_z
Si Si1 0.865167 0.553911 0.272779
Si Si2 0.142455 0.060235 0.208293
Si Si3 0.200117 0.939258 0.064736
Si Si4 0.300681 0.438678 0.682115
Si Si5 0.177549 0.560284 0.421769
Si Si6 0.389055 0.061796 0.047857
O O1 0.868326 0.750000 0.276533
O O2 0.823166 0.499598 0.339976
O O3 0.020648 0.499162 0.346701
O O4 0.732022 0.506059 0.111176
O O5 0.146834 0.250000 0.194204
O O6 0.216362 0.972120 0.179987
O O7 0.207768 0.021501 0.350898
O O8 0.968607 0.011410 0.082212
O O9 0.216754 0.750000 0.058610
O O10 0.312471 0.035426 0.086271
O O11 0.278002 0.250000 0.650561
O O12 0.292388 0.526288 0.583006
O O13 0.458453 0.466735 0.842208
O O14 0.164958 0.750000 0.396970
O O15 0.419041 0.250000 0.055173
#
# Coordination Sequence:
#
# PCOD9162669 Si02
#       6
#     4   4   4   4   4   4
#     4   9  20  37  60  85 114 151 198 244 285 335
#     4  10  20  35  58  88 117 149 189 236 286 340
#     4  10  20  35  58  88 117 149 189 236 286 340
#     4  11  23  39  56  83 120 157 195 240 288 343
#     4  11  21  38  60  86 117 154 194 239 290 342
#     4  11  21  38  60  86 117 154 194 239 290 342
#
# _framework density 20.927883999999999
#
# number of rings (size 3 to 8) (size 9 to 14) (size 15 to 20)
#    0.000    1.667    1.667    3.500    0.000    1.333 
#    0.000    5.833    0.000    0.000    0.000    0.000 
#    0.000    0.000    0.000    0.000    0.000    0.000 
#
# Total GULP energy -134164.338548 kJ/mol
# GULP energy per Si atom -5590.180773 kJ/mol
# Density = 2.088025 g / cm^3
# Si number density = 20.927884 Si / 1000 Ang^3
#
#
#
# Elastic Constant Matrix: (Units=GPa)
#
#
# Indices 1 2 3 4 5 6 
#
# 1 47.7409 -0.7179 -3.8992 0.0000 -16.5299 0.0000
# 2 -0.7179 22.7841 -2.3767 0.0000 -1.1536 0.0000
# 3 -3.8992 -2.3767 56.5765 0.0000 -11.9691 0.0000
# 4 0.0000 0.0000 0.0000 23.1846 0.0000 1.0012
# 5 -16.5299 -1.1536 -11.9691 0.0000 30.4079 0.0000
# 6 0.0000 0.0000 0.0000 1.0012 0.0000 19.0488
#
#
#
# Elastic Compliance Matrix: (Units=1/GPa)
#
#
# Indices 1 2 3 4 5 6 
#
# 1 0.027393 0.002320 0.005623 0.000000 0.017192 0.000000
# 2 0.002320 0.044472 0.002893 0.000000 0.004087 0.000000
# 3 0.005623 0.002893 0.020567 0.000000 0.011262 0.000000
# 4 0.000000 0.000000 0.000000 0.043230 0.000000 -0.002272
# 5 0.017192 0.004087 0.011262 0.000000 0.046820 0.000000
# 6 0.000000 0.000000 0.000000 -0.002272 0.000000 0.052616
#
#
# Mechanical properties :
#
#
# Convention : Reuss Voigt Hill
#
# Bulk Modulus (GPa) = 8.76402 12.56820 10.66611
# Shear Modulus (GPa) = 19.88374 23.46794 21.67584
#
# Velocity S-wave (km/s) = 3.08573 3.35232 3.22178
# Velocity P-wave (km/s) = 4.11004 4.58286 4.35287
#
# Compressibility (1/GPa) = 0.11410287
#
# Stress axis : x y z
#
# Youngs Moduli (GPa) = 36.50539 22.48598 48.62238
#
# Poissons Ratio (x) = -0.05217 -0.27338
# Poissons Ratio (y) = -0.08470 -0.14065
# Poissons Ratio (z) = -0.20525 -0.06505
#
# Static dielectric constant tensor:
#      x y z
#    x 1.742780 0.000000 0.000930 
#    y 0.000000 1.699230 0.000000 
#    z 0.000930 0.000000 1.745710 
# 
# From -- ./inp_files/51503.got.cif
#   From: 2010.05.17/outbox.cif.g08.bks.cpg/sg11_26_cif.got.tgz:51503.got - 2010.06.03 12:22:45.
