data_PCOD9162393
_publ_section_title
;
Structure prediction by ZEFSAII (Michael W. Deem and Ramdas Pophale) SiO2 
 PCOD9162393
Probable space group: P 21/M
;
_chemical_formula_sum "Si O2"
_cell_formula_units_Z 20
_cell_length_a 14.103644
_cell_length_b 10.454950
_cell_length_c 6.768956
_cell_angle_alpha 90.000000
_cell_angle_beta 126.757652
_cell_angle_gamma 90.000000
_cell_volume 799.653385
_symmetry_space_group_name_H-M "P 21/M"
_symmetry_group_IT_number 11
_symmetry_cell_setting 'monoclinic'
loop_
_space_group_symop_operation_xyz
x,y,z
-x,1/2+y,-z
-x,-y,-z
x,1/2-y,z
loop_
_atom_site_type_symbol
_atom_site_label
_atom_site_fract_x
_atom_site_fract_y
_atom_site_fract_z
Si Si1 0.962504 0.390197 0.213115
Si Si2 0.212929 0.889192 0.688685
Si Si3 0.449648 0.390866 0.641524
Si Si4 0.608285 0.895260 0.966365
Si Si5 0.188789 0.471860 0.289044
O O1 0.923339 0.250000 0.092095
O O2 0.919079 0.393854 0.384993
O O3 0.099789 0.399531 0.328380
O O4 0.888916 0.493493 0.996698
O O5 0.262992 0.750000 0.805235
O O6 0.217623 0.905302 0.460204
O O7 0.284141 0.005662 0.872584
O O8 0.495784 0.250000 0.634008
O O9 0.519716 0.526177 0.714055
O O10 0.312942 0.405428 0.403708
O O11 0.442508 0.383433 0.874098
O O12 0.636407 0.750000 0.940411
#
# Coordination Sequence:
#
# PCOD9162393 Si02
#       5
#     4   4   4   4   4
#     4  10  21  36  54  81 113 145 184 226 269 323
#     4  10  20  36  58  82 111 146 182 223 272 324
#     4   9  17  31  54  81 110 145 182 224 274 325
#     4   9  18  32  53  82 112 142 182 228 272 325
#     4  10  20  35  56  81 110 146 183 224 271 323
#
# _framework density 25.010838
#
# number of rings (size 3 to 8) (size 9 to 14) (size 15 to 20)
#    0.000    2.400    0.000    2.400    0.000    6.400 
#    0.000    7.000    0.000    0.000    0.000    0.000 
#    0.000    0.000    0.000    0.000    0.000    0.000 
#
# Total GULP energy -111602.835406 kJ/mol
# GULP energy per Si atom -5580.141770 kJ/mol
# Density = 2.495391 g / cm^3
# Si number density = 25.010838 Si / 1000 Ang^3
#
#
#
# Elastic Constant Matrix: (Units=GPa)
#
#
# Indices 1 2 3 4 5 6 
#
# 1 61.0448 23.9931 -5.3202 0.0000 6.5874 0.0000
# 2 23.9931 200.8691 12.0960 0.0000 21.4552 0.0000
# 3 -5.3202 12.0960 68.6239 0.0000 13.8615 0.0000
# 4 0.0000 0.0000 0.0000 16.6274 0.0000 2.7862
# 5 6.5874 21.4552 13.8615 0.0000 34.9246 0.0000
# 6 0.0000 0.0000 0.0000 2.7862 0.0000 18.9377
#
#
#
# Elastic Compliance Matrix: (Units=1/GPa)
#
#
# Indices 1 2 3 4 5 6 
#
# 1 0.017672 -0.001923 0.002331 0.000000 -0.003077 0.000000
# 2 -0.001923 0.005543 -0.000556 0.000000 -0.002822 0.000000
# 3 0.002331 -0.000556 0.016167 0.000000 -0.006515 0.000000
# 4 0.000000 0.000000 0.000000 0.061662 0.000000 -0.009072
# 5 -0.003077 -0.002822 -0.006515 0.000000 0.033533 0.000000
# 6 0.000000 0.000000 0.000000 -0.009072 0.000000 0.054139
#
#
# Mechanical properties :
#
#
# Convention : Reuss Voigt Hill
#
# Bulk Modulus (GPa) = 25.58484 43.56397 34.57441
# Shear Modulus (GPa) = 24.74751 34.08253 29.41502
#
# Velocity S-wave (km/s) = 3.14900 3.69550 3.43314
# Velocity P-wave (km/s) = 4.84493 5.97200 5.43774
#
# Compressibility (1/GPa) = 0.03908565
#
# Stress axis : x y z
#
# Youngs Moduli (GPa) = 56.58599 180.41095 61.85533
#
# Poissons Ratio (x) = 0.34685 -0.14415
# Poissons Ratio (y) = 0.10879 0.03440
# Poissons Ratio (z) = -0.13187 0.10032
#
# Static dielectric constant tensor:
#      x y z
#    x 2.003150 0.000000 -0.030430 
#    y 0.000000 2.036550 0.000000 
#    z -0.030430 0.000000 2.004020 
# 
# From -- ./inp_files/23854.got.cif
#   From: 2010.05.17/outbox.cif.g08.bks.cpg/sg11_12_cif.got.tgz:23854.got - 2010.06.03 12:22:45.
