data_PCOD9162066
_publ_section_title
;
Structure prediction by ZEFSAII (Michael W. Deem and Ramdas Pophale) SiO2 
 PCOD9162066
Probable space group: P 21/M
;
_chemical_formula_sum "Si O2"
_cell_formula_units_Z 32
_cell_length_a 14.255441
_cell_length_b 11.386364
_cell_length_c 11.411224
_cell_angle_alpha 90.000000
_cell_angle_beta 113.272954
_cell_angle_gamma 90.000000
_cell_volume 1701.531486
_symmetry_space_group_name_H-M "P 21/M"
_symmetry_group_IT_number 11
_symmetry_cell_setting 'monoclinic'
loop_
_space_group_symop_operation_xyz
x,y,z
-x,1/2+y,-z
-x,-y,-z
x,1/2-y,z
loop_
_atom_site_type_symbol
_atom_site_label
_atom_site_fract_x
_atom_site_fract_y
_atom_site_fract_z
Si Si1 0.733106 0.610954 0.038959
Si Si2 0.447776 0.381022 0.427858
Si Si3 0.519940 0.885389 0.833536
Si Si4 0.046902 0.949852 0.341806
Si Si5 0.306192 0.492312 0.732531
Si Si6 0.044171 0.111376 0.947062
Si Si7 0.109177 0.874033 0.624170
Si Si8 0.239024 0.116142 0.453528
O O1 0.727281 0.750000 0.020694
O O2 0.732293 0.581505 0.175723
O O3 0.838009 0.578269 0.025800
O O4 0.625907 0.563863 0.935918
O O5 0.500000 0.500000 0.500000
O O6 0.482112 0.250000 0.490140
O O7 0.466022 0.379568 0.298982
O O8 0.328910 0.389495 0.402947
O O9 0.504216 0.750000 0.867980
O O10 0.421211 0.964695 0.807935
O O11 0.074221 0.876835 0.471584
O O12 0.016732 0.888238 0.206745
O O13 0.144611 0.034084 0.374507
O O14 0.950492 0.026227 0.336314
O O15 0.229313 0.602136 0.686631
O O16 0.288225 0.424232 0.601693
O O17 0.041024 0.250000 0.990235
O O18 0.000000 0.000000 0.000000
O O19 0.083028 0.750000 0.665525
O O20 0.203591 0.250000 0.447890
#
# Coordination Sequence:
#
# PCOD9162066 Si02
#       8
#     4   4   4   4   4   4   4   4
#     4  10  22  40  61  84 115 158 203 248 298 361
#     4  10  20  38  59  85 117 154 198 245 297 353
#     4  10  21  36  58  84 118 161 201 245 300 356
#     4  10  21  38  58  87 120 153 198 248 303 359
#     4  11  19  36  58  86 121 149 198 247 301 352
#     4  11  25  45  66  89 121 163 210 255 307 366
#     4  10  20  34  57  88 121 154 188 241 307 364
#     4  10  21  34  59  90 117 155 202 244 295 364
#
# _framework density 18.806585999999999
#
# number of rings (size 3 to 8) (size 9 to 14) (size 15 to 20)
#    0.000    1.750    2.500    1.875    1.750    1.000 
#    0.000    0.625    0.000    2.250    0.000    0.000 
#    0.000    0.000    0.000    0.000    0.000    0.000 
#
# Total GULP energy -178307.827101 kJ/mol
# GULP energy per Si atom -5572.119597 kJ/mol
# Density = 1.876378 g / cm^3
# Si number density = 18.806586 Si / 1000 Ang^3
#
#
#
# Elastic Constant Matrix: (Units=GPa)
#
#
# Indices 1 2 3 4 5 6 
#
# 1 124.4591 41.8877 22.8134 0.0000 10.9465 0.0000
# 2 41.8877 77.3271 7.3779 0.0000 7.6181 0.0000
# 3 22.8134 7.3779 39.2440 0.0000 12.1564 0.0000
# 4 0.0000 0.0000 0.0000 25.1717 0.0000 72.8999
# 5 10.9465 7.6181 12.1564 0.0000 32.7591 0.0000
# 6 0.0000 0.0000 0.0000 72.8999 0.0000 389.0125
#
#
#
# Elastic Compliance Matrix: (Units=1/GPa)
#
#
# Indices 1 2 3 4 5 6 
#
# 1 0.010808 -0.005318 -0.005138 0.000000 -0.000468 0.000000
# 2 -0.005318 0.015957 0.000780 0.000000 -0.002223 0.000000
# 3 -0.005138 0.000780 0.031463 0.000000 -0.010140 0.000000
# 4 0.000000 0.000000 0.000000 0.086878 0.000000 -0.016281
# 5 -0.000468 -0.002223 -0.010140 0.000000 0.034962 0.000000
# 6 0.000000 0.000000 0.000000 -0.016281 0.000000 0.005622
#
#
# Mechanical properties :
#
#
# Convention : Reuss Voigt Hill
#
# Bulk Modulus (GPa) = 25.72269 42.79870 34.26070
# Shear Modulus (GPa) = 22.93587 100.65206 61.79397
#
# Velocity S-wave (km/s) = 3.49602 7.32364 5.73838
# Velocity P-wave (km/s) = 5.47753 9.71190 7.88430
#
# Compressibility (1/GPa) = 0.03887618
#
# Stress axis : x y z
#
# Youngs Moduli (GPa) = 92.52783 62.66661 31.78372
#
# Poissons Ratio (x) = 0.33327 0.16330
# Poissons Ratio (y) = 0.49207 -0.02480
# Poissons Ratio (z) = 0.47540 -0.04889
#
# Static dielectric constant tensor:
#      x y z
#    x 1.650950 0.000000 0.017280 
#    y 0.000000 1.672140 0.000000 
#    z 0.017280 0.000000 1.651530 
# 
# From -- ./inp_files/35119.got.cif
#   From: 2010.05.17/outbox.cif.g08.bks.cpg/sg11_18_cif.got.tgz:35119.got - 2010.06.03 12:22:45.
