data_PCOD9162528
_publ_section_title
;
Structure prediction by ZEFSAII (Michael W. Deem and Ramdas Pophale) SiO2 
 PCOD9162528
Probable space group: P 21/M
;
_chemical_formula_sum "Si O2"
_cell_formula_units_Z 28
_cell_length_a 26.045134
_cell_length_b 9.244560
_cell_length_c 8.002094
_cell_angle_alpha 90.000000
_cell_angle_beta 39.092046
_cell_angle_gamma 90.000000
_cell_volume 1214.922191
_symmetry_space_group_name_H-M "P 21/M"
_symmetry_group_IT_number 11
_symmetry_cell_setting 'monoclinic'
loop_
_space_group_symop_operation_xyz
x,y,z
-x,1/2+y,-z
-x,-y,-z
x,1/2-y,z
loop_
_atom_site_type_symbol
_atom_site_label
_atom_site_fract_x
_atom_site_fract_y
_atom_site_fract_z
Si Si1 0.262651 0.918878 0.597531
Si Si2 0.534236 0.918726 0.250241
Si Si3 0.028951 0.415625 0.687249
Si Si4 0.829823 0.083726 0.521638
Si Si5 0.116686 0.415914 0.104494
Si Si6 0.303759 0.088748 0.975424
Si Si7 0.408302 0.082066 0.367238
O O1 0.274408 0.750000 0.606799
O O2 0.217309 0.930104 0.534298
O O3 0.348345 0.000696 0.392758
O O4 0.199503 0.994936 0.882538
O O5 0.509961 0.750000 0.311687
O O6 0.630587 0.922960 0.039910
O O7 0.500000 0.000000 0.500000
O O8 0.491199 0.999153 0.205554
O O9 0.007678 0.250000 0.782098
O O10 0.089820 0.487226 0.665071
O O11 0.078437 0.416324 0.386113
O O12 0.949307 0.508677 0.848593
O O13 0.851909 0.250000 0.494055
O O14 0.764500 0.029319 0.822691
O O15 0.131977 0.250000 0.016974
O O16 0.266132 0.250000 0.076031
O O17 0.355545 0.079786 0.674429
O O18 0.422229 0.250000 0.287042
#
# Coordination Sequence:
#
# PCOD9162528 Si02
#       7
#     4   4   4   4   4   4   4
#     4  11  24  39  54  78 112 148 185 224 269 322
#     4   9  17  31  53  82 112 141 178 226 275 324
#     4  10  21  38  61  86 111 140 177 222 271 322
#     4  11  24  38  54  79 111 147 186 224 267 322
#     4  10  21  38  61  87 111 139 179 223 269 323
#     4   9  19  35  56  82 110 140 179 225 272 323
#     4  10  20  35  57  84 110 141 183 228 275 326
#
# _framework density 23.046742999999999
#
# number of rings (size 3 to 8) (size 9 to 14) (size 15 to 20)
#    0.000    2.000    0.000    4.286    0.000   11.429 
#    0.000    0.714    0.000    0.000    0.000    0.000 
#    0.000    0.000    0.000    0.000    0.000    0.000 
#
# Total GULP energy -156699.577777 kJ/mol
# GULP energy per Si atom -5596.413492 kJ/mol
# Density = 2.299429 g / cm^3
# Si number density = 23.046743 Si / 1000 Ang^3
#
#
#
# Elastic Constant Matrix: (Units=GPa)
#
#
# Indices 1 2 3 4 5 6 
#
# 1 120.7879 80.6148 12.2842 0.0000 -18.6721 0.0000
# 2 80.6148 169.4929 24.7378 0.0000 -13.5795 0.0000
# 3 12.2842 24.7378 58.8083 0.0000 -2.7857 0.0000
# 4 0.0000 0.0000 0.0000 15.8573 0.0000 -9.0333
# 5 -18.6721 -13.5795 -2.7857 0.0000 37.4166 0.0000
# 6 0.0000 0.0000 0.0000 -9.0333 0.0000 39.5468
#
#
#
# Elastic Compliance Matrix: (Units=1/GPa)
#
#
# Indices 1 2 3 4 5 6 
#
# 1 0.012765 -0.005719 -0.000057 0.000000 0.004290 0.000000
# 2 -0.005719 0.009016 -0.002587 0.000000 0.000225 0.000000
# 3 -0.000057 -0.002587 0.018123 0.000000 0.000382 0.000000
# 4 0.000000 0.000000 0.000000 0.072496 0.000000 0.016560
# 5 0.004290 0.000225 0.000382 0.000000 0.028977 0.000000
# 6 0.000000 0.000000 0.000000 0.016560 0.000000 0.029069
#
#
# Mechanical properties :
#
#
# Convention : Reuss Voigt Hill
#
# Bulk Modulus (GPa) = 43.14807 64.92920 54.03863
# Shear Modulus (GPa) = 25.65428 33.99428 29.82428
#
# Velocity S-wave (km/s) = 3.34000 3.84476 3.60123
# Velocity P-wave (km/s) = 5.79972 6.92413 6.38672
#
# Compressibility (1/GPa) = 0.02317601
#
# Stress axis : x y z
#
# Youngs Moduli (GPa) = 78.33844 110.91601 55.17922
#
# Poissons Ratio (x) = 0.63436 0.00317
# Poissons Ratio (y) = 0.44804 0.14276
# Poissons Ratio (z) = 0.00450 0.28696
#
# Static dielectric constant tensor:
#      x y z
#    x 1.887410 0.000000 0.044700 
#    y 0.000000 1.743070 0.000000 
#    z 0.044700 0.000000 1.883850 
# 
# From -- ./inp_files/28412.got.cif
#   From: 2010.05.17/outbox.cif.g08.bks.cpg/sg11_15_cif.got.tgz:28412.got - 2010.06.03 12:22:45.
