data_PCOD9162705
_publ_section_title
;
Structure prediction by ZEFSAII (Michael W. Deem and Ramdas Pophale) SiO2 
 PCOD9162705
Probable space group: P 21/M
;
_chemical_formula_sum "Si O2"
_cell_formula_units_Z 32
_cell_length_a 12.334633
_cell_length_b 7.972340
_cell_length_c 30.199577
_cell_angle_alpha 90.000000
_cell_angle_beta 31.314647
_cell_angle_gamma 90.000000
_cell_volume 1543.465690
_symmetry_space_group_name_H-M "P 21/M"
_symmetry_group_IT_number 11
_symmetry_cell_setting 'monoclinic'
loop_
_space_group_symop_operation_xyz
x,y,z
-x,1/2+y,-z
-x,-y,-z
x,1/2-y,z
loop_
_atom_site_type_symbol
_atom_site_label
_atom_site_fract_x
_atom_site_fract_y
_atom_site_fract_z
Si Si1 0.873734 0.940099 0.585656
Si Si2 0.139160 0.453694 0.995409
Si Si3 0.122579 0.939456 0.833081
Si Si4 0.388497 0.548120 0.188176
Si Si5 0.512359 0.937751 0.242300
Si Si6 0.319367 0.545140 0.672539
Si Si7 0.229470 0.052633 0.522433
Si Si8 0.920326 0.448135 0.331786
O O1 0.799237 0.750000 0.607232
O O2 0.676641 0.059357 0.658130
O O3 0.000000 0.000000 0.500000
O O4 0.032864 0.957133 0.570649
O O5 0.134092 0.250000 0.998049
O O6 0.049419 0.517359 0.073980
O O7 0.382190 0.506120 0.908445
O O8 0.000000 0.500000 0.000000
O O9 0.054315 0.750000 0.845883
O O10 0.218171 0.015017 0.754389
O O11 0.315001 0.939837 0.799995
O O12 0.376759 0.750000 0.187636
O O13 0.408100 0.507667 0.233191
O O14 0.169181 0.479411 0.247334
O O15 0.600036 0.750000 0.205957
O O16 0.326915 0.750000 0.672955
O O17 0.554210 0.494985 0.575900
O O18 0.171132 0.496602 0.683458
O O19 0.204806 0.250000 0.520753
O O20 0.205530 0.031202 0.583591
O O21 0.882775 0.250000 0.348782
#
# Coordination Sequence:
#
# PCOD9162705 Si02
#       8
#     4   4   4   4   4   4   4   4
#     4  12  24  37  54  81 117 154 195 235 285 346
#     4  10  20  35  59  87 116 149 187 234 289 350
#     4  10  20  37  61  86 115 153 194 238 293 352
#     4  10  21  37  56  83 118 150 184 234 291 342
#     4  11  21  35  56  82 119 154 186 233 289 343
#     4   9  21  39  58  83 114 149 192 242 290 339
#     4  11  21  37  59  83 115 152 191 240 291 342
#     4  11  22  38  60  84 112 151 200 244 282 338
#
# _framework density 20.732562999999999
#
# number of rings (size 3 to 8) (size 9 to 14) (size 15 to 20)
#    0.000    1.500    2.500    3.375    0.000    2.000 
#    0.000    4.375    0.000    0.000    0.000    0.000 
#    0.000    0.000    0.000    0.000    0.000    0.000 
#
# Total GULP energy -178467.738354 kJ/mol
# GULP energy per Si atom -5577.116824 kJ/mol
# Density = 2.068537 g / cm^3
# Si number density = 20.732563 Si / 1000 Ang^3
#
#
#
# Elastic Constant Matrix: (Units=GPa)
#
#
# Indices 1 2 3 4 5 6 
#
# 1 40.6873 9.6401 18.0852 0.0000 6.8930 0.0000
# 2 9.6401 38.1278 0.7670 0.0000 2.5922 0.0000
# 3 18.0852 0.7670 153.2535 0.0000 14.0776 0.0000
# 4 0.0000 0.0000 0.0000 8.6085 0.0000 -0.6247
# 5 6.8930 2.5922 14.0776 0.0000 25.5375 0.0000
# 6 0.0000 0.0000 0.0000 -0.6247 0.0000 20.0831
#
#
#
# Elastic Compliance Matrix: (Units=1/GPa)
#
#
# Indices 1 2 3 4 5 6 
#
# 1 0.028343 -0.006741 -0.002814 0.000000 -0.005415 0.000000
# 2 -0.006741 0.028015 0.000789 0.000000 -0.001459 0.000000
# 3 -0.002814 0.000789 0.007153 0.000000 -0.003264 0.000000
# 4 0.000000 0.000000 0.000000 0.116427 0.000000 0.003621
# 5 -0.005415 -0.001459 -0.003264 0.000000 0.042567 0.000000
# 6 0.000000 0.000000 0.000000 0.003621 0.000000 0.049906
#
#
# Mechanical properties :
#
#
# Convention : Reuss Voigt Hill
#
# Bulk Modulus (GPa) = 21.74850 32.11702 26.93276
# Shear Modulus (GPa) = 16.37897 24.41756 20.39826
#
# Velocity S-wave (km/s) = 2.81376 3.43554 3.14008
# Velocity P-wave (km/s) = 4.59011 5.59124 5.11523
#
# Compressibility (1/GPa) = 0.04598018
#
# Stress axis : x y z
#
# Youngs Moduli (GPa) = 35.28214 35.69468 139.80110
#
# Poissons Ratio (x) = 0.24063 0.39334
# Poissons Ratio (y) = 0.23785 -0.11035
# Poissons Ratio (z) = 0.09927 -0.02818
#
# Static dielectric constant tensor:
#      x y z
#    x 1.738190 0.000000 0.031920 
#    y 0.000000 1.746860 0.000000 
#    z 0.031920 0.000000 1.783940 
# 
# From -- ./inp_files/38304.got.cif
#   From: 2010.05.17/outbox.cif.g08.bks.cpg/sg11_20_cif.got.tgz:38304.got - 2010.06.03 12:22:45.
