data_PCOD9162776
_publ_section_title
;
Structure prediction by ZEFSAII (Michael W. Deem and Ramdas Pophale) SiO2 
 PCOD9162776
Probable space group: P 21/M
;
_chemical_formula_sum "Si O2"
_cell_formula_units_Z 32
_cell_length_a 9.747799
_cell_length_b 15.264866
_cell_length_c 24.705277
_cell_angle_alpha 90.000000
_cell_angle_beta 153.383266
_cell_angle_gamma 90.000000
_cell_volume 1646.974605
_symmetry_space_group_name_H-M "P 21/M"
_symmetry_group_IT_number 11
_symmetry_cell_setting 'monoclinic'
loop_
_space_group_symop_operation_xyz
x,y,z
-x,1/2+y,-z
-x,-y,-z
x,1/2-y,z
loop_
_atom_site_type_symbol
_atom_site_label
_atom_site_fract_x
_atom_site_fract_y
_atom_site_fract_z
Si Si1 0.675800 0.510766 0.917093
Si Si2 0.157798 0.488092 0.647669
Si Si3 0.490195 0.850369 0.063807
Si Si4 0.216164 0.651346 0.311044
Si Si5 0.456830 0.484467 0.637599
Si Si6 0.217332 0.650945 0.424612
Si Si7 0.235532 0.348349 0.298610
Si Si8 0.563050 0.354158 0.081988
O O1 0.400652 0.529265 0.776172
O O2 0.624674 0.420932 0.933411
O O3 0.643035 0.587135 0.951232
O O4 0.000000 0.500000 0.000000
O O5 0.338164 0.472122 0.655960
O O6 0.831427 0.523473 0.506835
O O7 0.048073 0.402692 0.641046
O O8 0.378908 0.750000 0.033406
O O9 0.856485 0.848609 0.194317
O O10 0.435301 0.876014 0.981660
O O11 0.328734 0.750000 0.341822
O O12 0.308377 0.590701 0.295005
O O13 0.336329 0.612721 0.410062
O O14 0.639994 0.576282 0.696985
O O15 0.115371 0.750000 0.377329
O O16 0.496930 0.655312 0.563602
O O17 0.198530 0.250000 0.261447
O O18 0.923570 0.369590 0.220363
O O19 0.492070 0.250000 0.061913
#
# Coordination Sequence:
#
# PCOD9162776 Si02
#       8
#     4   4   4   4   4   4   4   4
#     4  12  26  39  61  87 118 157 196 237 290 346
#     4  10  23  39  54  85 120 157 191 230 293 341
#     4  10  22  42  64  87 116 151 196 246 291 338
#     4  10  20  35  61  91 112 145 192 242 291 337
#     4  10  22  38  59  84 121 154 190 235 284 350
#     4   9  18  35  59  87 114 145 192 241 291 344
#     4   9  19  35  62  87 110 148 194 241 290 340
#     4  10  23  42  62  87 117 152 196 243 288 341
#
# _framework density 19.429563999999999
#
# number of rings (size 3 to 8) (size 9 to 14) (size 15 to 20)
#    0.000    2.000    1.250    1.125    5.250    2.000 
#    0.000    2.500    0.000    0.000    0.000    0.000 
#    0.000    0.000    0.000    0.000    0.000    0.000 
#
# Total GULP energy -178149.456274 kJ/mol
# GULP energy per Si atom -5567.170509 kJ/mol
# Density = 1.938534 g / cm^3
# Si number density = 19.429564 Si / 1000 Ang^3
#
#
#
# Elastic Constant Matrix: (Units=GPa)
#
#
# Indices 1 2 3 4 5 6 
#
# 1 142.2121 60.9883 18.3645 0.0000 1.4007 0.0000
# 2 60.9883 79.4818 33.2260 0.0000 15.3648 0.0000
# 3 18.3645 33.2260 47.5662 0.0000 8.8367 0.0000
# 4 0.0000 0.0000 0.0000 12.5336 0.0000 -4.8343
# 5 1.4007 15.3648 8.8367 0.0000 42.1349 0.0000
# 6 0.0000 0.0000 0.0000 -4.8343 0.0000 46.8552
#
#
#
# Elastic Compliance Matrix: (Units=1/GPa)
#
#
# Indices 1 2 3 4 5 6 
#
# 1 0.010941 -0.009816 0.002118 0.000000 0.002772 0.000000
# 2 -0.009816 0.027262 -0.014013 0.000000 -0.006676 0.000000
# 3 0.002118 -0.014013 0.030236 0.000000 -0.001302 0.000000
# 4 0.000000 0.000000 0.000000 0.083092 0.000000 0.008573
# 5 0.002772 -0.006676 -0.001302 0.000000 0.026349 0.000000
# 6 0.000000 0.000000 0.000000 0.008573 0.000000 0.022227
#
#
# Mechanical properties :
#
#
# Convention : Reuss Voigt Hill
#
# Bulk Modulus (GPa) = 39.97439 54.93530 47.45485
# Shear Modulus (GPa) = 19.85170 30.75017 25.30094
#
# Velocity S-wave (km/s) = 3.19991 3.98257 3.61250
# Velocity P-wave (km/s) = 5.85417 7.03443 6.47126
#
# Compressibility (1/GPa) = 0.02501601
#
# Stress axis : x y z
#
# Youngs Moduli (GPa) = 91.40210 36.68092 33.07330
#
# Poissons Ratio (x) = 0.36007 -0.07004
# Poissons Ratio (y) = 0.89722 0.46346
# Poissons Ratio (z) = -0.19358 0.51401
#
# Static dielectric constant tensor:
#      x y z
#    x 1.666440 0.000000 -0.061100 
#    y 0.000000 1.708630 0.000000 
#    z -0.061100 0.000000 1.816480 
# 
# From -- ./inp_files/68153.got.cif
#   From: 2010.05.17/outbox.cif.g08.bks.cpg/sg11_35_cif.got.tgz:68153.got - 2010.06.03 12:22:45.
