data_PCOD9162484
_publ_section_title
;
Structure prediction by ZEFSAII (Michael W. Deem and Ramdas Pophale) SiO2 
 PCOD9162484
Probable space group: P 21/M
;
_chemical_formula_sum "Si O2"
_cell_formula_units_Z 28
_cell_length_a 10.492566
_cell_length_b 14.269481
_cell_length_c 11.752312
_cell_angle_alpha 90.000000
_cell_angle_beta 36.115485
_cell_angle_gamma 90.000000
_cell_volume 1037.132318
_symmetry_space_group_name_H-M "P 21/M"
_symmetry_group_IT_number 11
_symmetry_cell_setting 'monoclinic'
loop_
_space_group_symop_operation_xyz
x,y,z
-x,1/2+y,-z
-x,-y,-z
x,1/2-y,z
loop_
_atom_site_type_symbol
_atom_site_label
_atom_site_fract_x
_atom_site_fract_y
_atom_site_fract_z
Si Si1 0.855168 0.849304 0.880598
Si Si2 0.771864 0.944980 0.556521
Si Si3 0.235193 0.650771 0.419410
Si Si4 0.126141 0.943450 0.107606
Si Si5 0.535831 0.853240 0.911636
Si Si6 0.319044 0.558621 0.747127
Si Si7 0.571289 0.645960 0.372000
O O1 0.859620 0.750000 0.940283
O O2 0.635876 0.857057 0.964502
O O3 0.046194 0.845656 0.650064
O O4 0.889390 0.947091 0.916576
O O5 0.733807 0.869474 0.681525
O O6 0.548051 0.948019 0.648408
O O7 0.947505 0.924359 0.332581
O O8 0.794309 0.045559 0.604548
O O9 0.223192 0.750000 0.362442
O O10 0.458462 0.650488 0.330002
O O11 0.348894 0.925217 0.015890
O O12 0.161958 0.899086 0.956840
O O13 0.445388 0.750000 0.956035
O O14 0.374484 0.625183 0.601916
O O15 0.290312 0.450760 0.723404
O O16 0.661922 0.750000 0.333444
#
# Coordination Sequence:
#
# PCOD9162484 Si02
#       7
#     4   4   4   4   4   4   4
#     4   9  18  34  55  80 109 138 174 222 268 312
#     4   9  19  35  55  78 107 142 175 215 265 314
#     4   8  15  30  53  78 102 131 170 215 261 309
#     4  10  20  35  57  81 107 140 177 218 266 316
#     4  10  21  36  53  76 109 145 181 220 258 306
#     4   9  19  34  53  80 106 134 176 219 261 313
#     4   9  17  33  54  74 104 141 174 215 266 315
#
# _framework density 26.997522
#
# number of rings (size 3 to 8) (size 9 to 14) (size 15 to 20)
#    0.000    2.857    0.000    0.429    0.000    5.714 
#    0.000   15.000    0.000   19.714    0.000    0.000 
#    0.000    0.000    0.000    0.000    0.000    0.000 
#
# Total GULP energy -156492.244997 kJ/mol
# GULP energy per Si atom -5589.008750 kJ/mol
# Density = 2.693607 g / cm^3
# Si number density = 26.997522 Si / 1000 Ang^3
#
#
#
# Elastic Constant Matrix: (Units=GPa)
#
#
# Indices 1 2 3 4 5 6 
#
# 1 60.9671 6.7180 32.5941 0.0000 10.6063 0.0000
# 2 6.7180 117.1103 13.5849 0.0000 11.7223 0.0000
# 3 32.5941 13.5849 177.8302 0.0000 23.9788 0.0000
# 4 0.0000 0.0000 0.0000 23.8787 0.0000 -0.2001
# 5 10.6063 11.7223 23.9788 0.0000 49.2419 0.0000
# 6 0.0000 0.0000 0.0000 -0.2001 0.0000 19.0030
#
#
#
# Elastic Compliance Matrix: (Units=1/GPa)
#
#
# Indices 1 2 3 4 5 6 
#
# 1 0.018491 -0.000469 -0.003030 0.000000 -0.002395 0.000000
# 2 -0.000469 0.008788 -0.000339 0.000000 -0.001826 0.000000
# 3 -0.003030 -0.000339 0.006535 0.000000 -0.002449 0.000000
# 4 0.000000 0.000000 0.000000 0.041882 0.000000 0.000441
# 5 -0.002395 -0.001826 -0.002449 0.000000 0.022451 0.000000
# 6 0.000000 0.000000 0.000000 0.000441 0.000000 0.052628
#
#
# Mechanical properties :
#
#
# Convention : Reuss Voigt Hill
#
# Bulk Modulus (GPa) = 38.26142 51.30017 44.78080
# Shear Modulus (GPa) = 29.91073 38.62544 34.26809
#
# Velocity S-wave (km/s) = 3.33213 3.78657 3.56660
# Velocity P-wave (km/s) = 5.38583 6.17742 5.79515
#
# Compressibility (1/GPa) = 0.02613598
#
# Stress axis : x y z
#
# Youngs Moduli (GPa) = 54.08099 113.79184 153.02560
#
# Poissons Ratio (x) = 0.05342 0.46371
# Poissons Ratio (y) = 0.02539 0.05189
# Poissons Ratio (z) = 0.16388 0.03859
#
# Static dielectric constant tensor:
#      x y z
#    x 2.139880 0.000000 -0.031950 
#    y 0.000000 2.096990 0.000000 
#    z -0.031950 0.000000 2.136530 
# 
# From -- ./inp_files/52455.got.cif
#   From: 2010.05.17/outbox.cif.g08.bks.cpg/sg11_27_cif.got.tgz:52455.got - 2010.06.03 12:22:45.
