data_PCOD9162569
_publ_section_title
;
Structure prediction by ZEFSAII (Michael W. Deem and Ramdas Pophale) SiO2 
 PCOD9162569
Probable space group: P 21/M
;
_chemical_formula_sum "Si O2"
_cell_formula_units_Z 28
_cell_length_a 21.630750
_cell_length_b 14.024792
_cell_length_c 9.489596
_cell_angle_alpha 90.000000
_cell_angle_beta 150.343491
_cell_angle_gamma 90.000000
_cell_volume 1424.441779
_symmetry_space_group_name_H-M "P 21/M"
_symmetry_group_IT_number 11
_symmetry_cell_setting 'monoclinic'
loop_
_space_group_symop_operation_xyz
x,y,z
-x,1/2+y,-z
-x,-y,-z
x,1/2-y,z
loop_
_atom_site_type_symbol
_atom_site_label
_atom_site_fract_x
_atom_site_fract_y
_atom_site_fract_z
Si Si1 0.540987 0.474549 0.742225
Si Si2 0.955292 0.865532 0.069456
Si Si3 0.302078 0.363038 0.945828
Si Si4 0.280919 0.061308 0.223294
Si Si5 0.824426 0.359980 0.003365
Si Si6 0.064341 0.364882 0.290519
Si Si7 0.197797 0.638902 0.717811
O O1 0.500000 0.500000 0.500000
O O2 0.419675 0.419703 0.558797
O O3 0.579190 0.578202 0.875269
O O4 0.669024 0.414593 0.010606
O O5 0.957283 0.750000 0.078230
O O6 0.088645 0.897349 0.398282
O O7 0.836017 0.898969 0.922462
O O8 0.940694 0.898329 0.879651
O O9 0.319866 0.250000 0.979602
O O10 0.185398 0.391996 0.618885
O O11 0.274336 0.396610 0.051536
O O12 0.271650 0.946039 0.205598
O O13 0.784184 0.250000 0.895709
O O14 0.859533 0.364033 0.237973
O O15 0.940570 0.385273 0.134402
O O16 0.069400 0.250000 0.292677
O O17 0.222493 0.750000 0.732863
#
# Coordination Sequence:
#
# PCOD9162569 Si02
#       7
#     4   4   4   4   4   4   4
#     4  10  21  37  54  89 118 151 190 237 286 348
#     4  10  22  39  61  88 117 152 195 241 289 342
#     4  10  20  36  60  84 116 154 192 239 288 343
#     4  11  22  37  59  91 117 152 194 239 290 344
#     4  10  20  35  57  85 118 150 190 240 288 339
#     4   9  20  38  58  85 117 153 195 238 291 344
#     4  10  20  37  62  87 115 151 192 241 290 339
#
# _framework density 19.656824
#
# number of rings (size 3 to 8) (size 9 to 14) (size 15 to 20)
#    0.000    2.000    2.857    1.286    2.000    7.429 
#    0.000    0.714    0.000    0.000    0.000    0.000 
#    0.000    0.000    0.000    0.000    0.000    0.000 
#
# Total GULP energy -156066.146963 kJ/mol
# GULP energy per Si atom -5573.790963 kJ/mol
# Density = 1.961208 g / cm^3
# Si number density = 19.656824 Si / 1000 Ang^3
#
#
#
# Elastic Constant Matrix: (Units=GPa)
#
#
# Indices 1 2 3 4 5 6 
#
# 1 50.6973 25.2495 92.0630 0.0000 -4.7801 0.0000
# 2 25.2495 85.9440 48.1970 0.0000 6.2102 0.0000
# 3 92.0630 48.1970 152.8782 0.0000 19.7249 0.0000
# 4 0.0000 0.0000 0.0000 30.2628 0.0000 7.9320
# 5 -4.7801 6.2102 19.7249 0.0000 18.1030 0.0000
# 6 0.0000 0.0000 0.0000 7.9320 0.0000 8.8558
#
#
#
# Elastic Compliance Matrix: (Units=1/GPa)
#
#
# Indices 1 2 3 4 5 6 
#
# 1 -0.043895 -0.002347 0.033237 0.000000 -0.047000 0.000000
# 2 -0.002347 0.014009 -0.002680 0.000000 -0.002506 0.000000
# 3 0.033237 -0.002680 -0.016151 0.000000 0.027294 0.000000
# 4 0.000000 0.000000 0.000000 0.043181 0.000000 -0.038677
# 5 -0.047000 -0.002506 0.027294 0.000000 0.013950 0.000000
# 6 0.000000 0.000000 0.000000 -0.038677 0.000000 0.147563
#
#
# Mechanical properties :
#
#
# Convention : Reuss Voigt Hill
#
# Bulk Modulus (GPa) = 96.30097 68.94873 82.62485
# Shear Modulus (GPa) = 47.30492 19.71163 33.50828
#
# Velocity S-wave (km/s) = 4.91097 3.17012 4.13324
# Velocity P-wave (km/s) = 9.01412 6.96792 8.05625
#
# Compressibility (1/GPa) = 0.01038411
#
# Stress axis : x y z
#
# Youngs Moduli (GPa) = -22.78187 71.38320 -61.91498
#
# Poissons Ratio (x) = 0.16757 2.05790
# Poissons Ratio (y) = -0.05348 -0.16590
# Poissons Ratio (z) = 0.75721 0.19127
#
# Static dielectric constant tensor:
#      x y z
#    x 1.692380 0.000000 0.019990 
#    y 0.000000 1.754050 0.000000 
#    z 0.019990 0.000000 1.705700 
# 
# From -- ./inp_files/26943.got.cif
#   From: 2010.05.17/outbox.cif.g08.bks.cpg/sg11_14_cif.got.tgz:26943.got - 2010.06.03 12:22:45.
