data_PCOD9162389
_publ_section_title
;
Structure prediction by ZEFSAII (Michael W. Deem and Ramdas Pophale) SiO2 
 PCOD9162389
Probable space group: P 21/M
;
_chemical_formula_sum "Si O2"
_cell_formula_units_Z 24
_cell_length_a 8.689163
_cell_length_b 15.795969
_cell_length_c 16.187684
_cell_angle_alpha 90.000000
_cell_angle_beta 36.373919
_cell_angle_gamma 90.000000
_cell_volume 1317.655959
_symmetry_space_group_name_H-M "P 21/M"
_symmetry_group_IT_number 11
_symmetry_cell_setting 'monoclinic'
loop_
_space_group_symop_operation_xyz
x,y,z
-x,1/2+y,-z
-x,-y,-z
x,1/2-y,z
loop_
_atom_site_type_symbol
_atom_site_label
_atom_site_fract_x
_atom_site_fract_y
_atom_site_fract_z
Si Si1 0.930730 0.250000 0.835843
Si Si2 0.438260 0.750000 0.164157
Si Si3 0.547470 0.750000 0.843246
Si Si4 0.677083 0.905482 0.337913
Si Si5 0.192190 0.589121 0.662379
Si Si6 0.690822 0.405482 0.662087
Si Si7 0.179326 0.089121 0.337621
Si Si8 0.922792 0.750000 0.843246
O O1 0.748310 0.250000 0.834460
O O2 0.109795 0.332781 0.756275
O O3 0.742112 0.250000 0.996590
O O4 0.378620 0.832781 0.243725
O O5 0.731883 0.750000 0.003410
O O6 0.622523 0.665853 0.760726
O O7 0.738272 0.750000 0.841152
O O8 0.474883 0.892474 0.500975
O O9 0.508006 0.901860 0.327996
O O10 0.794787 0.998881 0.298621
O O11 0.995802 0.582264 0.669465
O O12 0.095298 0.665853 0.760726
O O13 0.690651 0.498881 0.701379
O O14 0.977808 0.392474 0.499025
#
# Coordination Sequence:
#
# PCOD9162389 Si02
#       8
#     2   2   2   4   4   4   4   2
#     4  11  22  35  53  77 106 141 178 214 256 311
#     4  11  22  35  53  77 106 141 178 214 256 311
#     4   9  19  35  55  77 102 139 182 216 250 303
#     4  10  20  35  56  81 107 135 171 219 268 309
#     4   9  18  36  59  79 102 136 178 218 256 306
#     4  10  20  35  56  81 107 135 171 219 268 309
#     4   9  18  36  59  79 102 136 178 218 256 306
#     4   9  19  35  55  77 102 139 182 216 250 303
#
# _framework density 18.214162999999999
#
# number of rings (size 3 to 8) (size 9 to 14) (size 15 to 20)
#    0.000    2.333    0.000    2.500    0.000    5.333 
#    0.000   10.833    0.000    0.000    0.000    0.000 
#    0.000    0.000    0.000    0.000    0.000    0.000 
#
# Total GULP energy -133998.570250 kJ/mol
# GULP energy per Si atom -5583.273760 kJ/mol
# Density = 1.817271 g / cm^3
# Si number density = 18.214163 Si / 1000 Ang^3
#
#
#
# Elastic Constant Matrix: (Units=GPa)
#
#
# Indices 1 2 3 4 5 6 
#
# 1 29.0780 50.1156 39.8455 0.0000 -5.9441 0.0000
# 2 50.1156 208.3455 139.9108 0.0000 -9.3104 0.0000
# 3 39.8455 139.9108 132.7588 0.0000 -4.8061 0.0000
# 4 0.0000 0.0000 0.0000 -10.4566 0.0000 3.0480
# 5 -5.9441 -9.3104 -4.8061 0.0000 23.1624 0.0000
# 6 0.0000 0.0000 0.0000 3.0480 0.0000 18.9386
#
#
#
# Elastic Compliance Matrix: (Units=1/GPa)
#
#
# Indices 1 2 3 4 5 6 
#
# 1 0.065135 -0.007901 -0.010813 0.000000 0.011296 0.000000
# 2 -0.007901 0.017594 -0.016108 0.000000 0.001702 0.000000
# 3 -0.010813 -0.016108 0.027627 0.000000 -0.003517 0.000000
# 4 0.000000 0.000000 0.000000 -0.091348 0.000000 0.014701
# 5 0.011296 0.001702 -0.003517 0.000000 0.046026 0.000000
# 6 0.000000 0.000000 0.000000 0.014701 0.000000 0.050436
#
#
# Mechanical properties :
#
#
# Convention : Reuss Voigt Hill
#
# Bulk Modulus (GPa) = 24.56456 92.21400 58.38928
# Shear Modulus (GPa) = 25.16537 15.68288 20.42412
#
# Velocity S-wave (km/s) = 3.72107 2.93751 3.35226
# Velocity P-wave (km/s) = 5.65488 7.88941 6.86369
#
# Compressibility (1/GPa) = 0.04070906
#
# Stress axis : x y z
#
# Youngs Moduli (GPa) = 15.35284 56.83840 36.19676
#
# Poissons Ratio (x) = 0.44910 0.39140
# Poissons Ratio (y) = 0.12131 0.58307
# Poissons Ratio (z) = 0.16601 0.91558
#
# Static dielectric constant tensor:
#      x y z
#    x 1.614310 0.000000 -0.000010 
#    y 0.000000 1.590910 0.000000 
#    z -0.000010 0.000000 1.614410 
# 
# From -- ./inp_files/47549.got.cif
#   From: 2010.05.17/outbox.cif.g08.bks.cpg/sg11_24_cif.got.tgz:47549.got - 2010.06.03 12:22:45.
