data_PCOD9162219
_publ_section_title
;
Structure prediction by ZEFSAII (Michael W. Deem and Ramdas Pophale) SiO2 
 PCOD9162219
Probable space group: P 21/M
;
_chemical_formula_sum "Si O2"
_cell_formula_units_Z 32
_cell_length_a 12.171446
_cell_length_b 14.345570
_cell_length_c 11.372201
_cell_angle_alpha 90.000000
_cell_angle_beta 37.392234
_cell_angle_gamma 90.000000
_cell_volume 1205.827049
_symmetry_space_group_name_H-M "P 21/M"
_symmetry_group_IT_number 11
_symmetry_cell_setting 'monoclinic'
loop_
_space_group_symop_operation_xyz
x,y,z
-x,1/2+y,-z
-x,-y,-z
x,1/2-y,z
loop_
_atom_site_type_symbol
_atom_site_label
_atom_site_fract_x
_atom_site_fract_y
_atom_site_fract_z
Si Si1 0.412457 0.087588 0.510934
Si Si2 0.425616 0.862553 0.872213
Si Si3 0.676347 0.364322 0.648570
Si Si4 0.932895 0.638545 0.075486
Si Si5 0.741184 0.636929 0.992870
Si Si6 0.255625 0.646756 0.662658
Si Si7 0.774406 0.637012 0.709328
Si Si8 0.113341 0.864090 0.292402
O O1 0.480218 0.096706 0.321861
O O2 0.200384 0.097247 0.713433
O O3 0.535657 0.159211 0.480435
O O4 0.500000 0.000000 0.500000
O O5 0.418883 0.750000 0.860565
O O6 0.566834 0.882460 0.856931
O O7 0.228073 0.894768 0.081845
O O8 0.680140 0.250000 0.642267
O O9 0.755781 0.398342 0.456137
O O10 0.779384 0.390539 0.679447
O O11 0.467370 0.393249 0.829034
O O12 0.929976 0.750000 0.102091
O O13 0.838879 0.613678 0.030627
O O14 0.139139 0.608551 0.871799
O O15 0.740312 0.750000 0.990118
O O16 0.824677 0.605323 0.797571
O O17 0.174418 0.750000 0.715144
O O18 0.789297 0.750000 0.696933
O O19 0.910246 0.604743 0.492159
O O20 0.114312 0.750000 0.284693
#
# Coordination Sequence:
#
# PCOD9162219 Si02
#       8
#     4   4   4   4   4   4   4   4
#     4  12  26  41  56  76 110 155 195 238 283 330
#     4  10  20  35  54  77 106 143 186 227 264 320
#     4   9  14  25  50  84 117 140 164 214 281 336
#     4  10  20  36  61  88 111 140 184 237 284 329
#     4   9  14  25  50  84 117 140 164 214 281 336
#     4  10  20  36  61  88 111 140 184 237 284 329
#     4   9  16  27  48  81 115 141 167 211 274 333
#     4   9  16  27  48  81 115 141 167 211 274 333
#
# _framework density 26.537803
#
# number of rings (size 3 to 8) (size 9 to 14) (size 15 to 20)
#    0.000    2.250    2.500    1.875    0.000    4.500 
#    0.000    2.500    0.000    3.000    0.000    3.500 
#    0.000    0.000    0.000    0.000    0.000    0.000 
#
# Total GULP energy -178953.707192 kJ/mol
# GULP energy per Si atom -5592.303350 kJ/mol
# Density = 2.647740 g / cm^3
# Si number density = 26.537803 Si / 1000 Ang^3
#
#
#
# Elastic Constant Matrix: (Units=GPa)
#
#
# Indices 1 2 3 4 5 6 
#
# 1 31.4380 -0.0862 8.7615 0.0000 14.5589 0.0000
# 2 -0.0862 73.2265 18.1201 0.0000 5.8804 0.0000
# 3 8.7615 18.1201 208.1732 0.0000 17.5235 0.0000
# 4 0.0000 0.0000 0.0000 4.2719 0.0000 4.1269
# 5 14.5589 5.8804 17.5235 0.0000 50.1682 0.0000
# 6 0.0000 0.0000 0.0000 4.1269 0.0000 13.1968
#
#
#
# Elastic Compliance Matrix: (Units=1/GPa)
#
#
# Indices 1 2 3 4 5 6 
#
# 1 0.036921 0.001080 -0.000758 0.000000 -0.010576 0.000000
# 2 0.001080 0.014065 -0.001138 0.000000 -0.001565 0.000000
# 3 -0.000758 -0.001138 0.005053 0.000000 -0.001412 0.000000
# 4 0.000000 0.000000 0.000000 0.335420 0.000000 -0.104894
# 5 -0.010576 -0.001565 -0.001412 0.000000 0.023679 0.000000
# 6 0.000000 0.000000 0.000000 -0.104894 0.000000 0.108579
#
#
# Mechanical properties :
#
#
# Convention : Reuss Voigt Hill
#
# Bulk Modulus (GPa) = 18.37959 40.71426 29.54693
# Shear Modulus (GPa) = 9.19991 32.59687 20.89839
#
# Velocity S-wave (km/s) = 1.86393 3.50854 2.80928
# Velocity P-wave (km/s) = 3.40194 5.63812 4.65626
#
# Compressibility (1/GPa) = 0.05440818
#
# Stress axis : x y z
#
# Youngs Moduli (GPa) = 27.08513 71.09958 197.88322
#
# Poissons Ratio (x) = -0.07681 0.14992
# Poissons Ratio (y) = -0.02926 0.22519
# Poissons Ratio (z) = 0.02052 0.08091
#
# Static dielectric constant tensor:
#      x y z
#    x 2.041330 0.000000 -0.016940 
#    y 0.000000 4.390830 0.000000 
#    z -0.016940 0.000000 2.067120 
# 
# From -- ./inp_files/39943.got.cif
#   From: 2010.05.17/outbox.cif.g08.bks.cpg/sg11_20_cif.got.tgz:39943.got - 2010.06.03 12:22:45.
