data_PCOD9162587
_publ_section_title
;
Structure prediction by ZEFSAII (Michael W. Deem and Ramdas Pophale) SiO2 
 PCOD9162587
Probable space group: P 21/M
;
_chemical_formula_sum "Si O2"
_cell_formula_units_Z 24
_cell_length_a 22.205497
_cell_length_b 8.574432
_cell_length_c 11.275611
_cell_angle_alpha 90.000000
_cell_angle_beta 32.664928
_cell_angle_gamma 90.000000
_cell_volume 1158.720174
_symmetry_space_group_name_H-M "P 21/M"
_symmetry_group_IT_number 11
_symmetry_cell_setting 'monoclinic'
loop_
_space_group_symop_operation_xyz
x,y,z
-x,1/2+y,-z
-x,-y,-z
x,1/2-y,z
loop_
_atom_site_type_symbol
_atom_site_label
_atom_site_fract_x
_atom_site_fract_y
_atom_site_fract_z
Si Si1 0.120885 0.436158 0.329122
Si Si2 0.125583 0.562600 0.788978
Si Si3 0.336336 0.062206 0.834064
Si Si4 0.540726 0.936834 0.130205
Si Si5 0.327937 0.062987 0.584993
Si Si6 0.748483 0.436159 0.660434
O O1 0.117961 0.250000 0.349586
O O2 0.174302 0.510133 0.358058
O O3 0.000000 0.500000 0.500000
O O4 0.207883 0.470604 0.079234
O O5 0.123953 0.750000 0.797651
O O6 0.203868 0.494614 0.762176
O O7 0.189097 0.514180 0.562675
O O8 0.000000 0.500000 0.000000
O O9 0.350226 0.250000 0.809203
O O10 0.405871 0.005927 0.832419
O O11 0.362441 0.004033 0.659405
O O12 0.540674 0.750000 0.127680
O O13 0.415013 0.997533 0.344461
O O14 0.625325 0.995919 0.889616
O O15 0.331289 0.250000 0.578068
O O16 0.739236 0.250000 0.674735
#
# Coordination Sequence:
#
# PCOD9162587 Si02
#       6
#     4   4   4   4   4   4
#     4  10  20  35  57  87 120 156 198 244 298 356
#     4  11  26  45  63  86 118 158 204 253 301 356
#     4   8  18  35  56  86 123 157 192 240 294 350
#     4  10  20  38  63  92 124 156 196 248 301 358
#     4  11  22  38  62  90 122 162 201 243 298 359
#     4  10  22  41  62  85 117 156 200 251 301 354
#
# _framework density 20.712506999999999
#
# number of rings (size 3 to 8) (size 9 to 14) (size 15 to 20)
#    0.000    2.000    0.000    4.000    2.333    3.333 
#    0.000    8.333    0.000    0.000    0.000    0.000 
#    0.000    0.000    0.000    0.000    0.000    0.000 
#
# Total GULP energy -134085.961074 kJ/mol
# GULP energy per Si atom -5586.915045 kJ/mol
# Density = 2.066536 g / cm^3
# Si number density = 20.712507 Si / 1000 Ang^3
#
#
#
# Elastic Constant Matrix: (Units=GPa)
#
#
# Indices 1 2 3 4 5 6 
#
# 1 46.1390 10.8440 37.7999 0.0000 2.8381 0.0000
# 2 10.8440 48.2757 30.8463 0.0000 1.9362 0.0000
# 3 37.7999 30.8463 129.9147 0.0000 -6.8473 0.0000
# 4 0.0000 0.0000 0.0000 35.4727 0.0000 -6.1623
# 5 2.8381 1.9362 -6.8473 0.0000 41.6923 0.0000
# 6 0.0000 0.0000 0.0000 -6.1623 0.0000 26.3083
#
#
#
# Elastic Compliance Matrix: (Units=1/GPa)
#
#
# Indices 1 2 3 4 5 6 
#
# 1 0.028965 -0.001035 -0.008356 0.000000 -0.003296 0.000000
# 2 -0.001035 0.024640 -0.005655 0.000000 -0.002003 0.000000
# 3 -0.008356 -0.005655 0.011616 0.000000 0.002739 0.000000
# 4 0.000000 0.000000 0.000000 0.029386 0.000000 0.006883
# 5 -0.003296 -0.002003 0.002739 0.000000 0.024752 0.000000
# 6 0.000000 0.000000 0.000000 0.006883 0.000000 0.039623
#
#
# Mechanical properties :
#
#
# Convention : Reuss Voigt Hill
#
# Bulk Modulus (GPa) = 28.46592 42.58996 35.52794
# Shear Modulus (GPa) = 24.90235 30.35060 27.62648
#
# Velocity S-wave (km/s) = 3.47116 3.83211 3.65609
# Velocity P-wave (km/s) = 5.46246 6.33934 5.91716
#
# Compressibility (1/GPa) = 0.03512973
#
# Stress axis : x y z
#
# Youngs Moduli (GPa) = 34.52438 40.58365 86.09182
#
# Poissons Ratio (x) = 0.04201 0.71934
# Poissons Ratio (y) = 0.03574 0.48684
# Poissons Ratio (z) = 0.28847 0.22949
#
# Static dielectric constant tensor:
#      x y z
#    x 1.769410 0.000000 0.018770 
#    y 0.000000 1.699190 0.000000 
#    z 0.018770 0.000000 1.731400 
# 
# From -- ./inp_files/43875.got.cif
#   From: 2010.05.17/outbox.cif.g08.bks.cpg/sg11_22_cif.got.tgz:43875.got - 2010.06.03 12:22:45.
