data_PCOD9162160
_publ_section_title
;
Structure prediction by ZEFSAII (Michael W. Deem and Ramdas Pophale) SiO2 
 PCOD9162160
Probable space group: P 21/M
;
_chemical_formula_sum "Si O2"
_cell_formula_units_Z 28
_cell_length_a 17.388373
_cell_length_b 15.880157
_cell_length_c 5.551432
_cell_angle_alpha 90.000000
_cell_angle_beta 128.242274
_cell_angle_gamma 90.000000
_cell_volume 1203.953975
_symmetry_space_group_name_H-M "P 21/M"
_symmetry_group_IT_number 11
_symmetry_cell_setting 'monoclinic'
loop_
_space_group_symop_operation_xyz
x,y,z
-x,1/2+y,-z
-x,-y,-z
x,1/2-y,z
loop_
_atom_site_type_symbol
_atom_site_label
_atom_site_fract_x
_atom_site_fract_y
_atom_site_fract_z
Si Si1 0.766987 0.656691 0.296161
Si Si2 0.012880 0.386228 0.275189
Si Si3 0.344691 0.565841 0.190858
Si Si4 0.378194 0.750000 0.162683
Si Si5 0.220689 0.069305 0.178570
Si Si6 0.458400 0.437912 0.117471
Si Si7 0.495782 0.250000 0.091295
Si Si8 0.983925 0.082301 0.718099
O O1 0.728818 0.750000 0.255285
O O2 0.885864 0.661798 0.526933
O O3 0.747396 0.602645 0.499691
O O4 0.744359 0.626755 0.978797
O O5 0.955927 0.374535 0.413919
O O6 0.047654 0.485042 0.343225
O O7 0.956573 0.374750 0.915837
O O8 0.322240 0.659670 0.053993
O O9 0.263668 0.523309 0.206050
O O10 0.368432 0.493111 0.043037
O O11 0.451475 0.571426 0.521803
O O12 0.436178 0.750000 0.533317
O O13 0.445672 0.750000 0.051581
O O14 0.102752 0.075174 0.946725
O O15 0.443193 0.341741 0.002945
O O16 0.500000 0.500000 0.000000
#
# Coordination Sequence:
#
# PCOD9162160 Si02
#       8
#     4   4   4   2   4   4   2   4
#     4  10  20  35  52  76 113 152 186 218 266 331
#     4   8  14  26  48  70  95 132 176 212 250 303
#     4  10  22  37  57  82 107 145 181 230 277 331
#     4  10  20  36  60  78 102 134 178 219 279 326
#     4  10  21  34  54  78 110 147 182 225 279 327
#     4  10  20  37  59  80 110 140 188 226 269 331
#     4  10  20  36  56  84 104 134 174 227 269 318
#     4   8  14  27  46  73  96 127 173 216 256 308
#
# _framework density 23.256703000000002
#
# number of rings (size 3 to 8) (size 9 to 14) (size 15 to 20)
#    0.000    2.571    1.429    0.429    2.000    0.000 
#    2.571    0.000    1.571    0.000    0.000    0.000 
#    0.000    0.000    0.000    0.000    0.000    0.000 
#
# Total GULP energy -156000.134096 kJ/mol
# GULP energy per Si atom -5571.433361 kJ/mol
# Density = 2.320377 g / cm^3
# Si number density = 23.256703 Si / 1000 Ang^3
#
#
#
# Elastic Constant Matrix: (Units=GPa)
#
#
# Indices 1 2 3 4 5 6 
#
# 1 77.2666 62.5950 39.1442 0.0000 -36.7558 0.0000
# 2 62.5950 184.5300 31.9057 0.0000 -15.9926 0.0000
# 3 39.1442 31.9057 107.2565 0.0000 -47.1648 0.0000
# 4 0.0000 0.0000 0.0000 8.3692 0.0000 -13.4469
# 5 -36.7558 -15.9926 -47.1648 0.0000 47.3836 0.0000
# 6 0.0000 0.0000 0.0000 -13.4469 0.0000 14.0114
#
#
#
# Elastic Compliance Matrix: (Units=1/GPa)
#
#
# Indices 1 2 3 4 5 6 
#
# 1 0.028877 -0.008175 0.000942 0.000000 0.020579 0.000000
# 2 -0.008175 0.008032 -0.001782 0.000000 -0.005404 0.000000
# 3 0.000942 -0.001782 0.017014 0.000000 0.017064 0.000000
# 4 0.000000 0.000000 0.000000 -0.220459 0.000000 -0.211577
# 5 0.020579 -0.005404 0.017064 0.000000 0.052229 0.000000
# 6 0.000000 0.000000 0.000000 -0.211577 0.000000 -0.131683
#
#
# Mechanical properties :
#
#
# Convention : Reuss Voigt Hill
#
# Bulk Modulus (GPa) = 27.86111 70.70475 49.28293
# Shear Modulus (GPa) = -23.14857 29.64670 3.24907
#
# Velocity S-wave (km/s) = -3.15834 3.57425 1.18325
# Velocity P-wave (km/s) = 1.13768 6.89214 4.80662
#
# Compressibility (1/GPa) = 0.03589232
#
# Stress axis : x y z
#
# Youngs Moduli (GPa) = 34.62999 124.50281 58.77628
#
# Poissons Ratio (x) = 1.01778 -0.05538
# Poissons Ratio (y) = 0.28309 0.10476
# Poissons Ratio (z) = -0.03263 0.22191
#
# Static dielectric constant tensor:
#      x y z
#    x 1.908530 0.000000 -0.125080 
#    y 0.000000 1.896220 0.000000 
#    z -0.125080 0.000000 1.563800 
# 
# From -- ./inp_files/8160.got.cif
#   From: 2010.05.17/outbox.cif.g08.bks.cpg/sg11_5_cif.got.tgz:8160.got - 2010.06.03 12:22:45.
