data_PCOD9162888
_publ_section_title
;
Structure prediction by ZEFSAII (Michael W. Deem and Ramdas Pophale) SiO2 
 PCOD9162888
Probable space group: P 21/M
;
_chemical_formula_sum "Si O2"
_cell_formula_units_Z 32
_cell_length_a 15.529997
_cell_length_b 8.611406
_cell_length_c 14.999685
_cell_angle_alpha 90.000000
_cell_angle_beta 57.686700
_cell_angle_gamma 90.000000
_cell_volume 1695.333282
_symmetry_space_group_name_H-M "P 21/M"
_symmetry_group_IT_number 11
_symmetry_cell_setting 'monoclinic'
loop_
_space_group_symop_operation_xyz
x,y,z
-x,1/2+y,-z
-x,-y,-z
x,1/2-y,z
loop_
_atom_site_type_symbol
_atom_site_label
_atom_site_fract_x
_atom_site_fract_y
_atom_site_fract_z
Si Si1 0.741544 0.063479 0.708170
Si Si2 0.770835 0.564191 0.209295
Si Si3 0.221814 0.938205 0.511183
Si Si4 0.522565 0.564942 0.888466
Si Si5 0.683006 0.937644 0.067804
Si Si6 0.840377 0.562503 0.827217
Si Si7 0.613069 0.063976 0.439978
Si Si8 0.067023 0.937670 0.750655
O O1 0.737562 0.250000 0.709867
O O2 0.777657 0.007555 0.590645
O O3 0.629024 0.000851 0.793322
O O4 0.816215 0.007027 0.744545
O O5 0.774051 0.750000 0.211064
O O6 0.743504 0.517938 0.123729
O O7 0.680588 0.502878 0.322461
O O8 0.874545 0.499657 0.194904
O O9 0.216346 0.750000 0.512002
O O10 0.326973 0.979739 0.502730
O O11 0.131618 0.989307 0.627576
O O12 0.528966 0.750000 0.889860
O O13 0.427822 0.512756 0.879779
O O14 0.500000 0.500000 0.000000
O O15 0.671342 0.750000 0.074118
O O16 0.750661 0.982060 0.944902
O O17 0.840058 0.750000 0.820772
O O18 0.950183 0.514738 0.804409
O O19 0.612400 0.250000 0.434366
O O20 0.500000 0.000000 0.500000
O O21 0.071148 0.750000 0.751532
#
# Coordination Sequence:
#
# PCOD9162888 Si02
#       8
#     4   4   4   4   4   4   4   4
#     4  11  22  37  58  85 115 152 192 235 287 343
#     4  10  21  37  57  83 115 152 192 238 290 338
#     4   8  18  36  56  79 113 150 186 231 288 338
#     4  12  24  39  59  84 115 152 191 238 289 340
#     4  10  22  39  58  83 118 156 192 234 288 343
#     4  10  21  38  60  84 113 152 195 238 287 342
#     4  10  20  36  56  81 112 150 191 235 288 346
#     4   9  19  39  62  83 113 153 192 238 291 341
#
# _framework density 18.875346
#
# number of rings (size 3 to 8) (size 9 to 14) (size 15 to 20)
#    0.000    2.000    1.250    3.000    1.750    2.500 
#    0.000    5.625    0.000    0.000    0.000    0.000 
#    0.000    0.000    0.000    0.000    0.000    0.000 
#
# Total GULP energy -178692.575281 kJ/mol
# GULP energy per Si atom -5584.142978 kJ/mol
# Density = 1.883238 g / cm^3
# Si number density = 18.875346 Si / 1000 Ang^3
#
#
#
# Elastic Constant Matrix: (Units=GPa)
#
#
# Indices 1 2 3 4 5 6 
#
# 1 112.0245 25.3896 15.1165 0.0000 4.4035 0.0000
# 2 25.3896 32.1198 9.4624 0.0000 4.2177 0.0000
# 3 15.1165 9.4624 21.9761 0.0000 23.9059 0.0000
# 4 0.0000 0.0000 0.0000 21.0043 0.0000 2.3567
# 5 4.4035 4.2177 23.9059 0.0000 38.7952 0.0000
# 6 0.0000 0.0000 0.0000 2.3567 0.0000 33.5096
#
#
#
# Elastic Compliance Matrix: (Units=1/GPa)
#
#
# Indices 1 2 3 4 5 6 
#
# 1 0.011989 -0.006272 -0.014584 0.000000 0.008308 0.000000
# 2 -0.006272 0.043027 -0.030024 0.000000 0.014535 0.000000
# 3 -0.014584 -0.030024 0.191434 0.000000 -0.113044 0.000000
# 4 0.000000 0.000000 0.000000 0.047988 0.000000 -0.003375
# 5 0.008308 0.014535 -0.113044 0.000000 0.092912 0.000000
# 6 0.000000 0.000000 0.000000 -0.003375 0.000000 0.030080
#
#
# Mechanical properties :
#
#
# Convention : Reuss Voigt Hill
#
# Bulk Modulus (GPa) = 6.91125 29.56192 18.23659
# Shear Modulus (GPa) = 8.81183 26.40527 17.60855
#
# Velocity S-wave (km/s) = 2.16300 3.74428 3.05763
# Velocity P-wave (km/s) = 3.14763 5.86417 4.70617
#
# Compressibility (1/GPa) = 0.14469157
#
# Stress axis : x y z
#
# Youngs Moduli (GPa) = 83.40679 23.24095 5.22374
#
# Poissons Ratio (x) = 0.14576 0.07618
# Poissons Ratio (y) = 0.52311 0.15684
# Poissons Ratio (z) = 1.21637 0.69779
#
# Static dielectric constant tensor:
#      x y z
#    x 1.643530 0.000000 0.011370 
#    y 0.000000 1.643400 0.000000 
#    z 0.011370 0.000000 1.639140 
# 
# From -- ./inp_files/51678.got.cif
#   From: 2010.05.17/outbox.cif.g08.bks.cpg/sg11_26_cif.got.tgz:51678.got - 2010.06.03 12:22:45.
