data_PCOD9162202
_publ_section_title
;
Structure prediction by ZEFSAII (Michael W. Deem and Ramdas Pophale) SiO2 
 PCOD9162202
Probable space group: P 21/M
;
_chemical_formula_sum "Si O2"
_cell_formula_units_Z 24
_cell_length_a 17.144994
_cell_length_b 13.407797
_cell_length_c 12.070526
_cell_angle_alpha 90.000000
_cell_angle_beta 158.765493
_cell_angle_gamma 90.000000
_cell_volume 1004.968909
_symmetry_space_group_name_H-M "P 21/M"
_symmetry_group_IT_number 11
_symmetry_cell_setting 'monoclinic'
loop_
_space_group_symop_operation_xyz
x,y,z
-x,1/2+y,-z
-x,-y,-z
x,1/2-y,z
loop_
_atom_site_type_symbol
_atom_site_label
_atom_site_fract_x
_atom_site_fract_y
_atom_site_fract_z
Si Si1 0.593776 0.639415 0.709065
Si Si2 0.231011 0.637394 0.543463
Si Si3 0.099009 0.857658 0.109543
Si Si4 0.086550 0.980592 0.904614
Si Si5 0.310243 0.072823 0.913105
Si Si6 0.841557 0.135446 0.213450
O O1 0.667795 0.750000 0.775349
O O2 0.336946 0.637912 0.369037
O O3 0.720650 0.556322 0.809141
O O4 0.653480 0.616633 0.915480
O O5 0.198640 0.750000 0.543758
O O6 0.152725 0.637527 0.310514
O O7 0.079521 0.549268 0.386042
O O8 0.479686 0.606892 0.876161
O O9 0.997417 0.750000 0.956080
O O10 0.979071 0.936753 0.873334
O O11 0.164406 0.895437 0.923828
O O12 0.089711 0.119896 0.577645
O O13 0.290606 0.952779 0.900297
O O14 0.775088 0.250000 0.142984
#
# Coordination Sequence:
#
# PCOD9162202 Si02
#       6
#     4   4   4   4   4   4
#     4   9  17  31  52  73  95 131 177 215 244 288
#     4  10  20  35  54  74 101 136 173 210 247 297
#     4   9  18  33  50  68  97 137 173 206 249 297
#     4  11  20  30  49  78 108 131 161 208 262 305
#     4   9  19  36  56  74  97 135 174 207 247 294
#     4  10  20  35  55  77 103 132 167 210 253 300
#
# _framework density 23.881336999999998
#
# number of rings (size 3 to 8) (size 9 to 14) (size 15 to 20)
#    0.000    2.333    0.000    4.500    0.000    0.667 
#    0.000    2.500    0.000    6.000    0.000    0.000 
#    0.000    0.000    0.000    0.000    0.000    0.000 
#
# Total GULP energy -134058.304371 kJ/mol
# GULP energy per Si atom -5585.762682 kJ/mol
# Density = 2.382698 g / cm^3
# Si number density = 23.881337 Si / 1000 Ang^3
#
#
#
# Elastic Constant Matrix: (Units=GPa)
#
#
# Indices 1 2 3 4 5 6 
#
# 1 51.0166 2.9019 -8.3616 0.0000 -15.8687 0.0000
# 2 2.9019 156.3438 3.0453 0.0000 -14.5326 0.0000
# 3 -8.3616 3.0453 46.7883 0.0000 -0.5875 0.0000
# 4 0.0000 0.0000 0.0000 27.2708 0.0000 1.3842
# 5 -15.8687 -14.5326 -0.5875 0.0000 31.2141 0.0000
# 6 0.0000 0.0000 0.0000 1.3842 0.0000 18.1577
#
#
#
# Elastic Compliance Matrix: (Units=1/GPa)
#
#
# Indices 1 2 3 4 5 6 
#
# 1 0.024248 0.000645 0.004451 0.000000 0.012711 0.000000
# 2 0.000645 0.006710 -0.000278 0.000000 0.003447 0.000000
# 3 0.004451 -0.000278 0.022218 0.000000 0.002551 0.000000
# 4 0.000000 0.000000 0.000000 0.036812 0.000000 -0.002806
# 5 0.012711 0.003447 0.002551 0.000000 0.040152 0.000000
# 6 0.000000 0.000000 0.000000 -0.002806 0.000000 0.055287
#
#
# Mechanical properties :
#
#
# Convention : Reuss Voigt Hill
#
# Bulk Modulus (GPa) = 15.92056 27.70220 21.81138
# Shear Modulus (GPa) = 25.41569 32.43273 28.92421
#
# Velocity S-wave (km/s) = 3.26582 3.68921 3.48395
# Velocity P-wave (km/s) = 4.57185 5.45639 5.03358
#
# Compressibility (1/GPa) = 0.06281186
#
# Stress axis : x y z
#
# Youngs Moduli (GPa) = 41.24022 149.03167 45.00760
#
# Poissons Ratio (x) = -0.09609 -0.20033
# Poissons Ratio (y) = -0.02659 0.01252
# Poissons Ratio (z) = -0.18356 0.04146
#
# Static dielectric constant tensor:
#      x y z
#    x 1.951320 0.000000 0.005000 
#    y 0.000000 2.013380 0.000000 
#    z 0.005000 0.000000 1.929010 
# 
# From -- ./inp_files/16906.got.cif
#   From: 2010.05.17/outbox.cif.g08.bks.cpg/sg11_9_cif.got.tgz:16906.got - 2010.06.03 12:22:45.
