data_PCOD9162725
_publ_section_title
;
Structure prediction by ZEFSAII (Michael W. Deem and Ramdas Pophale) SiO2 
 PCOD9162725
Probable space group: P 21/M
;
_chemical_formula_sum "Si O2"
_cell_formula_units_Z 32
_cell_length_a 25.211129
_cell_length_b 8.548105
_cell_length_c 14.659201
_cell_angle_alpha 90.000000
_cell_angle_beta 29.908066
_cell_angle_gamma 90.000000
_cell_volume 1575.191033
_symmetry_space_group_name_H-M "P 21/M"
_symmetry_group_IT_number 11
_symmetry_cell_setting 'monoclinic'
loop_
_space_group_symop_operation_xyz
x,y,z
-x,1/2+y,-z
-x,-y,-z
x,1/2-y,z
loop_
_atom_site_type_symbol
_atom_site_label
_atom_site_fract_x
_atom_site_fract_y
_atom_site_fract_z
Si Si1 0.683851 0.933450 0.588502
Si Si2 0.330793 0.439906 0.994362
Si Si3 0.744461 0.062013 0.316566
Si Si4 0.860794 0.938871 0.464817
Si Si5 0.110690 0.935724 0.373481
Si Si6 0.484646 0.938698 0.421349
Si Si7 0.471226 0.068780 0.945596
Si Si8 0.975378 0.062614 0.935285
O O1 0.655506 0.750000 0.632579
O O2 0.747267 0.972308 0.586165
O O3 0.756675 0.971307 0.393659
O O4 0.580525 0.039450 0.728479
O O5 0.329397 0.250000 0.997344
O O6 0.211428 0.500589 0.165896
O O7 0.417045 0.489531 0.789870
O O8 0.377889 0.496421 0.021821
O O9 0.741385 0.250000 0.337389
O O10 0.632242 0.012881 0.440243
O O11 0.850995 0.029488 0.100723
O O12 0.867617 0.750000 0.463093
O O13 0.948559 0.993482 0.259832
O O14 0.875010 0.010261 0.542922
O O15 0.110351 0.750000 0.369563
O O16 0.000000 0.000000 0.500000
O O17 0.485337 0.750000 0.420160
O O18 0.500000 0.000000 0.500000
O O19 0.449324 0.250000 0.991128
O O20 0.500000 0.000000 0.000000
O O21 0.989133 0.250000 0.918736
O O22 0.000000 0.000000 0.000000
#
# Coordination Sequence:
#
# PCOD9162725 Si02
#       8
#     4   4   4   4   4   4   4   4
#     4  11  21  34  57  88 125 163 204 252 307 365
#     4  10  22  43  66  89 126 166 204 256 314 368
#     4  10  20  37  59  85 121 164 205 251 312 368
#     4  10  22  40  60  91 131 169 209 259 315 370
#     4  12  27  46  69  94 121 160 210 262 315 375
#     4  10  22  41  63  92 126 165 210 258 312 367
#     4  11  22  37  58  88 126 164 205 252 307 368
#     4  10  20  35  59  89 126 167 208 255 310 374
#
# _framework density 20.314997000000002
#
# number of rings (size 3 to 8) (size 9 to 14) (size 15 to 20)
#    0.000    1.500    2.500    2.625    0.000    7.500 
#    0.000    1.250    0.000    0.000    0.000    0.000 
#    0.000    0.000    0.000    0.000    0.000    0.000 
#
# Total GULP energy -178723.693623 kJ/mol
# GULP energy per Si atom -5585.115426 kJ/mol
# Density = 2.026876 g / cm^3
# Si number density = 20.314997 Si / 1000 Ang^3
#
#
#
# Elastic Constant Matrix: (Units=GPa)
#
#
# Indices 1 2 3 4 5 6 
#
# 1 115.9281 25.9295 50.5119 0.0000 -11.0133 0.0000
# 2 25.9295 19.2431 17.4067 0.0000 -4.9724 0.0000
# 3 50.5119 17.4067 132.8269 0.0000 -14.9091 0.0000
# 4 0.0000 0.0000 0.0000 27.2056 0.0000 3.9489
# 5 -11.0133 -4.9724 -14.9091 0.0000 33.5751 0.0000
# 6 0.0000 0.0000 0.0000 3.9489 0.0000 32.8258
#
#
#
# Elastic Compliance Matrix: (Units=1/GPa)
#
#
# Indices 1 2 3 4 5 6 
#
# 1 0.013401 -0.015111 -0.003024 0.000000 0.000815 0.000000
# 2 -0.015111 0.077005 -0.003811 0.000000 0.004755 0.000000
# 3 -0.003024 -0.003811 0.009476 0.000000 0.002651 0.000000
# 4 0.000000 0.000000 0.000000 0.037410 0.000000 -0.004500
# 5 0.000815 0.004755 0.002651 0.000000 0.031933 0.000000
# 6 0.000000 0.000000 0.000000 -0.004500 0.000000 0.031005
#
#
# Mechanical properties :
#
#
# Convention : Reuss Voigt Hill
#
# Bulk Modulus (GPa) = 17.86089 50.63269 34.24679
# Shear Modulus (GPa) = 19.02686 30.33132 24.67909
#
# Velocity S-wave (km/s) = 3.06370 3.86819 3.48921
# Velocity P-wave (km/s) = 4.61801 6.70287 5.75563
#
# Compressibility (1/GPa) = 0.05598826
#
# Stress axis : x y z
#
# Youngs Moduli (GPa) = 74.62029 12.98619 105.53236
#
# Poissons Ratio (x) = 0.19624 0.31918
# Poissons Ratio (y) = 1.12761 0.40218
# Poissons Ratio (z) = 0.22569 0.04949
#
# Static dielectric constant tensor:
#      x y z
#    x 1.710880 0.000000 0.000550 
#    y 0.000000 1.692050 0.000000 
#    z 0.000550 0.000000 1.799550 
# 
# From -- ./inp_files/55652.got.cif
#   From: 2010.05.17/outbox.cif.g08.bks.cpg/sg11_28_cif.got.tgz:55652.got - 2010.06.03 12:22:45.
