data_PCOD9162206
_publ_section_title
;
Structure prediction by ZEFSAII (Michael W. Deem and Ramdas Pophale) SiO2 
 PCOD9162206
Probable space group: P 21/M
;
_chemical_formula_sum "Si O2"
_cell_formula_units_Z 28
_cell_length_a 8.107785
_cell_length_b 7.404025
_cell_length_c 25.767032
_cell_angle_alpha 90.000000
_cell_angle_beta 41.643249
_cell_angle_gamma 90.000000
_cell_volume 1027.834679
_symmetry_space_group_name_H-M "P 21/M"
_symmetry_group_IT_number 11
_symmetry_cell_setting 'monoclinic'
loop_
_space_group_symop_operation_xyz
x,y,z
-x,1/2+y,-z
-x,-y,-z
x,1/2-y,z
loop_
_atom_site_type_symbol
_atom_site_label
_atom_site_fract_x
_atom_site_fract_y
_atom_site_fract_z
Si Si1 0.043115 0.035911 0.550474
Si Si2 0.882499 0.957419 0.694244
Si Si3 0.190941 0.534389 0.026769
Si Si4 0.757016 0.029979 0.257927
Si Si5 0.353547 0.966668 0.832017
Si Si6 0.575735 0.469999 0.407416
Si Si7 0.706181 0.542583 0.877010
O O1 0.033805 0.250000 0.559936
O O2 0.325539 0.965376 0.493319
O O3 0.000000 0.000000 0.500000
O O4 0.860421 0.955988 0.636596
O O5 0.905327 0.750000 0.706163
O O6 0.631571 0.033053 0.778920
O O7 0.154916 0.038429 0.638513
O O8 0.218037 0.750000 0.023750
O O9 0.233306 0.459026 0.075049
O O10 0.906745 0.499612 0.077898
O O11 0.428176 0.465130 0.938316
O O12 0.765977 0.250000 0.253675
O O13 0.694676 0.965221 0.215288
O O14 0.572171 0.980828 0.347179
O O15 0.037554 0.967755 0.205808
O O16 0.375888 0.750000 0.825440
O O17 0.570448 0.250000 0.412049
O O18 0.686888 0.750000 0.864334
#
# Coordination Sequence:
#
# PCOD9162206 Si02
#       7
#     4   4   4   4   4   4   4
#     4  11  22  36  55  79 105 131 162 202 247 294
#     4  10  20  35  54  75  99 130 168 205 245 295
#     4   9  15  23  39  65  94 122 158 204 248 290
#     4   8  13  25  45  67  91 121 159 199 238 283
#     4   9  17  29  46  67  94 128 164 202 245 294
#     4   9  18  32  52  76 100 128 164 205 246 293
#     4   8  14  24  40  64  93 125 159 198 247 296
#
# _framework density 27.241736
#
# number of rings (size 3 to 8) (size 9 to 14) (size 15 to 20)
#    0.000    2.857    0.000    3.000    0.000    3.429 
#    0.000    0.714    0.000    5.143    0.000    0.000 
#    0.000    0.000    0.000    0.000    0.000    1.286 
#
# Total GULP energy -156512.007803 kJ/mol
# GULP energy per Si atom -5589.714564 kJ/mol
# Density = 2.717973 g / cm^3
# Si number density = 27.241736 Si / 1000 Ang^3
#
#
#
# Elastic Constant Matrix: (Units=GPa)
#
#
# Indices 1 2 3 4 5 6 
#
# 1 112.0768 -3.8292 29.7062 0.0000 -26.7753 0.0000
# 2 -3.8292 113.3039 2.0932 0.0000 -1.5463 0.0000
# 3 29.7062 2.0932 212.1077 0.0000 -29.1954 0.0000
# 4 0.0000 0.0000 0.0000 13.9284 0.0000 -4.8074
# 5 -26.7753 -1.5463 -29.1954 0.0000 56.6405 0.0000
# 6 0.0000 0.0000 0.0000 -4.8074 0.0000 -0.1859
#
#
#
# Elastic Compliance Matrix: (Units=1/GPa)
#
#
# Indices 1 2 3 4 5 6 
#
# 1 0.010210 0.000421 -0.000827 0.000000 0.004412 0.000000
# 2 0.000421 0.008847 -0.000092 0.000000 0.000393 0.000000
# 3 -0.000827 -0.000092 0.005142 0.000000 0.002257 0.000000
# 4 0.000000 0.000000 0.000000 0.007234 0.000000 -0.187054
# 5 0.004412 0.000393 0.002257 0.000000 0.020915 0.000000
# 6 0.000000 0.000000 0.000000 -0.187054 0.000000 -0.541950
#
#
# Mechanical properties :
#
#
# Convention : Reuss Voigt Hill
#
# Bulk Modulus (GPa) = 43.09941 54.82542 48.96241
# Shear Modulus (GPa) = -10.39779 41.37783 15.49002
#
# Velocity S-wave (km/s) = -1.95580 3.90155 2.38715
# Velocity P-wave (km/s) = 3.27952 6.36124 5.06066
#
# Compressibility (1/GPa) = 0.02320217
#
# Stress axis : x y z
#
# Youngs Moduli (GPa) = 97.94364 113.03144 194.47819
#
# Poissons Ratio (x) = -0.04753 0.16080
# Poissons Ratio (y) = -0.04119 0.01792
# Poissons Ratio (z) = 0.08098 0.01041
#
# Static dielectric constant tensor:
#      x y z
#    x 2.239090 0.000000 -0.010510 
#    y 0.000000 2.105120 0.000000 
#    z -0.010510 0.000000 2.104410 
# 
# From -- ./inp_files/72705.got.cif
#   From: 2010.05.17/outbox.cif.g08.bks.cpg/sg11_37_cif.got.tgz:72705.got - 2010.06.03 12:22:45.
