data_PCOD9162357
_publ_section_title
;
Structure prediction by ZEFSAII (Michael W. Deem and Ramdas Pophale) SiO2 
 PCOD9162357
Probable space group: P 21/M
;
_chemical_formula_sum "Si O2"
_cell_formula_units_Z 28
_cell_length_a 9.593083
_cell_length_b 13.505279
_cell_length_c 15.419597
_cell_angle_alpha 90.000000
_cell_angle_beta 47.204005
_cell_angle_gamma 90.000000
_cell_volume 1465.882268
_symmetry_space_group_name_H-M "P 21/M"
_symmetry_group_IT_number 11
_symmetry_cell_setting 'monoclinic'
loop_
_space_group_symop_operation_xyz
x,y,z
-x,1/2+y,-z
-x,-y,-z
x,1/2-y,z
loop_
_atom_site_type_symbol
_atom_site_label
_atom_site_fract_x
_atom_site_fract_y
_atom_site_fract_z
Si Si1 0.033213 0.636745 0.020585
Si Si2 0.668124 0.134125 0.659082
Si Si3 0.653321 0.635348 0.065455
Si Si4 0.990803 0.366601 0.653637
Si Si5 0.101972 0.495806 0.152256
Si Si6 0.767437 0.366503 0.236587
Si Si7 0.602251 0.533701 0.544825
O O1 0.066852 0.750000 0.031343
O O2 0.047961 0.569491 0.097210
O O3 0.832619 0.631827 0.055638
O O4 0.182485 0.606332 0.883680
O O5 0.631726 0.250000 0.651488
O O6 0.525878 0.109199 0.799106
O O7 0.877945 0.126050 0.610848
O O8 0.637718 0.060338 0.592330
O O9 0.631293 0.750000 0.046144
O O10 0.715901 0.566080 0.958809
O O11 0.988103 0.250000 0.680394
O O12 0.203670 0.407821 0.555047
O O13 0.886696 0.437381 0.767438
O O14 0.921195 0.421669 0.232241
O O15 0.799361 0.250000 0.231782
O O16 0.553891 0.396035 0.345406
O O17 0.500000 0.500000 0.500000
#
# Coordination Sequence:
#
# PCOD9162357 Si02
#       7
#     4   4   4   4   4   4   4
#     4   9  17  29  52  84 116 148 187 243 300 352
#     4  10  23  43  63  87 120 161 198 241 302 362
#     4   9  18  33  57  85 117 154 196 242 291 354
#     4  11  25  41  58  86 127 161 198 247 296 354
#     4  11  18  33  56  87 119 156 194 238 296 355
#     4  10  20  35  55  85 120 148 190 252 304 344
#     4  12  23  41  63  88 111 155 203 254 295 348
#
# _framework density 19.101125
#
# number of rings (size 3 to 8) (size 9 to 14) (size 15 to 20)
#    0.000    1.714    1.429    6.000    0.000    1.714 
#    0.000    0.000    0.000    2.571    0.000    0.000 
#    0.000    0.000    0.000    0.000    0.000    0.000 
#
# Total GULP energy -156309.111115 kJ/mol
# GULP energy per Si atom -5582.468254 kJ/mol
# Density = 1.905765 g / cm^3
# Si number density = 19.101125 Si / 1000 Ang^3
#
#
#
# Elastic Constant Matrix: (Units=GPa)
#
#
# Indices 1 2 3 4 5 6 
#
# 1 63.1606 32.4968 42.2374 0.0000 7.8853 0.0000
# 2 32.4968 102.8167 32.2290 0.0000 23.7434 0.0000
# 3 42.2374 32.2290 54.1326 0.0000 -3.3640 0.0000
# 4 0.0000 0.0000 0.0000 31.7534 0.0000 -1.4009
# 5 7.8853 23.7434 -3.3640 0.0000 20.2984 0.0000
# 6 0.0000 0.0000 0.0000 -1.4009 0.0000 25.0037
#
#
#
# Elastic Compliance Matrix: (Units=1/GPa)
#
#
# Indices 1 2 3 4 5 6 
#
# 1 0.041725 0.005043 -0.037317 0.000000 -0.028292 0.000000
# 2 0.005043 0.020360 -0.017842 0.000000 -0.028731 0.000000
# 3 -0.037317 -0.017842 0.061039 0.000000 0.045482 0.000000
# 4 0.000000 0.000000 0.000000 0.031571 0.000000 0.001769
# 5 -0.028292 -0.028731 0.045482 0.000000 0.101400 0.000000
# 6 0.000000 0.000000 0.000000 0.001769 0.000000 0.040093
#
#
# Mechanical properties :
#
#
# Convention : Reuss Voigt Hill
#
# Bulk Modulus (GPa) = 43.68320 48.22626 45.95473
# Shear Modulus (GPa) = 12.37473 22.95423 17.66448
#
# Velocity S-wave (km/s) = 2.54806 3.47035 3.04433
# Velocity P-wave (km/s) = 5.61924 6.43121 6.03889
#
# Compressibility (1/GPa) = 0.02289209
#
# Stress axis : x y z
#
# Youngs Moduli (GPa) = 23.96648 49.11677 16.38303
#
# Poissons Ratio (x) = -0.24770 0.61136
# Poissons Ratio (y) = -0.12086 0.29230
# Poissons Ratio (z) = 0.89435 0.87633
#
# Static dielectric constant tensor:
#      x y z
#    x 1.640110 0.000000 -0.011940 
#    y 0.000000 1.695900 0.000000 
#    z -0.011940 0.000000 1.698400 
# 
# From -- ./inp_files/47579.got.cif
#   From: 2010.05.17/outbox.cif.g08.bks.cpg/sg11_24_cif.got.tgz:47579.got - 2010.06.03 12:22:45.
