data_PCOD9162695
_publ_section_title
;
Structure prediction by ZEFSAII (Michael W. Deem and Ramdas Pophale) SiO2 
 PCOD9162695
Probable space group: P 21/M
;
_chemical_formula_sum "Si O2"
_cell_formula_units_Z 32
_cell_length_a 12.024390
_cell_length_b 22.618905
_cell_length_c 5.508874
_cell_angle_alpha 90.000000
_cell_angle_beta 100.184361
_cell_angle_gamma 90.000000
_cell_volume 1474.688198
_symmetry_space_group_name_H-M "P 21/M"
_symmetry_group_IT_number 11
_symmetry_cell_setting 'monoclinic'
loop_
_space_group_symop_operation_xyz
x,y,z
-x,1/2+y,-z
-x,-y,-z
x,1/2-y,z
loop_
_atom_site_type_symbol
_atom_site_label
_atom_site_fract_x
_atom_site_fract_y
_atom_site_fract_z
Si Si1 0.852836 0.820143 0.937653
Si Si2 0.625560 0.679696 0.597297
Si Si3 0.205799 0.096340 0.686972
Si Si4 0.406030 0.478896 0.652710
Si Si5 0.177901 0.989432 0.034087
Si Si6 0.617804 0.072483 0.984965
Si Si7 0.500383 0.820352 0.038090
Si Si8 0.977049 0.925320 0.751446
O O1 0.880063 0.750000 0.954934
O O2 0.794677 0.841375 0.167662
O O3 0.758892 0.831098 0.690756
O O4 0.949693 0.867783 0.908957
O O5 0.617609 0.750000 0.619703
O O6 0.568751 0.668255 0.315335
O O7 0.559874 0.657114 0.811377
O O8 0.305506 0.067479 0.554298
O O9 0.081234 0.090403 0.524459
O O10 0.214796 0.048420 0.907590
O O11 0.500000 0.500000 0.500000
O O12 0.357477 0.537912 0.757442
O O13 0.488842 0.445133 0.873720
O O14 0.289615 0.955163 0.159299
O O15 0.104975 0.945696 0.835177
O O16 0.093776 0.015844 0.200241
O O17 0.614901 0.142551 0.990377
O O18 0.485013 0.750000 0.016455
#
# Coordination Sequence:
#
# PCOD9162695 Si02
#       8
#     4   4   4   4   4   4   4   4
#     4  10  22  36  55  87 118 148 192 247 303 358
#     4   9  20  36  55  83 120 158 195 236 292 361
#     4  10  20  35  59  84 118 153 191 238 302 362
#     4  10  21  34  53  85 116 149 190 240 299 355
#     4   9  20  39  55  85 112 151 199 239 294 349
#     4  10  21  35  54  81 118 151 187 242 297 348
#     4  10  21  37  58  84 117 160 200 236 290 366
#     4  10  20  36  62  81 111 152 197 244 290 359
#
# _framework density 21.699501999999999
#
# number of rings (size 3 to 8) (size 9 to 14) (size 15 to 20)
#    0.000    2.250    0.000    1.875    5.250    2.500 
#    0.000    0.625    0.000    0.000    0.000    0.000 
#    0.000    0.000    0.000    0.000    0.000    0.000 
#
# Total GULP energy -178228.027092 kJ/mol
# GULP energy per Si atom -5569.625847 kJ/mol
# Density = 2.165011 g / cm^3
# Si number density = 21.699502 Si / 1000 Ang^3
#
#
#
# Elastic Constant Matrix: (Units=GPa)
#
#
# Indices 1 2 3 4 5 6 
#
# 1 64.8440 31.9704 9.1597 0.0000 10.4041 0.0000
# 2 31.9704 122.0364 14.9703 0.0000 7.3207 0.0000
# 3 9.1597 14.9703 55.2239 0.0000 2.5879 0.0000
# 4 0.0000 0.0000 0.0000 29.5008 0.0000 6.1629
# 5 10.4041 7.3207 2.5879 0.0000 28.1596 0.0000
# 6 0.0000 0.0000 0.0000 6.1629 0.0000 22.8703
#
#
#
# Elastic Compliance Matrix: (Units=1/GPa)
#
#
# Indices 1 2 3 4 5 6 
#
# 1 0.018708 -0.004360 -0.001657 0.000000 -0.005626 0.000000
# 2 -0.004360 0.009606 -0.001847 0.000000 -0.000717 0.000000
# 3 -0.001657 -0.001847 0.018914 0.000000 -0.000646 0.000000
# 4 0.000000 0.000000 0.000000 0.035919 0.000000 -0.009679
# 5 -0.005626 -0.000717 -0.000646 0.000000 0.037836 0.000000
# 6 0.000000 0.000000 0.000000 -0.009679 0.000000 0.046333
#
#
# Mechanical properties :
#
#
# Convention : Reuss Voigt Hill
#
# Bulk Modulus (GPa) = 31.74748 39.36723 35.55735
# Shear Modulus (GPa) = 25.83358 28.50641 27.16999
#
# Velocity S-wave (km/s) = 3.45413 3.62842 3.54234
# Velocity P-wave (km/s) = 5.52904 5.97790 5.75784
#
# Compressibility (1/GPa) = 0.03149857
#
# Stress axis : x y z
#
# Youngs Moduli (GPa) = 53.45241 104.10008 52.87078
#
# Poissons Ratio (x) = 0.45390 0.08763
# Poissons Ratio (y) = 0.23307 0.09767
# Poissons Ratio (z) = 0.08859 0.19230
#
# Static dielectric constant tensor:
#      x y z
#    x 1.927210 0.000000 -0.075700 
#    y 0.000000 1.863980 0.000000 
#    z -0.075700 0.000000 1.916700 
# 
# From -- ./inp_files/5501.got.cif
#   From: 2010.05.17/outbox.cif.g08.bks.cpg/sg11_3_cif.got.tgz:5501.got - 2010.06.03 12:22:45.
