data_PCOD9162196
_publ_section_title
;
Structure prediction by ZEFSAII (Michael W. Deem and Ramdas Pophale) SiO2 
 PCOD9162196
Probable space group: P 21/M
;
_chemical_formula_sum "Si O2"
_cell_formula_units_Z 28
_cell_length_a 15.325929
_cell_length_b 13.085543
_cell_length_c 9.336312
_cell_angle_alpha 90.000000
_cell_angle_beta 61.152253
_cell_angle_gamma 90.000000
_cell_volume 1640.026538
_symmetry_space_group_name_H-M "P 21/M"
_symmetry_group_IT_number 11
_symmetry_cell_setting 'monoclinic'
loop_
_space_group_symop_operation_xyz
x,y,z
-x,1/2+y,-z
-x,-y,-z
x,1/2-y,z
loop_
_atom_site_type_symbol
_atom_site_label
_atom_site_fract_x
_atom_site_fract_y
_atom_site_fract_z
Si Si1 0.766192 0.366880 0.977890
Si Si2 0.049400 0.966972 0.610071
Si Si3 0.629432 0.508393 0.543726
Si Si4 0.087365 0.456980 0.030725
Si Si5 0.173289 0.368082 0.689576
Si Si6 0.750110 0.367373 0.649746
Si Si7 0.430298 0.870105 0.678743
O O1 0.800486 0.250000 0.979457
O O2 0.840479 0.450083 0.983366
O O3 0.759057 0.380178 0.813091
O O4 0.658547 0.378815 0.136208
O O5 0.142862 0.893942 0.504531
O O6 0.967035 0.919473 0.781989
O O7 0.096120 0.065606 0.654815
O O8 0.000000 0.000000 0.500000
O O9 0.718857 0.582029 0.422253
O O10 0.670570 0.444429 0.645052
O O11 0.605164 0.428052 0.436554
O O12 0.530799 0.574203 0.649720
O O13 0.145355 0.381017 0.879354
O O14 0.000000 0.500000 0.000000
O O15 0.170725 0.250000 0.650891
O O16 0.723619 0.250000 0.639955
O O17 0.447896 0.750000 0.637868
#
# Coordination Sequence:
#
# PCOD9162196 Si02
#       7
#     4   4   4   4   4   4   4
#     4  10  20  36  58  82 109 143 182 223 273 328
#     4  10  20  35  56  80 111 142 184 232 271 321
#     4  10  20  36  57  83 110 141 178 231 271 322
#     4  10  20  35  53  80 111 146 183 225 271 321
#     4  10  21  36  54  77 110 148 179 220 276 329
#     4  10  21  36  56  82 111 145 183 225 274 328
#     4  10  20  35  59  84 107 141 183 223 274 327
#
# _framework density 17.072894000000002
#
# number of rings (size 3 to 8) (size 9 to 14) (size 15 to 20)
#    0.000    2.000    2.857    0.857    0.000    4.000 
#    0.000    0.000    0.000    0.000    0.000    0.000 
#    0.000    0.000    0.000    0.000    0.000    0.000 
#
# Total GULP energy -156169.952494 kJ/mol
# GULP energy per Si atom -5577.498303 kJ/mol
# Density = 1.703404 g / cm^3
# Si number density = 17.072894 Si / 1000 Ang^3
#
#
#
# Elastic Constant Matrix: (Units=GPa)
#
#
# Indices 1 2 3 4 5 6 
#
# 1 83.6334 42.8084 31.7455 0.0000 -5.6575 0.0000
# 2 42.8084 105.1525 40.8160 0.0000 -5.7446 0.0000
# 3 31.7455 40.8160 88.1727 0.0000 -0.3092 0.0000
# 4 0.0000 0.0000 0.0000 22.6634 0.0000 4.2377
# 5 -5.6575 -5.7446 -0.3092 0.0000 21.9539 0.0000
# 6 0.0000 0.0000 0.0000 4.2377 0.0000 17.4834
#
#
#
# Elastic Compliance Matrix: (Units=1/GPa)
#
#
# Indices 1 2 3 4 5 6 
#
# 1 0.016026 -0.005044 -0.003425 0.000000 0.002762 0.000000
# 2 -0.005044 0.013376 -0.004368 0.000000 0.002139 0.000000
# 3 -0.003425 -0.004368 0.014590 0.000000 -0.001820 0.000000
# 4 0.000000 0.000000 0.000000 0.046219 0.000000 -0.011203
# 5 0.002762 0.002139 -0.001820 0.000000 0.046796 0.000000
# 6 0.000000 0.000000 0.000000 -0.011203 0.000000 0.059912
#
#
# Mechanical properties :
#
#
# Convention : Reuss Voigt Hill
#
# Bulk Modulus (GPa) = 54.59414 56.41093 55.50254
# Shear Modulus (GPa) = 21.86278 23.19271 22.52775
#
# Velocity S-wave (km/s) = 3.58237 3.68972 3.63644
# Velocity P-wave (km/s) = 7.01125 7.15996 7.08599
#
# Compressibility (1/GPa) = 0.01831698
#
# Stress axis : x y z
#
# Youngs Moduli (GPa) = 62.40009 74.76198 68.53809
#
# Poissons Ratio (x) = 0.37707 0.23477
# Poissons Ratio (y) = 0.31473 0.29940
# Poissons Ratio (z) = 0.21374 0.32659
#
# Static dielectric constant tensor:
#      x y z
#    x 1.555690 0.000000 -0.010300 
#    y 0.000000 1.560180 0.000000 
#    z -0.010300 0.000000 1.586640 
# 
# From -- ./inp_files/21164.got.cif
#   From: 2010.05.17/outbox.cif.g08.bks.cpg/sg11_11_cif.got.tgz:21164.got - 2010.06.03 12:22:45.
