data_PCOD9162424
_publ_section_title
;
Structure prediction by ZEFSAII (Michael W. Deem and Ramdas Pophale) SiO2 
 PCOD9162424
Probable space group: P 21/M
;
_chemical_formula_sum "Si O2"
_cell_formula_units_Z 32
_cell_length_a 24.561989
_cell_length_b 7.730485
_cell_length_c 15.496126
_cell_angle_alpha 90.000000
_cell_angle_beta 150.615766
_cell_angle_gamma 90.000000
_cell_volume 1443.702180
_symmetry_space_group_name_H-M "P 21/M"
_symmetry_group_IT_number 11
_symmetry_cell_setting 'monoclinic'
loop_
_space_group_symop_operation_xyz
x,y,z
-x,1/2+y,-z
-x,-y,-z
x,1/2-y,z
loop_
_atom_site_type_symbol
_atom_site_label
_atom_site_fract_x
_atom_site_fract_y
_atom_site_fract_z
Si Si1 0.561044 0.542350 0.496113
Si Si2 0.740094 0.541138 0.510361
Si Si3 0.248071 0.456677 0.817290
Si Si4 0.771450 0.946922 0.875872
Si Si5 0.495531 0.540908 0.218182
Si Si6 0.117099 0.040569 0.803626
Si Si7 0.882018 0.451524 0.873917
Si Si8 0.865536 0.541562 0.512242
O O1 0.500000 0.500000 0.500000
O O2 0.567892 0.750000 0.493571
O O3 0.681443 0.470972 0.687756
O O4 0.507229 0.477160 0.333767
O O5 0.738453 0.750000 0.504604
O O6 0.610462 0.484289 0.330512
O O7 0.794055 0.495177 0.676986
O O8 0.815797 0.477828 0.534964
O O9 0.232911 0.250000 0.794531
O O10 0.165181 0.522074 0.778521
O O11 0.210565 0.522754 0.672141
O O12 0.376929 0.488374 0.016486
O O13 0.735201 0.750000 0.843639
O O14 0.874054 0.947637 0.953374
O O15 0.801315 0.027169 0.008085
O O16 0.495886 0.750000 0.218055
O O17 0.123420 0.250000 0.812321
O O18 0.992142 0.997829 0.659631
O O19 0.877592 0.250000 0.888077
O O20 0.000000 0.500000 0.000000
O O21 0.858595 0.750000 0.506992
#
# Coordination Sequence:
#
# PCOD9162424 Si02
#       8
#     4   4   4   4   4   4   4   4
#     4  10  20  35  56  82 116 155 192 234 284 343
#     4  10  21  41  62  84 120 158 196 243 296 352
#     4  10  22  40  60  87 119 154 197 247 302 351
#     4  10  20  37  57  81 115 155 191 230 286 344
#     4  10  21  38  60  85 117 159 199 240 294 351
#     4  10  21  37  60  87 120 156 193 244 300 354
#     4  12  24  37  57  85 116 153 194 239 289 346
#     4  10  22  39  62  87 115 154 198 248 301 352
#
# _framework density 22.165236
#
# number of rings (size 3 to 8) (size 9 to 14) (size 15 to 20)
#    0.000    1.750    1.250    3.000    0.000    7.000 
#    0.000    0.000    0.000    0.000    0.000    0.000 
#    0.000    0.000    0.000    0.000    0.000    0.000 
#
# Total GULP energy -178542.802171 kJ/mol
# GULP energy per Si atom -5579.462568 kJ/mol
# Density = 2.211479 g / cm^3
# Si number density = 22.165236 Si / 1000 Ang^3
#
#
#
# Elastic Constant Matrix: (Units=GPa)
#
#
# Indices 1 2 3 4 5 6 
#
# 1 119.2113 5.3284 30.0682 0.0000 -6.1102 0.0000
# 2 5.3284 46.9368 3.0197 0.0000 -5.7847 0.0000
# 3 30.0682 3.0197 99.9585 0.0000 -8.8079 0.0000
# 4 0.0000 0.0000 0.0000 20.7953 0.0000 7.5066
# 5 -6.1102 -5.7847 -8.8079 0.0000 38.1350 0.0000
# 6 0.0000 0.0000 0.0000 7.5066 0.0000 18.5275
#
#
#
# Elastic Compliance Matrix: (Units=1/GPa)
#
#
# Indices 1 2 3 4 5 6 
#
# 1 0.009131 -0.000775 -0.002659 0.000000 0.000731 0.000000
# 2 -0.000775 0.021791 -0.000148 0.000000 0.003147 0.000000
# 3 -0.002659 -0.000148 0.010993 0.000000 0.002090 0.000000
# 4 0.000000 0.000000 0.000000 0.056326 0.000000 -0.022821
# 5 0.000731 0.003147 0.002090 0.000000 0.027300 0.000000
# 6 0.000000 0.000000 0.000000 -0.022821 0.000000 0.063220
#
#
# Mechanical properties :
#
#
# Convention : Reuss Voigt Hill
#
# Bulk Modulus (GPa) = 28.77662 38.10435 33.44049
# Shear Modulus (GPa) = 24.09554 30.67092 27.38323
#
# Velocity S-wave (km/s) = 3.30068 3.72390 3.51866
# Velocity P-wave (km/s) = 5.24756 5.97648 5.62384
#
# Compressibility (1/GPa) = 0.03475043
#
# Stress axis : x y z
#
# Youngs Moduli (GPa) = 109.51406 45.89133 90.97007
#
# Poissons Ratio (x) = 0.03558 0.24188
# Poissons Ratio (y) = 0.08492 0.01344
# Poissons Ratio (z) = 0.29118 0.00678
#
# Static dielectric constant tensor:
#      x y z
#    x 1.876340 0.000000 0.064310 
#    y 0.000000 1.829940 0.000000 
#    z 0.064310 0.000000 1.862860 
# 
# From -- ./inp_files/55657.got.cif
#   From: 2010.05.17/outbox.cif.g08.bks.cpg/sg11_28_cif.got.tgz:55657.got - 2010.06.03 12:22:45.
