data_PCOD9162923
_publ_section_title
;
Structure prediction by ZEFSAII (Michael W. Deem and Ramdas Pophale) SiO2 
 PCOD9162923
Probable space group: P 21/M
;
_chemical_formula_sum "Si O2"
_cell_formula_units_Z 28
_cell_length_a 5.836716
_cell_length_b 16.478900
_cell_length_c 13.755817
_cell_angle_alpha 90.000000
_cell_angle_beta 79.731372
_cell_angle_gamma 90.000000
_cell_volume 1301.879156
_symmetry_space_group_name_H-M "P 21/M"
_symmetry_group_IT_number 11
_symmetry_cell_setting 'monoclinic'
loop_
_space_group_symop_operation_xyz
x,y,z
-x,1/2+y,-z
-x,-y,-z
x,1/2-y,z
loop_
_atom_site_type_symbol
_atom_site_label
_atom_site_fract_x
_atom_site_fract_y
_atom_site_fract_z
Si Si1 0.864819 0.010296 0.609685
Si Si2 0.655969 0.250000 0.175642
Si Si3 0.166929 0.656799 0.102186
Si Si4 0.825495 0.555655 0.232643
Si Si5 0.196672 0.250000 0.062782
Si Si6 0.577287 0.591600 0.963244
Si Si7 0.586369 0.159265 0.704182
Si Si8 0.467439 0.085654 0.245771
O O1 0.712332 0.092307 0.628751
O O2 0.041802 0.020874 0.685235
O O3 0.694630 0.936448 0.651634
O O4 0.000000 0.000000 0.500000
O O5 0.415704 0.250000 0.124989
O O6 0.610683 0.168187 0.240246
O O7 0.928881 0.250000 0.120670
O O8 0.082640 0.750000 0.102224
O O9 0.320466 0.653126 0.191226
O O10 0.991115 0.583826 0.134407
O O11 0.329381 0.636631 0.998842
O O12 0.684162 0.636216 0.273468
O O13 0.640839 0.489183 0.216641
O O14 0.250979 0.162594 0.006295
O O15 0.669757 0.584998 0.846193
O O16 0.500000 0.500000 0.000000
O O17 0.629698 0.250000 0.667438
#
# Coordination Sequence:
#
# PCOD9162923 Si02
#       8
#     4   2   4   4   2   4   4   4
#     4  10  22  42  67  88 121 159 209 272 336 407
#     4  10  24  44  68  86 135 176 224 277 326 398
#     4  10  20  36  56  90 127 169 214 260 314 376
#     4  10  20  37  65  86 122 161 209 267 325 396
#     4  10  24  44  60  96 129 182 230 279 330 386
#     4  11  21  39  60  88 134 174 223 269 318 387
#     4   9  19  37  58  92 124 160 207 258 331 388
#     4  10  24  41  60  94 121 174 215 266 334 388
#
# _framework density 21.507373000000001
#
# number of rings (size 3 to 8) (size 9 to 14) (size 15 to 20)
#    0.000    2.000    0.714    3.000    6.000    3.429 
#    9.000    0.000    3.143    0.000    0.000    0.000 
#    0.000    0.000    0.000    0.000    0.000    0.000 
#
# Total GULP energy -156000.561332 kJ/mol
# GULP energy per Si atom -5571.448619 kJ/mol
# Density = 2.145842 g / cm^3
# Si number density = 21.507373 Si / 1000 Ang^3
#
#
#
# Elastic Constant Matrix: (Units=GPa)
#
#
# Indices 1 2 3 4 5 6 
#
# 1 65.9182 28.7497 25.4178 0.0000 -17.7019 0.0000
# 2 28.7497 150.5273 45.6440 0.0000 -16.9554 0.0000
# 3 25.4178 45.6440 121.1835 0.0000 -32.6075 0.0000
# 4 0.0000 0.0000 0.0000 23.9865 0.0000 -2.9601
# 5 -17.7019 -16.9554 -32.6075 0.0000 25.0574 0.0000
# 6 0.0000 0.0000 0.0000 -2.9601 0.0000 27.2247
#
#
#
# Elastic Compliance Matrix: (Units=1/GPa)
#
#
# Indices 1 2 3 4 5 6 
#
# 1 0.019460 -0.002368 0.000120 0.000000 0.012302 0.000000
# 2 -0.002368 0.007864 -0.002283 0.000000 0.000678 0.000000
# 3 0.000120 -0.002283 0.013378 0.000000 0.015949 0.000000
# 4 0.000000 0.000000 0.000000 0.042257 0.000000 0.004594
# 5 0.012302 0.000678 0.015949 0.000000 0.069813 0.000000
# 6 0.000000 0.000000 0.000000 0.004594 0.000000 0.037231
#
#
# Mechanical properties :
#
#
# Convention : Reuss Voigt Hill
#
# Bulk Modulus (GPa) = 31.60376 59.69465 45.64921
# Shear Modulus (GPa) = 23.85369 31.10824 27.48097
#
# Velocity S-wave (km/s) = 3.33392 3.80728 3.57844
# Velocity P-wave (km/s) = 5.43565 6.86607 6.19230
#
# Compressibility (1/GPa) = 0.03164181
#
# Stress axis : x y z
#
# Youngs Moduli (GPa) = 51.38697 127.15964 74.74850
#
# Poissons Ratio (x) = 0.30105 -0.00899
# Poissons Ratio (y) = 0.12166 0.17066
# Poissons Ratio (z) = -0.00618 0.29032
#
# Static dielectric constant tensor:
#      x y z
#    x 1.881940 0.000000 0.014850 
#    y 0.000000 1.852940 0.000000 
#    z 0.014850 0.000000 1.767870 
# 
# From -- ./inp_files/46010.got.cif
#   From: 2010.05.17/outbox.cif.g08.bks.cpg/sg11_24_cif.got.tgz:46010.got - 2010.06.03 12:22:45.
