data_PCOD9162210
_publ_section_title
;
Structure prediction by ZEFSAII (Michael W. Deem and Ramdas Pophale) SiO2 
 PCOD9162210
Probable space group: P 21/M
;
_chemical_formula_sum "Si O2"
_cell_formula_units_Z 32
_cell_length_a 18.053127
_cell_length_b 10.478476
_cell_length_c 25.757672
_cell_angle_alpha 90.000000
_cell_angle_beta 22.026163
_cell_angle_gamma 90.000000
_cell_volume 1827.355746
_symmetry_space_group_name_H-M "P 21/M"
_symmetry_group_IT_number 11
_symmetry_cell_setting 'monoclinic'
loop_
_space_group_symop_operation_xyz
x,y,z
-x,1/2+y,-z
-x,-y,-z
x,1/2-y,z
loop_
_atom_site_type_symbol
_atom_site_label
_atom_site_fract_x
_atom_site_fract_y
_atom_site_fract_z
Si Si1 0.779725 0.600957 0.498532
Si Si2 0.224730 0.398364 0.000428
Si Si3 0.212584 0.516724 0.730568
Si Si4 0.350308 0.397306 0.533439
Si Si5 0.234112 0.605438 0.191830
Si Si6 0.494971 0.100940 0.730059
Si Si7 0.649273 0.599679 0.969391
Si Si8 0.135627 0.391352 0.886196
O O1 0.715984 0.750000 0.546481
O O2 0.734956 0.565087 0.467278
O O3 0.665869 0.499335 0.607477
O O4 0.013408 0.595250 0.356427
O O5 0.274894 0.250000 0.971284
O O6 0.361888 0.446443 0.864860
O O7 0.276276 0.450396 0.023548
O O8 0.993758 0.409222 0.137955
O O9 0.261902 0.470625 0.640331
O O10 0.411905 0.586862 0.619797
O O11 0.169711 0.412031 0.802894
O O12 0.300024 0.250000 0.573544
O O13 0.252026 0.750000 0.157360
O O14 0.411617 0.594595 0.117832
O O15 0.266679 0.493565 0.129150
O O16 0.557264 0.250000 0.697024
O O17 0.346116 0.101117 0.777921
O O18 0.706423 0.750000 0.925213
O O19 0.052071 0.250000 0.950740
O O20 0.000000 0.500000 0.000000
#
# Coordination Sequence:
#
# PCOD9162210 Si02
#       8
#     4   4   4   4   4   4   4   4
#     4  10  20  36  54  76 105 140 175 212 267 317
#     4  10  20  35  54  76 104 139 179 220 263 309
#     4  11  20  34  51  74 104 137 176 216 262 309
#     4  10  21  33  48  72 103 136 170 212 260 312
#     4   9  18  34  57  82 110 138 169 216 267 317
#     4  10  21  37  53  75 105 139 180 222 259 306
#     4   9  18  34  57  83 107 137 176 214 261 319
#     4  11  22  36  55  77 104 141 183 225 263 307
#
# _framework density 17.511642999999999
#
# number of rings (size 3 to 8) (size 9 to 14) (size 15 to 20)
#    0.000    2.000    2.500    1.500    0.000    1.500 
#    0.000    2.500    0.000    0.000    0.000    0.000 
#    0.000    0.000    0.000    0.000    0.000    0.000 
#
# Total GULP energy -178263.041079 kJ/mol
# GULP energy per Si atom -5570.720034 kJ/mol
# Density = 1.747179 g / cm^3
# Si number density = 17.511643 Si / 1000 Ang^3
#
#
#
# Elastic Constant Matrix: (Units=GPa)
#
#
# Indices 1 2 3 4 5 6 
#
# 1 35.9067 4.7281 9.9179 0.0000 -1.0545 0.0000
# 2 4.7281 62.8369 33.6638 0.0000 0.7536 0.0000
# 3 9.9179 33.6638 82.8462 0.0000 -3.4239 0.0000
# 4 0.0000 0.0000 0.0000 23.4453 0.0000 -2.3500
# 5 -1.0545 0.7536 -3.4239 0.0000 19.2625 0.0000
# 6 0.0000 0.0000 0.0000 -2.3500 0.0000 18.9944
#
#
#
# Elastic Compliance Matrix: (Units=1/GPa)
#
#
# Indices 1 2 3 4 5 6 
#
# 1 0.028831 -0.000454 -0.003225 0.000000 0.001023 0.000000
# 2 -0.000454 0.020450 -0.008351 0.000000 -0.002309 0.000000
# 3 -0.003225 -0.008351 0.015973 0.000000 0.002989 0.000000
# 4 0.000000 0.000000 0.000000 0.043188 0.000000 0.005343
# 5 0.001023 -0.002309 0.002989 0.000000 0.052592 0.000000
# 6 0.000000 0.000000 0.000000 0.005343 0.000000 0.053308
#
#
# Mechanical properties :
#
#
# Convention : Reuss Voigt Hill
#
# Bulk Modulus (GPa) = 24.27483 30.91215 27.59349
# Shear Modulus (GPa) = 19.83085 21.22576 20.52831
#
# Velocity S-wave (km/s) = 3.36882 3.48529 3.42755
# Velocity P-wave (km/s) = 5.38741 5.82125 5.60853
#
# Compressibility (1/GPa) = 0.04119494
#
# Stress axis : x y z
#
# Youngs Moduli (GPa) = 34.68549 48.90022 62.60427
#
# Poissons Ratio (x) = 0.02220 0.20188
# Poissons Ratio (y) = 0.01575 0.52279
# Poissons Ratio (z) = 0.11185 0.40835
#
# Static dielectric constant tensor:
#      x y z
#    x 1.615970 0.000000 0.010270 
#    y 0.000000 1.609750 0.000000 
#    z 0.010270 0.000000 1.586840 
# 
# From -- ./inp_files/45329.got.cif
#   From: 2010.05.17/outbox.cif.g08.bks.cpg/sg11_23_cif.got.tgz:45329.got - 2010.06.03 12:22:45.
