data_PCOD9162065
_publ_section_title
;
Structure prediction by ZEFSAII (Michael W. Deem and Ramdas Pophale) SiO2 
 PCOD9162065
Probable space group: P 21/M
;
_chemical_formula_sum "Si O2"
_cell_formula_units_Z 26
_cell_length_a 17.316570
_cell_length_b 9.578043
_cell_length_c 7.072629
_cell_angle_alpha 90.000000
_cell_angle_beta 72.050394
_cell_angle_gamma 90.000000
_cell_volume 1115.962973
_symmetry_space_group_name_H-M "P 21/M"
_symmetry_group_IT_number 11
_symmetry_cell_setting 'monoclinic'
loop_
_space_group_symop_operation_xyz
x,y,z
-x,1/2+y,-z
-x,-y,-z
x,1/2-y,z
loop_
_atom_site_type_symbol
_atom_site_label
_atom_site_fract_x
_atom_site_fract_y
_atom_site_fract_z
Si Si1 0.063392 0.512573 0.200599
Si Si2 0.508439 0.582817 0.795111
Si Si3 0.981306 0.750000 0.021495
Si Si4 0.155829 0.587826 0.464764
Si Si5 0.209665 0.590162 0.832319
Si Si6 0.687556 0.907006 0.726528
Si Si7 0.638414 0.911122 0.209112
O O1 0.153274 0.553425 0.049923
O O2 0.005040 0.629760 0.161223
O O3 0.039891 0.369729 0.121195
O O4 0.084554 0.512495 0.406456
O O5 0.493070 0.750000 0.826515
O O6 0.603771 0.567349 0.676061
O O7 0.441351 0.507540 0.717353
O O8 0.500000 0.500000 0.000000
O O9 0.155356 0.750000 0.409968
O O10 0.151129 0.583379 0.694970
O O11 0.242768 0.518079 0.358516
O O12 0.239851 0.750000 0.824354
O O13 0.283544 0.483331 0.756650
O O14 0.716877 0.750000 0.659753
O O15 0.662418 0.908475 0.966853
O O16 0.624286 0.750000 0.275612
#
# Coordination Sequence:
#
# PCOD9162065 Si02
#       7
#     4   4   2   4   4   4   4
#     4  11  22  46  65  94 124 156 192 250 291 360
#     4   9  17  31  52  83 122 161 208 257 306 356
#     4  10  24  42  74  92 118 160 198 228 310 366
#     4  11  23  38  61  91 122 162 204 241 298 361
#     4  11  23  39  61  90 124 162 202 245 299 357
#     4   9  19  34  56  86 120 160 205 252 300 351
#     4  10  20  34  57  88 120 161 210 255 304 356
#
# _framework density 23.298265000000001
#
# number of rings (size 3 to 8) (size 9 to 14) (size 15 to 20)
#    0.000    1.846    3.077    1.846    2.154    3.692 
#    0.000    5.385    0.000    0.000    0.000    0.000 
#    0.000    0.000    0.000    0.000    0.000    0.000 
#
# Total GULP energy -144887.888752 kJ/mol
# GULP energy per Si atom -5572.611106 kJ/mol
# Density = 2.324524 g / cm^3
# Si number density = 23.298265 Si / 1000 Ang^3
#
#
#
# Elastic Constant Matrix: (Units=GPa)
#
#
# Indices 1 2 3 4 5 6 
#
# 1 117.8556 65.0677 32.7368 0.0000 21.5514 0.0000
# 2 65.0677 164.0543 30.7487 0.0000 17.8815 0.0000
# 3 32.7368 30.7487 43.3468 0.0000 18.4296 0.0000
# 4 0.0000 0.0000 0.0000 108.4858 0.0000 -290.4893
# 5 21.5514 17.8815 18.4296 0.0000 48.0137 0.0000
# 6 0.0000 0.0000 0.0000 -290.4893 0.0000 1081.2332
#
#
#
# Elastic Compliance Matrix: (Units=1/GPa)
#
#
# Indices 1 2 3 4 5 6 
#
# 1 0.012523 -0.003618 -0.006064 0.000000 -0.001946 0.000000
# 2 -0.003618 0.008104 -0.002896 0.000000 -0.000282 0.000000
# 3 -0.006064 -0.002896 0.033566 0.000000 -0.009084 0.000000
# 4 0.000000 0.000000 0.000000 0.032850 0.000000 0.008826
# 5 -0.001946 -0.000282 -0.009084 0.000000 0.025293 0.000000
# 6 0.000000 0.000000 0.000000 0.008826 0.000000 0.003296
#
#
# Mechanical properties :
#
#
# Convention : Reuss Voigt Hill
#
# Bulk Modulus (GPa) = 34.43919 64.70701 49.57310
# Shear Modulus (GPa) = 33.23018 260.66011 146.94514
#
# Velocity S-wave (km/s) = 3.78073 10.58879 7.95036
# Velocity P-wave (km/s) = 5.82001 13.31654 10.27625
#
# Compressibility (1/GPa) = 0.02903669
#
# Stress axis : x y z
#
# Youngs Moduli (GPa) = 79.85519 123.39258 29.79243
#
# Poissons Ratio (x) = 0.44646 0.18065
# Poissons Ratio (y) = 0.28893 0.08628
# Poissons Ratio (z) = 0.48420 0.35737
#
# Static dielectric constant tensor:
#      x y z
#    x 1.875740 0.000000 -0.007760 
#    y 0.000000 1.767280 0.000000 
#    z -0.007760 0.000000 1.951320 
# 
# From -- ./inp_files/24098.got.cif
#   From: 2010.05.17/outbox.cif.g08.bks.cpg/sg11_13_cif.got.tgz:24098.got - 2010.06.03 12:22:45.
