data_PCOD9162807
_publ_section_title
;
Structure prediction by ZEFSAII (Michael W. Deem and Ramdas Pophale) SiO2 
 PCOD9162807
Probable space group: P 21/M
;
_chemical_formula_sum "Si O2"
_cell_formula_units_Z 28
_cell_length_a 19.883071
_cell_length_b 7.978468
_cell_length_c 18.675533
_cell_angle_alpha 90.000000
_cell_angle_beta 29.648156
_cell_angle_gamma 90.000000
_cell_volume 1465.526687
_symmetry_space_group_name_H-M "P 21/M"
_symmetry_group_IT_number 11
_symmetry_cell_setting 'monoclinic'
loop_
_space_group_symop_operation_xyz
x,y,z
-x,1/2+y,-z
-x,-y,-z
x,1/2-y,z
loop_
_atom_site_type_symbol
_atom_site_label
_atom_site_fract_x
_atom_site_fract_y
_atom_site_fract_z
Si Si1 0.914808 0.049521 0.187427
Si Si2 0.491072 0.950756 0.591399
Si Si3 0.638328 0.451837 0.714929
Si Si4 0.601700 0.050436 0.970344
Si Si5 0.724196 0.053797 0.481201
Si Si6 0.190423 0.952068 0.868976
Si Si7 0.158474 0.952255 0.346226
O O1 0.894229 0.250000 0.207122
O O2 0.850821 0.980207 0.319495
O O3 0.841434 0.985437 0.182571
O O4 0.071925 0.013094 0.029934
O O5 0.506652 0.750000 0.583044
O O6 0.339739 0.001317 0.754615
O O7 0.500000 0.000000 0.500000
O O8 0.602262 0.037708 0.537369
O O9 0.644906 0.250000 0.708778
O O10 0.680162 0.518570 0.598212
O O11 0.749421 0.509677 0.671178
O O12 0.483910 0.493177 0.881429
O O13 0.608982 0.250000 0.967138
O O14 0.752168 0.990137 0.806112
O O15 0.500000 0.000000 0.000000
O O16 0.752975 0.250000 0.467923
O O17 0.185537 0.750000 0.870614
O O18 0.161309 0.750000 0.343105
O O19 0.000000 0.000000 0.500000
#
# Coordination Sequence:
#
# PCOD9162807 Si02
#       7
#     4   4   4   4   4   4   4
#     4   9  17  31  50  71  96 129 166 207 258 308
#     4  11  21  34  52  75 102 132 171 217 261 308
#     4   9  19  35  54  76 105 138 173 213 260 310
#     4   9  17  31  52  77 106 136 172 209 248 299
#     4  10  20  36  54  75 104 135 171 218 266 312
#     4   9  18  32  48  70  97 125 165 214 258 303
#     4   9  18  32  52  80 106 135 170 209 252 298
#
# _framework density 19.105758000000002
#
# number of rings (size 3 to 8) (size 9 to 14) (size 15 to 20)
#    0.000    2.571    1.429    1.714    0.000    5.143 
#    0.000    1.429    0.000    5.143    0.000    0.000 
#    0.000    0.000    0.000    0.000    0.000    0.000 
#
# Total GULP energy -155954.754319 kJ/mol
# GULP energy per Si atom -5569.812654 kJ/mol
# Density = 1.906227 g / cm^3
# Si number density = 19.105758 Si / 1000 Ang^3
#
#
#
# Elastic Constant Matrix: (Units=GPa)
#
#
# Indices 1 2 3 4 5 6 
#
# 1 42.7690 -0.8851 56.0360 0.0000 11.6579 0.0000
# 2 -0.8851 15.7942 9.3041 0.0000 3.5768 0.0000
# 3 56.0360 9.3041 208.9957 0.0000 13.2261 0.0000
# 4 0.0000 0.0000 0.0000 28.7762 0.0000 -3.9322
# 5 11.6579 3.5768 13.2261 0.0000 33.3276 0.0000
# 6 0.0000 0.0000 0.0000 -3.9322 0.0000 16.7765
#
#
#
# Elastic Compliance Matrix: (Units=1/GPa)
#
#
# Indices 1 2 3 4 5 6 
#
# 1 0.040663 0.011106 -0.010690 0.000000 -0.011173 0.000000
# 2 0.011106 0.069236 -0.005482 0.000000 -0.009140 0.000000
# 3 -0.010690 -0.005482 0.007817 0.000000 0.001225 0.000000
# 4 0.000000 0.000000 0.000000 0.035901 0.000000 0.008415
# 5 -0.011173 -0.009140 0.001225 0.000000 0.034408 0.000000
# 6 0.000000 0.000000 0.000000 0.008415 0.000000 0.061580
#
#
# Mechanical properties :
#
#
# Convention : Reuss Voigt Hill
#
# Bulk Modulus (GPa) = 9.29494 44.05211 26.67353
# Shear Modulus (GPa) = 16.91493 29.31632 23.11562
#
# Velocity S-wave (km/s) = 2.97868 3.92142 3.48210
# Velocity P-wave (km/s) = 4.08725 6.60382 5.49163
#
# Compressibility (1/GPa) = 0.10758538
#
# Stress axis : x y z
#
# Youngs Moduli (GPa) = 24.59256 14.44341 127.91903
#
# Poissons Ratio (x) = -0.16041 1.36743
# Poissons Ratio (y) = -0.27313 0.70120
# Poissons Ratio (z) = 0.26289 0.07917
#
# Static dielectric constant tensor:
#      x y z
#    x 1.483340 0.000000 0.114220 
#    y 0.000000 1.688470 0.000000 
#    z 0.114220 0.000000 1.671870 
# 
# From -- ./inp_files/61235.got.cif
#   From: 2010.05.17/outbox.cif.g08.bks.cpg/sg11_31_cif.got.tgz:61235.got - 2010.06.03 12:22:45.
