data_PCOD9162540
_publ_section_title
;
Structure prediction by ZEFSAII (Michael W. Deem and Ramdas Pophale) SiO2 
 PCOD9162540
Probable space group: P 21/M
;
_chemical_formula_sum "Si O2"
_cell_formula_units_Z 24
_cell_length_a 15.875802
_cell_length_b 8.827779
_cell_length_c 20.289248
_cell_angle_alpha 90.000000
_cell_angle_beta 151.764078
_cell_angle_gamma 90.000000
_cell_volume 1345.268499
_symmetry_space_group_name_H-M "P 21/M"
_symmetry_group_IT_number 11
_symmetry_cell_setting 'monoclinic'
loop_
_space_group_symop_operation_xyz
x,y,z
-x,1/2+y,-z
-x,-y,-z
x,1/2-y,z
loop_
_atom_site_type_symbol
_atom_site_label
_atom_site_fract_x
_atom_site_fract_y
_atom_site_fract_z
Si Si1 0.030377 0.430965 0.309687
Si Si2 0.411445 0.429575 0.625464
Si Si3 0.608442 0.569426 0.636384
Si Si4 0.040057 0.568480 0.170621
Si Si5 0.367616 0.069423 0.108730
Si Si6 0.653606 0.931296 0.060916
O O1 0.014473 0.250000 0.290207
O O2 0.201999 0.462673 0.472783
O O3 0.063650 0.506425 0.261245
O O4 0.846178 0.497955 0.209467
O O5 0.435354 0.250000 0.632527
O O6 0.515358 0.515545 0.639008
O O7 0.493480 0.481425 0.750881
O O8 0.500000 0.500000 0.500000
O O9 0.606799 0.750000 0.630229
O O10 0.809364 0.507660 0.769751
O O11 0.061381 0.750000 0.185660
O O12 0.836146 0.533487 0.010904
O O13 0.392294 0.250000 0.133934
O O14 0.381433 0.034621 0.040580
O O15 0.661328 0.750000 0.073052
O O16 0.500000 0.000000 0.000000
#
# Coordination Sequence:
#
# PCOD9162540 Si02
#       6
#     4   4   4   4   4   4
#     4  10  20  35  57  84 114 148 189 233 281 338
#     4  11  23  37  56  84 116 152 192 235 284 336
#     4  12  23  35  55  81 113 152 196 242 283 331
#     4  10  20  36  57  81 111 151 197 240 282 334
#     4   9  21  39  58  83 115 149 186 232 287 340
#     4  10  21  39  64  90 114 144 186 231 281 344
#
# _framework density 17.840302999999999
#
# number of rings (size 3 to 8) (size 9 to 14) (size 15 to 20)
#    0.000    1.667    1.667    4.500    0.000    6.667 
#    0.000    0.833    0.000    0.000    0.000    0.000 
#    0.000    0.000    0.000    0.000    0.000    0.000 
#
# Total GULP energy -134086.922137 kJ/mol
# GULP energy per Si atom -5586.955089 kJ/mol
# Density = 1.779970 g / cm^3
# Si number density = 17.840303 Si / 1000 Ang^3
#
#
#
# Elastic Constant Matrix: (Units=GPa)
#
#
# Indices 1 2 3 4 5 6 
#
# 1 103.3619 56.6707 58.8948 0.0000 31.1169 0.0000
# 2 56.6707 103.0216 79.4365 0.0000 12.4686 0.0000
# 3 58.8948 79.4365 137.9667 0.0000 15.0750 0.0000
# 4 0.0000 0.0000 0.0000 32.7717 0.0000 1.9196
# 5 31.1169 12.4686 15.0750 0.0000 24.2582 0.0000
# 6 0.0000 0.0000 0.0000 1.9196 0.0000 29.6538
#
#
#
# Elastic Compliance Matrix: (Units=1/GPa)
#
#
# Indices 1 2 3 4 5 6 
#
# 1 0.022146 -0.007281 -0.002753 0.000000 -0.022954 0.000000
# 2 -0.007281 0.020046 -0.008935 0.000000 0.004589 0.000000
# 3 -0.002753 -0.008935 0.013604 0.000000 -0.000330 0.000000
# 4 0.000000 0.000000 0.000000 0.030630 0.000000 -0.001983
# 5 -0.022954 0.004589 -0.000330 0.000000 0.068513 0.000000
# 6 0.000000 0.000000 0.000000 -0.001983 0.000000 0.033851
#
#
# Mechanical properties :
#
#
# Convention : Reuss Voigt Hill
#
# Bulk Modulus (GPa) = 56.00058 81.59490 68.79774
# Shear Modulus (GPa) = 21.48859 27.29328 24.39093
#
# Velocity S-wave (km/s) = 3.47435 3.91559 3.70155
# Velocity P-wave (km/s) = 6.89586 8.14113 7.54423
#
# Compressibility (1/GPa) = 0.01785696
#
# Stress axis : x y z
#
# Youngs Moduli (GPa) = 45.15537 49.88492 73.50760
#
# Poissons Ratio (x) = 0.36321 0.20239
# Poissons Ratio (y) = 0.32878 0.65680
# Poissons Ratio (z) = 0.12433 0.44573
#
# Static dielectric constant tensor:
#      x y z
#    x 1.584760 0.000000 0.010530 
#    y 0.000000 1.594070 0.000000 
#    z 0.010530 0.000000 1.609720 
# 
# From -- ./inp_files/20324.got.cif
#   From: 2010.05.17/outbox.cif.g08.bks.cpg/sg11_11_cif.got.tgz:20324.got - 2010.06.03 12:22:45.
