data_PCOD9162647
_publ_section_title
;
Structure prediction by ZEFSAII (Michael W. Deem and Ramdas Pophale) SiO2 
 PCOD9162647
Probable space group: P 21/M
;
_chemical_formula_sum "Si O2"
_cell_formula_units_Z 32
_cell_length_a 10.409250
_cell_length_b 13.901396
_cell_length_c 10.531534
_cell_angle_alpha 90.000000
_cell_angle_beta 93.575108
_cell_angle_gamma 90.000000
_cell_volume 1520.979954
_symmetry_space_group_name_H-M "P 21/M"
_symmetry_group_IT_number 11
_symmetry_cell_setting 'monoclinic'
loop_
_space_group_symop_operation_xyz
x,y,z
-x,1/2+y,-z
-x,-y,-z
x,1/2-y,z
loop_
_atom_site_type_symbol
_atom_site_label
_atom_site_fract_x
_atom_site_fract_y
_atom_site_fract_z
Si Si1 0.841627 0.634310 0.948239
Si Si2 0.284297 0.638206 0.907590
Si Si3 0.399582 0.364709 0.706064
Si Si4 0.321488 0.135866 0.423253
Si Si5 0.685306 0.138379 0.792700
Si Si6 0.881517 0.512608 0.697926
Si Si7 0.858258 0.962857 0.207009
Si Si8 0.433860 0.134104 0.156080
O O1 0.855439 0.750000 0.938492
O O2 0.889430 0.579636 0.825633
O O3 0.688232 0.608137 0.938546
O O4 0.899907 0.594686 0.082040
O O5 0.270809 0.750000 0.868740
O O6 0.182531 0.569619 0.836427
O O7 0.426977 0.601673 0.879241
O O8 0.273554 0.633462 0.058323
O O9 0.387423 0.250000 0.727800
O O10 0.401027 0.382956 0.555001
O O11 0.536425 0.394122 0.773139
O O12 0.270423 0.412863 0.749502
O O13 0.295583 0.250000 0.415491
O O14 0.397412 0.109831 0.298776
O O15 0.187731 0.078341 0.410718
O O16 0.689320 0.250000 0.751966
O O17 0.781532 0.072928 0.719862
O O18 0.022979 0.470152 0.689609
O O19 0.439380 0.250000 0.149808
#
# Coordination Sequence:
#
# PCOD9162647 Si02
#       8
#     4   4   4   4   4   4   4   4
#     4  10  20  35  58  86 118 157 198 241 292 354
#     4  10  21  36  56  86 127 158 190 241 299 351
#     4  10  23  42  64  89 114 153 201 249 303 352
#     4   9  20  41  66  85 115 155 201 250 294 348
#     4  10  22  40  61  87 121 156 195 244 298 354
#     4  11  23  39  58  90 120 156 205 237 292 352
#     4  12  24  36  58  91 123 159 195 240 291 360
#     4   8  16  33  57  85 111 148 196 244 289 340
#
# _framework density 21.039066999999999
#
# number of rings (size 3 to 8) (size 9 to 14) (size 15 to 20)
#    0.000    2.000    1.250    2.625    3.500    6.000 
#    0.000    0.000    0.000    0.000    0.000    0.000 
#    0.000    0.000    0.000    0.000    0.000    0.000 
#
# Total GULP energy -178828.384260 kJ/mol
# GULP energy per Si atom -5588.387008 kJ/mol
# Density = 2.099118 g / cm^3
# Si number density = 21.039067 Si / 1000 Ang^3
#
#
#
# Elastic Constant Matrix: (Units=GPa)
#
#
# Indices 1 2 3 4 5 6 
#
# 1 99.3368 29.5349 -4.0018 0.0000 8.2484 0.0000
# 2 29.5349 88.7256 5.0475 0.0000 -1.8625 0.0000
# 3 -4.0018 5.0475 21.5614 0.0000 -2.5957 0.0000
# 4 0.0000 0.0000 0.0000 15.8203 0.0000 8.0988
# 5 8.2484 -1.8625 -2.5957 0.0000 11.3586 0.0000
# 6 0.0000 0.0000 0.0000 8.0988 0.0000 19.4521
#
#
#
# Elastic Compliance Matrix: (Units=1/GPa)
#
#
# Indices 1 2 3 4 5 6 
#
# 1 0.012212 -0.004381 0.002199 0.000000 -0.009084 0.000000
# 2 -0.004381 0.013013 -0.003311 0.000000 0.004559 0.000000
# 3 0.002199 -0.003311 0.048643 0.000000 0.008977 0.000000
# 4 0.000000 0.000000 0.000000 0.080332 0.000000 -0.033446
# 5 -0.009084 0.004559 0.008977 0.000000 0.097435 0.000000
# 6 0.000000 0.000000 0.000000 -0.033446 0.000000 0.065333
#
#
# Mechanical properties :
#
#
# Convention : Reuss Voigt Hill
#
# Bulk Modulus (GPa) = 15.90282 30.08725 22.99504
# Shear Modulus (GPa) = 14.33016 21.26241 17.79629
#
# Velocity S-wave (km/s) = 2.61266 3.18247 2.91154
# Velocity P-wave (km/s) = 4.08368 5.27597 4.71764
#
# Compressibility (1/GPa) = 0.06288192
#
# Stress axis : x y z
#
# Youngs Moduli (GPa) = 81.88540 76.84587 20.55802
#
# Poissons Ratio (x) = 0.33666 -0.04520
# Poissons Ratio (y) = 0.35874 0.06806
# Poissons Ratio (z) = -0.18003 0.25441
#
# Static dielectric constant tensor:
#      x y z
#    x 1.777520 0.000000 -0.006080 
#    y 0.000000 1.776380 0.000000 
#    z -0.006080 0.000000 1.732620 
# 
# From -- ./inp_files/31894.got.cif
#   From: 2010.05.17/outbox.cif.g08.bks.cpg/sg11_16_cif.got.tgz:31894.got - 2010.06.03 12:22:45.
