data_PCOD9162790
_publ_section_title
;
Structure prediction by ZEFSAII (Michael W. Deem and Ramdas Pophale) SiO2 
 PCOD9162790
Probable space group: P 21/M
;
_chemical_formula_sum "Si O2"
_cell_formula_units_Z 28
_cell_length_a 6.980622
_cell_length_b 31.995977
_cell_length_c 8.602637
_cell_angle_alpha 90.000000
_cell_angle_beta 36.828794
_cell_angle_gamma 90.000000
_cell_volume 1151.745758
_symmetry_space_group_name_H-M "P 21/M"
_symmetry_group_IT_number 11
_symmetry_cell_setting 'monoclinic'
loop_
_space_group_symop_operation_xyz
x,y,z
-x,1/2+y,-z
-x,-y,-z
x,1/2-y,z
loop_
_atom_site_type_symbol
_atom_site_label
_atom_site_fract_x
_atom_site_fract_y
_atom_site_fract_z
Si Si1 0.960545 0.059846 0.679918
Si Si2 0.667047 0.335266 0.157218
Si Si3 0.669985 0.604531 0.844623
Si Si4 0.313658 0.341112 0.892452
Si Si5 0.521583 0.098333 0.513015
Si Si6 0.862733 0.485583 0.256165
Si Si7 0.567217 0.250000 0.351672
Si Si8 0.328120 0.250000 0.856570
O O1 0.131938 0.080517 0.418363
O O2 0.177372 0.077576 0.685515
O O3 0.974749 0.010192 0.706959
O O4 0.588879 0.071724 0.922149
O O5 0.568668 0.360273 0.071601
O O6 0.559376 0.365784 0.363296
O O7 0.505918 0.290902 0.289875
O O8 0.043035 0.330906 0.940351
O O9 0.833539 0.635243 0.863711
O O10 0.512783 0.378010 0.682409
O O11 0.459514 0.295175 0.830868
O O12 0.805011 0.063932 0.312489
O O13 0.500000 0.500000 0.500000
O O14 0.000000 0.500000 0.000000
O O15 0.389647 0.250000 0.631129
O O16 0.949178 0.250000 0.142998
#
# Coordination Sequence:
#
# PCOD9162790 Si02
#       8
#     4   4   4   4   4   4   2   2
#     4  10  21  41  57  93 125 158 208 257 299 363
#     4  10  21  40  60  89 122 158 206 247 307 365
#     4  11  24  38  64  88 126 160 203 256 300 364
#     4  11  23  40  64  91 124 163 206 250 314 362
#     4  10  20  36  67  86 123 164 207 248 309 371
#     4  10  20  35  62  93 121 164 207 250 308 368
#     4  10  20  35  64  85 119 157 200 251 303 357
#     4  10  22  39  60  91 123 157 200 257 297 371
#
# _framework density 24.310922000000001
#
# number of rings (size 3 to 8) (size 9 to 14) (size 15 to 20)
#    0.000    1.714    2.857    2.571    4.000    0.571 
#    0.000    1.429    0.000    5.143    0.000    0.000 
#    0.000    0.000    0.000    0.000    0.000    0.000 
#
# Total GULP energy -156186.472358 kJ/mol
# GULP energy per Si atom -5578.088299 kJ/mol
# Density = 2.425559 g / cm^3
# Si number density = 24.310922 Si / 1000 Ang^3
#
#
#
# Elastic Constant Matrix: (Units=GPa)
#
#
# Indices 1 2 3 4 5 6 
#
# 1 35.9193 5.8665 -1.6508 0.0000 -0.5451 0.0000
# 2 5.8665 175.1314 26.0265 0.0000 11.1587 0.0000
# 3 -1.6508 26.0265 116.0601 0.0000 -5.8283 0.0000
# 4 0.0000 0.0000 0.0000 36.6518 0.0000 -4.3592
# 5 -0.5451 11.1587 -5.8283 0.0000 23.0940 0.0000
# 6 0.0000 0.0000 0.0000 -4.3592 0.0000 19.6384
#
#
#
# Elastic Compliance Matrix: (Units=1/GPa)
#
#
# Indices 1 2 3 4 5 6 
#
# 1 0.028080 -0.001137 0.000724 0.000000 0.001395 0.000000
# 2 -0.001137 0.006201 -0.001578 0.000000 -0.003421 0.000000
# 3 0.000724 -0.001578 0.009135 0.000000 0.003085 0.000000
# 4 0.000000 0.000000 0.000000 0.028024 0.000000 0.006220
# 5 0.001395 -0.003421 0.003085 0.000000 0.045766 0.000000
# 6 0.000000 0.000000 0.000000 0.006220 0.000000 0.052301
#
#
# Mechanical properties :
#
#
# Convention : Reuss Voigt Hill
#
# Bulk Modulus (GPa) = 25.35875 43.06613 34.21244
# Shear Modulus (GPa) = 26.79034 35.66810 31.22922
#
# Velocity S-wave (km/s) = 3.32322 3.83451 3.58799
# Velocity P-wave (km/s) = 5.01784 6.11211 5.59180
#
# Compressibility (1/GPa) = 0.03943412
#
# Stress axis : x y z
#
# Youngs Moduli (GPa) = 35.61206 161.27311 109.46380
#
# Poissons Ratio (x) = 0.18340 -0.07931
# Poissons Ratio (y) = 0.04050 0.17279
# Poissons Ratio (z) = -0.02580 0.25457
#
# Static dielectric constant tensor:
#      x y z
#    x 2.078730 0.000000 -0.038160 
#    y 0.000000 2.044900 0.000000 
#    z -0.038160 0.000000 1.926250 
# 
# From -- ./inp_files/10906.got.cif
#   From: 2010.05.17/outbox.cif.g08.bks.cpg/sg11_6_cif.got.tgz:10906.got - 2010.06.03 12:22:45.
