data_PCOD9162360
_publ_section_title
;
Structure prediction by ZEFSAII (Michael W. Deem and Ramdas Pophale) SiO2 
 PCOD9162360
Probable space group: P 21/M
;
_chemical_formula_sum "Si O2"
_cell_formula_units_Z 28
_cell_length_a 9.541334
_cell_length_b 25.747977
_cell_length_c 5.310875
_cell_angle_alpha 90.000000
_cell_angle_beta 99.050841
_cell_angle_gamma 90.000000
_cell_volume 1288.477997
_symmetry_space_group_name_H-M "P 21/M"
_symmetry_group_IT_number 11
_symmetry_cell_setting 'monoclinic'
loop_
_space_group_symop_operation_xyz
x,y,z
-x,1/2+y,-z
-x,-y,-z
x,1/2-y,z
loop_
_atom_site_type_symbol
_atom_site_label
_atom_site_fract_x
_atom_site_fract_y
_atom_site_fract_z
Si Si1 0.275173 0.847548 0.462650
Si Si2 0.751677 0.998393 0.967967
Si Si3 0.025102 0.382763 0.764439
Si Si4 0.661125 0.887675 0.139952
Si Si5 0.009767 0.450951 0.266632
Si Si6 0.452320 0.942834 0.397204
Si Si7 0.581120 0.309581 0.010881
O O1 0.110642 0.848451 0.339386
O O2 0.340266 0.906110 0.507943
O O3 0.355532 0.822644 0.246158
O O4 0.307378 0.819617 0.733727
O O5 0.856437 0.987394 0.762301
O O6 0.635178 0.041726 0.879759
O O7 0.683528 0.942968 0.008976
O O8 0.862688 0.018243 0.204646
O O9 0.026626 0.423369 0.534591
O O10 0.185120 0.361280 0.802944
O O11 0.004493 0.410153 0.030351
O O12 0.589106 0.907465 0.379198
O O13 0.549101 0.849051 0.985571
O O14 0.500000 0.000000 0.500000
O O15 0.535089 0.250000 0.004287
#
# Coordination Sequence:
#
# PCOD9162360 Si02
#       7
#     4   4   4   4   4   4   4
#     4  11  24  42  70  95 124 167 214 262 325 386
#     4  10  20  35  55  92 135 181 219 250 303 379
#     4  11  22  41  62  94 133 166 216 261 311 378
#     4  10  24  38  64  95 132 173 216 269 321 378
#     4  10  22  35  58  89 136 182 211 254 298 360
#     4  11  21  34  57  96 135 180 213 259 301 390
#     4  11  25  49  70  93 122 162 214 278 339 393
#
# _framework density 21.731065999999998
#
# number of rings (size 3 to 8) (size 9 to 14) (size 15 to 20)
#    0.000    1.429    1.429    3.429    4.000    8.571 
#    0.000    1.429    0.000    0.000    0.000    0.000 
#    0.000    0.000    0.000    0.000    0.000    0.000 
#
# Total GULP energy -156455.424248 kJ/mol
# GULP energy per Si atom -5587.693723 kJ/mol
# Density = 2.168160 g / cm^3
# Si number density = 21.731066 Si / 1000 Ang^3
#
#
#
# Elastic Constant Matrix: (Units=GPa)
#
#
# Indices 1 2 3 4 5 6 
#
# 1 111.5110 34.1497 11.5482 0.0000 20.5183 0.0000
# 2 34.1497 56.6524 6.3729 0.0000 3.4045 0.0000
# 3 11.5482 6.3729 95.6305 0.0000 0.1026 0.0000
# 4 0.0000 0.0000 0.0000 18.4934 0.0000 -2.6131
# 5 20.5183 3.4045 0.1026 0.0000 23.0316 0.0000
# 6 0.0000 0.0000 0.0000 -2.6131 0.0000 15.3531
#
#
#
# Elastic Compliance Matrix: (Units=1/GPa)
#
#
# Indices 1 2 3 4 5 6 
#
# 1 0.013276 -0.007232 -0.001110 0.000000 -0.010753 0.000000
# 2 -0.007232 0.021884 -0.000589 0.000000 0.003210 0.000000
# 3 -0.001110 -0.000589 0.010629 0.000000 0.001028 0.000000
# 4 0.000000 0.000000 0.000000 0.055406 0.000000 0.009430
# 5 -0.010753 0.003210 0.001028 0.000000 0.052519 0.000000
# 6 0.000000 0.000000 0.000000 0.009430 0.000000 0.066738
#
#
# Mechanical properties :
#
#
# Convention : Reuss Voigt Hill
#
# Bulk Modulus (GPa) = 35.80478 40.88170 38.34324
# Shear Modulus (GPa) = 20.19208 25.49050 22.84129
#
# Velocity S-wave (km/s) = 3.05155 3.42862 3.24557
# Velocity P-wave (km/s) = 5.37848 5.87600 5.63273
#
# Compressibility (1/GPa) = 0.02792923
#
# Stress axis : x y z
#
# Youngs Moduli (GPa) = 75.32433 45.69556 94.08184
#
# Poissons Ratio (x) = 0.33045 0.10440
# Poissons Ratio (y) = 0.54472 0.05537
# Poissons Ratio (z) = 0.08359 0.02689
#
# Static dielectric constant tensor:
#      x y z
#    x 1.863110 0.000000 -0.015460 
#    y 0.000000 1.781810 0.000000 
#    z -0.015460 0.000000 1.832240 
# 
# From -- ./inp_files/3042.got.cif
#   From: 2010.05.17/outbox.cif.g08.bks.cpg/sg11_2_cif.got.tgz:3042.got - 2010.06.03 12:22:45.
