data_PCOD9162204
_publ_section_title
;
Structure prediction by ZEFSAII (Michael W. Deem and Ramdas Pophale) SiO2 
 PCOD9162204
Probable space group: P 21/M
;
_chemical_formula_sum "Si O2"
_cell_formula_units_Z 32
_cell_length_a 18.745273
_cell_length_b 8.647465
_cell_length_c 11.868041
_cell_angle_alpha 90.000000
_cell_angle_beta 87.011673
_cell_angle_gamma 90.000000
_cell_volume 1921.182646
_symmetry_space_group_name_H-M "P 21/M"
_symmetry_group_IT_number 11
_symmetry_cell_setting 'monoclinic'
loop_
_space_group_symop_operation_xyz
x,y,z
-x,1/2+y,-z
-x,-y,-z
x,1/2-y,z
loop_
_atom_site_type_symbol
_atom_site_label
_atom_site_fract_x
_atom_site_fract_y
_atom_site_fract_z
Si Si1 0.083997 0.936978 0.389150
Si Si2 0.483208 0.434992 0.624242
Si Si3 0.644810 0.064545 0.220755
Si Si4 0.419447 0.433816 0.003043
Si Si5 0.624341 0.063641 0.758137
Si Si6 0.932245 0.566416 0.357078
Si Si7 0.783673 0.436162 0.340552
Si Si8 0.240785 0.562582 0.398819
O O1 0.081350 0.750000 0.405834
O O2 0.164719 0.975733 0.346816
O O3 0.014250 0.979150 0.321616
O O4 0.075297 0.016633 0.511423
O O5 0.500000 0.500000 0.500000
O O6 0.474424 0.250000 0.620863
O O7 0.413257 0.512064 0.682427
O O8 0.550596 0.469579 0.699200
O O9 0.644106 0.250000 0.212583
O O10 0.722584 0.014189 0.258848
O O11 0.620762 0.994519 0.104215
O O12 0.424218 0.250000 0.998048
O O13 0.379816 0.488202 0.119291
O O14 0.500000 0.500000 0.000000
O O15 0.629294 0.250000 0.770406
O O16 0.690849 0.008732 0.676584
O O17 0.926251 0.750000 0.346883
O O18 0.863524 0.490938 0.305126
O O19 0.784251 0.250000 0.343991
O O20 0.763274 0.489317 0.469980
O O21 0.245700 0.750000 0.402530
#
# Coordination Sequence:
#
# PCOD9162204 Si02
#       8
#     4   4   4   4   4   4   4   4
#     4   8  14  25  41  64  97 136 169 197 237 289
#     4  11  22  34  51  75 105 136 167 202 245 299
#     4  11  22  37  56  75  97 129 170 212 256 302
#     4  12  24  39  57  75  96 126 165 212 259 302
#     4  10  20  35  54  74  97 130 169 208 250 295
#     4   9  15  23  40  67  98 132 168 202 237 285
#     4   9  18  32  49  71 101 135 165 200 249 303
#     4   8  14  28  49  71  99 133 166 198 237 293
#
# _framework density 16.656407000000002
#
# number of rings (size 3 to 8) (size 9 to 14) (size 15 to 20)
#    0.000    2.250    1.250    3.750    0.000    4.000 
#    0.000    2.500    0.000    0.000    0.000    0.875 
#    0.000    0.000    0.000    0.000    0.000    0.000 
#
# Total GULP energy -178354.949870 kJ/mol
# GULP energy per Si atom -5573.592183 kJ/mol
# Density = 1.661850 g / cm^3
# Si number density = 16.656407 Si / 1000 Ang^3
#
#
#
# Elastic Constant Matrix: (Units=GPa)
#
#
# Indices 1 2 3 4 5 6 
#
# 1 126.6513 31.1145 31.1700 0.0000 34.4591 0.0000
# 2 31.1145 30.9377 22.4334 0.0000 11.6635 0.0000
# 3 31.1700 22.4334 70.9130 0.0000 24.6476 0.0000
# 4 0.0000 0.0000 0.0000 22.4958 0.0000 1.2154
# 5 34.4591 11.6635 24.6476 0.0000 17.1418 0.0000
# 6 0.0000 0.0000 0.0000 1.2154 0.0000 22.8522
#
#
#
# Elastic Compliance Matrix: (Units=1/GPa)
#
#
# Indices 1 2 3 4 5 6 
#
# 1 0.023379 -0.011217 0.013903 0.000000 -0.059357 0.000000
# 2 -0.011217 0.050635 -0.013894 0.000000 0.008074 0.000000
# 3 0.013903 -0.013894 0.037611 0.000000 -0.072575 0.000000
# 4 0.000000 0.000000 0.000000 0.044581 0.000000 -0.002371
# 5 -0.059357 0.008074 -0.072575 0.000000 0.276519 0.000000
# 6 0.000000 0.000000 0.000000 -0.002371 0.000000 0.043886
#
#
# Mechanical properties :
#
#
# Convention : Reuss Voigt Hill
#
# Bulk Modulus (GPa) = 11.20951 44.21531 27.71241
# Shear Modulus (GPa) = 9.45600 22.08356 15.76978
#
# Velocity S-wave (km/s) = 2.38525 3.64514 3.08030
# Velocity P-wave (km/s) = 3.78555 6.65727 5.41524
#
# Compressibility (1/GPa) = 0.08920997
#
# Stress axis : x y z
#
# Youngs Moduli (GPa) = 42.77253 19.74916 26.58765
#
# Poissons Ratio (x) = 0.22152 -0.36965
# Poissons Ratio (y) = 0.47977 0.36942
# Poissons Ratio (z) = -0.59467 0.27440
#
# Static dielectric constant tensor:
#      x y z
#    x 1.582400 0.000000 0.020580 
#    y 0.000000 1.558060 0.000000 
#    z 0.020580 0.000000 1.525630 
# 
# From -- ./inp_files/40641.got.cif
#   From: 2010.05.17/outbox.cif.g08.bks.cpg/sg11_21_cif.got.tgz:40641.got - 2010.06.03 12:22:45.
