data_PCOD9162658
_publ_section_title
;
Structure prediction by ZEFSAII (Michael W. Deem and Ramdas Pophale) SiO2 
 PCOD9162658
Probable space group: P 21/M
;
_chemical_formula_sum "Si O2"
_cell_formula_units_Z 28
_cell_length_a 32.409068
_cell_length_b 8.883069
_cell_length_c 9.800358
_cell_angle_alpha 90.000000
_cell_angle_beta 34.988491
_cell_angle_gamma 90.000000
_cell_volume 1617.849823
_symmetry_space_group_name_H-M "P 21/M"
_symmetry_group_IT_number 11
_symmetry_cell_setting 'monoclinic'
loop_
_space_group_symop_operation_xyz
x,y,z
-x,1/2+y,-z
-x,-y,-z
x,1/2-y,z
loop_
_atom_site_type_symbol
_atom_site_label
_atom_site_fract_x
_atom_site_fract_y
_atom_site_fract_z
Si Si1 0.700321 0.569679 0.613478
Si Si2 0.396859 0.430059 0.882252
Si Si3 0.147180 0.570052 0.774766
Si Si4 0.996761 0.431865 0.661931
Si Si5 0.577628 0.426215 0.763376
Si Si6 0.064877 0.931367 0.734425
Si Si7 0.440870 0.574378 0.498596
O O1 0.702078 0.750000 0.604901
O O2 0.779539 0.506436 0.377533
O O3 0.641261 0.510129 0.667889
O O4 0.667648 0.517365 0.847652
O O5 0.396524 0.250000 0.887933
O O6 0.395563 0.485745 0.732090
O O7 0.475663 0.479633 0.724761
O O8 0.154140 0.750000 0.764269
O O9 0.130774 0.533617 0.659206
O O10 0.079228 0.529706 0.056160
O O11 0.002585 0.250000 0.640160
O O12 0.000000 0.500000 0.500000
O O13 0.056549 0.497474 0.606307
O O14 0.575430 0.250000 0.807775
O O15 0.589191 0.437221 0.570491
O O16 0.500000 0.500000 0.000000
O O17 0.058476 0.750000 0.742083
O O18 0.000000 0.000000 0.000000
O O19 0.442304 0.750000 0.534616
#
# Coordination Sequence:
#
# PCOD9162658 Si02
#       7
#     4   4   4   4   4   4   4
#     4  11  22  36  54  79 109 141 181 228 275 328
#     4   9  18  33  50  73 101 128 168 217 264 315
#     4   9  20  37  55  80 111 145 182 223 270 325
#     4  10  20  35  58  87 117 146 184 227 271 325
#     4  11  21  35  54  77 106 140 182 229 276 330
#     4   9  17  32  55  81 110 142 181 222 264 318
#     4   9  18  33  51  73  99 127 169 219 265 316
#
# _framework density 17.306920999999999
#
# number of rings (size 3 to 8) (size 9 to 14) (size 15 to 20)
#    0.000    2.286    1.429    2.571    0.000    5.714 
#    0.000    1.429    0.000    1.714    0.000    0.000 
#    0.000    0.000    0.000    0.000    0.000    0.000 
#
# Total GULP energy -155999.615346 kJ/mol
# GULP energy per Si atom -5571.414834 kJ/mol
# Density = 1.726753 g / cm^3
# Si number density = 17.306921 Si / 1000 Ang^3
#
#
#
# Elastic Constant Matrix: (Units=GPa)
#
#
# Indices 1 2 3 4 5 6 
#
# 1 102.6582 42.3986 46.0182 0.0000 -2.7275 0.0000
# 2 42.3986 34.8945 34.5609 0.0000 -1.4696 0.0000
# 3 46.0182 34.5609 73.2037 0.0000 -0.8193 0.0000
# 4 0.0000 0.0000 0.0000 27.6521 0.0000 2.7534
# 5 -2.7275 -1.4696 -0.8193 0.0000 30.0898 0.0000
# 6 0.0000 0.0000 0.0000 2.7534 0.0000 32.8670
#
#
#
# Elastic Compliance Matrix: (Units=1/GPa)
#
#
# Indices 1 2 3 4 5 6 
#
# 1 0.019727 -0.021913 -0.002048 0.000000 0.000662 0.000000
# 2 -0.021913 0.078283 -0.023170 0.000000 0.001206 0.000000
# 3 -0.002048 -0.023170 0.025880 0.000000 -0.000613 0.000000
# 4 0.000000 0.000000 0.000000 0.036468 0.000000 -0.003055
# 5 0.000662 0.001206 -0.000613 0.000000 0.033336 0.000000
# 6 0.000000 0.000000 0.000000 -0.003055 0.000000 0.030682
#
#
# Mechanical properties :
#
#
# Convention : Reuss Voigt Hill
#
# Bulk Modulus (GPa) = 33.75233 50.74575 42.24904
# Shear Modulus (GPa) = 15.22010 23.97369 19.59689
#
# Velocity S-wave (km/s) = 2.96872 3.72588 3.36864
# Velocity P-wave (km/s) = 5.59425 6.92057 6.29245
#
# Compressibility (1/GPa) = 0.02962759
#
# Stress axis : x y z
#
# Youngs Moduli (GPa) = 50.69214 12.77425 38.63964
#
# Poissons Ratio (x) = 0.27992 0.07914
# Poissons Ratio (y) = 1.11081 0.89528
# Poissons Ratio (z) = 0.10382 0.29598
#
# Static dielectric constant tensor:
#      x y z
#    x 1.608980 0.000000 -0.000510 
#    y 0.000000 1.571370 0.000000 
#    z -0.000510 0.000000 1.592960 
# 
# From -- ./inp_files/28361.got.cif
#   From: 2010.05.17/outbox.cif.g08.bks.cpg/sg11_15_cif.got.tgz:28361.got - 2010.06.03 12:22:45.
