data_PCOD9162228
_publ_section_title
;
Structure prediction by ZEFSAII (Michael W. Deem and Ramdas Pophale) SiO2 
 PCOD9162228
Probable space group: P 21/M
;
_chemical_formula_sum "Si O2"
_cell_formula_units_Z 32
_cell_length_a 12.129877
_cell_length_b 14.828194
_cell_length_c 14.320762
_cell_angle_alpha 90.000000
_cell_angle_beta 142.218959
_cell_angle_gamma 90.000000
_cell_volume 1578.047509
_symmetry_space_group_name_H-M "P 21/M"
_symmetry_group_IT_number 11
_symmetry_cell_setting 'monoclinic'
loop_
_space_group_symop_operation_xyz
x,y,z
-x,1/2+y,-z
-x,-y,-z
x,1/2-y,z
loop_
_atom_site_type_symbol
_atom_site_label
_atom_site_fract_x
_atom_site_fract_y
_atom_site_fract_z
Si Si1 0.753976 0.982312 0.980768
Si Si2 0.999083 0.352939 0.749611
Si Si3 0.016387 0.599913 0.471462
Si Si4 0.423841 0.908722 0.995218
Si Si5 0.446464 0.967351 0.319263
Si Si6 0.333381 0.348741 0.670766
Si Si7 0.581894 0.348759 0.211000
Si Si8 0.577177 0.145532 0.507946
O O1 0.571492 0.921446 0.868399
O O2 0.742343 0.059470 0.052318
O O3 0.730835 0.026837 0.864415
O O4 0.914085 0.916310 0.114113
O O5 0.066681 0.250000 0.801682
O O6 0.043860 0.389585 0.676217
O O7 0.785426 0.352261 0.617724
O O8 0.875917 0.651279 0.443445
O O9 0.000000 0.500000 0.500000
O O10 0.222797 0.630138 0.616346
O O11 0.563569 0.867892 0.162651
O O12 0.390352 0.849349 0.882387
O O13 0.500000 0.000000 0.000000
O O14 0.604059 0.926434 0.358517
O O15 0.431700 0.897861 0.394752
O O16 0.484241 0.068367 0.382153
O O17 0.387657 0.250000 0.671531
O O18 0.523464 0.250000 0.204129
O O19 0.510631 0.250000 0.458858
#
# Coordination Sequence:
#
# PCOD9162228 Si02
#       8
#     4   4   4   4   4   4   4   4
#     4  10  20  35  54  78 108 144 183 225 277 330
#     4  11  22  36  56  83 113 146 186 231 279 334
#     4  12  22  34  52  79 115 151 188 231 280 331
#     4   9  18  32  48  71 106 148 186 224 269 323
#     4  10  22  40  62  85 111 147 188 234 284 336
#     4  11  21  35  56  82 114 153 194 234 283 341
#     4  11  20  31  49  76 110 146 185 225 268 322
#     4  10  22  41  63  86 113 145 186 234 284 338
#
# _framework density 20.278224000000002
#
# number of rings (size 3 to 8) (size 9 to 14) (size 15 to 20)
#    0.000    1.500    0.000    8.250    0.000    2.500 
#    0.000    0.000    0.000    0.000    0.000    9.625 
#    0.000    0.000    0.000    0.000    0.000    0.000 
#
# Total GULP energy -178600.026458 kJ/mol
# GULP energy per Si atom -5581.250827 kJ/mol
# Density = 2.023207 g / cm^3
# Si number density = 20.278224 Si / 1000 Ang^3
#
#
#
# Elastic Constant Matrix: (Units=GPa)
#
#
# Indices 1 2 3 4 5 6 
#
# 1 60.7310 16.3308 19.0963 0.0000 -21.1002 0.0000
# 2 16.3308 116.6127 3.2984 0.0000 -8.7149 0.0000
# 3 19.0963 3.2984 27.3608 0.0000 -19.1538 0.0000
# 4 0.0000 0.0000 0.0000 43.7948 0.0000 -8.0680
# 5 -21.1002 -8.7149 -19.1538 0.0000 29.3072 0.0000
# 6 0.0000 0.0000 0.0000 -8.0680 0.0000 27.5369
#
#
#
# Elastic Compliance Matrix: (Units=1/GPa)
#
#
# Indices 1 2 3 4 5 6 
#
# 1 0.023477 -0.002255 -0.008757 0.000000 0.010509 0.000000
# 2 -0.002255 0.009017 0.002262 0.000000 0.002536 0.000000
# 3 -0.008757 0.002262 0.070869 0.000000 0.040684 0.000000
# 4 0.000000 0.000000 0.000000 0.024137 0.000000 0.007072
# 5 0.010509 0.002536 0.040684 0.000000 0.069031 0.000000
# 6 0.000000 0.000000 0.000000 0.007072 0.000000 0.038387
#
#
# Mechanical properties :
#
#
# Convention : Reuss Voigt Hill
#
# Bulk Modulus (GPa) = 11.64636 31.35060 21.49848
# Shear Modulus (GPa) = 17.79118 31.19304 24.49211
#
# Velocity S-wave (km/s) = 2.96523 3.92631 3.47912
# Velocity P-wave (km/s) = 4.18081 6.00403 5.17337
#
# Compressibility (1/GPa) = 0.08586376
#
# Stress axis : x y z
#
# Youngs Moduli (GPa) = 42.59448 110.90501 14.11053
#
# Poissons Ratio (x) = 0.25006 0.12357
# Poissons Ratio (y) = 0.09604 -0.03192
# Poissons Ratio (z) = 0.37301 -0.25091
#
# Static dielectric constant tensor:
#      x y z
#    x 1.769480 0.000000 -0.015120 
#    y 0.000000 1.851840 0.000000 
#    z -0.015120 0.000000 1.720660 
# 
# From -- ./inp_files/39688.got.cif
#   From: 2010.05.17/outbox.cif.g08.bks.cpg/sg11_20_cif.got.tgz:39688.got - 2010.06.03 12:22:45.
