data_PCOD9162823
_publ_section_title
;
Structure prediction by ZEFSAII (Michael W. Deem and Ramdas Pophale) SiO2 
 PCOD9162823
Probable space group: P 21/M
;
_chemical_formula_sum "Si O2"
_cell_formula_units_Z 32
_cell_length_a 19.042105
_cell_length_b 13.674026
_cell_length_c 14.909604
_cell_angle_alpha 90.000000
_cell_angle_beta 22.118015
_cell_angle_gamma 90.000000
_cell_volume 1461.707245
_symmetry_space_group_name_H-M "P 21/M"
_symmetry_group_IT_number 11
_symmetry_cell_setting 'monoclinic'
loop_
_space_group_symop_operation_xyz
x,y,z
-x,1/2+y,-z
-x,-y,-z
x,1/2-y,z
loop_
_atom_site_type_symbol
_atom_site_label
_atom_site_fract_x
_atom_site_fract_y
_atom_site_fract_z
Si Si1 0.137876 0.638843 0.365839
Si Si2 0.297691 0.138659 0.569429
Si Si3 0.719223 0.516669 0.238721
Si Si4 0.547060 0.438292 0.124083
Si Si5 0.937765 0.140859 0.868596
Si Si6 0.175396 0.488506 0.481222
Si Si7 0.746232 0.642102 0.882841
Si Si8 0.954901 0.858720 0.828428
O O1 0.161603 0.750000 0.373212
O O2 0.184880 0.554324 0.381820
O O3 0.915792 0.628763 0.611132
O O4 0.281070 0.623253 0.116505
O O5 0.328411 0.250000 0.568257
O O6 0.235972 0.058993 0.715900
O O7 0.477612 0.098953 0.302726
O O8 0.132400 0.145989 0.692740
O O9 0.500000 0.500000 0.500000
O O10 0.800141 0.600210 0.078069
O O11 0.806814 0.419722 0.090708
O O12 0.367906 0.433065 0.270303
O O13 0.609288 0.551417 0.047955
O O14 0.870174 0.250000 0.930344
O O15 0.997523 0.082190 0.708033
O O16 0.130054 0.568329 0.613636
O O17 0.661990 0.750000 0.969532
O O18 0.857336 0.642070 0.846090
O O19 0.012756 0.750000 0.784273
#
# Coordination Sequence:
#
# PCOD9162823 Si02
#       8
#     4   4   4   4   4   4   4   4
#     4  10  20  36  55  76 105 143 176 210 264 323
#     4  10  21  37  55  78 108 144 182 221 266 318
#     4  11  21  34  55  82 109 139 178 223 264 316
#     4  11  20  34  54  80 107 136 178 226 264 305
#     4   9  20  38  57  78 109 143 176 217 269 321
#     4   9  19  34  55  79 102 133 174 218 263 312
#     4   9  19  34  52  74 104 138 174 216 265 316
#     4   9  18  35  54  73 102 140 173 211 266 321
#
# _framework density 21.892208
#
# number of rings (size 3 to 8) (size 9 to 14) (size 15 to 20)
#    0.000    2.250    0.000    3.750    0.000    2.500 
#    0.000    1.250    0.000    5.250    0.000    0.000 
#    0.000    0.000    0.000    0.000    0.000    0.000 
#
# Total GULP energy -178570.232942 kJ/mol
# GULP energy per Si atom -5580.319779 kJ/mol
# Density = 2.184238 g / cm^3
# Si number density = 21.892208 Si / 1000 Ang^3
#
#
#
# Elastic Constant Matrix: (Units=GPa)
#
#
# Indices 1 2 3 4 5 6 
#
# 1 29.9254 14.8079 16.1455 0.0000 9.9966 0.0000
# 2 14.8079 145.2533 47.2370 0.0000 13.0648 0.0000
# 3 16.1455 47.2370 139.7001 0.0000 22.2145 0.0000
# 4 0.0000 0.0000 0.0000 24.7233 0.0000 -1.6680
# 5 9.9966 13.0648 22.2145 0.0000 26.6372 0.0000
# 6 0.0000 0.0000 0.0000 -1.6680 0.0000 22.7651
#
#
#
# Elastic Compliance Matrix: (Units=1/GPa)
#
#
# Indices 1 2 3 4 5 6 
#
# 1 0.039645 -0.002343 -0.001852 0.000000 -0.012185 0.000000
# 2 -0.002343 0.007954 -0.002235 0.000000 -0.001158 0.000000
# 3 -0.001852 -0.002235 0.009042 0.000000 -0.005750 0.000000
# 4 0.000000 0.000000 0.000000 0.040649 0.000000 0.002978
# 5 -0.012185 -0.001158 -0.005750 0.000000 0.047477 0.000000
# 6 0.000000 0.000000 0.000000 0.002978 0.000000 0.044145
#
#
# Mechanical properties :
#
#
# Convention : Reuss Voigt Hill
#
# Bulk Modulus (GPa) = 22.84052 52.36217 37.60134
# Shear Modulus (GPa) = 23.10888 30.60435 26.85662
#
# Velocity S-wave (km/s) = 3.25249 3.74298 3.50632
# Velocity P-wave (km/s) = 4.95588 6.53070 5.79701
#
# Compressibility (1/GPa) = 0.04378184
#
# Stress axis : x y z
#
# Youngs Moduli (GPa) = 25.22356 125.71809 110.59365
#
# Poissons Ratio (x) = 0.29461 0.20482
# Poissons Ratio (y) = 0.05911 0.24713
# Poissons Ratio (z) = 0.04671 0.28092
#
# Static dielectric constant tensor:
#      x y z
#    x 1.869500 0.000000 0.010980 
#    y 0.000000 1.840580 0.000000 
#    z 0.010980 0.000000 1.819200 
# 
# From -- ./inp_files/21559.got.cif
#   From: 2010.05.17/outbox.cif.g08.bks.cpg/sg11_11_cif.got.tgz:21559.got - 2010.06.03 12:22:45.
