data_PCOD9162978
_publ_section_title
;
Structure prediction by ZEFSAII (Michael W. Deem and Ramdas Pophale) SiO2 
 PCOD9162978
Probable space group: P 21/M
;
_chemical_formula_sum "Si O2"
_cell_formula_units_Z 32
_cell_length_a 15.052229
_cell_length_b 8.606036
_cell_length_c 25.500713
_cell_angle_alpha 90.000000
_cell_angle_beta 148.928698
_cell_angle_gamma 90.000000
_cell_volume 1704.880114
_symmetry_space_group_name_H-M "P 21/M"
_symmetry_group_IT_number 11
_symmetry_cell_setting 'monoclinic'
loop_
_space_group_symop_operation_xyz
x,y,z
-x,1/2+y,-z
-x,-y,-z
x,1/2-y,z
loop_
_atom_site_type_symbol
_atom_site_label
_atom_site_fract_x
_atom_site_fract_y
_atom_site_fract_z
Si Si1 0.075766 0.562166 0.483638
Si Si2 0.506046 0.564334 0.842112
Si Si3 0.184188 0.064073 0.739840
Si Si4 0.029266 0.935336 0.766174
Si Si5 0.669807 0.065414 0.612737
Si Si6 0.541428 0.060893 0.301972
Si Si7 0.134132 0.562974 0.937746
Si Si8 0.754640 0.562087 0.769972
O O1 0.071388 0.750000 0.483232
O O2 0.275542 0.513119 0.580939
O O3 0.000000 0.500000 0.500000
O O4 0.957944 0.512271 0.375245
O O5 0.485397 0.750000 0.834125
O O6 0.368823 0.486586 0.811309
O O7 0.467106 0.512175 0.762864
O O8 0.698945 0.517986 0.954793
O O9 0.175959 0.250000 0.739819
O O10 0.141889 0.990958 0.774505
O O11 0.008494 0.750000 0.754602
O O12 0.109113 0.975481 0.863437
O O13 0.841344 0.012632 0.668930
O O14 0.662847 0.250000 0.611136
O O15 0.500000 0.000000 0.500000
O O16 0.688807 0.997778 0.680770
O O17 0.538128 0.250000 0.300741
O O18 0.375641 0.007913 0.250909
O O19 0.152827 0.750000 0.951371
O O20 0.955191 0.516415 0.875577
O O21 0.751987 0.750000 0.767300
#
# Coordination Sequence:
#
# PCOD9162978 Si02
#       8
#     4   4   4   4   4   4   4   4
#     4  10  20  36  57  82 116 155 190 232 287 342
#     4  11  22  37  60  85 113 155 198 241 288 342
#     4  11  23  37  58  89 119 153 193 239 291 346
#     4  10  22  41  62  85 115 153 192 238 295 349
#     4  11  22  37  57  85 118 153 195 240 286 342
#     4   9  19  36  58  85 116 152 193 234 286 347
#     4   9  20  39  60  83 114 149 188 241 299 349
#     4   9  19  38  61  83 114 154 192 238 294 345
#
# _framework density 18.769648
#
# number of rings (size 3 to 8) (size 9 to 14) (size 15 to 20)
#    0.000    2.000    1.250    3.000    1.750    4.000 
#    0.000    1.875    0.000    0.000    0.000    0.000 
#    0.000    0.000    0.000    0.000    0.000    0.000 
#
# Total GULP energy -178712.218627 kJ/mol
# GULP energy per Si atom -5584.756832 kJ/mol
# Density = 1.872693 g / cm^3
# Si number density = 18.769648 Si / 1000 Ang^3
#
#
#
# Elastic Constant Matrix: (Units=GPa)
#
#
# Indices 1 2 3 4 5 6 
#
# 1 101.8530 1.0989 3.3766 0.0000 23.9487 0.0000
# 2 1.0989 14.7297 7.4524 0.0000 3.3295 0.0000
# 3 3.3766 7.4524 74.1743 0.0000 26.6772 0.0000
# 4 0.0000 0.0000 0.0000 25.6547 0.0000 3.5895
# 5 23.9487 3.3295 26.6772 0.0000 18.2631 0.0000
# 6 0.0000 0.0000 0.0000 3.5895 0.0000 25.3073
#
#
#
# Elastic Compliance Matrix: (Units=1/GPa)
#
#
# Indices 1 2 3 4 5 6 
#
# 1 0.023803 0.001611 0.021250 0.000000 -0.062547 0.000000
# 2 0.001611 0.071885 -0.003840 0.000000 -0.009609 0.000000
# 3 0.021250 -0.003840 0.047763 0.000000 -0.096933 0.000000
# 4 0.000000 0.000000 0.000000 0.039768 0.000000 -0.005641
# 5 -0.062547 -0.009609 -0.096933 0.000000 0.280118 0.000000
# 6 0.000000 0.000000 0.000000 -0.005641 0.000000 0.040314
#
#
# Mechanical properties :
#
#
# Convention : Reuss Voigt Hill
#
# Bulk Modulus (GPa) = 5.50987 23.84586 14.67787
# Shear Modulus (GPa) = 9.50378 25.76696 17.63537
#
# Velocity S-wave (km/s) = 2.25264 3.70915 3.06856
# Velocity P-wave (km/s) = 3.11572 5.57457 4.51572
#
# Compressibility (1/GPa) = 0.18149243
#
# Stress axis : x y z
#
# Youngs Moduli (GPa) = 42.01175 13.91120 20.93679
#
# Poissons Ratio (x) = -0.02241 -0.44491
# Poissons Ratio (y) = -0.06768 0.08039
# Poissons Ratio (z) = -0.89275 0.05342
#
# Static dielectric constant tensor:
#      x y z
#    x 1.644420 0.000000 0.016180 
#    y 0.000000 1.630160 0.000000 
#    z 0.016180 0.000000 1.639240 
# 
# From -- ./inp_files/51757.got.cif
#   From: 2010.05.17/outbox.cif.g08.bks.cpg/sg11_26_cif.got.tgz:51757.got - 2010.06.03 12:22:45.
