data_PCOD9162706
_publ_section_title
;
Structure prediction by ZEFSAII (Michael W. Deem and Ramdas Pophale) SiO2 
 PCOD9162706
Probable space group: P 21/M
;
_chemical_formula_sum "Si O2"
_cell_formula_units_Z 28
_cell_length_a 12.324641
_cell_length_b 8.265438
_cell_length_c 14.426140
_cell_angle_alpha 90.000000
_cell_angle_beta 69.951167
_cell_angle_gamma 90.000000
_cell_volume 1380.515248
_symmetry_space_group_name_H-M "P 21/M"
_symmetry_group_IT_number 11
_symmetry_cell_setting 'monoclinic'
loop_
_space_group_symop_operation_xyz
x,y,z
-x,1/2+y,-z
-x,-y,-z
x,1/2-y,z
loop_
_atom_site_type_symbol
_atom_site_label
_atom_site_fract_x
_atom_site_fract_y
_atom_site_fract_z
Si Si1 0.555092 0.938082 0.687361
Si Si2 0.373564 0.937049 0.514193
Si Si3 0.723567 0.057278 0.777446
Si Si4 0.159999 0.948190 0.694796
Si Si5 0.372221 0.555488 0.004553
Si Si6 0.304373 0.947121 0.819936
Si Si7 0.040969 0.055429 0.385087
O O1 0.559274 0.750000 0.660579
O O2 0.422037 0.990137 0.730081
O O3 0.633552 0.035493 0.592902
O O4 0.612169 0.966569 0.769231
O O5 0.372603 0.750000 0.537326
O O6 0.266964 0.008645 0.600538
O O7 0.500000 0.000000 0.500000
O O8 0.707901 0.250000 0.773050
O O9 0.720272 0.017052 0.887480
O O10 0.834627 0.004956 0.686161
O O11 0.156808 0.750000 0.696175
O O12 0.194699 0.998059 0.789528
O O13 0.047382 0.999164 0.670693
O O14 0.379542 0.750000 0.994992
O O15 0.500000 0.500000 0.000000
O O16 0.326579 0.494078 0.918126
O O17 0.301828 0.750000 0.823886
O O18 0.042258 0.250000 0.387239
O O19 0.000000 0.000000 0.500000
#
# Coordination Sequence:
#
# PCOD9162706 Si02
#       7
#     4   4   4   4   4   4   4
#     4  11  20  33  56  83 113 152 195 241 295 353
#     4  11  20  32  51  81 117 150 187 235 296 362
#     4  11  23  38  57  86 122 156 195 244 298 357
#     4   9  19  36  57  80 110 150 194 241 291 345
#     4  10  20  35  59  87 118 155 193 243 298 353
#     4   9  17  33  56  83 113 146 187 237 295 352
#     4  11  23  41  65  87 114 156 202 248 294 352
#
# _framework density 20.282281000000001
#
# number of rings (size 3 to 8) (size 9 to 14) (size 15 to 20)
#    0.000    1.714    2.857    2.571    0.000    1.714 
#    0.000    2.857    0.000    0.000    0.000    0.000 
#    0.000    0.000    0.000    0.000    0.000    0.000 
#
# Total GULP energy -156106.794833 kJ/mol
# GULP energy per Si atom -5575.242673 kJ/mol
# Density = 2.023612 g / cm^3
# Si number density = 20.282281 Si / 1000 Ang^3
#
#
#
# Elastic Constant Matrix: (Units=GPa)
#
#
# Indices 1 2 3 4 5 6 
#
# 1 111.7490 7.3882 33.0296 0.0000 21.5276 0.0000
# 2 7.3882 18.2887 4.0212 0.0000 -2.8473 0.0000
# 3 33.0296 4.0212 103.8318 0.0000 17.9981 0.0000
# 4 0.0000 0.0000 0.0000 20.1425 0.0000 1.9734
# 5 21.5276 -2.8473 17.9981 0.0000 36.5758 0.0000
# 6 0.0000 0.0000 0.0000 1.9734 0.0000 21.4822
#
#
#
# Elastic Compliance Matrix: (Units=1/GPa)
#
#
# Indices 1 2 3 4 5 6 
#
# 1 0.011066 -0.004850 -0.002337 0.000000 -0.005741 0.000000
# 2 -0.004850 0.058440 -0.002191 0.000000 0.008482 0.000000
# 3 -0.002337 -0.002191 0.011206 0.000000 -0.004309 0.000000
# 4 0.000000 0.000000 0.000000 0.050097 0.000000 -0.004602
# 5 -0.005741 0.008482 -0.004309 0.000000 0.033500 0.000000
# 6 0.000000 0.000000 0.000000 -0.004602 0.000000 0.046973
#
#
# Mechanical properties :
#
#
# Convention : Reuss Voigt Hill
#
# Bulk Modulus (GPa) = 16.14045 35.86085 26.00065
# Shear Modulus (GPa) = 19.94486 28.26879 24.10683
#
# Velocity S-wave (km/s) = 3.13927 3.73737 3.45130
# Velocity P-wave (km/s) = 4.59512 6.02853 5.35996
#
# Compressibility (1/GPa) = 0.06195616
#
# Stress axis : x y z
#
# Youngs Moduli (GPa) = 90.36680 17.11148 89.23588
#
# Poissons Ratio (x) = 0.08300 0.20857
# Poissons Ratio (y) = 0.43830 0.19549
# Poissons Ratio (z) = 0.21121 0.03749
#
# Static dielectric constant tensor:
#      x y z
#    x 1.742930 0.000000 0.058010 
#    y 0.000000 1.722400 0.000000 
#    z 0.058010 0.000000 1.805960 
# 
# From -- ./inp_files/48907.got.cif
#   From: 2010.05.17/outbox.cif.g08.bks.cpg/sg11_25_cif.got.tgz:48907.got - 2010.06.03 12:22:45.
