data_PCOD9162069
_publ_section_title
;
Structure prediction by ZEFSAII (Michael W. Deem and Ramdas Pophale) SiO2 
 PCOD9162069
Probable space group: P 21/M
;
_chemical_formula_sum "Si O2"
_cell_formula_units_Z 32
_cell_length_a 8.699277
_cell_length_b 14.123066
_cell_length_c 23.647507
_cell_angle_alpha 90.000000
_cell_angle_beta 29.596538
_cell_angle_gamma 90.000000
_cell_volume 1434.918230
_symmetry_space_group_name_H-M "P 21/M"
_symmetry_group_IT_number 11
_symmetry_cell_setting 'monoclinic'
loop_
_space_group_symop_operation_xyz
x,y,z
-x,1/2+y,-z
-x,-y,-z
x,1/2-y,z
loop_
_atom_site_type_symbol
_atom_site_label
_atom_site_fract_x
_atom_site_fract_y
_atom_site_fract_z
Si Si1 0.261623 0.639520 0.034494
Si Si2 0.144721 0.594652 0.427937
Si Si3 0.455599 0.645135 0.651752
Si Si4 0.671871 0.137544 0.861347
Si Si5 0.390429 0.359874 0.619626
Si Si6 0.823614 0.364924 0.381145
Si Si7 0.525568 0.955146 0.842295
Si Si8 0.320608 0.002951 0.794687
O O1 0.167427 0.750000 0.064675
O O2 0.431506 0.623863 0.040305
O O3 0.965889 0.571035 0.125545
O O4 0.457824 0.613753 0.916591
O O5 0.384445 0.632506 0.398328
O O6 0.364712 0.567581 0.305375
O O7 0.000000 0.500000 0.500000
O O8 0.827031 0.650502 0.520745
O O9 0.348737 0.750000 0.702825
O O10 0.297432 0.618150 0.643380
O O11 0.372776 0.571185 0.727252
O O12 0.637328 0.250000 0.858695
O O13 0.039141 0.108432 0.742841
O O14 0.517878 0.061674 0.869462
O O15 0.350261 0.250000 0.619363
O O16 0.574425 0.399543 0.507168
O O17 0.869255 0.250000 0.373113
O O18 0.142478 0.420630 0.287389
O O19 0.294709 0.951405 0.862984
#
# Coordination Sequence:
#
# PCOD9162069 Si02
#       8
#     4   4   4   4   4   4   4   4
#     4  11  24  46  70  91 122 166 218 268 318 375
#     4  10  20  34  57  88 124 164 208 252 310 371
#     4  10  22  39  62  94 135 175 211 259 316 380
#     4  10  23  42  65  93 123 164 212 265 322 377
#     4  10  20  38  61  88 125 168 212 259 316 380
#     4  10  22  38  61  95 132 170 212 259 316 377
#     4  12  25  41  66  94 131 167 212 264 318 379
#     4  11  24  42  62  96 126 168 217 263 317 378
#
# _framework density 22.300923000000001
#
# number of rings (size 3 to 8) (size 9 to 14) (size 15 to 20)
#    0.000    1.500    1.250    3.750    3.500    3.500 
#    0.000    1.875    0.000    0.000    0.000    0.000 
#    0.000    0.000    0.000    0.000    0.000    0.000 
#
# Total GULP energy -178802.846524 kJ/mol
# GULP energy per Si atom -5587.588954 kJ/mol
# Density = 2.225016 g / cm^3
# Si number density = 22.300923 Si / 1000 Ang^3
#
#
#
# Elastic Constant Matrix: (Units=GPa)
#
#
# Indices 1 2 3 4 5 6 
#
# 1 75.8898 21.4008 4.5858 0.0000 15.2050 0.0000
# 2 21.4008 69.9196 -4.3347 0.0000 10.5465 0.0000
# 3 4.5858 -4.3347 50.4788 0.0000 20.3199 0.0000
# 4 0.0000 0.0000 0.0000 25.0267 0.0000 -1.2454
# 5 15.2050 10.5465 20.3199 0.0000 32.5663 0.0000
# 6 0.0000 0.0000 0.0000 -1.2454 0.0000 21.0852
#
#
#
# Elastic Compliance Matrix: (Units=1/GPa)
#
#
# Indices 1 2 3 4 5 6 
#
# 1 0.015486 -0.003682 0.000945 0.000000 -0.006628 0.000000
# 2 -0.003682 0.016660 0.004333 0.000000 -0.006380 0.000000
# 3 0.000945 0.004333 0.027829 0.000000 -0.019208 0.000000
# 4 0.000000 0.000000 0.000000 0.040075 0.000000 0.002367
# 5 -0.006628 -0.006380 -0.019208 0.000000 0.047852 0.000000
# 6 0.000000 0.000000 0.000000 0.002367 0.000000 0.047566
#
#
# Mechanical properties :
#
#
# Convention : Reuss Voigt Hill
#
# Bulk Modulus (GPa) = 15.83080 26.62135 21.22608
# Shear Modulus (GPa) = 23.43772 27.37806 25.40789
#
# Velocity S-wave (km/s) = 3.24539 3.50761 3.37904
# Velocity P-wave (km/s) = 4.59973 5.32613 4.97620
#
# Compressibility (1/GPa) = 0.06316799
#
# Stress axis : x y z
#
# Youngs Moduli (GPa) = 64.57453 60.02393 35.93406
#
# Poissons Ratio (x) = 0.22099 -0.03395
# Poissons Ratio (y) = 0.23774 -0.15572
# Poissons Ratio (z) = -0.06101 -0.26011
#
# Static dielectric constant tensor:
#      x y z
#    x 1.741010 0.000000 0.009350 
#    y 0.000000 1.848820 0.000000 
#    z 0.009350 0.000000 1.848270 
# 
# From -- ./inp_files/68140.got.cif
#   From: 2010.05.17/outbox.cif.g08.bks.cpg/sg11_35_cif.got.tgz:68140.got - 2010.06.03 12:22:45.
