data_PCOD9162051
_publ_section_title
;
Structure prediction by ZEFSAII (Michael W. Deem and Ramdas Pophale) SiO2 
 PCOD9162051
Probable space group: P 21/M
;
_chemical_formula_sum "Si O2"
_cell_formula_units_Z 20
_cell_length_a 5.222667
_cell_length_b 28.204645
_cell_length_c 5.996135
_cell_angle_alpha 90.000000
_cell_angle_beta 101.064909
_cell_angle_gamma 90.000000
_cell_volume 866.832184
_symmetry_space_group_name_H-M "P 21/M"
_symmetry_group_IT_number 11
_symmetry_cell_setting 'monoclinic'
loop_
_space_group_symop_operation_xyz
x,y,z
-x,1/2+y,-z
-x,-y,-z
x,1/2-y,z
loop_
_atom_site_type_symbol
_atom_site_label
_atom_site_fract_x
_atom_site_fract_y
_atom_site_fract_z
Si Si1 0.173408 0.805305 0.831408
Si Si2 0.694133 0.647049 0.984163
Si Si3 0.827630 0.024156 0.165755
Si Si4 0.280369 0.890567 0.588714
Si Si5 0.582659 0.935681 0.246076
O O1 0.155849 0.750000 0.782557
O O2 0.941386 0.823917 0.947425
O O3 0.448370 0.818714 0.996207
O O4 0.164451 0.838092 0.606241
O O5 0.562039 0.618121 0.757815
O O6 0.749831 0.608775 0.185687
O O7 0.902375 0.072097 0.308822
O O8 0.745283 0.982987 0.326256
O O9 0.581951 0.045047 0.990304
O O10 0.000000 0.000000 0.000000
O O11 0.369899 0.915178 0.378568
#
# Coordination Sequence:
#
# PCOD9162051 Si02
#       5
#     4   4   4   4   4
#     4  10  20  40  62  82 115 154 194 248 301 345
#     4   9  21  38  60  83 115 153 191 239 296 346
#     4  10  20  34  57  86 122 159 195 234 294 352
#     4   9  21  36  58  86 120 154 198 244 293 344
#     4  10  20  36  57  86 121 154 196 239 290 355
#
# _framework density 23.072514000000002
#
# number of rings (size 3 to 8) (size 9 to 14) (size 15 to 20)
#    1.200    1.200    0.000    2.400    0.000    2.400 
#    0.000    2.000    0.000    0.000    0.000    0.000 
#    0.000    0.000    0.000    0.000    0.000    0.000 
#
# Total GULP energy -111378.547808 kJ/mol
# GULP energy per Si atom -5568.927390 kJ/mol
# Density = 2.302000 g / cm^3
# Si number density = 23.072514 Si / 1000 Ang^3
#
#
#
# Elastic Constant Matrix: (Units=GPa)
#
#
# Indices 1 2 3 4 5 6 
#
# 1 126.7041 69.7958 12.6948 0.0000 -32.1498 0.0000
# 2 69.7958 244.5824 55.1165 0.0000 -36.1256 0.0000
# 3 12.6948 55.1165 23.7246 0.0000 -15.9138 0.0000
# 4 0.0000 0.0000 0.0000 22.6574 0.0000 -6.3699
# 5 -32.1498 -36.1256 -15.9138 0.0000 30.8960 0.0000
# 6 0.0000 0.0000 0.0000 -6.3699 0.0000 29.6115
#
#
#
# Elastic Compliance Matrix: (Units=1/GPa)
#
#
# Indices 1 2 3 4 5 6 
#
# 1 0.012878 -0.004564 0.013937 0.000000 0.015242 0.000000
# 2 -0.004564 0.010201 -0.025121 0.000000 -0.005761 0.000000
# 3 0.013937 -0.025121 0.126934 0.000000 0.050510 0.000000
# 4 0.000000 0.000000 0.000000 0.046977 0.000000 0.010105
# 5 0.015242 -0.005761 0.050510 0.000000 0.067508 0.000000
# 6 0.000000 0.000000 0.000000 0.010105 0.000000 0.035945
#
#
# Mechanical properties :
#
#
# Convention : Reuss Voigt Hill
#
# Bulk Modulus (GPa) = 8.43770 74.46947 41.45358
# Shear Modulus (GPa) = 13.46095 33.79327 23.62711
#
# Velocity S-wave (km/s) = 2.41803 3.83123 3.20353
# Velocity P-wave (km/s) = 3.38538 7.20538 5.62931
#
# Compressibility (1/GPa) = 0.11851574
#
# Stress axis : x y z
#
# Youngs Moduli (GPa) = 77.65315 98.02759 7.87810
#
# Poissons Ratio (x) = 0.44742 -0.10979
# Poissons Ratio (y) = 0.35443 0.19791
# Poissons Ratio (z) = -1.08222 2.46256
#
# Static dielectric constant tensor:
#      x y z
#    x 1.926140 0.000000 0.053410 
#    y 0.000000 1.872420 0.000000 
#    z 0.053410 0.000000 1.948500 
# 
# From -- ./inp_files/927.got.cif
#   From: 2010.05.17/outbox.cif.g08.bks.cpg/sg11_1_cif.got.tgz:927.got - 2010.06.03 12:22:45.
