data_PCOD9162544
_publ_section_title
;
Structure prediction by ZEFSAII (Michael W. Deem and Ramdas Pophale) SiO2 
 PCOD9162544
Probable space group: P 21/M
;
_chemical_formula_sum "Si O2"
_cell_formula_units_Z 28
_cell_length_a 21.342477
_cell_length_b 8.719093
_cell_length_c 15.948337
_cell_angle_alpha 90.000000
_cell_angle_beta 28.859550
_cell_angle_gamma 90.000000
_cell_volume 1432.440599
_symmetry_space_group_name_H-M "P 21/M"
_symmetry_group_IT_number 11
_symmetry_cell_setting 'monoclinic'
loop_
_space_group_symop_operation_xyz
x,y,z
-x,1/2+y,-z
-x,-y,-z
x,1/2-y,z
loop_
_atom_site_type_symbol
_atom_site_label
_atom_site_fract_x
_atom_site_fract_y
_atom_site_fract_z
Si Si1 0.610867 0.068200 0.930970
Si Si2 0.562104 0.071327 0.735733
Si Si3 0.303262 0.929771 0.747718
Si Si4 0.547518 0.927251 0.577099
Si Si5 0.840060 0.564605 0.439057
Si Si6 0.990936 0.066874 0.916968
Si Si7 0.105993 0.066498 0.439376
O O1 0.617874 0.250000 0.912134
O O2 0.556185 0.023280 0.086153
O O3 0.500000 0.000000 0.000000
O O4 0.750942 0.995370 0.750726
O O5 0.546924 0.250000 0.772635
O O6 0.566694 0.038528 0.631932
O O7 0.698298 0.009315 0.611495
O O8 0.311451 0.750000 0.712711
O O9 0.405893 0.949576 0.702016
O O10 0.350764 0.033017 0.615116
O O11 0.155333 0.963070 0.943283
O O12 0.562810 0.750000 0.585409
O O13 0.826667 0.750000 0.451221
O O14 0.915989 0.527649 0.436195
O O15 0.909335 0.512625 0.271665
O O16 0.008358 0.250000 0.903548
O O17 0.000000 0.000000 0.000000
O O18 0.105711 0.250000 0.432921
O O19 0.000000 0.000000 0.500000
#
# Coordination Sequence:
#
# PCOD9162544 Si02
#       7
#     4   4   4   4   4   4   4
#     4  12  24  42  67  94 125 161 206 260 316 377
#     4  12  24  38  61  91 122 157 204 255 311 376
#     4   9  19  36  56  80 116 157 199 248 304 366
#     4  10  20  35  57  84 116 155 200 251 308 366
#     4  10  22  40  62  87 121 163 208 256 312 377
#     4  10  21  37  57  84 116 155 200 246 300 364
#     4  11  24  43  67  96 132 173 215 264 322 384
#
# _framework density 19.547059999999998
#
# number of rings (size 3 to 8) (size 9 to 14) (size 15 to 20)
#    0.000    1.429    1.429    4.286    0.000    5.714 
#    0.000    2.857    0.000    0.000    0.000    0.000 
#    0.000    0.000    0.000    0.000    0.000    0.000 
#
# Total GULP energy -156450.243996 kJ/mol
# GULP energy per Si atom -5587.508714 kJ/mol
# Density = 1.950257 g / cm^3
# Si number density = 19.547060 Si / 1000 Ang^3
#
#
#
# Elastic Constant Matrix: (Units=GPa)
#
#
# Indices 1 2 3 4 5 6 
#
# 1 87.6256 36.4231 50.1384 0.0000 7.4557 0.0000
# 2 36.4231 63.1566 31.0693 0.0000 0.3516 0.0000
# 3 50.1384 31.0693 102.5285 0.0000 -7.3458 0.0000
# 4 0.0000 0.0000 0.0000 30.3851 0.0000 0.1275
# 5 7.4557 0.3516 -7.3458 0.0000 23.0976 0.0000
# 6 0.0000 0.0000 0.0000 0.1275 0.0000 30.6898
#
#
#
# Elastic Compliance Matrix: (Units=1/GPa)
#
#
# Indices 1 2 3 4 5 6 
#
# 1 0.019905 -0.007436 -0.008118 0.000000 -0.008893 0.000000
# 2 -0.007436 0.021488 -0.002790 0.000000 0.001186 0.000000
# 3 -0.008118 -0.002790 0.015103 0.000000 0.007466 0.000000
# 4 0.000000 0.000000 0.000000 0.032911 0.000000 -0.000137
# 5 -0.008893 0.001186 0.007466 0.000000 0.048522 0.000000
# 6 0.000000 0.000000 0.000000 -0.000137 0.000000 0.032585
#
#
# Mechanical properties :
#
#
# Convention : Reuss Voigt Hill
#
# Bulk Modulus (GPa) = 50.48374 54.28580 52.38477
# Shear Modulus (GPa) = 23.38580 25.87984 24.63282
#
# Velocity S-wave (km/s) = 3.46263 3.64260 3.55375
# Velocity P-wave (km/s) = 6.47065 6.74711 6.61032
#
# Compressibility (1/GPa) = 0.01980836
#
# Stress axis : x y z
#
# Youngs Moduli (GPa) = 50.23937 46.53704 66.21023
#
# Poissons Ratio (x) = 0.34607 0.53746
# Poissons Ratio (y) = 0.37360 0.18473
# Poissons Ratio (z) = 0.40782 0.12984
#
# Static dielectric constant tensor:
#      x y z
#    x 1.699140 0.000000 0.021510 
#    y 0.000000 1.661460 0.000000 
#    z 0.021510 0.000000 1.679670 
# 
# From -- ./inp_files/54512.got.cif
#   From: 2010.05.17/outbox.cif.g08.bks.cpg/sg11_28_cif.got.tgz:54512.got - 2010.06.03 12:22:45.
