data_PCOD9162037
_publ_section_title
;
Structure prediction by ZEFSAII (Michael W. Deem and Ramdas Pophale) SiO2 
 PCOD9162037
Probable space group: P 21/M
;
_chemical_formula_sum "Si O2"
_cell_formula_units_Z 32
_cell_length_a 14.458869
_cell_length_b 12.516704
_cell_length_c 14.936151
_cell_angle_alpha 90.000000
_cell_angle_beta 38.329123
_cell_angle_gamma 90.000000
_cell_volume 1676.406167
_symmetry_space_group_name_H-M "P 21/M"
_symmetry_group_IT_number 11
_symmetry_cell_setting 'monoclinic'
loop_
_space_group_symop_operation_xyz
x,y,z
-x,1/2+y,-z
-x,-y,-z
x,1/2-y,z
loop_
_atom_site_type_symbol
_atom_site_label
_atom_site_fract_x
_atom_site_fract_y
_atom_site_fract_z
Si Si1 0.912011 0.965257 0.932223
Si Si2 0.907969 0.632734 0.743570
Si Si3 0.669261 0.456349 0.866542
Si Si4 0.855447 0.045848 0.557607
Si Si5 0.871763 0.867059 0.154658
Si Si6 0.666648 0.130979 0.059821
Si Si7 0.558377 0.876764 0.479772
Si Si8 0.342674 0.128115 0.388484
O O1 0.048635 0.044895 0.845467
O O2 0.933803 0.897649 0.826763
O O3 0.767788 0.040637 0.028062
O O4 0.896920 0.895225 0.032323
O O5 0.844713 0.750000 0.783133
O O6 0.783575 0.552522 0.800697
O O7 0.063532 0.625233 0.572236
O O8 0.732198 0.414601 0.723375
O O9 0.500000 0.500000 0.000000
O O10 0.685508 0.377893 0.938577
O O11 0.777477 0.954011 0.557873
O O12 0.000000 0.000000 0.500000
O O13 0.933191 0.750000 0.128924
O O14 0.698521 0.867485 0.308116
O O15 0.707884 0.250000 0.059371
O O16 0.494759 0.114011 0.216629
O O17 0.488012 0.750000 0.528637
O O18 0.613230 0.885029 0.541065
O O19 0.500000 0.000000 0.500000
O O20 0.289351 0.250000 0.416668
#
# Coordination Sequence:
#
# PCOD9162037 Si02
#       8
#     4   4   4   4   4   4   4   4
#     4  10  20  36  57  83 115 149 194 245 291 357
#     4  10  22  38  56  79 114 156 191 234 295 352
#     4  10  20  37  58  84 113 146 191 245 289 345
#     4  10  21  37  58  84 118 154 195 247 295 358
#     4  10  20  35  58  84 114 152 195 246 302 358
#     4  10  20  34  57  85 113 147 191 239 293 355
#     4  10  21  38  60  88 122 159 203 253 311 373
#     4  10  20  36  60  85 114 155 197 243 305 369
#
# _framework density 19.088453000000001
#
# number of rings (size 3 to 8) (size 9 to 14) (size 15 to 20)
#    0.000    2.000    1.250    2.250    0.000    3.000 
#    0.000   11.250    0.000    0.000    0.000    0.000 
#    0.000    0.000    0.000    0.000    0.000    0.000 
#
# Total GULP energy -178150.739764 kJ/mol
# GULP energy per Si atom -5567.210618 kJ/mol
# Density = 1.904501 g / cm^3
# Si number density = 19.088453 Si / 1000 Ang^3
#
#
#
# Elastic Constant Matrix: (Units=GPa)
#
#
# Indices 1 2 3 4 5 6 
#
# 1 25.8527 5.9608 -9.3811 0.0000 -9.1195 0.0000
# 2 5.9608 84.0588 15.0504 0.0000 -6.4097 0.0000
# 3 -9.3811 15.0504 58.9134 0.0000 -10.6175 0.0000
# 4 0.0000 0.0000 0.0000 261.7367 0.0000 53.6656
# 5 -9.1195 -6.4097 -10.6175 0.0000 16.4796 0.0000
# 6 0.0000 0.0000 0.0000 53.6656 0.0000 16.6867
#
#
#
# Elastic Compliance Matrix: (Units=1/GPa)
#
#
# Indices 1 2 3 4 5 6 
#
# 1 0.062740 -0.004443 0.019314 0.000000 0.045434 0.000000
# 2 -0.004443 0.012929 -0.004013 0.000000 -0.000015 0.000000
# 3 0.019314 -0.004013 0.025704 0.000000 0.025687 0.000000
# 4 0.000000 0.000000 0.000000 0.011218 0.000000 -0.036077
# 5 0.045434 -0.000015 0.025687 0.000000 0.102367 0.000000
# 6 0.000000 0.000000 0.000000 -0.036077 0.000000 0.175954
#
#
# Mechanical properties :
#
#
# Convention : Reuss Voigt Hill
#
# Bulk Modulus (GPa) = 8.12419 21.34279 14.73349
# Shear Modulus (GPa) = 12.18840 69.46027 40.82433
#
# Velocity S-wave (km/s) = 2.52964 6.03884 4.62962
# Velocity P-wave (km/s) = 3.57735 7.73491 6.02604
#
# Compressibility (1/GPa) = 0.12308914
#
# Stress axis : x y z
#
# Youngs Moduli (GPa) = 15.93874 77.34664 38.90432
#
# Poissons Ratio (x) = 0.34362 -0.75138
# Poissons Ratio (y) = 0.07081 0.15612
# Poissons Ratio (z) = -0.30783 0.31040
#
# Static dielectric constant tensor:
#      x y z
#    x 1.647720 0.000000 0.017650 
#    y 0.000000 1.660620 0.000000 
#    z 0.017650 0.000000 1.668900 
# 
# From -- ./inp_files/52260.got.cif
#   From: 2010.05.17/outbox.cif.g08.bks.cpg/sg11_27_cif.got.tgz:52260.got - 2010.06.03 12:22:45.
