data_PCOD9162099
_publ_section_title
;
Structure prediction by ZEFSAII (Michael W. Deem and Ramdas Pophale) SiO2 
 PCOD9162099
Probable space group: P 21/M
;
_chemical_formula_sum "Si O2"
_cell_formula_units_Z 28
_cell_length_a 15.387662
_cell_length_b 8.538447
_cell_length_c 21.026169
_cell_angle_alpha 90.000000
_cell_angle_beta 152.023964
_cell_angle_gamma 90.000000
_cell_volume 1295.922923
_symmetry_space_group_name_H-M "P 21/M"
_symmetry_group_IT_number 11
_symmetry_cell_setting 'monoclinic'
loop_
_space_group_symop_operation_xyz
x,y,z
-x,1/2+y,-z
-x,-y,-z
x,1/2-y,z
loop_
_atom_site_type_symbol
_atom_site_label
_atom_site_fract_x
_atom_site_fract_y
_atom_site_fract_z
Si Si1 0.057719 0.433854 0.877339
Si Si2 0.602426 0.936147 0.397792
Si Si3 0.772083 0.427669 0.132872
Si Si4 0.394521 0.566283 0.850511
Si Si5 0.185710 0.933906 0.587176
Si Si6 0.684286 0.061764 0.587771
Si Si7 0.197050 0.060602 0.098997
O O1 0.045271 0.250000 0.881407
O O2 0.129527 0.460546 0.852820
O O3 0.851357 0.499391 0.740138
O O4 0.184682 0.492915 0.016625
O O5 0.595288 0.750000 0.397545
O O6 0.730901 0.985376 0.421304
O O7 0.689826 0.003187 0.519063
O O8 0.390210 0.997567 0.252294
O O9 0.834815 0.250000 0.163057
O O10 0.774274 0.462749 0.209289
O O11 0.557107 0.449557 0.974600
O O12 0.448959 0.750000 0.896282
O O13 0.337532 0.550550 0.741320
O O14 0.158710 0.750000 0.556356
O O15 0.000000 0.000000 0.500000
O O16 0.688709 0.250000 0.590380
O O17 0.500000 0.000000 0.500000
O O18 0.202128 0.250000 0.107556
O O19 0.000000 0.000000 0.000000
#
# Coordination Sequence:
#
# PCOD9162099 Si02
#       7
#     4   4   4   4   4   4   4
#     4  10  23  40  61  90 124 159 201 256 318 382
#     4  12  26  44  66  96 135 179 225 274 328 394
#     4  10  20  34  58  89 117 153 199 247 302 368
#     4   9  20  38  57  82 120 158 198 251 307 361
#     4  11  24  42  63  90 126 170 220 272 325 387
#     4  11  24  44  68  97 130 170 215 267 331 395
#     4  11  23  42  68  98 131 167 213 271 335 401
#
# _framework density 21.606223
#
# number of rings (size 3 to 8) (size 9 to 14) (size 15 to 20)
#    0.000    1.429    0.000    4.714    2.000    8.571 
#    0.000    0.000    0.000    0.000    0.000    0.000 
#    0.000    0.000    0.000    0.000    0.000    0.000 
#
# Total GULP energy -156374.011271 kJ/mol
# GULP energy per Si atom -5584.786117 kJ/mol
# Density = 2.155705 g / cm^3
# Si number density = 21.606223 Si / 1000 Ang^3
#
#
#
# Elastic Constant Matrix: (Units=GPa)
#
#
# Indices 1 2 3 4 5 6 
#
# 1 68.6583 7.7745 -4.5482 0.0000 -6.6083 0.0000
# 2 7.7745 67.2387 15.1736 0.0000 -7.0963 0.0000
# 3 -4.5482 15.1736 49.5883 0.0000 -3.2600 0.0000
# 4 0.0000 0.0000 0.0000 24.6817 0.0000 5.6239
# 5 -6.6083 -7.0963 -3.2600 0.0000 36.3030 0.0000
# 6 0.0000 0.0000 0.0000 5.6239 0.0000 38.9292
#
#
#
# Elastic Compliance Matrix: (Units=1/GPa)
#
#
# Indices 1 2 3 4 5 6 
#
# 1 0.015179 -0.001972 0.002165 0.000000 0.002572 0.000000
# 2 -0.001972 0.016499 -0.005071 0.000000 0.002411 0.000000
# 3 0.002165 -0.005071 0.022007 0.000000 0.001379 0.000000
# 4 0.000000 0.000000 0.000000 0.041895 0.000000 -0.006052
# 5 0.002572 0.002411 0.001379 0.000000 0.028609 0.000000
# 6 0.000000 0.000000 0.000000 -0.006052 0.000000 0.026562
#
#
# Mechanical properties :
#
#
# Convention : Reuss Voigt Hill
#
# Bulk Modulus (GPa) = 22.76426 24.69833 23.73129
# Shear Modulus (GPa) = 28.54679 31.12181 29.83430
#
# Velocity S-wave (km/s) = 3.63882 3.79939 3.71997
# Velocity P-wave (km/s) = 5.31164 5.54104 5.42755
#
# Compressibility (1/GPa) = 0.04392851
#
# Stress axis : x y z
#
# Youngs Moduli (GPa) = 65.87982 60.60893 45.44017
#
# Poissons Ratio (x) = 0.11953 -0.09837
# Poissons Ratio (y) = 0.12993 0.23043
# Poissons Ratio (z) = -0.14261 0.30735
#
# Static dielectric constant tensor:
#      x y z
#    x 1.773910 0.000000 0.100390 
#    y 0.000000 1.743300 0.000000 
#    z 0.100390 0.000000 1.723780 
# 
# From -- ./inp_files/65473.got.cif
#   From: 2010.05.17/outbox.cif.g08.bks.cpg/sg11_33_cif.got.tgz:65473.got - 2010.06.03 12:22:45.
