data_PCOD9162648
_publ_section_title
;
Structure prediction by ZEFSAII (Michael W. Deem and Ramdas Pophale) SiO2 
 PCOD9162648
Probable space group: P 21/M
;
_chemical_formula_sum "Si O2"
_cell_formula_units_Z 32
_cell_length_a 14.660725
_cell_length_b 8.959686
_cell_length_c 21.407410
_cell_angle_alpha 90.000000
_cell_angle_beta 32.983206
_cell_angle_gamma 90.000000
_cell_volume 1530.823239
_symmetry_space_group_name_H-M "P 21/M"
_symmetry_group_IT_number 11
_symmetry_cell_setting 'monoclinic'
loop_
_space_group_symop_operation_xyz
x,y,z
-x,1/2+y,-z
-x,-y,-z
x,1/2-y,z
loop_
_atom_site_type_symbol
_atom_site_label
_atom_site_fract_x
_atom_site_fract_y
_atom_site_fract_z
Si Si1 0.654721 0.586733 0.845490
Si Si2 0.342081 0.084554 0.008199
Si Si3 0.494844 0.573685 0.677669
Si Si4 0.757870 0.418356 0.596836
Si Si5 0.060058 0.581945 0.373851
Si Si6 0.865739 0.571362 0.124258
Si Si7 0.366208 0.570009 0.528347
Si Si8 0.045068 0.571056 0.794673
O O1 0.706649 0.750000 0.791477
O O2 0.629760 0.600538 0.933775
O O3 0.801652 0.467670 0.754215
O O4 0.487558 0.530317 0.906886
O O5 0.368581 0.250000 0.964384
O O6 0.149652 0.039925 0.108433
O O7 0.473900 0.750000 0.681498
O O8 0.608937 0.532783 0.671324
O O9 0.316948 0.493625 0.785918
O O10 0.590394 0.503871 0.562817
O O11 0.701540 0.250000 0.616260
O O12 0.839580 0.424034 0.618196
O O13 0.908459 0.467344 0.464854
O O14 0.997711 0.750000 0.400411
O O15 0.868043 0.750000 0.118447
O O16 0.905431 0.518098 0.171852
O O17 0.000000 0.500000 0.000000
O O18 0.500000 0.500000 0.500000
O O19 0.386150 0.750000 0.513527
O O20 0.179627 0.538429 0.662571
O O21 0.058117 0.750000 0.799001
#
# Coordination Sequence:
#
# PCOD9162648 Si02
#       8
#     4   4   4   4   4   4   4   4
#     4  10  20  35  58  86 118 159 201 247 298 355
#     4   9  20  38  58  84 118 158 199 246 298 355
#     4  12  25  42  64  94 128 163 210 258 308 370
#     4  10  22  40  61  87 121 159 203 250 302 362
#     4  10  21  38  60  87 119 158 200 250 304 360
#     4  12  26  45  68  92 123 162 206 257 313 371
#     4  11  22  38  64  94 128 166 204 254 313 370
#     4  10  22  41  64  91 125 163 207 254 310 372
#
# _framework density 20.903786
#
# number of rings (size 3 to 8) (size 9 to 14) (size 15 to 20)
#    0.000    1.500    1.250    3.750    1.750    4.000 
#    0.000    1.250    0.000    0.000    0.000    0.000 
#    0.000    0.000    0.000    0.000    0.000    0.000 
#
# Total GULP energy -178768.502346 kJ/mol
# GULP energy per Si atom -5586.515698 kJ/mol
# Density = 2.085621 g / cm^3
# Si number density = 20.903786 Si / 1000 Ang^3
#
#
#
# Elastic Constant Matrix: (Units=GPa)
#
#
# Indices 1 2 3 4 5 6 
#
# 1 24.1210 22.1542 22.0103 0.0000 -18.4643 0.0000
# 2 22.1542 95.6354 35.7524 0.0000 0.9455 0.0000
# 3 22.0103 35.7524 78.5072 0.0000 -6.5338 0.0000
# 4 0.0000 0.0000 0.0000 33.3169 0.0000 -1.5268
# 5 -18.4643 0.9455 -6.5338 0.0000 36.5981 0.0000
# 6 0.0000 0.0000 0.0000 -1.5268 0.0000 29.8188
#
#
#
# Elastic Compliance Matrix: (Units=1/GPa)
#
#
# Indices 1 2 3 4 5 6 
#
# 1 0.127951 -0.022598 -0.020464 0.000000 0.061484 0.000000
# 2 -0.022598 0.016661 -0.002270 0.000000 -0.012237 0.000000
# 3 -0.020464 -0.002270 0.018936 0.000000 -0.006885 0.000000
# 4 0.000000 0.000000 0.000000 0.030085 0.000000 0.001540
# 5 0.061484 -0.012237 -0.006885 0.000000 0.057430 0.000000
# 6 0.000000 0.000000 0.000000 0.001540 0.000000 0.033615
#
#
# Mechanical properties :
#
#
# Convention : Reuss Voigt Hill
#
# Bulk Modulus (GPa) = 13.72056 39.78861 26.75458
# Shear Modulus (GPa) = 12.51132 27.83654 20.17393
#
# Velocity S-wave (km/s) = 2.44912 3.65314 3.10995
# Velocity P-wave (km/s) = 3.81779 6.07202 5.07173
#
# Compressibility (1/GPa) = 0.07288334
#
# Stress axis : x y z
#
# Youngs Moduli (GPa) = 7.81547 60.02064 52.80957
#
# Poissons Ratio (x) = 1.35633 1.08072
# Poissons Ratio (y) = 0.17661 0.11989
# Poissons Ratio (z) = 0.15994 0.13627
#
# Static dielectric constant tensor:
#      x y z
#    x 1.757230 0.000000 0.010240 
#    y 0.000000 1.742720 0.000000 
#    z 0.010240 0.000000 1.757560 
# 
# From -- ./inp_files/69008.got.cif
#   From: 2010.05.17/outbox.cif.g08.bks.cpg/sg11_35_cif.got.tgz:69008.got - 2010.06.03 12:22:45.
