data_PCOD9162722
_publ_section_title
;
Structure prediction by ZEFSAII (Michael W. Deem and Ramdas Pophale) SiO2 
 PCOD9162722
Probable space group: P 21/M
;
_chemical_formula_sum "Si O2"
_cell_formula_units_Z 32
_cell_length_a 19.574688
_cell_length_b 14.697880
_cell_length_c 12.956967
_cell_angle_alpha 90.000000
_cell_angle_beta 152.885929
_cell_angle_gamma 90.000000
_cell_volume 1698.996390
_symmetry_space_group_name_H-M "P 21/M"
_symmetry_group_IT_number 11
_symmetry_cell_setting 'monoclinic'
loop_
_space_group_symop_operation_xyz
x,y,z
-x,1/2+y,-z
-x,-y,-z
x,1/2-y,z
loop_
_atom_site_type_symbol
_atom_site_label
_atom_site_fract_x
_atom_site_fract_y
_atom_site_fract_z
Si Si1 0.722622 0.477722 0.835882
Si Si2 0.563459 0.088388 0.030963
Si Si3 0.142402 0.852385 0.459453
Si Si4 0.020562 0.143667 0.537573
Si Si5 0.772325 0.009680 0.137216
Si Si6 0.440867 0.143104 0.490248
Si Si7 0.959323 0.985937 0.825273
Si Si8 0.318997 0.350113 0.554488
O O1 0.675787 0.568707 0.710803
O O2 0.599850 0.397071 0.664259
O O3 0.719787 0.505072 0.951510
O O4 0.888501 0.450003 0.023661
O O5 0.686198 0.133792 0.271115
O O6 0.653361 0.054217 0.052002
O O7 0.425692 0.143733 0.797883
O O8 0.500000 0.000000 0.000000
O O9 0.123194 0.750000 0.395462
O O10 0.044419 0.862971 0.432674
O O11 0.088122 0.923554 0.301464
O O12 0.029234 0.250000 0.521803
O O13 0.907904 0.083216 0.317698
O O14 0.172197 0.085856 0.741367
O O15 0.420499 0.250000 0.434166
O O16 0.418598 0.138292 0.584333
O O17 0.814870 0.921645 0.622400
O O18 0.000000 0.000000 0.000000
O O19 0.251182 0.250000 0.456724
#
# Coordination Sequence:
#
# PCOD9162722 Si02
#       8
#     4   4   4   4   4   4   4   4
#     4  11  22  40  65  89 125 161 206 257 310 363
#     4  11  21  39  65  86 123 163 207 257 310 367
#     4  10  21  38  63  90 118 163 211 250 302 372
#     4   9  19  35  58  89 119 151 197 248 303 365
#     4  10  20  35  59  89 117 156 200 250 304 360
#     4  10  23  42  65  90 119 165 214 253 304 373
#     4  12  24  40  63  95 131 165 203 260 316 368
#     4  11  23  41  65  92 124 167 212 257 313 375
#
# _framework density 18.83465
#
# number of rings (size 3 to 8) (size 9 to 14) (size 15 to 20)
#    0.000    1.500    5.000    0.375    0.000    3.000 
#    0.000    2.500    0.000    0.000    0.000    0.000 
#    0.000    0.000    0.000    0.000    0.000    0.000 
#
# Total GULP energy -178458.412775 kJ/mol
# GULP energy per Si atom -5576.825399 kJ/mol
# Density = 1.879178 g / cm^3
# Si number density = 18.834650 Si / 1000 Ang^3
#
#
#
# Elastic Constant Matrix: (Units=GPa)
#
#
# Indices 1 2 3 4 5 6 
#
# 1 37.1892 11.2423 15.7388 0.0000 0.3589 0.0000
# 2 11.2423 125.2332 29.0485 0.0000 0.3672 0.0000
# 3 15.7388 29.0485 72.6134 0.0000 -1.2301 0.0000
# 4 0.0000 0.0000 0.0000 9.6791 0.0000 -3.7892
# 5 0.3589 0.3672 -1.2301 0.0000 37.4548 0.0000
# 6 0.0000 0.0000 0.0000 -3.7892 0.0000 27.1466
#
#
#
# Elastic Compliance Matrix: (Units=1/GPa)
#
#
# Indices 1 2 3 4 5 6 
#
# 1 0.029803 -0.001294 -0.005950 0.000000 -0.000468 0.000000
# 2 -0.001294 0.008860 -0.003267 0.000000 -0.000182 0.000000
# 3 -0.005950 -0.003267 0.016379 0.000000 0.000627 0.000000
# 4 0.000000 0.000000 0.000000 0.109287 0.000000 0.015255
# 5 -0.000468 -0.000182 0.000627 0.000000 0.026726 0.000000
# 6 0.000000 0.000000 0.000000 0.015255 0.000000 0.038966
#
#
# Mechanical properties :
#
#
# Convention : Reuss Voigt Hill
#
# Bulk Modulus (GPa) = 29.39458 38.56611 33.98034
# Shear Modulus (GPa) = 19.05615 26.78985 22.92300
#
# Velocity S-wave (km/s) = 3.18427 3.77552 3.49243
# Velocity P-wave (km/s) = 5.40000 6.28703 5.86032
#
# Compressibility (1/GPa) = 0.03401987
#
# Stress axis : x y z
#
# Youngs Moduli (GPa) = 33.55326 112.87253 61.05477
#
# Poissons Ratio (x) = 0.14605 0.36328
# Poissons Ratio (y) = 0.04342 0.19945
# Poissons Ratio (z) = 0.19965 0.36873
#
# Static dielectric constant tensor:
#      x y z
#    x 1.417240 0.000000 -0.123450 
#    y 0.000000 1.629550 0.000000 
#    z -0.123450 0.000000 1.610110 
# 
# From -- ./inp_files/41715.got.cif
#   From: 2010.05.17/outbox.cif.g08.bks.cpg/sg11_21_cif.got.tgz:41715.got - 2010.06.03 12:22:45.
