data_PCOD9162953
_publ_section_title
;
Structure prediction by ZEFSAII (Michael W. Deem and Ramdas Pophale) SiO2 
 PCOD9162953
Probable space group: P 21/M
;
_chemical_formula_sum "Si O2"
_cell_formula_units_Z 32
_cell_length_a 26.948390
_cell_length_b 7.961817
_cell_length_c 21.513703
_cell_angle_alpha 90.000000
_cell_angle_beta 20.849204
_cell_angle_gamma 90.000000
_cell_volume 1642.857622
_symmetry_space_group_name_H-M "P 21/M"
_symmetry_group_IT_number 11
_symmetry_cell_setting 'monoclinic'
loop_
_space_group_symop_operation_xyz
x,y,z
-x,1/2+y,-z
-x,-y,-z
x,1/2-y,z
loop_
_atom_site_type_symbol
_atom_site_label
_atom_site_fract_x
_atom_site_fract_y
_atom_site_fract_z
Si Si1 0.735139 0.548174 0.972134
Si Si2 0.143932 0.549872 0.299345
Si Si3 0.150354 0.048511 0.797510
Si Si4 0.562037 0.450841 0.993330
Si Si5 0.339175 0.047858 0.689644
Si Si6 0.845988 0.543608 0.976216
Si Si7 0.846247 0.448621 0.347972
Si Si8 0.557683 0.450179 0.737696
O O1 0.726231 0.750000 0.986563
O O2 0.833368 0.508982 0.798191
O O3 0.791948 0.488070 0.971927
O O4 0.579841 0.482773 0.137015
O O5 0.149390 0.750000 0.292077
O O6 0.279637 0.488003 0.179030
O O7 0.000000 0.500000 0.500000
O O8 0.159347 0.250000 0.781534
O O9 0.262727 0.988507 0.716505
O O10 0.166808 0.971533 0.710440
O O11 0.000000 0.000000 0.000000
O O12 0.562585 0.250000 0.997220
O O13 0.500000 0.500000 0.000000
O O14 0.470000 0.520587 0.157455
O O15 0.329096 0.250000 0.701779
O O16 0.500000 0.000000 0.500000
O O17 0.255718 0.989122 0.848638
O O18 0.846409 0.750000 0.976220
O O19 0.003785 0.484999 0.805165
O O20 0.849658 0.250000 0.358284
O O21 0.706302 0.520912 0.542568
O O22 0.560414 0.250000 0.722803
#
# Coordination Sequence:
#
# PCOD9162953 Si02
#       8
#     4   4   4   4   4   4   4   4
#     4   9  18  34  55  78 107 146 186 226 269 321
#     4  10  21  37  57  83 113 147 184 225 273 325
#     4  11  22  38  58  81 111 146 186 232 281 330
#     4  10  21  37  58  83 115 149 184 228 275 325
#     4  10  22  38  56  81 111 144 185 231 278 330
#     4   9  18  35  55  77 109 143 180 225 272 323
#     4  10  20  36  57  81 111 146 184 227 275 331
#     4   9  19  34  55  81 108 145 188 224 271 329
#
# _framework density 19.478255000000001
#
# number of rings (size 3 to 8) (size 9 to 14) (size 15 to 20)
#    0.000    2.250    1.250    1.125    1.750    4.000 
#    0.000    3.750    0.000    0.000    0.000    0.000 
#    0.000    0.000    0.000    0.000    0.000    0.000 
#
# Total GULP energy -178597.930764 kJ/mol
# GULP energy per Si atom -5581.185336 kJ/mol
# Density = 1.943392 g / cm^3
# Si number density = 19.478255 Si / 1000 Ang^3
#
#
#
# Elastic Constant Matrix: (Units=GPa)
#
#
# Indices 1 2 3 4 5 6 
#
# 1 180.0134 -8.1496 101.5650 0.0000 -8.4829 0.0000
# 2 -8.1496 11.8821 -2.2464 0.0000 -4.3871 0.0000
# 3 101.5650 -2.2464 199.2887 0.0000 -3.9324 0.0000
# 4 0.0000 0.0000 0.0000 22.5187 0.0000 3.5640
# 5 -8.4829 -4.3871 -3.9324 0.0000 20.3371 0.0000
# 6 0.0000 0.0000 0.0000 3.5640 0.0000 24.7049
#
#
#
# Elastic Compliance Matrix: (Units=1/GPa)
#
#
# Indices 1 2 3 4 5 6 
#
# 1 0.008357 0.006464 -0.004105 0.000000 0.004086 0.000000
# 2 0.006464 0.096849 -0.001744 0.000000 0.023251 0.000000
# 3 -0.004105 -0.001744 0.007076 0.000000 -0.000720 0.000000
# 4 0.000000 0.000000 0.000000 0.045445 0.000000 -0.006556
# 5 0.004086 0.023251 -0.000720 0.000000 0.055752 0.000000
# 6 0.000000 0.000000 0.000000 -0.006556 0.000000 0.041424
#
#
# Mechanical properties :
#
#
# Convention : Reuss Voigt Hill
#
# Bulk Modulus (GPa) = 8.80967 63.72470 36.26719
# Shear Modulus (GPa) = 17.15206 33.51315 25.33260
#
# Velocity S-wave (km/s) = 2.97067 4.15244 3.61024
# Velocity P-wave (km/s) = 4.03722 7.46841 6.00318
#
# Compressibility (1/GPa) = 0.11351164
#
# Stress axis : x y z
#
# Youngs Moduli (GPa) = 119.66564 10.32535 141.31852
#
# Poissons Ratio (x) = -0.06674 0.58016
# Poissons Ratio (y) = -0.77354 0.24644
# Poissons Ratio (z) = 0.49127 0.01801
#
# Static dielectric constant tensor:
#      x y z
#    x 1.857330 0.000000 -0.031740 
#    y 0.000000 1.706750 0.000000 
#    z -0.031740 0.000000 1.671080 
# 
# From -- ./inp_files/66952.got.cif
#   From: 2010.05.17/outbox.cif.g08.bks.cpg/sg11_34_cif.got.tgz:66952.got - 2010.06.03 12:22:45.
