data_PCOD9162067
_publ_section_title
;
Structure prediction by ZEFSAII (Michael W. Deem and Ramdas Pophale) SiO2 
 PCOD9162067
Probable space group: P 21/M
;
_chemical_formula_sum "Si O2"
_cell_formula_units_Z 24
_cell_length_a 22.123905
_cell_length_b 8.798744
_cell_length_c 11.704027
_cell_angle_alpha 90.000000
_cell_angle_beta 148.883777
_cell_angle_gamma 90.000000
_cell_volume 1177.388834
_symmetry_space_group_name_H-M "P 21/M"
_symmetry_group_IT_number 11
_symmetry_cell_setting 'monoclinic'
loop_
_space_group_symop_operation_xyz
x,y,z
-x,1/2+y,-z
-x,-y,-z
x,1/2-y,z
loop_
_atom_site_type_symbol
_atom_site_label
_atom_site_fract_x
_atom_site_fract_y
_atom_site_fract_z
Si Si1 0.339062 0.567795 0.470197
Si Si2 0.110920 0.932175 0.244076
Si Si3 0.236896 0.067695 0.077465
Si Si4 0.037680 0.932349 0.378174
Si Si5 0.245293 0.430613 0.832592
Si Si6 0.459002 0.930592 0.054007
O O1 0.352125 0.750000 0.496212
O O2 0.230330 0.521023 0.375767
O O3 0.305648 0.515940 0.288919
O O4 0.453200 0.489767 0.706250
O O5 0.104247 0.750000 0.225932
O O6 0.099648 0.972471 0.358387
O O7 0.000000 0.000000 0.000000
O O8 0.245091 0.250000 0.108417
O O9 0.279308 0.032341 0.018179
O O10 0.098691 0.027562 0.855547
O O11 0.044052 0.750000 0.406504
O O12 0.112500 0.017311 0.594804
O O13 0.254179 0.250000 0.832460
O O14 0.330943 0.513986 0.883803
O O15 0.461146 0.750000 0.048962
O O16 0.500000 0.000000 0.000000
#
# Coordination Sequence:
#
# PCOD9162067 Si02
#       6
#     4   4   4   4   4   4
#     4  11  23  39  63  96 129 165 209 258 313 371
#     4  10  20  34  57  88 122 157 196 246 303 363
#     4  10  22  40  62  91 128 170 213 258 310 369
#     4  10  20  37  61  90 128 168 209 259 313 369
#     4  11  24  41  63  92 125 166 215 260 310 372
#     4  12  26  46  70  93 122 161 205 257 315 374
#
# _framework density 20.384088999999999
#
# number of rings (size 3 to 8) (size 9 to 14) (size 15 to 20)
#    0.000    1.333    1.667    4.000    0.000    5.333 
#    0.000    0.000    0.000    0.000    0.000    0.000 
#    0.000    0.000    0.000    0.000    0.000    0.000 
#
# Total GULP energy -134246.846880 kJ/mol
# GULP energy per Si atom -5593.618620 kJ/mol
# Density = 2.033769 g / cm^3
# Si number density = 20.384089 Si / 1000 Ang^3
#
#
#
# Elastic Constant Matrix: (Units=GPa)
#
#
# Indices 1 2 3 4 5 6 
#
# 1 87.0296 42.9082 32.5988 0.0000 -8.8154 0.0000
# 2 42.9082 70.9681 43.4589 0.0000 -8.6746 0.0000
# 3 32.5988 43.4589 113.9225 0.0000 -7.1535 0.0000
# 4 0.0000 0.0000 0.0000 39.9246 0.0000 -1.9001
# 5 -8.8154 -8.6746 -7.1535 0.0000 31.8103 0.0000
# 6 0.0000 0.0000 0.0000 -1.9001 0.0000 26.1939
#
#
#
# Elastic Compliance Matrix: (Units=1/GPa)
#
#
# Indices 1 2 3 4 5 6 
#
# 1 0.016599 -0.009097 -0.001163 0.000000 0.001858 0.000000
# 2 -0.009097 0.023760 -0.006301 0.000000 0.002541 0.000000
# 3 -0.001163 -0.006301 0.011549 0.000000 0.000557 0.000000
# 4 0.000000 0.000000 0.000000 0.025134 0.000000 0.001823
# 5 0.001858 0.002541 0.000557 0.000000 0.032769 0.000000
# 6 0.000000 0.000000 0.000000 0.001823 0.000000 0.038309
#
#
# Mechanical properties :
#
#
# Convention : Reuss Voigt Hill
#
# Bulk Modulus (GPa) = 53.22937 56.65020 54.93979
# Shear Modulus (GPa) = 26.66583 29.78272 28.22428
#
# Velocity S-wave (km/s) = 3.62079 3.82655 3.72509
# Velocity P-wave (km/s) = 6.60682 6.88295 6.74630
#
# Compressibility (1/GPa) = 0.01878662
#
# Stress axis : x y z
#
# Youngs Moduli (GPa) = 60.24415 42.08699 86.58405
#
# Poissons Ratio (x) = 0.38286 0.10069
# Poissons Ratio (y) = 0.54803 0.54560
# Poissons Ratio (z) = 0.07006 0.26521
#
# Static dielectric constant tensor:
#      x y z
#    x 1.744580 0.000000 0.004070 
#    y 0.000000 1.673180 0.000000 
#    z 0.004070 0.000000 1.725800 
# 
# From -- ./inp_files/44036.got.cif
#   From: 2010.05.17/outbox.cif.g08.bks.cpg/sg11_23_cif.got.tgz:44036.got - 2010.06.03 12:22:45.
