data_PCOD9162997
_publ_section_title
;
Structure prediction by ZEFSAII (Michael W. Deem and Ramdas Pophale) SiO2 
 PCOD9162997
Probable space group: P 21/M
;
_chemical_formula_sum "Si O2"
_cell_formula_units_Z 32
_cell_length_a 8.799977
_cell_length_b 12.755667
_cell_length_c 18.263519
_cell_angle_alpha 90.000000
_cell_angle_beta 125.411803
_cell_angle_gamma 90.000000
_cell_volume 1670.826213
_symmetry_space_group_name_H-M "P 21/M"
_symmetry_group_IT_number 11
_symmetry_cell_setting 'monoclinic'
loop_
_space_group_symop_operation_xyz
x,y,z
-x,1/2+y,-z
-x,-y,-z
x,1/2-y,z
loop_
_atom_site_type_symbol
_atom_site_label
_atom_site_fract_x
_atom_site_fract_y
_atom_site_fract_z
Si Si1 0.042352 0.872379 0.681613
Si Si2 0.795504 0.541374 0.160862
Si Si3 0.713946 0.479699 0.539725
Si Si4 0.930381 0.058963 0.053295
Si Si5 0.686052 0.130005 0.381635
Si Si6 0.686262 0.531240 0.778298
Si Si7 0.419815 0.869188 0.121724
Si Si8 0.829787 0.362177 0.704455
O O1 0.021467 0.750000 0.695609
O O2 0.142566 0.939957 0.773430
O O3 0.171220 0.880283 0.645630
O O4 0.846938 0.926225 0.604433
O O5 0.830550 0.514461 0.085830
O O6 0.592176 0.582544 0.124453
O O7 0.949087 0.627672 0.224827
O O8 0.500000 0.500000 0.500000
O O9 0.730530 0.450413 0.459385
O O10 0.779012 0.381395 0.606550
O O11 0.767443 0.133643 0.979697
O O12 0.126094 0.092486 0.144911
O O13 0.000000 0.000000 0.000000
O O14 0.692197 0.250000 0.410047
O O15 0.481890 0.104112 0.293031
O O16 0.620687 0.450913 0.823761
O O17 0.743588 0.456269 0.727208
O O18 0.461418 0.750000 0.157660
O O19 0.762436 0.250000 0.712520
#
# Coordination Sequence:
#
# PCOD9162997 Si02
#       8
#     4   4   4   4   4   4   4   4
#     4  10  23  41  63  87 121 162 200 245 297 358
#     4  10  20  38  61  86 121 154 201 248 298 358
#     4  11  22  39  59  89 122 154 198 251 298 348
#     4   9  21  38  59  83 118 158 194 245 301 350
#     4  11  22  40  62  86 121 163 204 245 298 358
#     4  10  20  39  58  86 120 159 201 249 298 353
#     4  11  21  36  60  88 119 155 199 249 304 362
#     4  10  20  36  57  84 118 157 198 243 300 357
#
# _framework density 19.152201000000002
#
# number of rings (size 3 to 8) (size 9 to 14) (size 15 to 20)
#    0.000    1.750    2.500    1.875    0.000    2.000 
#    0.000    0.625    0.000    1.500    0.000    0.000 
#    0.000    0.000    0.000    0.000    0.000    0.000 
#
# Total GULP energy -178449.471314 kJ/mol
# GULP energy per Si atom -5576.545979 kJ/mol
# Density = 1.910861 g / cm^3
# Si number density = 19.152201 Si / 1000 Ang^3
#
#
#
# Elastic Constant Matrix: (Units=GPa)
#
#
# Indices 1 2 3 4 5 6 
#
# 1 109.5198 28.9458 32.6114 0.0000 8.3449 0.0000
# 2 28.9458 88.5458 22.7927 0.0000 4.5271 0.0000
# 3 32.6114 22.7927 76.7189 0.0000 2.5023 0.0000
# 4 0.0000 0.0000 0.0000 7.9934 0.0000 -2.8159
# 5 8.3449 4.5271 2.5023 0.0000 38.1299 0.0000
# 6 0.0000 0.0000 0.0000 -2.8159 0.0000 10.8582
#
#
#
# Elastic Compliance Matrix: (Units=1/GPa)
#
#
# Indices 1 2 3 4 5 6 
#
# 1 0.011106 -0.002529 -0.003908 0.000000 -0.001874 0.000000
# 2 -0.002529 0.012861 -0.002720 0.000000 -0.000795 0.000000
# 3 -0.003908 -0.002720 0.015499 0.000000 0.000161 0.000000
# 4 0.000000 0.000000 0.000000 0.137681 0.000000 0.035705
# 5 -0.001874 -0.000795 0.000161 0.000000 0.026720 0.000000
# 6 0.000000 0.000000 0.000000 0.035705 0.000000 0.101356
#
#
# Mechanical properties :
#
#
# Convention : Reuss Voigt Hill
#
# Bulk Modulus (GPa) = 47.27858 49.27605 48.27731
# Shear Modulus (GPa) = 15.12460 24.09194 19.60827
#
# Velocity S-wave (km/s) = 2.81322 3.55056 3.20318
# Velocity P-wave (km/s) = 5.94067 6.52635 6.24038
#
# Compressibility (1/GPa) = 0.02115123
#
# Stress axis : x y z
#
# Youngs Moduli (GPa) = 90.04431 77.75418 64.52086
#
# Poissons Ratio (x) = 0.19661 0.25217
# Poissons Ratio (y) = 0.22768 0.17551
# Poissons Ratio (z) = 0.35193 0.21150
#
# Static dielectric constant tensor:
#      x y z
#    x 1.658360 0.000000 -0.000130 
#    y 0.000000 1.641140 0.000000 
#    z -0.000130 0.000000 1.687460 
# 
# From -- ./inp_files/63669.got.cif
#   From: 2010.05.17/outbox.cif.g08.bks.cpg/sg11_32_cif.got.tgz:63669.got - 2010.06.03 12:22:45.
