data_PCOD9162319
_publ_section_title
;
Structure prediction by ZEFSAII (Michael W. Deem and Ramdas Pophale) SiO2 
 PCOD9162319
Probable space group: P 21/M
;
_chemical_formula_sum "Si O2"
_cell_formula_units_Z 32
_cell_length_a 31.325071
_cell_length_b 7.726396
_cell_length_c 13.233399
_cell_angle_alpha 90.000000
_cell_angle_beta 23.829598
_cell_angle_gamma 90.000000
_cell_volume 1294.020140
_symmetry_space_group_name_H-M "P 21/M"
_symmetry_group_IT_number 11
_symmetry_cell_setting 'monoclinic'
loop_
_space_group_symop_operation_xyz
x,y,z
-x,1/2+y,-z
-x,-y,-z
x,1/2-y,z
loop_
_atom_site_type_symbol
_atom_site_label
_atom_site_fract_x
_atom_site_fract_y
_atom_site_fract_z
Si Si1 0.486806 0.955972 0.912402
Si Si2 0.841202 0.040091 0.305468
Si Si3 0.657192 0.452030 0.933164
Si Si4 0.210756 0.946480 0.982871
Si Si5 0.169410 0.953224 0.288722
Si Si6 0.278103 0.957012 0.628609
Si Si7 0.949976 0.547126 0.266088
Si Si8 0.557837 0.947711 0.476733
O O1 0.477754 0.750000 0.923446
O O2 0.378574 0.028073 0.097322
O O3 0.598514 0.010186 0.622640
O O4 0.500000 0.000000 0.000000
O O5 0.838450 0.250000 0.317077
O O6 0.753850 0.981485 0.413929
O O7 0.854321 0.980678 0.392867
O O8 0.947851 0.982012 0.015130
O O9 0.691392 0.250000 0.846595
O O10 0.540082 0.454141 0.235015
O O11 0.735911 0.529696 0.846331
O O12 0.169206 0.750000 0.062682
O O13 0.210793 0.026572 0.869940
O O14 0.336885 0.942932 0.733691
O O15 0.160973 0.025671 0.193285
O O16 0.193773 0.750000 0.220314
O O17 0.072361 0.968096 0.576228
O O18 0.262034 0.750000 0.663261
O O19 0.964150 0.750000 0.251076
O O20 0.595857 0.750000 0.390631
O O21 0.500000 0.000000 0.500000
#
# Coordination Sequence:
#
# PCOD9162319 Si02
#       8
#     4   4   4   4   4   4   4   4
#     4  11  23  38  53  78 114 152 190 231 276 328
#     4   9  20  40  63  83 111 146 178 226 291 343
#     4   9  19  34  51  72 106 148 183 217 270 326
#     4  10  20  35  55  81 111 146 190 229 270 334
#     4  10  20  36  56  80 114 151 183 223 279 334
#     4  10  21  38  60  84 110 149 191 228 279 339
#     4  10  21  38  60  88 112 136 183 237 280 334
#     4  11  19  32  51  74 105 144 187 227 268 314
#
# _framework density 24.729137000000001
#
# number of rings (size 3 to 8) (size 9 to 14) (size 15 to 20)
#    0.000    2.000    2.500    1.125    1.750    1.500 
#    0.000    1.250    0.000    0.000    0.000    0.000 
#    0.000    0.000    0.000    0.000    0.000    0.000 
#
# Total GULP energy -178550.490774 kJ/mol
# GULP energy per Si atom -5579.702837 kJ/mol
# Density = 2.467285 g / cm^3
# Si number density = 24.729137 Si / 1000 Ang^3
#
#
#
# Elastic Constant Matrix: (Units=GPa)
#
#
# Indices 1 2 3 4 5 6 
#
# 1 73.5262 -1.0184 17.5747 0.0000 32.8749 0.0000
# 2 -1.0184 45.1357 -4.4292 0.0000 6.8319 0.0000
# 3 17.5747 -4.4292 76.5706 0.0000 33.2030 0.0000
# 4 0.0000 0.0000 0.0000 21.7996 0.0000 4.9132
# 5 32.8749 6.8319 33.2030 0.0000 55.6679 0.0000
# 6 0.0000 0.0000 0.0000 4.9132 0.0000 9.0610
#
#
#
# Elastic Compliance Matrix: (Units=1/GPa)
#
#
# Indices 1 2 3 4 5 6 
#
# 1 0.018737 0.002333 0.001021 0.000000 -0.011960 0.000000
# 2 0.002333 0.023534 0.003609 0.000000 -0.006419 0.000000
# 3 0.001021 0.003609 0.018193 0.000000 -0.011897 0.000000
# 4 0.000000 0.000000 0.000000 0.052259 0.000000 -0.028336
# 5 -0.011960 -0.006419 -0.011897 0.000000 0.032910 0.000000
# 6 0.000000 0.000000 0.000000 -0.028336 0.000000 0.125728
#
#
# Mechanical properties :
#
#
# Convention : Reuss Voigt Hill
#
# Bulk Modulus (GPa) = 13.44273 24.38741 18.91507
# Shear Modulus (GPa) = 17.71594 29.51271 23.61433
#
# Velocity S-wave (km/s) = 2.67947 3.45837 3.09353
# Velocity P-wave (km/s) = 3.87563 5.08235 4.51945
#
# Compressibility (1/GPa) = 0.07438962
#
# Stress axis : x y z
#
# Youngs Moduli (GPa) = 53.37169 42.49212 54.96559
#
# Poissons Ratio (x) = -0.09914 -0.05610
# Poissons Ratio (y) = -0.12453 -0.19838
# Poissons Ratio (z) = -0.05448 -0.15336
#
# Static dielectric constant tensor:
#      x y z
#    x 2.054420 0.000000 0.030390 
#    y 0.000000 1.919390 0.000000 
#    z 0.030390 0.000000 1.992780 
# 
# From -- ./inp_files/45122.got.cif
#   From: 2010.05.17/outbox.cif.g08.bks.cpg/sg11_23_cif.got.tgz:45122.got - 2010.06.03 12:22:45.
