data_PCOD9162304
_publ_section_title
;
Structure prediction by ZEFSAII (Michael W. Deem and Ramdas Pophale) SiO2 
 PCOD9162304
Probable space group: P 21/M
;
_chemical_formula_sum "Si O2"
_cell_formula_units_Z 28
_cell_length_a 14.180817
_cell_length_b 7.638222
_cell_length_c 14.089787
_cell_angle_alpha 90.000000
_cell_angle_beta 120.909040
_cell_angle_gamma 90.000000
_cell_volume 1309.414302
_symmetry_space_group_name_H-M "P 21/M"
_symmetry_group_IT_number 11
_symmetry_cell_setting 'monoclinic'
loop_
_space_group_symop_operation_xyz
x,y,z
-x,1/2+y,-z
-x,-y,-z
x,1/2-y,z
loop_
_atom_site_type_symbol
_atom_site_label
_atom_site_fract_x
_atom_site_fract_y
_atom_site_fract_z
Si Si1 0.099850 0.460243 0.621713
Si Si2 0.815448 0.456108 0.772261
Si Si3 0.959317 0.959471 0.200043
Si Si4 0.377454 0.041532 0.471121
Si Si5 0.237394 0.538251 0.044945
Si Si6 0.665606 0.535224 0.336314
Si Si7 0.526188 0.460197 0.904524
O O1 0.110164 0.250000 0.633657
O O2 0.072582 0.529054 0.712646
O O3 0.215767 0.523982 0.640072
O O4 0.000000 0.500000 0.500000
O O5 0.836710 0.250000 0.798109
O O6 0.713017 0.472541 0.648769
O O7 0.925813 0.530587 0.781665
O O8 0.786872 0.528343 0.861405
O O9 0.972570 0.750000 0.217791
O O10 0.861508 0.991568 0.076009
O O11 0.365151 0.250000 0.466403
O O12 0.356639 0.977122 0.567515
O O13 0.500000 0.000000 0.500000
O O14 0.244135 0.750000 0.052081
O O15 0.354156 0.473556 0.065375
O O16 0.665093 0.750000 0.336509
O O17 0.569606 0.476896 0.215416
O O18 0.528239 0.250000 0.896560
O O19 0.500000 0.500000 0.000000
#
# Coordination Sequence:
#
# PCOD9162304 Si02
#       7
#     4   4   4   4   4   4   4
#     4  10  20  35  55  80 108 141 178 220 267 318
#     4  10  21  38  57  81 112 144 179 223 270 319
#     4  10  21  36  57  83 111 142 180 226 270 313
#     4  11  22  37  58  82 108 144 184 224 270 322
#     4  10  21  36  56  80 110 146 180 218 272 330
#     4   9  19  36  56  76 106 145 178 210 264 327
#     4  10  20  36  56  78 105 140 179 221 266 317
#
# _framework density 21.383607000000001
#
# number of rings (size 3 to 8) (size 9 to 14) (size 15 to 20)
#    0.000    2.000    0.000    3.429    0.000    5.714 
#    0.000    4.286    0.000    0.000    0.000    0.000 
#    0.000    0.000    0.000    0.000    0.000    0.000 
#
# Total GULP energy -156531.851327 kJ/mol
# GULP energy per Si atom -5590.423262 kJ/mol
# Density = 2.133494 g / cm^3
# Si number density = 21.383607 Si / 1000 Ang^3
#
#
#
# Elastic Constant Matrix: (Units=GPa)
#
#
# Indices 1 2 3 4 5 6 
#
# 1 256.9468 -2.8223 136.3081 0.0000 -10.2991 0.0000
# 2 -2.8223 36.1226 -20.1623 0.0000 -9.2178 0.0000
# 3 136.3081 -20.1623 211.2625 0.0000 -15.6552 0.0000
# 4 0.0000 0.0000 0.0000 28.4249 0.0000 6.1021
# 5 -10.2991 -9.2178 -15.6552 0.0000 47.8746 0.0000
# 6 0.0000 0.0000 0.0000 6.1021 0.0000 15.7168
#
#
#
# Elastic Compliance Matrix: (Units=1/GPa)
#
#
# Indices 1 2 3 4 5 6 
#
# 1 0.006033 -0.001927 -0.004107 0.000000 -0.000416 0.000000
# 2 -0.001927 0.032120 0.004854 0.000000 0.007357 0.000000
# 3 -0.004107 0.004854 0.008045 0.000000 0.002682 0.000000
# 4 0.000000 0.000000 0.000000 0.038379 0.000000 -0.014901
# 5 -0.000416 0.007357 0.002682 0.000000 0.023092 0.000000
# 6 0.000000 0.000000 0.000000 -0.014901 0.000000 0.069412
#
#
# Mechanical properties :
#
#
# Convention : Reuss Voigt Hill
#
# Bulk Modulus (GPa) = 22.81174 81.21990 52.01582
# Shear Modulus (GPa) = 25.76602 44.47048 35.11825
#
# Velocity S-wave (km/s) = 3.47499 4.56527 4.05692
# Velocity P-wave (km/s) = 5.17608 8.11503 6.80608
#
# Compressibility (1/GPa) = 0.04383707
#
# Stress axis : x y z
#
# Youngs Moduli (GPa) = 165.75902 31.13354 124.29345
#
# Poissons Ratio (x) = 0.06001 0.51050
# Poissons Ratio (y) = 0.31948 -0.60334
# Poissons Ratio (z) = 0.68081 -0.15113
#
# Static dielectric constant tensor:
#      x y z
#    x 1.754140 0.000000 -0.024760 
#    y 0.000000 1.819780 0.000000 
#    z -0.024760 0.000000 1.707430 
# 
# From -- ./inp_files/38478.got.cif
#   From: 2010.05.17/outbox.cif.g08.bks.cpg/sg11_20_cif.got.tgz:38478.got - 2010.06.03 12:22:45.
