data_PCOD9162310
_publ_section_title
;
Structure prediction by ZEFSAII (Michael W. Deem and Ramdas Pophale) SiO2 
 PCOD9162310
Probable space group: P 21/M
;
_chemical_formula_sum "Si O2"
_cell_formula_units_Z 28
_cell_length_a 12.408646
_cell_length_b 7.465320
_cell_length_c 16.153053
_cell_angle_alpha 90.000000
_cell_angle_beta 53.239473
_cell_angle_gamma 90.000000
_cell_volume 1198.775766
_symmetry_space_group_name_H-M "P 21/M"
_symmetry_group_IT_number 11
_symmetry_cell_setting 'monoclinic'
loop_
_space_group_symop_operation_xyz
x,y,z
-x,1/2+y,-z
-x,-y,-z
x,1/2-y,z
loop_
_atom_site_type_symbol
_atom_site_label
_atom_site_fract_x
_atom_site_fract_y
_atom_site_fract_z
Si Si1 0.863015 0.462736 0.514412
Si Si2 0.841784 0.963031 0.061965
Si Si3 0.645676 0.453215 0.299334
Si Si4 0.146598 0.468684 0.127736
Si Si5 0.423255 0.043150 0.286599
Si Si6 0.141102 0.530476 0.673586
Si Si7 0.607581 0.964318 0.879564
O O1 0.844008 0.250000 0.521146
O O2 0.732978 0.540473 0.619129
O O3 0.867939 0.525924 0.417297
O O4 0.000000 0.500000 0.500000
O O5 0.819648 0.750000 0.077302
O O6 0.754410 0.048629 0.174549
O O7 0.806403 0.024979 0.985270
O O8 0.000000 0.000000 0.000000
O O9 0.611047 0.250000 0.340722
O O10 0.513825 0.537871 0.318228
O O11 0.726155 0.534043 0.339564
O O12 0.146848 0.250000 0.127040
O O13 0.249093 0.529223 0.151601
O O14 0.994569 0.525468 0.216566
O O15 0.469310 0.250000 0.260018
O O16 0.436834 0.962071 0.188934
O O17 0.142245 0.750000 0.675373
O O18 0.620989 0.750000 0.863333
O O19 0.500000 0.000000 0.000000
#
# Coordination Sequence:
#
# PCOD9162310 Si02
#       7
#     4   4   4   4   4   4   4
#     4  11  23  40  64  87 112 148 193 241 289 344
#     4  11  20  32  53  81 114 153 192 235 283 337
#     4  10  20  37  59  83 115 153 191 233 286 346
#     4   9  17  31  53  76 105 147 188 223 275 341
#     4  10  22  39  60  86 119 153 187 234 289 341
#     4   9  18  35  58  82 109 147 189 231 287 346
#     4  10  20  35  55  80 111 149 188 230 279 335
#
# _framework density 23.357164000000001
#
# number of rings (size 3 to 8) (size 9 to 14) (size 15 to 20)
#    0.000    2.000    1.429    2.571    0.000    4.000 
#    0.000    2.143    0.000    0.000    0.000    0.000 
#    0.000    0.000    0.000    0.000    0.000    0.000 
#
# Total GULP energy -156541.882906 kJ/mol
# GULP energy per Si atom -5590.781532 kJ/mol
# Density = 2.330400 g / cm^3
# Si number density = 23.357164 Si / 1000 Ang^3
#
#
#
# Elastic Constant Matrix: (Units=GPa)
#
#
# Indices 1 2 3 4 5 6 
#
# 1 210.8045 -2.1734 46.4686 0.0000 24.0508 0.0000
# 2 -2.1734 78.3561 -11.4254 0.0000 8.4444 0.0000
# 3 46.4686 -11.4254 83.3497 0.0000 22.2359 0.0000
# 4 0.0000 0.0000 0.0000 14.6305 0.0000 -6.8739
# 5 24.0508 8.4444 22.2359 0.0000 46.0408 0.0000
# 6 0.0000 0.0000 0.0000 -6.8739 0.0000 3.6758
#
#
#
# Elastic Compliance Matrix: (Units=1/GPa)
#
#
# Indices 1 2 3 4 5 6 
#
# 1 0.005510 -0.000064 -0.002658 0.000000 -0.001582 0.000000
# 2 -0.000064 0.013607 0.002936 0.000000 -0.003880 0.000000
# 3 -0.002658 0.002936 0.015675 0.000000 -0.006720 0.000000
# 4 0.000000 0.000000 0.000000 0.563058 0.000000 1.052938
# 5 -0.001582 -0.003880 -0.006720 0.000000 0.026504 0.000000
# 6 0.000000 0.000000 0.000000 1.052938 0.000000 2.241081
#
#
# Mechanical properties :
#
#
# Convention : Reuss Voigt Hill
#
# Bulk Modulus (GPa) = 28.39420 48.69442 38.54431
# Shear Modulus (GPa) = 1.73807 35.51214 18.62511
#
# Velocity S-wave (km/s) = 0.86357 3.90346 2.82690
# Velocity P-wave (km/s) = 3.63005 6.41942 5.21470
#
# Compressibility (1/GPa) = 0.03521846
#
# Stress axis : x y z
#
# Youngs Moduli (GPa) = 181.50153 73.49297 63.79585
#
# Poissons Ratio (x) = 0.00472 0.16959
# Poissons Ratio (y) = 0.01166 -0.18731
# Poissons Ratio (z) = 0.48249 -0.21579
#
# Static dielectric constant tensor:
#      x y z
#    x 1.917660 0.000000 0.042750 
#    y 0.000000 1.882030 0.000000 
#    z 0.042750 0.000000 1.842800 
# 
# From -- ./inp_files/49161.got.cif
#   From: 2010.05.17/outbox.cif.g08.bks.cpg/sg11_25_cif.got.tgz:49161.got - 2010.06.03 12:22:45.
