data_PCOD9162930
_publ_section_title
;
Structure prediction by ZEFSAII (Michael W. Deem and Ramdas Pophale) SiO2 
 PCOD9162930
Probable space group: P 21/M
;
_chemical_formula_sum "Si O2"
_cell_formula_units_Z 32
_cell_length_a 11.744960
_cell_length_b 7.741638
_cell_length_c 22.345228
_cell_angle_alpha 90.000000
_cell_angle_beta 51.214510
_cell_angle_gamma 90.000000
_cell_volume 1583.738344
_symmetry_space_group_name_H-M "P 21/M"
_symmetry_group_IT_number 11
_symmetry_cell_setting 'monoclinic'
loop_
_space_group_symop_operation_xyz
x,y,z
-x,1/2+y,-z
-x,-y,-z
x,1/2-y,z
loop_
_atom_site_type_symbol
_atom_site_label
_atom_site_fract_x
_atom_site_fract_y
_atom_site_fract_z
Si Si1 0.991046 0.544296 0.572651
Si Si2 0.831635 0.957214 0.062358
Si Si3 0.293090 0.045561 0.535972
Si Si4 0.329551 0.050221 0.129657
Si Si5 0.309275 0.459831 0.269879
Si Si6 0.589215 0.952697 0.377643
Si Si7 0.664155 0.961611 0.999707
Si Si8 0.613798 0.957506 0.235161
O O1 0.990437 0.750000 0.578792
O O2 0.132394 0.481722 0.562658
O O3 0.000000 0.500000 0.500000
O O4 0.836204 0.479451 0.648685
O O5 0.817292 0.750000 0.068567
O O6 0.754778 0.017314 0.026968
O O7 0.743553 0.023559 0.149345
O O8 0.000000 0.000000 0.000000
O O9 0.322020 0.250000 0.527824
O O10 0.321496 0.976781 0.594204
O O11 0.418818 0.968869 0.451906
O O12 0.283387 0.250000 0.148145
O O13 0.302075 0.973307 0.203869
O O14 0.503236 0.036826 0.062203
O O15 0.270768 0.980349 0.085737
O O16 0.309479 0.250000 0.268213
O O17 0.458691 0.509452 0.253883
O O18 0.625799 0.750000 0.362133
O O19 0.615005 0.026800 0.302852
O O20 0.653324 0.750000 0.002117
O O21 0.628107 0.750000 0.234311
#
# Coordination Sequence:
#
# PCOD9162930 Si02
#       8
#     4   4   4   4   4   4   4   4
#     4  11  23  38  55  80 113 146 180 220 269 321
#     4  10  21  36  53  76 106 139 175 218 265 314
#     4  10  20  36  57  82 112 143 181 223 266 320
#     4   9  17  31  53  77 102 132 168 213 261 309
#     4  10  21  35  53  79 108 138 175 221 267 316
#     4   9  19  36  59  82 107 144 183 223 269 315
#     4   9  17  32  53  76 102 132 169 211 258 313
#     4  10  20  36  57  79 105 137 178 222 263 315
#
# _framework density 20.205358
#
# number of rings (size 3 to 8) (size 9 to 14) (size 15 to 20)
#    0.000    2.250    1.250    1.500    0.000    5.000 
#    2.250    0.000    0.000    0.000    0.000    0.000 
#    0.000    0.000    0.000    0.000    0.000    0.000 
#
# Total GULP energy -178464.409586 kJ/mol
# GULP energy per Si atom -5577.012800 kJ/mol
# Density = 2.015937 g / cm^3
# Si number density = 20.205358 Si / 1000 Ang^3
#
#
#
# Elastic Constant Matrix: (Units=GPa)
#
#
# Indices 1 2 3 4 5 6 
#
# 1 106.6934 -2.2018 98.6133 0.0000 13.1909 0.0000
# 2 -2.2018 30.6161 -1.9576 0.0000 7.5184 0.0000
# 3 98.6133 -1.9576 198.8333 0.0000 32.9973 0.0000
# 4 0.0000 0.0000 0.0000 14.7335 0.0000 -4.3219
# 5 13.1909 7.5184 32.9973 0.0000 37.4081 0.0000
# 6 0.0000 0.0000 0.0000 -4.3219 0.0000 24.9375
#
#
#
# Elastic Compliance Matrix: (Units=1/GPa)
#
#
# Indices 1 2 3 4 5 6 
#
# 1 0.017403 0.000274 -0.008904 0.000000 0.001663 0.000000
# 2 0.000274 0.034884 0.001625 0.000000 -0.008541 0.000000
# 3 -0.008904 0.001625 0.010537 0.000000 -0.006481 0.000000
# 4 0.000000 0.000000 0.000000 0.071508 0.000000 0.012393
# 5 0.001663 -0.008541 -0.006481 0.000000 0.033580 0.000000
# 6 0.000000 0.000000 0.000000 0.012393 0.000000 0.042248
#
#
# Mechanical properties :
#
#
# Convention : Reuss Voigt Hill
#
# Bulk Modulus (GPa) = 20.48650 58.33895 39.41272
# Shear Modulus (GPa) = 20.79516 31.52841 26.16178
#
# Velocity S-wave (km/s) = 3.21158 3.95447 3.60223
# Velocity P-wave (km/s) = 4.89014 7.05593 6.07041
#
# Compressibility (1/GPa) = 0.04881264
#
# Stress axis : x y z
#
# Youngs Moduli (GPa) = 57.46251 28.66678 94.90264
#
# Poissons Ratio (x) = -0.00785 0.84504
# Poissons Ratio (y) = -0.01574 -0.15422
# Poissons Ratio (z) = 0.51166 -0.04658
#
# Static dielectric constant tensor:
#      x y z
#    x 1.684550 0.000000 0.041720 
#    y 0.000000 1.720590 0.000000 
#    z 0.041720 0.000000 1.733520 
# 
# From -- ./inp_files/64377.got.cif
#   From: 2010.05.17/outbox.cif.g08.bks.cpg/sg11_33_cif.got.tgz:64377.got - 2010.06.03 12:22:45.
