data_PCOD9162631
_publ_section_title
;
Structure prediction by ZEFSAII (Michael W. Deem and Ramdas Pophale) SiO2 
 PCOD9162631
Probable space group: P 21/M
;
_chemical_formula_sum "Si O2"
_cell_formula_units_Z 28
_cell_length_a 16.521547
_cell_length_b 9.478535
_cell_length_c 19.874086
_cell_angle_alpha 90.000000
_cell_angle_beta 28.515982
_cell_angle_gamma 90.000000
_cell_volume 1485.816015
_symmetry_space_group_name_H-M "P 21/M"
_symmetry_group_IT_number 11
_symmetry_cell_setting 'monoclinic'
loop_
_space_group_symop_operation_xyz
x,y,z
-x,1/2+y,-z
-x,-y,-z
x,1/2-y,z
loop_
_atom_site_type_symbol
_atom_site_label
_atom_site_fract_x
_atom_site_fract_y
_atom_site_fract_z
Si Si1 0.671934 0.083310 0.892900
Si Si2 0.884351 0.085976 0.248687
Si Si3 0.587350 0.588180 0.495985
Si Si4 0.150715 0.079278 0.349771
Si Si5 0.756777 0.584369 0.060839
Si Si6 0.521121 0.410479 0.146276
Si Si7 0.241890 0.591481 0.812469
O O1 0.669283 0.250000 0.874915
O O2 0.816163 0.998771 0.746396
O O3 0.653912 0.080981 0.986769
O O4 0.500000 0.000000 0.000000
O O5 0.850916 0.250000 0.289020
O O6 0.829342 0.066620 0.210387
O O7 0.765743 0.985524 0.378971
O O8 0.083136 0.058071 0.104992
O O9 0.500000 0.500000 0.500000
O O10 0.611304 0.750000 0.457374
O O11 0.446404 0.586582 0.656579
O O12 0.123664 0.250000 0.362729
O O13 0.330966 0.061437 0.257771
O O14 0.000000 0.000000 0.500000
O O15 0.735924 0.750000 0.082873
O O16 0.590102 0.514054 0.152270
O O17 0.805921 0.519142 0.096612
O O18 0.523999 0.250000 0.169461
O O19 0.190330 0.750000 0.869927
#
# Coordination Sequence:
#
# PCOD9162631 Si02
#       7
#     4   4   4   4   4   4   4
#     4   9  17  32  55  80 105 136 171 206 247 301
#     4   9  19  34  50  73 101 131 173 220 261 308
#     4   9  17  30  50  73  94 123 162 207 258 308
#     4  10  20  35  58  86 111 137 171 213 257 307
#     4  11  22  33  50  76 104 135 174 219 261 301
#     4   9  20  37  54  75 106 141 173 206 255 313
#     4   9  18  33  51  71 100 135 172 215 264 314
#
# _framework density 18.844863
#
# number of rings (size 3 to 8) (size 9 to 14) (size 15 to 20)
#    0.000    2.571    0.000    3.857    0.000    7.429 
#    0.000    1.429    0.000    1.714    0.000    0.000 
#    0.000    0.000    0.000    0.000    0.000    0.000 
#
# Total GULP energy -155911.974950 kJ/mol
# GULP energy per Si atom -5568.284820 kJ/mol
# Density = 1.880197 g / cm^3
# Si number density = 18.844863 Si / 1000 Ang^3
#
#
#
# Elastic Constant Matrix: (Units=GPa)
#
#
# Indices 1 2 3 4 5 6 
#
# 1 23.2736 26.1683 4.7634 0.0000 -12.1564 0.0000
# 2 26.1683 97.6332 59.8880 0.0000 -13.5989 0.0000
# 3 4.7634 59.8880 95.4733 0.0000 -4.8277 0.0000
# 4 0.0000 0.0000 0.0000 35.9967 0.0000 2.6722
# 5 -12.1564 -13.5989 -4.8277 0.0000 13.6318 0.0000
# 6 0.0000 0.0000 0.0000 2.6722 0.0000 19.3125
#
#
#
# Elastic Compliance Matrix: (Units=1/GPa)
#
#
# Indices 1 2 3 4 5 6 
#
# 1 0.114109 -0.030385 0.017289 0.000000 0.077570 0.000000
# 2 -0.030385 0.027425 -0.015960 0.000000 -0.005389 0.000000
# 3 0.017289 -0.015960 0.019955 0.000000 0.006563 0.000000
# 4 0.000000 0.000000 0.000000 0.028069 0.000000 -0.003884
# 5 0.077570 -0.005389 0.006563 0.000000 0.139481 0.000000
# 6 0.000000 0.000000 0.000000 -0.003884 0.000000 0.052317
#
#
# Mechanical properties :
#
#
# Convention : Reuss Voigt Hill
#
# Bulk Modulus (GPa) = 9.67328 44.22439 26.94883
# Shear Modulus (GPa) = 10.55015 22.15887 16.35451
#
# Velocity S-wave (km/s) = 2.36867 3.43280 2.94913
# Velocity P-wave (km/s) = 3.55317 6.26344 5.09194
#
# Compressibility (1/GPa) = 0.10337759
#
# Stress axis : x y z
#
# Youngs Moduli (GPa) = 8.76355 36.46253 50.11375
#
# Poissons Ratio (x) = 1.10790 -0.86640
# Poissons Ratio (y) = 0.26628 0.79981
# Poissons Ratio (z) = -0.15151 0.58193
#
# Static dielectric constant tensor:
#      x y z
#    x 1.675790 0.000000 -0.017850 
#    y 0.000000 1.643470 0.000000 
#    z -0.017850 0.000000 1.710010 
# 
# From -- ./inp_files/28536.got.cif
#   From: 2010.05.17/outbox.cif.g08.bks.cpg/sg11_15_cif.got.tgz:28536.got - 2010.06.03 12:22:45.
