data_PCOD9162369
_publ_section_title
;
Structure prediction by ZEFSAII (Michael W. Deem and Ramdas Pophale) SiO2 
 PCOD9162369
Probable space group: P 21/M
;
_chemical_formula_sum "Si O2"
_cell_formula_units_Z 28
_cell_length_a 9.711704
_cell_length_b 8.745597
_cell_length_c 28.659694
_cell_angle_alpha 90.000000
_cell_angle_beta 140.032189
_cell_angle_gamma 90.000000
_cell_volume 1563.626435
_symmetry_space_group_name_H-M "P 21/M"
_symmetry_group_IT_number 11
_symmetry_cell_setting 'monoclinic'
loop_
_space_group_symop_operation_xyz
x,y,z
-x,1/2+y,-z
-x,-y,-z
x,1/2-y,z
loop_
_atom_site_type_symbol
_atom_site_label
_atom_site_fract_x
_atom_site_fract_y
_atom_site_fract_z
Si Si1 0.853707 0.070830 0.421161
Si Si2 0.016891 0.066794 0.150485
Si Si3 0.436642 0.933311 0.933038
Si Si4 0.853095 0.066589 0.003262
Si Si5 0.359415 0.070588 0.396894
Si Si6 0.171987 0.572690 0.438634
Si Si7 0.385908 0.931030 0.304540
O O1 0.821495 0.250000 0.421378
O O2 0.627127 0.987794 0.358914
O O3 0.000000 0.000000 0.500000
O O4 0.989657 0.037775 0.410207
O O5 0.049320 0.250000 0.160552
O O6 0.817228 0.030672 0.133517
O O7 0.952163 0.028172 0.080252
O O8 0.226853 0.981371 0.222311
O O9 0.458359 0.750000 0.938794
O O10 0.500000 0.000000 0.000000
O O11 0.608887 0.002425 0.941781
O O12 0.845606 0.250000 0.997671
O O13 0.000000 0.000000 0.000000
O O14 0.311053 0.250000 0.389978
O O15 0.612546 0.051399 0.474433
O O16 0.236662 0.971220 0.403249
O O17 0.313914 0.014183 0.333372
O O18 0.107800 0.750000 0.425941
O O19 0.383151 0.750000 0.310269
#
# Coordination Sequence:
#
# PCOD9162369 Si02
#       7
#     4   4   4   4   4   4   4
#     4  12  23  37  57  81 111 148 191 238 289 345
#     4   9  20  38  57  81 114 151 190 232 284 340
#     4   9  17  32  56  83 112 146 185 227 269 325
#     4  10  20  35  59  89 120 153 189 232 279 332
#     4  10  20  35  56  79 108 143 178 227 283 336
#     4  10  20  35  56  81 108 138 180 232 281 334
#     4  12  24  37  57  83 113 149 192 240 287 338
#
# _framework density 17.907091000000001
#
# number of rings (size 3 to 8) (size 9 to 14) (size 15 to 20)
#    0.000    1.714    1.429    5.143    0.000    4.571 
#    0.000    1.429    0.000    5.143    0.000    0.000 
#    0.000    0.000    0.000    0.000    0.000    0.000 
#
# Total GULP energy -156271.952267 kJ/mol
# GULP energy per Si atom -5581.141152 kJ/mol
# Density = 1.786633 g / cm^3
# Si number density = 17.907091 Si / 1000 Ang^3
#
#
#
# Elastic Constant Matrix: (Units=GPa)
#
#
# Indices 1 2 3 4 5 6 
#
# 1 99.0914 19.0846 27.0109 0.0000 8.3621 0.0000
# 2 19.0846 56.8833 29.8287 0.0000 5.8070 0.0000
# 3 27.0109 29.8287 71.4697 0.0000 12.3561 0.0000
# 4 0.0000 0.0000 0.0000 26.7588 0.0000 0.5265
# 5 8.3621 5.8070 12.3561 0.0000 23.5723 0.0000
# 6 0.0000 0.0000 0.0000 0.5265 0.0000 35.8447
#
#
#
# Elastic Compliance Matrix: (Units=1/GPa)
#
#
# Indices 1 2 3 4 5 6 
#
# 1 0.011506 -0.001995 -0.003184 0.000000 -0.001921 0.000000
# 2 -0.001995 0.022861 -0.008727 0.000000 -0.000350 0.000000
# 3 -0.003184 -0.008727 0.020091 0.000000 -0.007252 0.000000
# 4 0.000000 0.000000 0.000000 0.037382 0.000000 -0.000549
# 5 -0.001921 -0.000350 -0.007252 0.000000 0.046992 0.000000
# 6 0.000000 0.000000 0.000000 -0.000549 0.000000 0.027906
#
#
# Mechanical properties :
#
#
# Convention : Reuss Voigt Hill
#
# Bulk Modulus (GPa) = 37.52718 42.14364 39.83541
# Shear Modulus (GPa) = 24.57831 27.33649 25.95740
#
# Velocity S-wave (km/s) = 3.70881 3.91138 3.81144
# Velocity P-wave (km/s) = 6.27236 6.63206 6.45471
#
# Compressibility (1/GPa) = 0.02664735
#
# Stress axis : x y z
#
# Youngs Moduli (GPa) = 86.91230 43.74248 49.77263
#
# Poissons Ratio (x) = 0.08725 0.15847
# Poissons Ratio (y) = 0.17335 0.43437
# Poissons Ratio (z) = 0.27671 0.38174
#
# Static dielectric constant tensor:
#      x y z
#    x 1.608200 0.000000 0.026770 
#    y 0.000000 1.589670 0.000000 
#    z 0.026770 0.000000 1.590550 
# 
# From -- ./inp_files/28358.got.cif
#   From: 2010.05.17/outbox.cif.g08.bks.cpg/sg11_15_cif.got.tgz:28358.got - 2010.06.03 12:22:45.
