data_PCOD9162863
_publ_section_title
;
Structure prediction by ZEFSAII (Michael W. Deem and Ramdas Pophale) SiO2 
 PCOD9162863
Probable space group: P 21/M
;
_chemical_formula_sum "Si O2"
_cell_formula_units_Z 32
_cell_length_a 13.471884
_cell_length_b 19.305442
_cell_length_c 14.202336
_cell_angle_alpha 90.000000
_cell_angle_beta 159.950778
_cell_angle_gamma 90.000000
_cell_volume 1266.319391
_symmetry_space_group_name_H-M "P 21/M"
_symmetry_group_IT_number 11
_symmetry_cell_setting 'monoclinic'
loop_
_space_group_symop_operation_xyz
x,y,z
-x,1/2+y,-z
-x,-y,-z
x,1/2-y,z
loop_
_atom_site_type_symbol
_atom_site_label
_atom_site_fract_x
_atom_site_fract_y
_atom_site_fract_z
Si Si1 0.975107 0.674666 0.242841
Si Si2 0.102569 0.174771 0.390842
Si Si3 0.659506 0.153893 0.256972
Si Si4 0.513598 0.139698 0.924724
Si Si5 0.460291 0.995544 0.832595
Si Si6 0.905735 0.478664 0.667896
Si Si7 0.062286 0.431050 0.116529
Si Si8 0.474413 0.667122 0.410750
O O1 0.050308 0.750000 0.267130
O O2 0.079726 0.677259 0.445260
O O3 0.113167 0.604041 0.324047
O O4 0.628159 0.667242 0.937347
O O5 0.961654 0.250000 0.254721
O O6 0.289971 0.172449 0.652889
O O7 0.314940 0.166760 0.492802
O O8 0.822156 0.127359 0.148651
O O9 0.703998 0.072508 0.282644
O O10 0.591286 0.177145 0.090767
O O11 0.390396 0.062747 0.829597
O O12 0.354383 0.003995 0.630230
O O13 0.799155 0.979884 0.129090
O O14 0.924598 0.530995 0.770725
O O15 0.355686 0.384966 0.366332
O O16 0.814670 0.373495 0.877654
O O17 0.000000 0.500000 0.000000
O O18 0.436974 0.750000 0.401915
#
# Coordination Sequence:
#
# PCOD9162863 Si02
#       8
#     4   4   4   4   4   4   4   4
#     4  10  21  38  56  77 110 160 208 252 313 374
#     4  11  24  37  55  83 115 157 202 237 289 360
#     4  10  22  34  52  79 111 150 201 260 312 357
#     4  12  21  34  54  80 114 152 199 261 307 350
#     4  10  20  36  56  79 109 153 201 243 303 369
#     4  10  21  38  61  87 117 154 201 253 300 367
#     4  12  24  42  71 104 131 161 206 260 314 373
#     4  11  24  45  68  95 134 175 207 244 305 386
#
# _framework density 25.270088000000001
#
# number of rings (size 3 to 8) (size 9 to 14) (size 15 to 20)
#    0.000    1.250    0.000    7.125    0.000    5.000 
#    0.000    6.250    0.000    0.000    0.000    0.000 
#    0.000    0.000    0.000    0.000    0.000    0.000 
#
# Total GULP energy -178832.143110 kJ/mol
# GULP energy per Si atom -5588.504472 kJ/mol
# Density = 2.521257 g / cm^3
# Si number density = 25.270088 Si / 1000 Ang^3
#
#
#
# Elastic Constant Matrix: (Units=GPa)
#
#
# Indices 1 2 3 4 5 6 
#
# 1 39.5522 30.5610 3.9857 0.0000 -2.8567 0.0000
# 2 30.5610 208.6611 43.7528 0.0000 -7.5974 0.0000
# 3 3.9857 43.7528 120.7943 0.0000 1.9487 0.0000
# 4 0.0000 0.0000 0.0000 37.3379 0.0000 -8.4695
# 5 -2.8567 -7.5974 1.9487 0.0000 25.2202 0.0000
# 6 0.0000 0.0000 0.0000 -8.4695 0.0000 15.5511
#
#
#
# Elastic Compliance Matrix: (Units=1/GPa)
#
#
# Indices 1 2 3 4 5 6 
#
# 1 0.028644 -0.004243 0.000561 0.000000 0.001923 0.000000
# 2 -0.004243 0.005889 -0.002017 0.000000 0.001449 0.000000
# 3 0.000561 -0.002017 0.009010 0.000000 -0.001240 0.000000
# 4 0.000000 0.000000 0.000000 0.030558 0.000000 0.016642
# 5 0.001923 0.001449 -0.001240 0.000000 0.040401 0.000000
# 6 0.000000 0.000000 0.000000 0.016642 0.000000 0.073368
#
#
# Mechanical properties :
#
#
# Convention : Reuss Voigt Hill
#
# Bulk Modulus (GPa) = 31.10790 58.40076 44.75433
# Shear Modulus (GPa) = 23.81141 35.00236 29.40688
#
# Velocity S-wave (km/s) = 3.07298 3.72577 3.41501
# Velocity P-wave (km/s) = 4.99278 6.45518 5.77049
#
# Compressibility (1/GPa) = 0.03214617
#
# Stress axis : x y z
#
# Youngs Moduli (GPa) = 34.91165 169.79398 110.98184
#
# Poissons Ratio (x) = 0.72040 -0.06222
# Poissons Ratio (y) = 0.14812 0.22381
# Poissons Ratio (z) = -0.01957 0.34241
#
# Static dielectric constant tensor:
#      x y z
#    x 2.024000 0.000000 -0.054840 
#    y 0.000000 2.143130 0.000000 
#    z -0.054840 0.000000 1.948680 
# 
# From -- ./inp_files/52732.got.cif
#   From: 2010.05.17/outbox.cif.g08.bks.cpg/sg11_27_cif.got.tgz:52732.got - 2010.06.03 12:22:45.
