data_PCOD9162961
_publ_section_title
;
Structure prediction by ZEFSAII (Michael W. Deem and Ramdas Pophale) SiO2 
 PCOD9162961
Probable space group: P 21/M
;
_chemical_formula_sum "Si O2"
_cell_formula_units_Z 32
_cell_length_a 24.341138
_cell_length_b 8.935522
_cell_length_c 16.321832
_cell_angle_alpha 90.000000
_cell_angle_beta 27.704416
_cell_angle_gamma 90.000000
_cell_volume 1650.436670
_symmetry_space_group_name_H-M "P 21/M"
_symmetry_group_IT_number 11
_symmetry_cell_setting 'monoclinic'
loop_
_space_group_symop_operation_xyz
x,y,z
-x,1/2+y,-z
-x,-y,-z
x,1/2-y,z
loop_
_atom_site_type_symbol
_atom_site_label
_atom_site_fract_x
_atom_site_fract_y
_atom_site_fract_z
Si Si1 0.122032 0.575643 0.313341
Si Si2 0.332388 0.574500 0.166702
Si Si3 0.371540 0.069451 0.678854
Si Si4 0.297210 0.070406 0.957571
Si Si5 0.832222 0.572414 0.174236
Si Si6 0.503428 0.428502 0.812243
Si Si7 0.274200 0.427272 0.416933
Si Si8 0.084648 0.574943 0.768865
O O1 0.101964 0.750000 0.323707
O O2 0.216092 0.562313 0.263383
O O3 0.000000 0.500000 0.500000
O O4 0.186942 0.501796 0.149929
O O5 0.364558 0.750000 0.130649
O O6 0.304873 0.505608 0.290816
O O7 0.433978 0.484522 0.984806
O O8 0.380355 0.250000 0.668283
O O9 0.314591 0.023769 0.840959
O O10 0.285709 0.028159 0.717514
O O11 0.500000 0.000000 0.500000
O O12 0.283644 0.250000 0.978738
O O13 0.416259 0.033757 0.852004
O O14 0.827328 0.750000 0.202013
O O15 0.859015 0.477802 0.219482
O O16 0.944548 0.553937 0.965443
O O17 0.520602 0.250000 0.791861
O O18 0.628053 0.512260 0.647845
O O19 0.281835 0.250000 0.399594
O O20 0.146609 0.479198 0.616939
O O21 0.108089 0.750000 0.723637
#
# Coordination Sequence:
#
# PCOD9162961 Si02
#       8
#     4   4   4   4   4   4   4   4
#     4  10  21  37  60  86 115 152 193 236 288 345
#     4  10  21  38  56  80 113 150 191 234 285 339
#     4  10  22  39  60  89 120 154 195 243 298 351
#     4   9  20  38  58  83 116 152 194 240 292 349
#     4   9  20  40  61  83 115 150 189 241 295 346
#     4  10  20  36  57  81 114 152 190 233 286 343
#     4  12  24  36  55  84 115 148 190 236 286 342
#     4  10  21  38  60  84 113 152 195 237 291 350
#
# _framework density 19.388808000000001
#
# number of rings (size 3 to 8) (size 9 to 14) (size 15 to 20)
#    0.000    2.000    0.000    3.000    1.750    4.500 
#    0.000    2.500    0.000    0.000    0.000    0.000 
#    0.000    0.000    0.000    0.000    0.000    0.000 
#
# Total GULP energy -178828.168397 kJ/mol
# GULP energy per Si atom -5588.380262 kJ/mol
# Density = 1.934468 g / cm^3
# Si number density = 19.388808 Si / 1000 Ang^3
#
#
#
# Elastic Constant Matrix: (Units=GPa)
#
#
# Indices 1 2 3 4 5 6 
#
# 1 44.7407 14.3347 14.5805 0.0000 -9.0258 0.0000
# 2 14.3347 49.8986 14.3525 0.0000 -8.8888 0.0000
# 3 14.5805 14.3525 57.4129 0.0000 -14.5328 0.0000
# 4 0.0000 0.0000 0.0000 39.4247 0.0000 -1.2658
# 5 -9.0258 -8.8888 -14.5328 0.0000 23.1225 0.0000
# 6 0.0000 0.0000 0.0000 -1.2658 0.0000 23.9197
#
#
#
# Elastic Compliance Matrix: (Units=1/GPa)
#
#
# Indices 1 2 3 4 5 6 
#
# 1 0.026547 -0.005469 -0.003905 0.000000 0.005806 0.000000
# 2 -0.005469 0.023403 -0.003240 0.000000 0.004825 0.000000
# 3 -0.003905 -0.003240 0.022022 0.000000 0.011071 0.000000
# 4 0.000000 0.000000 0.000000 0.025408 0.000000 0.001345
# 5 0.005806 0.004825 0.011071 0.000000 0.054328 0.000000
# 6 0.000000 0.000000 0.000000 0.001345 0.000000 0.041878
#
#
# Mechanical properties :
#
#
# Convention : Reuss Voigt Hill
#
# Bulk Modulus (GPa) = 21.39320 26.50974 23.95147
# Shear Modulus (GPa) = 21.33151 24.54569 22.93860
#
# Velocity S-wave (km/s) = 3.32052 3.56191 3.44333
# Velocity P-wave (km/s) = 5.07532 5.53341 5.30931
#
# Compressibility (1/GPa) = 0.04674383
#
# Stress axis : x y z
#
# Youngs Moduli (GPa) = 37.66888 42.72900 45.40948
#
# Poissons Ratio (x) = 0.23368 0.17733
# Poissons Ratio (y) = 0.20601 0.14714
# Poissons Ratio (z) = 0.14710 0.13845
#
# Static dielectric constant tensor:
#      x y z
#    x 1.683210 0.000000 -0.007050 
#    y 0.000000 1.657570 0.000000 
#    z -0.007050 0.000000 1.664940 
# 
# From -- ./inp_files/55645.got.cif
#   From: 2010.05.17/outbox.cif.g08.bks.cpg/sg11_28_cif.got.tgz:55645.got - 2010.06.03 12:22:45.
