data_PCOD9162885
_publ_section_title
;
Structure prediction by ZEFSAII (Michael W. Deem and Ramdas Pophale) SiO2 
 PCOD9162885
Probable space group: P 21/M
;
_chemical_formula_sum "Si O2"
_cell_formula_units_Z 24
_cell_length_a 24.232482
_cell_length_b 8.804057
_cell_length_c 12.187271
_cell_angle_alpha 90.000000
_cell_angle_beta 147.369792
_cell_angle_gamma 90.000000
_cell_volume 1402.003434
_symmetry_space_group_name_H-M "P 21/M"
_symmetry_group_IT_number 11
_symmetry_cell_setting 'monoclinic'
loop_
_space_group_symop_operation_xyz
x,y,z
-x,1/2+y,-z
-x,-y,-z
x,1/2-y,z
loop_
_atom_site_type_symbol
_atom_site_label
_atom_site_fract_x
_atom_site_fract_y
_atom_site_fract_z
Si Si1 0.441060 0.924739 0.252007
Si Si2 0.886964 0.568735 0.311346
Si Si3 0.736444 0.433204 0.882385
Si Si4 0.642414 0.070759 0.503714
Si Si5 0.266460 0.925399 0.774043
Si Si6 0.611365 0.930496 0.216320
O O1 0.476836 0.750000 0.327375
O O2 0.370880 0.971961 0.236891
O O3 0.533429 0.033739 0.377085
O O4 0.362951 0.924986 0.018816
O O5 0.890130 0.750000 0.319122
O O6 0.823960 0.506665 0.310817
O O7 0.000000 0.500000 0.500000
O O8 0.824923 0.512522 0.099921
O O9 0.747423 0.250000 0.912004
O O10 0.725531 0.470974 0.736001
O O11 0.650234 0.250000 0.494676
O O12 0.643241 0.980801 0.391675
O O13 0.239669 0.750000 0.706886
O O14 0.305707 0.008176 0.731285
O O15 0.602803 0.750000 0.195271
O O16 0.500000 0.000000 0.000000
#
# Coordination Sequence:
#
# PCOD9162885 Si02
#       6
#     4   4   4   4   4   4
#     4   9  17  30  49  73 106 144 181 224 267 318
#     4  11  22  38  62  87 110 140 178 227 281 331
#     4   9  20  36  52  76 109 143 182 226 274 327
#     4  11  21  32  50  75 109 150 186 224 269 320
#     4  10  20  36  56  81 111 143 184 232 274 322
#     4  12  23  35  52  76 110 153 194 228 266 320
#
# _framework density 17.118359999999999
#
# number of rings (size 3 to 8) (size 9 to 14) (size 15 to 20)
#    0.000    1.667    1.667    5.500    0.000    4.000 
#    0.000    0.000    0.000    1.000    0.000    0.000 
#    0.000    0.000    0.000    0.000    0.000    0.000 
#
# Total GULP energy -134013.436267 kJ/mol
# GULP energy per Si atom -5583.893178 kJ/mol
# Density = 1.707940 g / cm^3
# Si number density = 17.118360 Si / 1000 Ang^3
#
#
#
# Elastic Constant Matrix: (Units=GPa)
#
#
# Indices 1 2 3 4 5 6 
#
# 1 115.0195 70.9116 81.6919 0.0000 -16.7807 0.0000
# 2 70.9116 124.7437 57.8621 0.0000 -5.8574 0.0000
# 3 81.6919 57.8621 81.9939 0.0000 -2.0596 0.0000
# 4 0.0000 0.0000 0.0000 24.3525 0.0000 0.5144
# 5 -16.7807 -5.8574 -2.0596 0.0000 29.4944 0.0000
# 6 0.0000 0.0000 0.0000 0.5144 0.0000 30.4478
#
#
#
# Elastic Compliance Matrix: (Units=1/GPa)
#
#
# Indices 1 2 3 4 5 6 
#
# 1 0.040337 -0.005358 -0.035920 0.000000 0.019377 0.000000
# 2 -0.005358 0.012724 -0.003660 0.000000 -0.000777 0.000000
# 3 -0.035920 -0.003660 0.050123 0.000000 -0.017663 0.000000
# 4 0.000000 0.000000 0.000000 0.041078 0.000000 -0.000694
# 5 0.019377 -0.000777 -0.017663 0.000000 0.043541 0.000000
# 6 0.000000 0.000000 0.000000 -0.000694 0.000000 0.032855
#
#
# Mechanical properties :
#
#
# Convention : Reuss Voigt Hill
#
# Bulk Modulus (GPa) = 75.15050 82.52094 78.83572
# Shear Modulus (GPa) = 15.87457 24.27838 20.07648
#
# Velocity S-wave (km/s) = 3.04853 3.77007 3.42834
# Velocity P-wave (km/s) = 7.50914 8.20134 7.86286
#
# Compressibility (1/GPa) = 0.01330663
#
# Stress axis : x y z
#
# Youngs Moduli (GPa) = 24.79126 78.59470 19.95105
#
# Poissons Ratio (x) = 0.42115 0.71664
# Poissons Ratio (y) = 0.13284 0.07301
# Poissons Ratio (z) = 0.89050 0.28762
#
# Static dielectric constant tensor:
#      x y z
#    x 1.582150 0.000000 -0.027150 
#    y 0.000000 1.574520 0.000000 
#    z -0.027150 0.000000 1.574410 
# 
# From -- ./inp_files/37239.got.cif
#   From: 2010.05.17/outbox.cif.g08.bks.cpg/sg11_19_cif.got.tgz:37239.got - 2010.06.03 12:22:45.
