data_PCOD9162184
_publ_section_title
;
Structure prediction by ZEFSAII (Michael W. Deem and Ramdas Pophale) SiO2 
 PCOD9162184
Probable space group: P 21/M
;
_chemical_formula_sum "Si O2"
_cell_formula_units_Z 32
_cell_length_a 24.108431
_cell_length_b 8.341290
_cell_length_c 16.195813
_cell_angle_alpha 90.000000
_cell_angle_beta 148.179852
_cell_angle_gamma 90.000000
_cell_volume 1717.217559
_symmetry_space_group_name_H-M "P 21/M"
_symmetry_group_IT_number 11
_symmetry_cell_setting 'monoclinic'
loop_
_space_group_symop_operation_xyz
x,y,z
-x,1/2+y,-z
-x,-y,-z
x,1/2-y,z
loop_
_atom_site_type_symbol
_atom_site_label
_atom_site_fract_x
_atom_site_fract_y
_atom_site_fract_z
Si Si1 0.908113 0.943946 0.643049
Si Si2 0.891018 0.558887 0.321999
Si Si3 0.697823 0.946124 0.471598
Si Si4 0.862753 0.058196 0.099517
Si Si5 0.641619 0.558082 0.748397
Si Si6 0.219665 0.935245 0.665820
Si Si7 0.416158 0.069038 0.831336
Si Si8 0.580944 0.943463 0.487665
O O1 0.901677 0.750000 0.624502
O O2 0.816115 0.990979 0.591684
O O3 0.029807 0.984176 0.814499
O O4 0.877862 0.028138 0.518329
O O5 0.884667 0.750000 0.321903
O O6 0.877028 0.509105 0.209879
O O7 0.805373 0.474620 0.271934
O O8 0.000000 0.500000 0.500000
O O9 0.696715 0.750000 0.468686
O O10 0.615638 0.004933 0.297299
O O11 0.655259 0.998393 0.506588
O O12 0.858315 0.250000 0.098776
O O13 0.754226 0.997375 0.923773
O O14 0.638965 0.750000 0.745570
O O15 0.540558 0.497098 0.671986
O O16 0.622767 0.501273 0.630056
O O17 0.251402 0.750000 0.696143
O O18 0.307457 0.054528 0.743176
O O19 0.448097 0.250000 0.854829
O O20 0.500000 0.000000 0.000000
O O21 0.582242 0.750000 0.488954
#
# Coordination Sequence:
#
# PCOD9162184 Si02
#       8
#     4   4   4   4   4   4   4   4
#     4   9  18  34  55  78 107 142 182 226 272 328
#     4  12  23  36  54  79 110 145 186 229 272 323
#     4   8  16  33  58  81 101 138 185 228 276 331
#     4  11  22  36  56  81 113 149 186 228 279 339
#     4  10  21  36  56  83 113 144 180 233 290 337
#     4  11  21  34  53  76 106 146 186 225 273 329
#     4  10  20  35  53  76 109 145 185 234 282 332
#     4   9  18  37  62  82 106 142 188 234 284 344
#
# _framework density 18.634796000000001
#
# number of rings (size 3 to 8) (size 9 to 14) (size 15 to 20)
#    0.000    2.000    1.250    4.125    0.000    2.000 
#    0.000    7.500    0.000    0.000    0.000    0.000 
#    0.000    0.000    0.000    0.000    0.000    0.000 
#
# Total GULP energy -178386.999217 kJ/mol
# GULP energy per Si atom -5574.593726 kJ/mol
# Density = 1.859238 g / cm^3
# Si number density = 18.634796 Si / 1000 Ang^3
#
#
#
# Elastic Constant Matrix: (Units=GPa)
#
#
# Indices 1 2 3 4 5 6 
#
# 1 129.2376 7.6928 49.3951 0.0000 -1.6687 0.0000
# 2 7.6928 31.5671 9.5462 0.0000 -1.1207 0.0000
# 3 49.3951 9.5462 121.1703 0.0000 12.0714 0.0000
# 4 0.0000 0.0000 0.0000 27.6907 0.0000 1.7670
# 5 -1.6687 -1.1207 12.0714 0.0000 15.5792 0.0000
# 6 0.0000 0.0000 0.0000 1.7670 0.0000 19.3613
#
#
#
# Elastic Compliance Matrix: (Units=1/GPa)
#
#
# Indices 1 2 3 4 5 6 
#
# 1 0.009450 -0.000883 -0.004202 0.000000 0.004204 0.000000
# 2 -0.000883 0.032852 -0.002659 0.000000 0.004329 0.000000
# 3 -0.004202 -0.002659 0.011096 0.000000 -0.009239 0.000000
# 4 0.000000 0.000000 0.000000 0.036325 0.000000 -0.003315
# 5 0.004204 0.004329 -0.009239 0.000000 0.072108 0.000000
# 6 0.000000 0.000000 0.000000 -0.003315 0.000000 0.051952
#
#
# Mechanical properties :
#
#
# Convention : Reuss Voigt Hill
#
# Bulk Modulus (GPa) = 26.37887 46.13813 36.25850
# Shear Modulus (GPa) = 20.66901 26.88230 23.77565
#
# Velocity S-wave (km/s) = 3.33402 3.80226 3.57581
# Velocity P-wave (km/s) = 5.38585 6.63996 6.04551
#
# Compressibility (1/GPa) = 0.03790913
#
# Stress axis : x y z
#
# Youngs Moduli (GPa) = 105.81482 30.43976 90.12562
#
# Poissons Ratio (x) = 0.02688 0.37869
# Poissons Ratio (y) = 0.09345 0.23969
# Poissons Ratio (z) = 0.44461 0.08095
#
# Static dielectric constant tensor:
#      x y z
#    x 1.654630 0.000000 0.014480 
#    y 0.000000 1.644940 0.000000 
#    z 0.014480 0.000000 1.671060 
# 
# From -- ./inp_files/55686.got.cif
#   From: 2010.05.17/outbox.cif.g08.bks.cpg/sg11_28_cif.got.tgz:55686.got - 2010.06.03 12:22:45.
