data_PCOD9162521
_publ_section_title
;
Structure prediction by ZEFSAII (Michael W. Deem and Ramdas Pophale) SiO2 
 PCOD9162521
Probable space group: P 21/M
;
_chemical_formula_sum "Si O2"
_cell_formula_units_Z 32
_cell_length_a 14.233043
_cell_length_b 11.710141
_cell_length_c 14.030221
_cell_angle_alpha 90.000000
_cell_angle_beta 41.124103
_cell_angle_gamma 90.000000
_cell_volume 1537.967242
_symmetry_space_group_name_H-M "P 21/M"
_symmetry_group_IT_number 11
_symmetry_cell_setting 'monoclinic'
loop_
_space_group_symop_operation_xyz
x,y,z
-x,1/2+y,-z
-x,-y,-z
x,1/2-y,z
loop_
_atom_site_type_symbol
_atom_site_label
_atom_site_fract_x
_atom_site_fract_y
_atom_site_fract_z
Si Si1 0.858819 0.620387 0.384617
Si Si2 0.157841 0.945240 0.873475
Si Si3 0.732104 0.120628 0.408879
Si Si4 0.183875 0.875146 0.066207
Si Si5 0.633382 0.871036 0.841916
Si Si6 0.560749 0.548267 0.098603
Si Si7 0.068419 0.375150 0.452839
Si Si8 0.411394 0.122463 0.706898
O O1 0.811873 0.750000 0.385815
O O2 0.781383 0.501226 0.416701
O O3 0.862114 0.628352 0.495730
O O4 0.023089 0.605438 0.225159
O O5 0.186442 0.878411 0.754424
O O6 0.284148 0.038927 0.776616
O O7 0.178987 0.877879 0.955399
O O8 0.000000 0.000000 0.000000
O O9 0.756940 0.250000 0.433571
O O10 0.559797 0.109511 0.536679
O O11 0.228615 0.750000 0.066796
O O12 0.297690 0.969005 0.010657
O O13 0.595015 0.750000 0.826674
O O14 0.574349 0.968654 0.819214
O O15 0.803222 0.876908 0.720305
O O16 0.570041 0.877838 0.996022
O O17 0.553737 0.605018 0.207176
O O18 0.991381 0.250000 0.500927
O O19 0.000000 0.500000 0.500000
O O20 0.358176 0.250000 0.733105
#
# Coordination Sequence:
#
# PCOD9162521 Si02
#       8
#     4   4   4   4   4   4   4   4
#     4  10  21  38  59  86 120 160 200 246 304 365
#     4  11  22  40  61  88 119 157 203 250 304 362
#     4  11  23  41  62  92 124 158 205 252 301 364
#     4  10  20  36  57  83 115 150 196 247 297 359
#     4  10  20  35  57  83 114 151 196 246 296 357
#     4  10  20  36  57  84 115 152 197 242 304 358
#     4  10  21  37  57  83 117 154 199 249 302 361
#     4  10  23  40  61  87 123 161 200 250 305 360
#
# _framework density 20.806685000000002
#
# number of rings (size 3 to 8) (size 9 to 14) (size 15 to 20)
#    0.000    1.750    1.250    3.000    0.000    2.000 
#    0.000    6.875    0.000    0.000    0.000    0.000 
#    0.000    0.000    0.000    0.000    0.000    0.000 
#
# Total GULP energy -178262.445006 kJ/mol
# GULP energy per Si atom -5570.701406 kJ/mol
# Density = 2.075933 g / cm^3
# Si number density = 20.806685 Si / 1000 Ang^3
#
#
#
# Elastic Constant Matrix: (Units=GPa)
#
#
# Indices 1 2 3 4 5 6 
#
# 1 34.3508 27.9697 -2.7248 0.0000 -1.1497 0.0000
# 2 27.9697 164.5003 28.9753 0.0000 -19.7150 0.0000
# 3 -2.7248 28.9753 87.4564 0.0000 -6.6765 0.0000
# 4 0.0000 0.0000 0.0000 75.5838 0.0000 19.0500
# 5 -1.1497 -19.7150 -6.6765 0.0000 27.4071 0.0000
# 6 0.0000 0.0000 0.0000 19.0500 0.0000 10.2430
#
#
#
# Elastic Compliance Matrix: (Units=1/GPa)
#
#
# Indices 1 2 3 4 5 6 
#
# 1 0.034796 -0.006786 0.003129 0.000000 -0.002660 0.000000
# 2 -0.006786 0.008292 -0.002573 0.000000 0.005053 0.000000
# 3 0.003129 -0.002573 0.012485 0.000000 0.001322 0.000000
# 4 0.000000 0.000000 0.000000 0.024904 0.000000 -0.046316
# 5 -0.002660 0.005053 0.001322 0.000000 0.040332 0.000000
# 6 0.000000 0.000000 0.000000 -0.046316 0.000000 0.183767
#
#
# Mechanical properties :
#
#
# Convention : Reuss Voigt Hill
#
# Bulk Modulus (GPa) = 23.19445 43.86087 33.52766
# Shear Modulus (GPa) = 15.08719 38.11928 26.60324
#
# Velocity S-wave (km/s) = 2.69571 4.28491 3.57962
# Velocity P-wave (km/s) = 4.56738 6.75326 5.76487
#
# Compressibility (1/GPa) = 0.04311377
#
# Stress axis : x y z
#
# Youngs Moduli (GPa) = 28.73865 120.60307 80.09554
#
# Poissons Ratio (x) = 0.81845 -0.25066
# Poissons Ratio (y) = 0.19503 0.20607
# Poissons Ratio (z) = -0.08994 0.31029
#
# Static dielectric constant tensor:
#      x y z
#    x 1.730400 0.000000 0.007420 
#    y 0.000000 1.960450 0.000000 
#    z 0.007420 0.000000 1.731900 
# 
# From -- ./inp_files/52261.got.cif
#   From: 2010.05.17/outbox.cif.g08.bks.cpg/sg11_27_cif.got.tgz:52261.got - 2010.06.03 12:22:45.
