data_PCOD9162406
_publ_section_title
;
Structure prediction by ZEFSAII (Michael W. Deem and Ramdas Pophale) SiO2 
 PCOD9162406
Probable space group: P 21/M
;
_chemical_formula_sum "Si O2"
_cell_formula_units_Z 20
_cell_length_a 27.561774
_cell_length_b 8.852487
_cell_length_c 9.710785
_cell_angle_alpha 90.000000
_cell_angle_beta 28.474129
_cell_angle_gamma 90.000000
_cell_volume 1129.609515
_symmetry_space_group_name_H-M "P 21/M"
_symmetry_group_IT_number 11
_symmetry_cell_setting 'monoclinic'
loop_
_space_group_symop_operation_xyz
x,y,z
-x,1/2+y,-z
-x,-y,-z
x,1/2-y,z
loop_
_atom_site_type_symbol
_atom_site_label
_atom_site_fract_x
_atom_site_fract_y
_atom_site_fract_z
Si Si1 0.408634 0.930735 0.641192
Si Si2 0.998261 0.931935 0.156220
Si Si3 0.182183 0.933072 0.897206
Si Si4 0.190020 0.068450 0.180088
Si Si5 0.411558 0.570020 0.311057
O O1 0.404202 0.750000 0.668741
O O2 0.426155 0.964599 0.435964
O O3 0.500000 0.000000 0.500000
O O4 0.299367 0.001937 0.949761
O O5 0.999921 0.750000 0.141444
O O6 0.897479 0.974460 0.493466
O O7 0.096023 0.977402 0.003656
O O8 0.000000 0.000000 0.000000
O O9 0.181007 0.750000 0.915032
O O10 0.295829 0.978238 0.565639
O O11 0.164970 0.003519 0.090911
O O12 0.195352 0.250000 0.159156
O O13 0.415641 0.750000 0.284543
O O14 0.500000 0.500000 0.000000
#
# Coordination Sequence:
#
# PCOD9162406 Si02
#       5
#     4   4   4   4   4
#     4  10  21  37  56  80 109 142 179 220 264 316
#     4  10  22  37  54  79 110 140 178 225 271 319
#     4   9  19  37  56  76 104 141 181 220 264 319
#     4  10  20  35  56  82 107 137 179 223 266 321
#     4   9  19  34  53  77 105 136 174 216 261 313
#
# _framework density 17.705231999999999
#
# number of rings (size 3 to 8) (size 9 to 14) (size 15 to 20)
#    0.000    2.400    0.000    3.000    0.000    8.000 
#    0.000    4.000    0.000    0.000    0.000    0.000 
#    0.000    0.000    0.000    0.000    0.000    0.000 
#
# Total GULP energy -111617.224418 kJ/mol
# GULP energy per Si atom -5580.861221 kJ/mol
# Density = 1.766493 g / cm^3
# Si number density = 17.705232 Si / 1000 Ang^3
#
#
#
# Elastic Constant Matrix: (Units=GPa)
#
#
# Indices 1 2 3 4 5 6 
#
# 1 164.2595 52.6266 117.4398 0.0000 -28.3286 0.0000
# 2 52.6266 33.4603 58.0671 0.0000 -5.7792 0.0000
# 3 117.4398 58.0671 206.6212 0.0000 -7.8454 0.0000
# 4 0.0000 0.0000 0.0000 33.6841 0.0000 3.5853
# 5 -28.3286 -5.7792 -7.8454 0.0000 19.5101 0.0000
# 6 0.0000 0.0000 0.0000 3.5853 0.0000 33.4368
#
#
#
# Elastic Compliance Matrix: (Units=1/GPa)
#
#
# Indices 1 2 3 4 5 6 
#
# 1 0.018565 -0.017105 -0.004990 0.000000 0.019883 0.000000
# 2 -0.017105 0.076453 -0.012030 0.000000 -0.007028 0.000000
# 3 -0.004990 -0.012030 0.010811 0.000000 -0.006461 0.000000
# 4 0.000000 0.000000 0.000000 0.030030 0.000000 -0.003220
# 5 0.019883 -0.007028 -0.006461 0.000000 0.075445 0.000000
# 6 0.000000 0.000000 0.000000 -0.003220 0.000000 0.030252
#
#
# Mechanical properties :
#
#
# Convention : Reuss Voigt Hill
#
# Bulk Modulus (GPa) = 26.61109 95.62311 61.11710
# Shear Modulus (GPa) = 15.51188 29.07338 22.29263
#
# Velocity S-wave (km/s) = 2.96314 4.05665 3.55223
# Velocity P-wave (km/s) = 5.17394 8.72167 7.17068
#
# Compressibility (1/GPa) = 0.03757832
#
# Stress axis : x y z
#
# Youngs Moduli (GPa) = 53.86521 13.07998 92.49509
#
# Poissons Ratio (x) = 0.22374 0.46153
# Poissons Ratio (y) = 0.92139 1.11272
# Poissons Ratio (z) = 0.26878 0.15735
#
# Static dielectric constant tensor:
#      x y z
#    x 1.582590 0.000000 -0.014920 
#    y 0.000000 1.593920 0.000000 
#    z -0.014920 0.000000 1.592330 
# 
# From -- ./inp_files/15923.got.cif
#   From: 2010.05.17/outbox.cif.g08.bks.cpg/sg11_8_cif.got.tgz:15923.got - 2010.06.03 12:22:45.
