data_PCOD9162518
_publ_section_title
;
Structure prediction by ZEFSAII (Michael W. Deem and Ramdas Pophale) SiO2 
 PCOD9162518
Probable space group: P 21/M
;
_chemical_formula_sum "Si O2"
_cell_formula_units_Z 28
_cell_length_a 27.997051
_cell_length_b 9.315229
_cell_length_c 7.764731
_cell_angle_alpha 90.000000
_cell_angle_beta 133.896079
_cell_angle_gamma 90.000000
_cell_volume 1459.236319
_symmetry_space_group_name_H-M "P 21/M"
_symmetry_group_IT_number 11
_symmetry_cell_setting 'monoclinic'
loop_
_space_group_symop_operation_xyz
x,y,z
-x,1/2+y,-z
-x,-y,-z
x,1/2-y,z
loop_
_atom_site_type_symbol
_atom_site_label
_atom_site_fract_x
_atom_site_fract_y
_atom_site_fract_z
Si Si1 0.066237 0.913384 0.622872
Si Si2 0.670463 0.080716 0.622790
Si Si3 0.803685 0.583957 0.468370
Si Si4 0.803685 0.916043 0.050058
Si Si5 0.670463 0.080716 0.229525
Si Si6 0.429930 0.577788 0.324824
Si Si7 0.066237 0.586616 0.208313
O O1 0.063481 0.750000 0.681366
O O2 0.070876 0.907139 0.427191
O O3 0.131576 0.996986 0.847768
O O4 0.000000 0.000000 0.500000
O O5 0.685717 0.250000 0.689147
O O6 0.647924 0.063100 0.369811
O O7 0.614234 0.039768 0.618864
O O8 0.736885 0.990700 0.818963
O O9 0.807424 0.750000 0.530683
O O10 0.802440 0.580065 0.256101
O O11 0.736885 0.509300 0.365464
O O12 0.868424 0.496986 0.689890
O O13 0.807424 0.750000 0.006440
O O14 0.685717 0.250000 0.239437
O O15 0.614234 0.039767 0.952305
O O16 0.500000 0.500000 0.500000
O O17 0.439596 0.750000 0.348989
O O18 0.063481 0.750000 0.136037
O O19 0.000000 0.500000 0.000000
#
# Coordination Sequence:
#
# PCOD9162518 Si02
#       7
#     4   4   4   4   4   4   4
#     4  10  21  36  55  79 110 150 194 241 293 347
#     4  10  21  38  61  88 117 154 198 240 288 347
#     4  10  20  35  57  83 112 149 193 242 296 351
#     4  10  20  35  57  83 112 149 193 242 296 351
#     4  10  21  38  61  88 117 154 198 240 288 347
#     4  10  22  40  62  88 122 158 194 240 292 350
#     4  10  21  36  55  79 110 150 194 241 293 347
#
# _framework density 19.188119
#
# number of rings (size 3 to 8) (size 9 to 14) (size 15 to 20)
#    0.000    2.000    1.429    1.714    0.000    6.286 
#    0.000    0.000    0.000    0.000    0.000    0.000 
#    0.000    0.000    0.000    0.000    0.000    0.000 
#
# Total GULP energy -156457.812062 kJ/mol
# GULP energy per Si atom -5587.779002 kJ/mol
# Density = 1.914445 g / cm^3
# Si number density = 19.188119 Si / 1000 Ang^3
#
#
#
# Elastic Constant Matrix: (Units=GPa)
#
#
# Indices 1 2 3 4 5 6 
#
# 1 108.4846 77.8080 80.2603 0.0000 27.7391 0.0000
# 2 77.8080 137.1920 85.6487 0.0000 25.5979 0.0000
# 3 80.2603 85.6487 127.2123 0.0000 33.4015 0.0000
# 4 0.0000 0.0000 0.0000 33.9641 0.0000 12.1714
# 5 27.7391 25.5979 33.4015 0.0000 36.8460 0.0000
# 6 0.0000 0.0000 0.0000 12.1714 0.0000 30.2359
#
#
#
# Elastic Compliance Matrix: (Units=1/GPa)
#
#
# Indices 1 2 3 4 5 6 
#
# 1 0.020176 -0.005869 -0.007691 0.000000 -0.004140 0.000000
# 2 -0.005869 0.014336 -0.005898 0.000000 -0.000194 0.000000
# 3 -0.007691 -0.005898 0.018489 0.000000 -0.006873 0.000000
# 4 0.000000 0.000000 0.000000 0.034406 0.000000 -0.013850
# 5 -0.004140 -0.000194 -0.006873 0.000000 0.036622 0.000000
# 6 0.000000 0.000000 0.000000 -0.013850 0.000000 0.038649
#
#
# Mechanical properties :
#
#
# Convention : Reuss Voigt Hill
#
# Bulk Modulus (GPa) = 70.99888 95.59144 83.29516
# Shear Modulus (GPa) = 24.23791 28.82067 26.52929
#
# Velocity S-wave (km/s) = 3.55797 3.87978 3.72235
# Velocity P-wave (km/s) = 7.34579 8.36639 7.87265
#
# Compressibility (1/GPa) = 0.01408473
#
# Stress axis : x y z
#
# Youngs Moduli (GPa) = 49.56481 69.75389 54.08624
#
# Poissons Ratio (x) = 0.40936 0.41597
# Poissons Ratio (y) = 0.29088 0.31902
# Poissons Ratio (z) = 0.38120 0.41144
#
# Static dielectric constant tensor:
#      x y z
#    x 1.659210 0.000000 -0.047220 
#    y 0.000000 1.656070 0.000000 
#    z -0.047220 0.000000 1.644750 
# 
# From -- ./inp_files/29112.got.cif
#   From: 2010.05.17/outbox.cif.g08.bks.cpg/sg11_15_cif.got.tgz:29112.got - 2010.06.03 12:22:45.
