data_PCOD9162384
_publ_section_title
;
Structure prediction by ZEFSAII (Michael W. Deem and Ramdas Pophale) SiO2 
 PCOD9162384
Probable space group: P 21/M
;
_chemical_formula_sum "Si O2"
_cell_formula_units_Z 20
_cell_length_a 22.389005
_cell_length_b 8.831563
_cell_length_c 7.362061
_cell_angle_alpha 90.000000
_cell_angle_beta 130.602933
_cell_angle_gamma 90.000000
_cell_volume 1105.222477
_symmetry_space_group_name_H-M "P 21/M"
_symmetry_group_IT_number 11
_symmetry_cell_setting 'monoclinic'
loop_
_space_group_symop_operation_xyz
x,y,z
-x,1/2+y,-z
-x,-y,-z
x,1/2-y,z
loop_
_atom_site_type_symbol
_atom_site_label
_atom_site_fract_x
_atom_site_fract_y
_atom_site_fract_z
Si Si1 0.292908 0.070124 0.581952
Si Si2 0.585155 0.931040 0.859272
Si Si3 0.994742 0.931454 0.288225
Si Si4 0.406923 0.929187 0.519137
Si Si5 0.121032 0.930896 0.231359
O O1 0.280204 0.250000 0.552867
O O2 0.343139 0.018474 0.508182
O O3 0.209641 0.987613 0.424606
O O4 0.348122 0.033471 0.863238
O O5 0.586726 0.750000 0.824046
O O6 0.496941 0.965384 0.754908
O O7 0.597840 0.022482 0.699973
O O8 0.989718 0.750000 0.290987
O O9 0.070126 0.970652 0.310543
O O10 0.000000 0.000000 0.500000
O O11 0.921378 0.994358 0.026603
O O12 0.394577 0.750000 0.515797
O O13 0.118388 0.750000 0.205534
#
# Coordination Sequence:
#
# PCOD9162384 Si02
#       5
#     4   4   4   4   4
#     4  11  22  36  56  81 112 147 183 228 279 329
#     4   9  20  37  55  78 109 148 191 231 275 328
#     4  10  21  39  63  86 112 147 182 222 273 328
#     4  10  20  35  56  80 109 146 188 234 279 326
#     4  10  22  39  58  84 114 143 183 228 271 327
#
# _framework density 18.095905999999999
#
# number of rings (size 3 to 8) (size 9 to 14) (size 15 to 20)
#    0.000    2.000    0.000    3.000    0.000    6.400 
#    0.000    4.000    0.000    0.000    0.000    0.000 
#    0.000    0.000    0.000    0.000    0.000    0.000 
#
# Total GULP energy -111700.299302 kJ/mol
# GULP energy per Si atom -5585.014965 kJ/mol
# Density = 1.805472 g / cm^3
# Si number density = 18.095906 Si / 1000 Ang^3
#
#
#
# Elastic Constant Matrix: (Units=GPa)
#
#
# Indices 1 2 3 4 5 6 
#
# 1 100.3526 37.4772 61.5013 0.0000 10.0790 0.0000
# 2 37.4772 47.4748 62.0136 0.0000 5.1889 0.0000
# 3 61.5013 62.0136 162.9316 0.0000 14.6709 0.0000
# 4 0.0000 0.0000 0.0000 33.1327 0.0000 0.8119
# 5 10.0790 5.1889 14.6709 0.0000 32.6295 0.0000
# 6 0.0000 0.0000 0.0000 0.8119 0.0000 73.9432
#
#
#
# Elastic Compliance Matrix: (Units=1/GPa)
#
#
# Indices 1 2 3 4 5 6 
#
# 1 0.014680 -0.008689 -0.002033 0.000000 -0.002239 0.000000
# 2 -0.008689 0.047042 -0.014792 0.000000 0.001854 0.000000
# 3 -0.002033 -0.014792 0.012784 0.000000 -0.002768 0.000000
# 4 0.000000 0.000000 0.000000 0.030190 0.000000 -0.000331
# 5 -0.002239 0.001854 -0.002768 0.000000 0.032288 0.000000
# 6 0.000000 0.000000 0.000000 -0.000331 0.000000 0.013528
#
#
# Mechanical properties :
#
#
# Convention : Reuss Voigt Hill
#
# Bulk Modulus (GPa) = 42.59044 70.30480 56.44762
# Shear Modulus (GPa) = 23.88160 37.92554 30.90357
#
# Velocity S-wave (km/s) = 3.63674 4.58297 4.13700
# Velocity P-wave (km/s) = 6.42040 8.18171 7.35398
#
# Compressibility (1/GPa) = 0.02347945
#
# Stress axis : x y z
#
# Youngs Moduli (GPa) = 68.11797 21.25744 78.22308
#
# Poissons Ratio (x) = 0.18471 0.15899
# Poissons Ratio (y) = 0.59189 1.15707
# Poissons Ratio (z) = 0.13845 0.31444
#
# Static dielectric constant tensor:
#      x y z
#    x 1.598940 0.000000 0.003800 
#    y 0.000000 1.607300 0.000000 
#    z 0.003800 0.000000 1.592920 
# 
# From -- ./inp_files/8527.got.cif
#   From: 2010.05.17/outbox.cif.g08.bks.cpg/sg11_5_cif.got.tgz:8527.got - 2010.06.03 12:22:45.
