data_PCOD9162299
_publ_section_title
;
Structure prediction by ZEFSAII (Michael W. Deem and Ramdas Pophale) SiO2 
 PCOD9162299
Probable space group: P 21/M
;
_chemical_formula_sum "Si O2"
_cell_formula_units_Z 28
_cell_length_a 13.828998
_cell_length_b 9.222139
_cell_length_c 12.882711
_cell_angle_alpha 90.000000
_cell_angle_beta 129.950412
_cell_angle_gamma 90.000000
_cell_volume 1259.501602
_symmetry_space_group_name_H-M "P 21/M"
_symmetry_group_IT_number 11
_symmetry_cell_setting 'monoclinic'
loop_
_space_group_symop_operation_xyz
x,y,z
-x,1/2+y,-z
-x,-y,-z
x,1/2-y,z
loop_
_atom_site_type_symbol
_atom_site_label
_atom_site_fract_x
_atom_site_fract_y
_atom_site_fract_z
Si Si1 0.497931 0.579971 0.178739
Si Si2 0.272537 0.076807 0.935995
Si Si3 0.462734 0.920773 0.581782
Si Si4 0.836258 0.083373 0.564627
Si Si5 0.883591 0.909826 0.790924
Si Si6 0.204389 0.081047 0.666004
Si Si7 0.832052 0.412151 0.940385
O O1 0.467970 0.750000 0.160932
O O2 0.409166 0.497998 0.036028
O O3 0.479832 0.503994 0.278656
O O4 0.644850 0.571068 0.250810
O O5 0.285352 0.250000 0.945329
O O6 0.209958 0.016858 0.996822
O O7 0.193328 0.037888 0.778588
O O8 0.498368 0.750000 0.603943
O O9 0.311651 0.925398 0.502193
O O10 0.500000 0.000000 0.500000
O O11 0.876517 0.250000 0.599401
O O12 0.903578 0.982158 0.694075
O O13 0.854068 0.021455 0.461526
O O14 0.826202 0.750000 0.741153
O O15 0.805298 0.015495 0.811337
O O16 0.018203 0.896004 0.939171
O O17 0.167180 0.250000 0.626659
O O18 0.778999 0.250000 0.909848
#
# Coordination Sequence:
#
# PCOD9162299 Si02
#       7
#     4   4   4   4   4   4   4
#     4  10  20  35  55  79 111 150 188 230 276 326
#     4  11  22  36  57  84 114 148 188 233 280 330
#     4  10  21  35  51  77 112 147 185 228 272 328
#     4  10  21  36  58  83 110 146 186 228 279 333
#     4  10  21  39  62  84 111 146 183 228 283 337
#     4   9  20  38  57  81 113 150 191 230 273 330
#     4  10  22  39  59  85 113 143 185 232 278 334
#
# _framework density 22.231017999999999
#
# number of rings (size 3 to 8) (size 9 to 14) (size 15 to 20)
#    0.000    2.000    0.000    3.000    2.000    5.143 
#    0.000    0.714    0.000    0.000    0.000    0.000 
#    0.000    0.000    0.000    0.000    0.000    0.000 
#
# Total GULP energy -156492.754047 kJ/mol
# GULP energy per Si atom -5589.026930 kJ/mol
# Density = 2.218042 g / cm^3
# Si number density = 22.231018 Si / 1000 Ang^3
#
#
#
# Elastic Constant Matrix: (Units=GPa)
#
#
# Indices 1 2 3 4 5 6 
#
# 1 39.6003 0.1899 -1.4482 0.0000 -14.8014 0.0000
# 2 0.1899 140.6612 70.4029 0.0000 -20.2802 0.0000
# 3 -1.4482 70.4029 109.9338 0.0000 -40.0078 0.0000
# 4 0.0000 0.0000 0.0000 34.4964 0.0000 -4.8513
# 5 -14.8014 -20.2802 -40.0078 0.0000 32.0005 0.0000
# 6 0.0000 0.0000 0.0000 -4.8513 0.0000 21.5582
#
#
#
# Elastic Compliance Matrix: (Units=1/GPa)
#
#
# Indices 1 2 3 4 5 6 
#
# 1 0.038835 -0.002403 0.014740 0.000000 0.034868 0.000000
# 2 -0.002403 0.010794 -0.008916 0.000000 -0.005417 0.000000
# 3 0.014740 -0.008916 0.028302 0.000000 0.036552 0.000000
# 4 0.000000 0.000000 0.000000 0.029936 0.000000 0.006737
# 5 0.034868 -0.005417 0.036552 0.000000 0.089642 0.000000
# 6 0.000000 0.000000 0.000000 0.006737 0.000000 0.047902
#
#
# Mechanical properties :
#
#
# Convention : Reuss Voigt Hill
#
# Bulk Modulus (GPa) = 11.79601 47.60939 29.70270
# Shear Modulus (GPa) = 18.73875 32.34774 25.54324
#
# Velocity S-wave (km/s) = 2.90644 3.81868 3.39335
# Velocity P-wave (km/s) = 4.07196 6.39573 5.36126
#
# Compressibility (1/GPa) = 0.08477441
#
# Stress axis : x y z
#
# Youngs Moduli (GPa) = 25.74964 92.64505 35.33274
#
# Poissons Ratio (x) = 0.22259 -0.52079
# Poissons Ratio (y) = 0.06187 0.31502
# Poissons Ratio (z) = -0.37954 0.82599
#
# Static dielectric constant tensor:
#      x y z
#    x 1.891410 0.000000 0.049950 
#    y 0.000000 1.824680 0.000000 
#    z 0.049950 0.000000 1.810800 
# 
# From -- ./inp_files/38431.got.cif
#   From: 2010.05.17/outbox.cif.g08.bks.cpg/sg11_20_cif.got.tgz:38431.got - 2010.06.03 12:22:45.
