data_PCOD9162434
_publ_section_title
;
Structure prediction by ZEFSAII (Michael W. Deem and Ramdas Pophale) SiO2 
 PCOD9162434
Probable space group: P 21/M
;
_chemical_formula_sum "Si O2"
_cell_formula_units_Z 32
_cell_length_a 11.941002
_cell_length_b 14.095796
_cell_length_c 13.385060
_cell_angle_alpha 90.000000
_cell_angle_beta 134.685343
_cell_angle_gamma 90.000000
_cell_volume 1601.797862
_symmetry_space_group_name_H-M "P 21/M"
_symmetry_group_IT_number 11
_symmetry_cell_setting 'monoclinic'
loop_
_space_group_symop_operation_xyz
x,y,z
-x,1/2+y,-z
-x,-y,-z
x,1/2-y,z
loop_
_atom_site_type_symbol
_atom_site_label
_atom_site_fract_x
_atom_site_fract_y
_atom_site_fract_z
Si Si1 0.617403 0.638098 0.140030
Si Si2 0.762762 0.857851 0.806157
Si Si3 0.197199 0.359628 0.947605
Si Si4 0.813279 0.482466 0.368743
Si Si5 0.737782 0.137125 0.124220
Si Si6 0.697285 0.005798 0.507903
Si Si7 0.013045 0.038102 0.189125
Si Si8 0.483227 0.860284 0.468580
O O1 0.623451 0.750000 0.166223
O O2 0.725381 0.579395 0.282653
O O3 0.690271 0.623171 0.075459
O O4 0.435840 0.607524 0.021487
O O5 0.824437 0.750000 0.837065
O O6 0.718437 0.874535 0.892996
O O7 0.615744 0.863424 0.639342
O O8 0.896328 0.929045 0.852614
O O9 0.145927 0.250000 0.910377
O O10 0.053479 0.432194 0.854119
O O11 0.780161 0.412020 0.256031
O O12 0.731703 0.451719 0.421265
O O13 0.000000 0.500000 0.500000
O O14 0.737549 0.250000 0.136188
O O15 0.866896 0.104251 0.125347
O O16 0.556601 0.928168 0.428802
O O17 0.857079 0.953800 0.642137
O O18 0.660745 0.085344 0.568956
O O19 0.456771 0.750000 0.425042
#
# Coordination Sequence:
#
# PCOD9162434 Si02
#       8
#     4   4   4   4   4   4   4   4
#     4  10  23  41  61  88 125 163 203 253 305 360
#     4   9  19  34  57  86 111 149 201 248 303 360
#     4  10  20  35  56  83 112 150 197 246 302 360
#     4  12  23  41  62  94 128 164 206 251 306 366
#     4  11  24  40  61  88 122 166 208 251 306 368
#     4  10  22  37  59  89 118 152 207 245 301 370
#     4  11  20  38  58  83 122 157 197 252 308 358
#     4   9  20  39  60  83 116 154 194 254 307 355
#
# _framework density 19.977551999999999
#
# number of rings (size 3 to 8) (size 9 to 14) (size 15 to 20)
#    0.000    1.750    2.500    1.125    1.750    2.500 
#    0.000    1.250    0.000    0.000    0.000    0.000 
#    0.000    0.000    0.000    0.000    0.000    0.000 
#
# Total GULP energy -178635.401779 kJ/mol
# GULP energy per Si atom -5582.356306 kJ/mol
# Density = 1.993208 g / cm^3
# Si number density = 19.977552 Si / 1000 Ang^3
#
#
#
# Elastic Constant Matrix: (Units=GPa)
#
#
# Indices 1 2 3 4 5 6 
#
# 1 56.9875 3.0901 16.4458 0.0000 15.8305 0.0000
# 2 3.0901 72.1521 11.5690 0.0000 19.6305 0.0000
# 3 16.4458 11.5690 68.6072 0.0000 21.1367 0.0000
# 4 0.0000 0.0000 0.0000 26.3055 0.0000 1.3735
# 5 15.8305 19.6305 21.1367 0.0000 28.7230 0.0000
# 6 0.0000 0.0000 0.0000 1.3735 0.0000 26.6925
#
#
#
# Elastic Compliance Matrix: (Units=1/GPa)
#
#
# Indices 1 2 3 4 5 6 
#
# 1 0.021333 0.002720 -0.001781 0.000000 -0.012306 0.000000
# 2 0.002720 0.017418 0.000699 0.000000 -0.013917 0.000000
# 3 -0.001781 0.000699 0.019048 0.000000 -0.013513 0.000000
# 4 0.000000 0.000000 0.000000 0.038117 0.000000 -0.001961
# 5 -0.012306 -0.013917 -0.013513 0.000000 0.061053 0.000000
# 6 0.000000 0.000000 0.000000 -0.001961 0.000000 0.037565
#
#
# Mechanical properties :
#
#
# Convention : Reuss Voigt Hill
#
# Bulk Modulus (GPa) = 16.37393 28.88406 22.62900
# Shear Modulus (GPa) = 23.62775 27.45365 25.54070
#
# Velocity S-wave (km/s) = 3.44279 3.71108 3.57945
# Velocity P-wave (km/s) = 4.90079 5.73170 5.33245
#
# Compressibility (1/GPa) = 0.06107269
#
# Stress axis : x y z
#
# Youngs Moduli (GPa) = 46.87667 57.41338 52.49913
#
# Poissons Ratio (x) = -0.15616 0.09351
# Poissons Ratio (y) = -0.12750 -0.03667
# Poissons Ratio (z) = 0.08349 -0.04011
#
# Static dielectric constant tensor:
#      x y z
#    x 1.700990 0.000000 -0.002560 
#    y 0.000000 1.715600 0.000000 
#    z -0.002560 0.000000 1.715790 
# 
# From -- ./inp_files/50414.got.cif
#   From: 2010.05.17/outbox.cif.g08.bks.cpg/sg11_26_cif.got.tgz:50414.got - 2010.06.03 12:22:45.
