data_PCOD9162166
_publ_section_title
;
Structure prediction by ZEFSAII (Michael W. Deem and Ramdas Pophale) SiO2 
 PCOD9162166
Probable space group: P 21/M
;
_chemical_formula_sum "Si O2"
_cell_formula_units_Z 32
_cell_length_a 10.321422
_cell_length_b 13.889931
_cell_length_c 9.780700
_cell_angle_alpha 90.000000
_cell_angle_beta 89.437354
_cell_angle_gamma 90.000000
_cell_volume 1402.131096
_symmetry_space_group_name_H-M "P 21/M"
_symmetry_group_IT_number 11
_symmetry_cell_setting 'monoclinic'
loop_
_space_group_symop_operation_xyz
x,y,z
-x,1/2+y,-z
-x,-y,-z
x,1/2-y,z
loop_
_atom_site_type_symbol
_atom_site_label
_atom_site_fract_x
_atom_site_fract_y
_atom_site_fract_z
Si Si1 0.798877 0.022790 0.144566
Si Si2 0.460321 0.365149 0.523286
Si Si3 0.459344 0.636085 0.784573
Si Si4 0.401976 0.864355 0.206307
Si Si5 0.649227 0.637475 0.004988
Si Si6 0.944389 0.361546 0.608432
Si Si7 0.873050 0.136944 0.908834
Si Si8 0.187705 0.027830 0.543344
O O1 0.663470 0.082128 0.153522
O O2 0.832265 0.010177 0.302057
O O3 0.898190 0.080191 0.047787
O O4 0.762695 0.923793 0.069735
O O5 0.435781 0.250000 0.541591
O O6 0.529183 0.377316 0.377181
O O7 0.548845 0.400074 0.647809
O O8 0.325536 0.421556 0.528476
O O9 0.444307 0.750000 0.813499
O O10 0.592560 0.606256 0.858490
O O11 0.378848 0.750000 0.224825
O O12 0.268213 0.899178 0.143286
O O13 0.523481 0.874655 0.103915
O O14 0.683693 0.750000 0.000229
O O15 0.908357 0.250000 0.584268
O O16 0.959683 0.372738 0.772427
O O17 0.839834 0.438386 0.555881
O O18 0.075362 0.391808 0.529594
O O19 0.865771 0.250000 0.941729
#
# Coordination Sequence:
#
# PCOD9162166 Si02
#       8
#     4   4   4   4   4   4   4   4
#     4  12  23  35  62  92 125 159 200 257 299 359
#     4  10  21  37  61  92 131 166 201 249 296 361
#     4  10  22  36  54  90 133 168 200 241 303 365
#     4   9  17  33  56  87 124 162 199 234 290 362
#     4  10  20  35  52  83 128 171 203 234 294 364
#     4  10  25  48  68  85 116 160 207 260 311 362
#     4  10  22  40  64  90 123 164 200 243 302 366
#     4  11  25  42  65  94 117 156 212 257 307 359
#
# _framework density 22.822402
#
# number of rings (size 3 to 8) (size 9 to 14) (size 15 to 20)
#    0.000    1.750    2.500    1.125    3.500    2.500 
#    0.000    0.000    0.000    0.000    0.000    0.000 
#    0.000    0.000    0.000    0.000    0.000    0.000 
#
# Total GULP energy -179044.753907 kJ/mol
# GULP energy per Si atom -5595.148560 kJ/mol
# Density = 2.277046 g / cm^3
# Si number density = 22.822402 Si / 1000 Ang^3
#
#
#
# Elastic Constant Matrix: (Units=GPa)
#
#
# Indices 1 2 3 4 5 6 
#
# 1 45.5916 12.8591 -5.6246 0.0000 -13.5583 0.0000
# 2 12.8591 95.3893 22.4219 0.0000 -16.9522 0.0000
# 3 -5.6246 22.4219 111.7985 0.0000 2.5258 0.0000
# 4 0.0000 0.0000 0.0000 30.5726 0.0000 0.9936
# 5 -13.5583 -16.9522 2.5258 0.0000 19.4736 0.0000
# 6 0.0000 0.0000 0.0000 0.9936 0.0000 16.1161
#
#
#
# Elastic Compliance Matrix: (Units=1/GPa)
#
#
# Indices 1 2 3 4 5 6 
#
# 1 0.027802 -0.000706 0.001120 0.000000 0.018596 0.000000
# 2 -0.000706 0.013317 -0.002966 0.000000 0.011486 0.000000
# 3 0.001120 -0.002966 0.009665 0.000000 -0.003055 0.000000
# 4 0.000000 0.000000 0.000000 0.032775 0.000000 -0.002021
# 5 0.018596 0.011486 -0.003055 0.000000 0.074694 0.000000
# 6 0.000000 0.000000 0.000000 -0.002021 0.000000 0.062174
#
#
# Mechanical properties :
#
#
# Convention : Reuss Voigt Hill
#
# Bulk Modulus (GPa) = 21.89158 34.67688 28.28423
# Shear Modulus (GPa) = 20.76791 28.10735 24.43763
#
# Velocity S-wave (km/s) = 3.01986 3.51318 3.27582
# Velocity P-wave (km/s) = 4.66609 5.62883 5.16992
#
# Compressibility (1/GPa) = 0.04567966
#
# Stress axis : x y z
#
# Youngs Moduli (GPa) = 35.96915 75.09279 103.46759
#
# Poissons Ratio (x) = 0.05303 -0.11591
# Poissons Ratio (y) = 0.02540 0.30686
# Poissons Ratio (z) = -0.04029 0.22271
#
# Static dielectric constant tensor:
#      x y z
#    x 1.842770 0.000000 0.012470 
#    y 0.000000 1.863550 0.000000 
#    z 0.012470 0.000000 1.845140 
# 
# From -- ./inp_files/18030.got.cif
#   From: 2010.05.17/outbox.cif.g08.bks.cpg/sg11_10_cif.got.tgz:18030.got - 2010.06.03 12:22:45.
