data_PCOD9162883
_publ_section_title
;
Structure prediction by ZEFSAII (Michael W. Deem and Ramdas Pophale) SiO2 
 PCOD9162883
Probable space group: P 21/M
;
_chemical_formula_sum "Si O2"
_cell_formula_units_Z 24
_cell_length_a 15.292891
_cell_length_b 17.051109
_cell_length_c 9.029808
_cell_angle_alpha 90.000000
_cell_angle_beta 147.579580
_cell_angle_gamma 90.000000
_cell_volume 1262.376691
_symmetry_space_group_name_H-M "P 21/M"
_symmetry_group_IT_number 11
_symmetry_cell_setting 'monoclinic'
loop_
_space_group_symop_operation_xyz
x,y,z
-x,1/2+y,-z
-x,-y,-z
x,1/2-y,z
loop_
_atom_site_type_symbol
_atom_site_label
_atom_site_fract_x
_atom_site_fract_y
_atom_site_fract_z
Si Si1 0.959923 0.424674 0.848086
Si Si2 0.891029 0.078629 0.310805
Si Si3 0.639218 0.434599 0.196811
Si Si4 0.504577 0.843162 0.749619
Si Si5 0.851727 0.658146 0.131687
Si Si6 0.200069 0.657486 0.122522
O O1 0.803637 0.449017 0.526358
O O2 0.913124 0.356038 0.895739
O O3 0.100065 0.393533 0.940712
O O4 0.000000 0.500000 0.000000
O O5 0.716378 0.076445 0.144868
O O6 0.999491 0.146271 0.542134
O O7 0.860502 0.102740 0.097824
O O8 0.000000 0.000000 0.500000
O O9 0.556154 0.365664 0.173626
O O10 0.500000 0.500000 0.000000
O O11 0.506795 0.750000 0.745257
O O12 0.376141 0.868710 0.439559
O O13 0.685685 0.871300 0.970268
O O14 0.836068 0.750000 0.071087
O O15 0.204121 0.750000 0.087374
#
# Coordination Sequence:
#
# PCOD9162883 Si02
#       6
#     4   4   4   4   4   4
#     4  10  21  36  56  80 109 143 180 223 270 324
#     4  11  22  36  56  83 112 144 185 228 273 327
#     4  10  21  36  55  78 108 144 180 222 271 325
#     4   9  20  37  57  80 109 143 183 226 275 328
#     4  10  20  37  58  80 108 144 181 224 274 329
#     4  10  20  36  56  81 109 142 181 225 273 325
#
# _framework density 19.011758
#
# number of rings (size 3 to 8) (size 9 to 14) (size 15 to 20)
#    0.000    2.000    0.000    4.000    0.000    6.000 
#    0.000    4.167    0.000    5.000    0.000    0.000 
#    0.000    0.000    0.000    0.000    0.000    0.000 
#
# Total GULP energy -133737.941506 kJ/mol
# GULP energy per Si atom -5572.414229 kJ/mol
# Density = 1.896849 g / cm^3
# Si number density = 19.011758 Si / 1000 Ang^3
#
#
#
# Elastic Constant Matrix: (Units=GPa)
#
#
# Indices 1 2 3 4 5 6 
#
# 1 120.7061 14.8598 36.7567 0.0000 12.9067 0.0000
# 2 14.8598 54.5160 16.0321 0.0000 -0.0145 0.0000
# 3 36.7567 16.0321 26.1390 0.0000 7.6443 0.0000
# 4 0.0000 0.0000 0.0000 31.6879 0.0000 -3.9546
# 5 12.9067 -0.0145 7.6443 0.0000 38.7110 0.0000
# 6 0.0000 0.0000 0.0000 -3.9546 0.0000 33.2388
#
#
#
# Elastic Compliance Matrix: (Units=1/GPa)
#
#
# Indices 1 2 3 4 5 6 
#
# 1 0.014783 0.002484 -0.022149 0.000000 -0.000554 0.000000
# 2 0.002484 0.023105 -0.018493 0.000000 0.002832 0.000000
# 3 -0.022149 -0.018493 0.083404 0.000000 -0.009092 0.000000
# 4 0.000000 0.000000 0.000000 0.032033 0.000000 0.003811
# 5 -0.000554 0.002832 -0.009092 0.000000 0.027814 0.000000
# 6 0.000000 0.000000 0.000000 0.003811 0.000000 0.030539
#
#
# Mechanical properties :
#
#
# Convention : Reuss Voigt Hill
#
# Bulk Modulus (GPa) = 22.23367 37.40648 29.82007
# Shear Modulus (GPa) = 16.50246 29.64172 23.07209
#
# Velocity S-wave (km/s) = 2.94940 3.95286 3.48741
# Velocity P-wave (km/s) = 4.82895 6.36802 5.65112
#
# Compressibility (1/GPa) = 0.04497683
#
# Stress axis : x y z
#
# Youngs Moduli (GPa) = 67.64663 43.28027 11.98983
#
# Poissons Ratio (x) = -0.10751 0.26556
# Poissons Ratio (y) = -0.16803 0.22172
# Poissons Ratio (z) = 1.49830 0.80037
#
# Static dielectric constant tensor:
#      x y z
#    x 1.695660 0.000000 0.010020 
#    y 0.000000 1.682740 0.000000 
#    z 0.010020 0.000000 1.662030 
# 
# From -- ./inp_files/22827.got.cif
#   From: 2010.05.17/outbox.cif.g08.bks.cpg/sg11_12_cif.got.tgz:22827.got - 2010.06.03 12:22:45.
