data_PCOD9162659
_publ_section_title
;
Structure prediction by ZEFSAII (Michael W. Deem and Ramdas Pophale) SiO2 
 PCOD9162659
Probable space group: P 21/M
;
_chemical_formula_sum "Si O2"
_cell_formula_units_Z 28
_cell_length_a 14.426406
_cell_length_b 8.774438
_cell_length_c 17.391808
_cell_angle_alpha 90.000000
_cell_angle_beta 137.459927
_cell_angle_gamma 90.000000
_cell_volume 1488.458699
_symmetry_space_group_name_H-M "P 21/M"
_symmetry_group_IT_number 11
_symmetry_cell_setting 'monoclinic'
loop_
_space_group_symop_operation_xyz
x,y,z
-x,1/2+y,-z
-x,-y,-z
x,1/2-y,z
loop_
_atom_site_type_symbol
_atom_site_label
_atom_site_fract_x
_atom_site_fract_y
_atom_site_fract_z
Si Si1 0.601591 0.568303 0.317489
Si Si2 0.262223 0.932015 0.452991
Si Si3 0.317419 0.069754 0.154608
Si Si4 0.937207 0.429334 0.091035
Si Si5 0.960606 0.429690 0.283396
Si Si6 0.762934 0.068574 0.738122
Si Si7 0.865396 0.567295 0.376354
O O1 0.584757 0.750000 0.305635
O O2 0.641312 0.514794 0.427429
O O3 0.460425 0.489031 0.207887
O O4 0.729666 0.526631 0.341308
O O5 0.272066 0.750000 0.468216
O O6 0.287218 0.969890 0.378684
O O7 0.107331 0.986426 0.376171
O O8 0.305515 0.250000 0.140610
O O9 0.313426 0.019551 0.241256
O O10 0.188308 0.990670 0.035018
O O11 0.960590 0.250000 0.089867
O O12 0.907840 0.446879 0.164120
O O13 0.077241 0.519916 0.160093
O O14 0.982142 0.250000 0.311533
O O15 0.865616 0.500537 0.290690
O O16 0.750627 0.250000 0.741703
O O17 0.876466 0.750000 0.381261
O O18 0.000000 0.500000 0.500000
#
# Coordination Sequence:
#
# PCOD9162659 Si02
#       7
#     4   4   4   4   4   4   4
#     4  11  24  40  58  83 118 156 192 236 290 346
#     4  10  20  35  58  87 117 151 191 237 286 340
#     4  12  25  40  59  83 114 155 197 240 290 344
#     4  10  21  39  62  87 117 152 194 241 286 338
#     4  10  20  35  59  89 118 150 189 237 289 337
#     4  10  21  38  61  88 117 151 194 240 287 340
#     4  11  22  36  60  89 118 151 190 236 287 345
#
# _framework density 18.811406000000002
#
# number of rings (size 3 to 8) (size 9 to 14) (size 15 to 20)
#    0.000    1.429    1.429    4.286    0.000    5.714 
#    0.000    0.714    0.000    0.000    0.000    0.000 
#    0.000    0.000    0.000    0.000    0.000    0.000 
#
# Total GULP energy -156548.140212 kJ/mol
# GULP energy per Si atom -5591.005008 kJ/mol
# Density = 1.876859 g / cm^3
# Si number density = 18.811406 Si / 1000 Ang^3
#
#
#
# Elastic Constant Matrix: (Units=GPa)
#
#
# Indices 1 2 3 4 5 6 
#
# 1 73.7321 12.3125 6.8596 0.0000 -1.4177 0.0000
# 2 12.3125 40.7393 -4.1532 0.0000 -7.4199 0.0000
# 3 6.8596 -4.1532 18.4999 0.0000 -3.2241 0.0000
# 4 0.0000 0.0000 0.0000 29.8388 0.0000 -1.6087
# 5 -1.4177 -7.4199 -3.2241 0.0000 15.9572 0.0000
# 6 0.0000 0.0000 0.0000 -1.6087 0.0000 33.8786
#
#
#
# Elastic Compliance Matrix: (Units=1/GPa)
#
#
# Indices 1 2 3 4 5 6 
#
# 1 0.015181 -0.005874 -0.007451 0.000000 -0.002888 0.000000
# 2 -0.005874 0.030442 0.011804 0.000000 0.016018 0.000000
# 3 -0.007451 0.011804 0.062509 0.000000 0.017457 0.000000
# 4 0.000000 0.000000 0.000000 0.033599 0.000000 0.001595
# 5 -0.002888 0.016018 0.017457 0.000000 0.073386 0.000000
# 6 0.000000 0.000000 0.000000 0.001595 0.000000 0.029593
#
#
# Mechanical properties :
#
#
# Convention : Reuss Voigt Hill
#
# Bulk Modulus (GPa) = 9.51555 18.11211 13.81383
# Shear Modulus (GPa) = 17.68136 23.79841 20.73988
#
# Velocity S-wave (km/s) = 3.06915 3.56069 3.32402
# Velocity P-wave (km/s) = 4.19868 5.15304 4.70015
#
# Compressibility (1/GPa) = 0.10509114
#
# Stress axis : x y z
#
# Youngs Moduli (GPa) = 65.87125 32.84902 15.99760
#
# Poissons Ratio (x) = 0.19295 0.11920
# Poissons Ratio (y) = 0.38691 -0.18883
# Poissons Ratio (z) = 0.49080 -0.38774
#
# Static dielectric constant tensor:
#      x y z
#    x 1.658680 0.000000 -0.016740 
#    y 0.000000 1.622210 0.000000 
#    z -0.016740 0.000000 1.638750 
# 
# From -- ./inp_files/60150.got.cif
#   From: 2010.05.17/outbox.cif.g08.bks.cpg/sg11_31_cif.got.tgz:60150.got - 2010.06.03 12:22:45.
