data_PCOD9162086
_publ_section_title
;
Structure prediction by ZEFSAII (Michael W. Deem and Ramdas Pophale) SiO2 
 PCOD9162086
Probable space group: P 21/M
;
_chemical_formula_sum "Si O2"
_cell_formula_units_Z 28
_cell_length_a 16.222049
_cell_length_b 8.036436
_cell_length_c 21.861880
_cell_angle_alpha 90.000000
_cell_angle_beta 151.541048
_cell_angle_gamma 90.000000
_cell_volume 1358.144788
_symmetry_space_group_name_H-M "P 21/M"
_symmetry_group_IT_number 11
_symmetry_cell_setting 'monoclinic'
loop_
_space_group_symop_operation_xyz
x,y,z
-x,1/2+y,-z
-x,-y,-z
x,1/2-y,z
loop_
_atom_site_type_symbol
_atom_site_label
_atom_site_fract_x
_atom_site_fract_y
_atom_site_fract_z
Si Si1 0.441572 0.952483 0.551848
Si Si2 0.065209 0.050043 0.609783
Si Si3 0.219337 0.946228 0.295554
Si Si4 0.297971 0.548887 0.588234
Si Si5 0.928536 0.947002 0.019721
Si Si6 0.446249 0.451635 0.896513
Si Si7 0.410692 0.944651 0.135028
O O1 0.454692 0.750000 0.556551
O O2 0.292640 0.010839 0.407633
O O3 0.394522 0.999119 0.589423
O O4 0.621355 0.027978 0.646894
O O5 0.076659 0.250000 0.618363
O O6 0.252082 0.986994 0.753080
O O7 0.902484 0.999352 0.545392
O O8 0.000000 0.000000 0.500000
O O9 0.189044 0.750000 0.285314
O O10 0.051790 0.020141 0.153567
O O11 0.305653 0.750000 0.599289
O O12 0.401422 0.472325 0.712211
O O13 0.949478 0.750000 0.033339
O O14 0.732721 0.981584 0.912856
O O15 0.000000 0.000000 0.000000
O O16 0.444969 0.250000 0.892817
O O17 0.573182 0.510348 0.924168
O O18 0.500000 0.500000 0.000000
O O19 0.373345 0.750000 0.107581
#
# Coordination Sequence:
#
# PCOD9162086 Si02
#       7
#     4   4   4   4   4   4   4
#     4   9  18  33  53  79 108 139 180 230 280 336
#     4  10  20  37  60  86 115 149 192 242 296 352
#     4   9  19  35  53  75 106 144 184 227 279 334
#     4  10  20  34  58  86 110 144 191 237 289 349
#     4  11  23  38  58  84 115 155 197 239 291 349
#     4  10  23  41  61  88 122 161 202 250 306 362
#     4  11  23  39  58  84 119 154 194 245 296 354
#
# _framework density 20.616357000000001
#
# number of rings (size 3 to 8) (size 9 to 14) (size 15 to 20)
#    0.000    2.000    1.429    1.714    0.000    6.857 
#    0.000    2.857    0.000    0.000    0.000    0.000 
#    0.000    0.000    0.000    0.000    0.000    0.000 
#
# Total GULP energy -156201.446753 kJ/mol
# GULP energy per Si atom -5578.623098 kJ/mol
# Density = 2.056943 g / cm^3
# Si number density = 20.616357 Si / 1000 Ang^3
#
#
#
# Elastic Constant Matrix: (Units=GPa)
#
#
# Indices 1 2 3 4 5 6 
#
# 1 98.6961 -3.8180 29.5168 0.0000 -12.2301 0.0000
# 2 -3.8180 7.8254 -1.9258 0.0000 0.0158 0.0000
# 3 29.5168 -1.9258 106.8272 0.0000 2.2680 0.0000
# 4 0.0000 0.0000 0.0000 22.1233 0.0000 -3.9942
# 5 -12.2301 0.0158 2.2680 0.0000 20.0289 0.0000
# 6 0.0000 0.0000 0.0000 -3.9942 0.0000 21.4139
#
#
#
# Elastic Compliance Matrix: (Units=1/GPa)
#
#
# Indices 1 2 3 4 5 6 
#
# 1 0.012359 0.005155 -0.003490 0.000000 0.007938 0.000000
# 2 0.005155 0.130511 0.000866 0.000000 0.002947 0.000000
# 3 -0.003490 0.000866 0.010411 0.000000 -0.003311 0.000000
# 4 0.000000 0.000000 0.000000 0.046776 0.000000 0.008725
# 5 0.007938 0.002947 -0.003311 0.000000 0.055147 0.000000
# 6 0.000000 0.000000 0.000000 0.008725 0.000000 0.048326
#
#
# Mechanical properties :
#
#
# Convention : Reuss Voigt Hill
#
# Bulk Modulus (GPa) = 6.31544 28.98830 17.65187
# Shear Modulus (GPa) = 14.23482 25.35161 19.79322
#
# Velocity S-wave (km/s) = 2.63052 3.51049 3.10187
# Velocity P-wave (km/s) = 3.50658 5.52474 4.62703
#
# Compressibility (1/GPa) = 0.15834215
#
# Stress axis : x y z
#
# Youngs Moduli (GPa) = 80.91243 7.66218 96.05007
#
# Poissons Ratio (x) = -0.03950 0.33526
# Poissons Ratio (y) = -0.41710 -0.08316
# Poissons Ratio (z) = 0.28242 -0.00663
#
# Static dielectric constant tensor:
#      x y z
#    x 1.749980 0.000000 -0.000900 
#    y 0.000000 1.741270 0.000000 
#    z -0.000900 0.000000 1.767840 
# 
# From -- ./inp_files/54489.got.cif
#   From: 2010.05.17/outbox.cif.g08.bks.cpg/sg11_28_cif.got.tgz:54489.got - 2010.06.03 12:22:45.
