data_PCOD9162411
_publ_section_title
;
Structure prediction by ZEFSAII (Michael W. Deem and Ramdas Pophale) SiO2 
 PCOD9162411
Probable space group: P 21/M
;
_chemical_formula_sum "Si O2"
_cell_formula_units_Z 28
_cell_length_a 15.714113
_cell_length_b 8.840694
_cell_length_c 17.622154
_cell_angle_alpha 90.000000
_cell_angle_beta 141.648849
_cell_angle_gamma 90.000000
_cell_volume 1519.016837
_symmetry_space_group_name_H-M "P 21/M"
_symmetry_group_IT_number 11
_symmetry_cell_setting 'monoclinic'
loop_
_space_group_symop_operation_xyz
x,y,z
-x,1/2+y,-z
-x,-y,-z
x,1/2-y,z
loop_
_atom_site_type_symbol
_atom_site_label
_atom_site_fract_x
_atom_site_fract_y
_atom_site_fract_z
Si Si1 0.684809 0.574652 0.937545
Si Si2 0.425217 0.572997 0.654713
Si Si3 0.636884 0.425245 0.063170
Si Si4 0.845670 0.933633 0.896063
Si Si5 0.143657 0.424782 0.507473
Si Si6 0.587855 0.430409 0.631133
Si Si7 0.137493 0.078360 0.685906
O O1 0.717295 0.750000 0.975060
O O2 0.528842 0.565342 0.798081
O O3 0.779979 0.526361 0.932912
O O4 0.688992 0.486420 0.018726
O O5 0.417858 0.750000 0.626626
O O6 0.279299 0.505218 0.572908
O O7 0.495784 0.474217 0.639152
O O8 0.610072 0.250000 0.036740
O O9 0.753511 0.463242 0.205061
O O10 0.500000 0.500000 0.000000
O O11 0.847354 0.750000 0.891448
O O12 0.737947 0.998247 0.757537
O O13 0.000000 0.000000 0.000000
O O14 0.134680 0.250000 0.475771
O O15 0.144981 0.422983 0.600041
O O16 0.011435 0.521877 0.392928
O O17 0.500000 0.500000 0.500000
O O18 0.601917 0.250000 0.631608
O O19 0.165290 0.250000 0.731122
#
# Coordination Sequence:
#
# PCOD9162411 Si02
#       7
#     4   4   4   4   4   4   4
#     4   9  20  38  59  84 116 151 192 236 283 343
#     4  10  20  36  59  85 113 148 188 231 284 342
#     4  12  24  37  56  82 114 150 192 238 286 339
#     4  10  21  40  65  92 122 159 200 246 303 364
#     4  10  20  35  56  82 110 145 188 231 282 339
#     4  11  22  39  62  89 121 154 196 247 297 354
#     4  10  21  37  56  78 110 148 187 234 283 335
#
# _framework density 18.432974999999999
#
# number of rings (size 3 to 8) (size 9 to 14) (size 15 to 20)
#    0.000    1.714    0.000    6.000    0.000    7.429 
#    2.571    0.000    0.000    0.000    0.000    0.000 
#    0.000    0.000    0.000    0.000    0.000    0.000 
#
# Total GULP energy -156255.761680 kJ/mol
# GULP energy per Si atom -5580.562917 kJ/mol
# Density = 1.839102 g / cm^3
# Si number density = 18.432975 Si / 1000 Ang^3
#
#
#
# Elastic Constant Matrix: (Units=GPa)
#
#
# Indices 1 2 3 4 5 6 
#
# 1 50.9343 25.2576 31.2021 0.0000 28.8220 0.0000
# 2 25.2576 89.2246 21.1664 0.0000 -1.3001 0.0000
# 3 31.2021 21.1664 65.5784 0.0000 21.8105 0.0000
# 4 0.0000 0.0000 0.0000 34.1915 0.0000 1.3029
# 5 28.8220 -1.3001 21.8105 0.0000 34.5309 0.0000
# 6 0.0000 0.0000 0.0000 1.3029 0.0000 25.2432
#
#
#
# Elastic Compliance Matrix: (Units=1/GPa)
#
#
# Indices 1 2 3 4 5 6 
#
# 1 0.054993 -0.014344 -0.007710 0.000000 -0.041572 0.000000
# 2 -0.014344 0.016266 -0.003305 0.000000 0.014673 0.000000
# 3 -0.007710 -0.003305 0.022641 0.000000 -0.007990 0.000000
# 4 0.000000 0.000000 0.000000 0.029305 0.000000 -0.001512
# 5 -0.041572 0.014673 -0.007990 0.000000 0.069258 0.000000
# 6 0.000000 0.000000 0.000000 -0.001512 0.000000 0.039693
#
#
# Mechanical properties :
#
#
# Convention : Reuss Voigt Hill
#
# Bulk Modulus (GPa) = 23.15741 40.10995 31.63368
# Shear Modulus (GPa) = 16.81982 27.33387 22.07685
#
# Velocity S-wave (km/s) = 3.02401 3.85499 3.46451
# Velocity P-wave (km/s) = 4.97827 6.45149 5.76216
#
# Compressibility (1/GPa) = 0.04318272
#
# Stress axis : x y z
#
# Youngs Moduli (GPa) = 18.18398 61.47768 44.16699
#
# Poissons Ratio (x) = 0.88185 0.34052
# Poissons Ratio (y) = 0.26084 0.14598
# Poissons Ratio (z) = 0.14019 0.20319
#
# Static dielectric constant tensor:
#      x y z
#    x 1.634870 0.000000 -0.004900 
#    y 0.000000 1.634670 0.000000 
#    z -0.004900 0.000000 1.650950 
# 
# From -- ./inp_files/60132.got.cif
#   From: 2010.05.17/outbox.cif.g08.bks.cpg/sg11_31_cif.got.tgz:60132.got - 2010.06.03 12:22:45.
