data_PCOD9162933
_publ_section_title
;
Structure prediction by ZEFSAII (Michael W. Deem and Ramdas Pophale) SiO2 
 PCOD9162933
Probable space group: P 21/M
;
_chemical_formula_sum "Si O2"
_cell_formula_units_Z 32
_cell_length_a 15.376361
_cell_length_b 23.543814
_cell_length_c 9.220059
_cell_angle_alpha 90.000000
_cell_angle_beta 148.247101
_cell_angle_gamma 90.000000
_cell_volume 1756.555709
_symmetry_space_group_name_H-M "P 21/M"
_symmetry_group_IT_number 11
_symmetry_cell_setting 'monoclinic'
loop_
_space_group_symop_operation_xyz
x,y,z
-x,1/2+y,-z
-x,-y,-z
x,1/2-y,z
loop_
_atom_site_type_symbol
_atom_site_label
_atom_site_fract_x
_atom_site_fract_y
_atom_site_fract_z
Si Si1 0.736480 0.359707 0.508005
Si Si2 0.372432 0.685395 0.345786
Si Si3 0.361739 0.545780 0.844022
Si Si4 0.211217 0.598766 0.891784
Si Si5 0.074319 0.082430 0.073157
Si Si6 0.981446 0.989906 0.727807
Si Si7 0.243587 0.314154 0.186281
Si Si8 0.949532 0.313585 0.555599
O O1 0.648456 0.328134 0.513884
O O2 0.630094 0.404141 0.263920
O O3 0.824147 0.319593 0.513898
O O4 0.886901 0.394942 0.793585
O O5 0.313534 0.750000 0.233283
O O6 0.565084 0.682736 0.579232
O O7 0.279113 0.638736 0.116285
O O8 0.358183 0.572981 0.999848
O O9 0.177477 0.518580 0.571041
O O10 0.500000 0.500000 0.000000
O O11 0.103214 0.638970 0.632920
O O12 0.096342 0.548955 0.791583
O O13 0.091122 0.048724 0.245252
O O14 0.190785 0.136511 0.220776
O O15 0.089397 0.038666 0.960412
O O16 0.205352 0.250000 0.184943
O O17 0.128988 0.322922 0.881575
O O18 0.940409 0.250000 0.482231
#
# Coordination Sequence:
#
# PCOD9162933 Si02
#       8
#     4   4   4   4   4   4   4   4
#     4   9  18  36  57  80 106 147 188 221 277 341
#     4  11  22  36  57  88 117 141 187 246 286 329
#     4  10  23  37  55  81 116 150 186 228 283 348
#     4  11  22  37  56  85 113 148 188 234 287 330
#     4   9  18  36  57  80 106 143 188 228 270 332
#     4  10  20  36  57  79 112 146 187 230 279 333
#     4   9  20  36  57  81 111 148 185 228 282 333
#     4   9  18  36  58  77 106 149 189 225 275 340
#
# _framework density 18.217469000000001
#
# number of rings (size 3 to 8) (size 9 to 14) (size 15 to 20)
#    0.000    2.250    1.250    1.875    1.750    2.500 
#    0.000    1.250    0.000    0.000    0.000    0.000 
#    0.000    0.000    0.000    0.000    0.000    0.000 
#
# Total GULP energy -178463.049257 kJ/mol
# GULP energy per Si atom -5576.970289 kJ/mol
# Density = 1.817601 g / cm^3
# Si number density = 18.217469 Si / 1000 Ang^3
#
#
#
# Elastic Constant Matrix: (Units=GPa)
#
#
# Indices 1 2 3 4 5 6 
#
# 1 71.6238 42.5473 18.8429 0.0000 -13.6212 0.0000
# 2 42.5473 98.4105 16.6984 0.0000 -3.4889 0.0000
# 3 18.8429 16.6984 25.5699 0.0000 -2.7670 0.0000
# 4 0.0000 0.0000 0.0000 24.9441 0.0000 0.3355
# 5 -13.6212 -3.4889 -2.7670 0.0000 13.7937 0.0000
# 6 0.0000 0.0000 0.0000 0.3355 0.0000 35.6894
#
#
#
# Elastic Compliance Matrix: (Units=1/GPa)
#
#
# Indices 1 2 3 4 5 6 
#
# 1 0.026112 -0.008614 -0.011308 0.000000 0.021338 0.000000
# 2 -0.008614 0.014297 -0.003596 0.000000 -0.005611 0.000000
# 3 -0.011308 -0.003596 0.049559 0.000000 -0.002135 0.000000
# 4 0.000000 0.000000 0.000000 0.040095 0.000000 -0.000377
# 5 0.021338 -0.005611 -0.002135 0.000000 0.091720 0.000000
# 6 0.000000 0.000000 0.000000 -0.000377 0.000000 0.028023
#
#
# Mechanical properties :
#
#
# Convention : Reuss Voigt Hill
#
# Bulk Modulus (GPa) = 23.29273 39.08681 31.18977
# Shear Modulus (GPa) = 16.06931 22.71981 19.39456
#
# Velocity S-wave (km/s) = 2.97321 3.53532 3.26638
# Velocity P-wave (km/s) = 4.95987 6.17794 5.60211
#
# Compressibility (1/GPa) = 0.04293184
#
# Stress axis : x y z
#
# Youngs Moduli (GPa) = 38.29682 69.94462 20.17805
#
# Poissons Ratio (x) = 0.60251 0.22817
# Poissons Ratio (y) = 0.32989 0.07256
# Poissons Ratio (z) = 0.43305 0.25152
#
# Static dielectric constant tensor:
#      x y z
#    x 1.611230 0.000000 -0.014830 
#    y 0.000000 1.657120 0.000000 
#    z -0.014830 0.000000 1.613160 
# 
# From -- ./inp_files/23343.got.cif
#   From: 2010.05.17/outbox.cif.g08.bks.cpg/sg11_12_cif.got.tgz:23343.got - 2010.06.03 12:22:45.
