data_PCOD9162570
_publ_section_title
;
Structure prediction by ZEFSAII (Michael W. Deem and Ramdas Pophale) SiO2 
 PCOD9162570
Probable space group: P 21/M
;
_chemical_formula_sum "Si O2"
_cell_formula_units_Z 28
_cell_length_a 26.972449
_cell_length_b 8.487966
_cell_length_c 10.302677
_cell_angle_alpha 90.000000
_cell_angle_beta 38.141670
_cell_angle_gamma 90.000000
_cell_volume 1456.756727
_symmetry_space_group_name_H-M "P 21/M"
_symmetry_group_IT_number 11
_symmetry_cell_setting 'monoclinic'
loop_
_space_group_symop_operation_xyz
x,y,z
-x,1/2+y,-z
-x,-y,-z
x,1/2-y,z
loop_
_atom_site_type_symbol
_atom_site_label
_atom_site_fract_x
_atom_site_fract_y
_atom_site_fract_z
Si Si1 0.059767 0.438866 0.767404
Si Si2 0.766194 0.939720 0.487643
Si Si3 0.755687 0.440288 0.966122
Si Si4 0.519157 0.440637 0.815872
Si Si5 0.354412 0.059836 0.038399
Si Si6 0.303251 0.939960 0.630598
Si Si7 0.936699 0.438703 0.525544
O O1 0.057222 0.250000 0.768153
O O2 0.149665 0.488712 0.622856
O O3 0.040801 0.504477 0.664493
O O4 0.000000 0.500000 0.000000
O O5 0.765183 0.750000 0.481827
O O6 0.752010 0.007213 0.374643
O O7 0.695119 0.989187 0.731134
O O8 0.756912 0.250000 0.964170
O O9 0.845725 0.494603 0.744648
O O10 0.691706 0.494422 0.990857
O O11 0.729168 0.495201 0.163676
O O12 0.519769 0.250000 0.818668
O O13 0.446342 0.489475 0.871198
O O14 0.606124 0.495163 0.587583
O O15 0.500000 0.500000 0.000000
O O16 0.351839 0.250000 0.037022
O O17 0.304777 0.750000 0.630592
O O18 0.936549 0.250000 0.528949
O O19 0.000000 0.500000 0.500000
#
# Coordination Sequence:
#
# PCOD9162570 Si02
#       7
#     4   4   4   4   4   4   4
#     4  11  24  42  63  91 122 155 198 248 298 356
#     4  10  21  38  60  87 118 153 195 240 289 348
#     4  10  23  41  59  85 119 155 196 238 291 353
#     4  10  20  35  57  85 118 152 194 242 292 342
#     4  10  20  37  60  85 116 155 196 241 290 345
#     4  10  22  38  58  87 120 155 195 243 291 345
#     4  11  24  42  63  88 120 160 199 245 301 359
#
# _framework density 19.220777999999999
#
# number of rings (size 3 to 8) (size 9 to 14) (size 15 to 20)
#    0.000    1.714    2.857    0.857    2.000    4.000 
#    0.000    0.000    0.000    0.000    0.000    0.000 
#    0.000    0.000    0.000    0.000    0.000    0.000 
#
# Total GULP energy -156436.346138 kJ/mol
# GULP energy per Si atom -5587.012362 kJ/mol
# Density = 1.917703 g / cm^3
# Si number density = 19.220778 Si / 1000 Ang^3
#
#
#
# Elastic Constant Matrix: (Units=GPa)
#
#
# Indices 1 2 3 4 5 6 
#
# 1 171.4319 24.7891 62.9107 0.0000 17.2265 0.0000
# 2 24.7891 15.1208 21.2575 0.0000 -0.0079 0.0000
# 3 62.9107 21.2575 112.8657 0.0000 22.4053 0.0000
# 4 0.0000 0.0000 0.0000 23.1051 0.0000 6.2800
# 5 17.2265 -0.0079 22.4053 0.0000 38.3651 0.0000
# 6 0.0000 0.0000 0.0000 6.2800 0.0000 35.8572
#
#
#
# Elastic Compliance Matrix: (Units=1/GPa)
#
#
# Indices 1 2 3 4 5 6 
#
# 1 0.008445 -0.010790 -0.002174 0.000000 -0.002525 0.000000
# 2 -0.010790 0.108214 -0.017344 0.000000 0.014996 0.000000
# 3 -0.002174 -0.017344 0.014869 0.000000 -0.007711 0.000000
# 4 0.000000 0.000000 0.000000 0.045444 0.000000 -0.007959
# 5 -0.002525 0.014996 -0.007711 0.000000 0.031705 0.000000
# 6 0.000000 0.000000 0.000000 -0.007959 0.000000 0.029282
#
#
# Mechanical properties :
#
#
# Convention : Reuss Voigt Hill
#
# Bulk Modulus (GPa) = 14.10186 57.48143 35.79164
# Shear Modulus (GPa) = 15.51773 32.16289 23.84031
#
# Velocity S-wave (km/s) = 2.84446 4.09508 3.52567
# Velocity P-wave (km/s) = 4.25918 7.23398 5.93595
#
# Compressibility (1/GPa) = 0.07091264
#
# Stress axis : x y z
#
# Youngs Moduli (GPa) = 118.41580 9.24095 67.25361
#
# Poissons Ratio (x) = 0.09971 0.14619
# Poissons Ratio (y) = 1.27769 1.16645
# Poissons Ratio (z) = 0.25740 0.16028
#
# Static dielectric constant tensor:
#      x y z
#    x 1.640520 0.000000 -0.023250 
#    y 0.000000 1.662260 0.000000 
#    z -0.023250 0.000000 1.662910 
# 
# From -- ./inp_files/28378.got.cif
#   From: 2010.05.17/outbox.cif.g08.bks.cpg/sg11_15_cif.got.tgz:28378.got - 2010.06.03 12:22:45.
