data_PCOD9162181
_publ_section_title
;
Structure prediction by ZEFSAII (Michael W. Deem and Ramdas Pophale) SiO2 
 PCOD9162181
Probable space group: P 21/M
;
_chemical_formula_sum "Si O2"
_cell_formula_units_Z 28
_cell_length_a 18.796217
_cell_length_b 8.826886
_cell_length_c 15.040584
_cell_angle_alpha 90.000000
_cell_angle_beta 141.489607
_cell_angle_gamma 90.000000
_cell_volume 1553.786175
_symmetry_space_group_name_H-M "P 21/M"
_symmetry_group_IT_number 11
_symmetry_cell_setting 'monoclinic'
loop_
_space_group_symop_operation_xyz
x,y,z
-x,1/2+y,-z
-x,-y,-z
x,1/2-y,z
loop_
_atom_site_type_symbol
_atom_site_label
_atom_site_fract_x
_atom_site_fract_y
_atom_site_fract_z
Si Si1 0.909822 0.430318 0.728507
Si Si2 0.729181 0.576519 0.432747
Si Si3 0.760664 0.566912 0.742756
Si Si4 0.628787 0.572865 0.869801
Si Si5 0.542359 0.070455 0.133077
Si Si6 0.552182 0.923922 0.426583
Si Si7 0.843161 0.429463 0.009647
O O1 0.907814 0.250000 0.737287
O O2 0.836458 0.480109 0.571041
O O3 0.846950 0.507674 0.751298
O O4 0.037941 0.491890 0.849855
O O5 0.762025 0.750000 0.447277
O O6 0.641615 0.578259 0.431104
O O7 0.657923 0.506022 0.282474
O O8 0.764372 0.750000 0.749417
O O9 0.631844 0.523420 0.585896
O O10 0.800123 0.495899 0.873420
O O11 0.657629 0.750000 0.891722
O O12 0.553019 0.546646 0.883407
O O13 0.742460 0.473812 0.978747
O O14 0.550096 0.526604 0.708607
O O15 0.559062 0.250000 0.140529
O O16 0.500000 0.000000 0.000000
O O17 0.513861 0.750000 0.403526
O O18 0.858076 0.250000 0.018138
#
# Coordination Sequence:
#
# PCOD9162181 Si02
#       7
#     4   4   4   4   4   4   4
#     4  11  21  35  54  76 105 140 181 223 262 307
#     4   9  17  32  54  80 108 137 173 214 257 306
#     4  10  20  35  53  75 103 137 182 228 266 305
#     4  10  21  36  53  76 106 138 173 213 261 316
#     4  10  20  35  59  88 113 137 168 209 259 314
#     4   8  16  31  51  73 100 135 172 214 261 308
#     4  12  24  36  51  72 102 142 183 222 266 311
#
# _framework density 18.020499000000001
#
# number of rings (size 3 to 8) (size 9 to 14) (size 15 to 20)
#    0.000    2.000    0.000    5.571    0.000    6.286 
#    0.000    0.000    0.000    0.857    0.000    0.000 
#    0.000    0.000    0.000    0.000    0.000    0.000 
#
# Total GULP energy -156397.190191 kJ/mol
# GULP energy per Si atom -5585.613935 kJ/mol
# Density = 1.797948 g / cm^3
# Si number density = 18.020499 Si / 1000 Ang^3
#
#
#
# Elastic Constant Matrix: (Units=GPa)
#
#
# Indices 1 2 3 4 5 6 
#
# 1 29.9085 28.9842 34.3280 0.0000 1.9513 0.0000
# 2 28.9842 90.8706 39.0204 0.0000 -2.5113 0.0000
# 3 34.3280 39.0204 112.2502 0.0000 -8.4306 0.0000
# 4 0.0000 0.0000 0.0000 36.0497 0.0000 1.2881
# 5 1.9513 -2.5113 -8.4306 0.0000 27.8177 0.0000
# 6 0.0000 0.0000 0.0000 1.2881 0.0000 24.3646
#
#
#
# Elastic Compliance Matrix: (Units=1/GPa)
#
#
# Indices 1 2 3 4 5 6 
#
# 1 0.067000 -0.014719 -0.016195 0.000000 -0.010937 0.000000
# 2 -0.014719 0.016170 -0.000954 0.000000 0.002203 0.000000
# 3 -0.016195 -0.000954 0.014604 0.000000 0.005476 0.000000
# 4 0.000000 0.000000 0.000000 0.027792 0.000000 -0.001469
# 5 -0.010937 0.002203 0.005476 0.000000 0.038574 0.000000
# 6 0.000000 0.000000 0.000000 -0.001469 0.000000 0.041121
#
#
# Mechanical properties :
#
#
# Convention : Reuss Voigt Hill
#
# Bulk Modulus (GPa) = 29.37791 48.63272 39.00531
# Shear Modulus (GPa) = 17.83529 26.35952 22.09741
#
# Velocity S-wave (km/s) = 3.14940 3.82874 3.50557
# Velocity P-wave (km/s) = 5.43717 6.82581 6.17068
#
# Compressibility (1/GPa) = 0.03403918
#
# Stress axis : x y z
#
# Youngs Moduli (GPa) = 14.92532 61.84279 68.47304
#
# Poissons Ratio (x) = 0.91024 1.10890
# Poissons Ratio (y) = 0.21968 0.06535
# Poissons Ratio (z) = 0.24171 0.05902
#
# Static dielectric constant tensor:
#      x y z
#    x 1.623510 0.000000 0.007620 
#    y 0.000000 1.607160 0.000000 
#    z 0.007620 0.000000 1.608520 
# 
# From -- ./inp_files/54594.got.cif
#   From: 2010.05.17/outbox.cif.g08.bks.cpg/sg11_28_cif.got.tgz:54594.got - 2010.06.03 12:22:45.
