data_PCOD9162889
_publ_section_title
;
Structure prediction by ZEFSAII (Michael W. Deem and Ramdas Pophale) SiO2 
 PCOD9162889
Probable space group: P 21/M
;
_chemical_formula_sum "Si O2"
_cell_formula_units_Z 28
_cell_length_a 13.952455
_cell_length_b 7.701075
_cell_length_c 13.276244
_cell_angle_alpha 90.000000
_cell_angle_beta 63.775461
_cell_angle_gamma 90.000000
_cell_volume 1279.685218
_symmetry_space_group_name_H-M "P 21/M"
_symmetry_group_IT_number 11
_symmetry_cell_setting 'monoclinic'
loop_
_space_group_symop_operation_xyz
x,y,z
-x,1/2+y,-z
-x,-y,-z
x,1/2-y,z
loop_
_atom_site_type_symbol
_atom_site_label
_atom_site_fract_x
_atom_site_fract_y
_atom_site_fract_z
Si Si1 0.886109 0.543415 0.603249
Si Si2 0.583509 0.458019 0.872461
Si Si3 0.243152 0.538405 0.059591
Si Si4 0.179239 0.049617 0.572322
Si Si5 0.383527 0.553596 0.591280
Si Si6 0.968311 0.053747 0.771616
Si Si7 0.409963 0.456393 0.805812
O O1 0.875324 0.750000 0.629231
O O2 0.808084 0.483901 0.548811
O O3 0.897304 0.443986 0.702432
O O4 0.000000 0.500000 0.500000
O O5 0.593352 0.250000 0.857691
O O6 0.693266 0.525742 0.869450
O O7 0.522604 0.522721 0.801111
O O8 0.500000 0.500000 0.000000
O O9 0.240920 0.750000 0.063212
O O10 0.120382 0.475153 0.112343
O O11 0.316710 0.488117 0.930808
O O12 0.145317 0.250000 0.572173
O O13 0.080760 0.971004 0.683709
O O14 0.287558 0.047485 0.583546
O O15 0.500000 0.500000 0.500000
O O16 0.364333 0.750000 0.568973
O O17 0.382433 0.537103 0.711905
O O18 0.991968 0.250000 0.795693
O O19 0.420142 0.250000 0.786286
#
# Coordination Sequence:
#
# PCOD9162889 Si02
#       7
#     4   4   4   4   4   4   4
#     4   9  17  30  51  78 110 145 181 222 269 318
#     4   8  15  28  49  76 107 141 175 211 256 308
#     4   9  17  32  54  83 116 149 183 219 264 321
#     4   9  19  37  56  79 112 147 184 231 278 322
#     4  12  26  43  62  81 102 136 181 230 280 332
#     4   9  18  32  54  84 118 151 184 225 273 325
#     4  10  20  36  56  81 113 147 183 226 272 320
#
# _framework density 21.880381
#
# number of rings (size 3 to 8) (size 9 to 14) (size 15 to 20)
#    0.000    2.571    0.000    3.000    0.000    5.143 
#    0.000    2.143    0.000    0.000    0.000    0.000 
#    0.000    0.000    0.000    0.000    0.000    0.000 
#
# Total GULP energy -155950.065656 kJ/mol
# GULP energy per Si atom -5569.645202 kJ/mol
# Density = 2.183058 g / cm^3
# Si number density = 21.880381 Si / 1000 Ang^3
#
#
#
# Elastic Constant Matrix: (Units=GPa)
#
#
# Indices 1 2 3 4 5 6 
#
# 1 110.1855 -7.1112 32.5345 0.0000 -2.7888 0.0000
# 2 -7.1112 63.4096 -10.3848 0.0000 -0.0498 0.0000
# 3 32.5345 -10.3848 44.7233 0.0000 0.1302 0.0000
# 4 0.0000 0.0000 0.0000 21.7314 0.0000 1.0914
# 5 -2.7888 -0.0498 0.1302 0.0000 38.6624 0.0000
# 6 0.0000 0.0000 0.0000 1.0914 0.0000 17.1402
#
#
#
# Elastic Compliance Matrix: (Units=1/GPa)
#
#
# Indices 1 2 3 4 5 6 
#
# 1 0.011588 -0.000084 -0.008451 0.000000 0.000864 0.000000
# 2 -0.000084 0.016395 0.003868 0.000000 0.000002 0.000000
# 3 -0.008451 0.003868 0.029408 0.000000 -0.000704 0.000000
# 4 0.000000 0.000000 0.000000 0.046164 0.000000 -0.002939
# 5 0.000864 0.000002 -0.000704 0.000000 0.025930 0.000000
# 6 0.000000 0.000000 0.000000 -0.002939 0.000000 0.058530
#
#
# Mechanical properties :
#
#
# Convention : Reuss Voigt Hill
#
# Bulk Modulus (GPa) = 20.80949 27.59949 24.20449
# Shear Modulus (GPa) = 23.43384 29.05879 26.24631
#
# Velocity S-wave (km/s) = 3.27616 3.64823 3.46719
# Velocity P-wave (km/s) = 4.88285 5.51247 5.20718
#
# Compressibility (1/GPa) = 0.04805500
#
# Stress axis : x y z
#
# Youngs Moduli (GPa) = 86.29966 60.99596 34.00434
#
# Poissons Ratio (x) = 0.00512 0.28739
# Poissons Ratio (y) = 0.00725 -0.13153
# Poissons Ratio (z) = 0.72936 -0.23593
#
# Static dielectric constant tensor:
#      x y z
#    x 1.766290 0.000000 -0.026190 
#    y 0.000000 1.751170 0.000000 
#    z -0.026190 0.000000 1.830390 
# 
# From -- ./inp_files/37449.got.cif
#   From: 2010.05.17/outbox.cif.g08.bks.cpg/sg11_19_cif.got.tgz:37449.got - 2010.06.03 12:22:45.
