data_PCOD9162343
_publ_section_title
;
Structure prediction by ZEFSAII (Michael W. Deem and Ramdas Pophale) SiO2 
 PCOD9162343
Probable space group: P 21/M
;
_chemical_formula_sum "Si O2"
_cell_formula_units_Z 32
_cell_length_a 25.215147
_cell_length_b 8.249282
_cell_length_c 26.357547
_cell_angle_alpha 90.000000
_cell_angle_beta 162.770126
_cell_angle_gamma 90.000000
_cell_volume 1623.964869
_symmetry_space_group_name_H-M "P 21/M"
_symmetry_group_IT_number 11
_symmetry_cell_setting 'monoclinic'
loop_
_space_group_symop_operation_xyz
x,y,z
-x,1/2+y,-z
-x,-y,-z
x,1/2-y,z
loop_
_atom_site_type_symbol
_atom_site_label
_atom_site_fract_x
_atom_site_fract_y
_atom_site_fract_z
Si Si1 0.886108 0.053873 0.944613
Si Si2 0.485758 0.432950 0.043384
Si Si3 0.978302 0.942008 0.231191
Si Si4 0.137201 0.055954 0.582694
Si Si5 0.399397 0.052436 0.071447
Si Si6 0.119450 0.055101 0.252385
Si Si7 0.498955 0.053832 0.557483
Si Si8 0.205217 0.442175 0.533498
O O1 0.885027 0.250000 0.944401
O O2 0.682081 0.997649 0.751245
O O3 0.982479 0.995864 0.083852
O O4 0.000000 0.000000 0.000000
O O5 0.421528 0.250000 0.979354
O O6 0.687778 0.449589 0.247548
O O7 0.382649 0.508123 0.997390
O O8 0.500000 0.500000 0.000000
O O9 0.965637 0.750000 0.213885
O O10 0.056354 0.011276 0.250632
O O11 0.108559 0.979089 0.397400
O O12 0.776890 0.002093 0.059634
O O13 0.173533 0.250000 0.621199
O O14 0.094346 0.026734 0.484405
O O15 0.000000 0.000000 0.500000
O O16 0.403142 0.250000 0.073140
O O17 0.589213 0.997184 0.268410
O O18 0.123822 0.250000 0.252816
O O19 0.318565 0.995802 0.420142
O O20 0.498406 0.250000 0.557737
O O21 0.500000 0.000000 0.500000
O O22 0.208892 0.250000 0.528891
#
# Coordination Sequence:
#
# PCOD9162343 Si02
#       8
#     4   4   4   4   4   4   4   4
#     4  10  20  35  58  86 118 154 192 237 289 341
#     4  10  20  35  55  83 115 150 191 242 300 363
#     4  11  24  41  63  89 119 160 205 250 299 358
#     4  10  21  36  55  84 116 150 191 240 299 361
#     4   9  21  41  61  84 117 157 199 248 305 356
#     4  10  22  39  56  85 123 157 199 246 290 346
#     4  10  20  35  58  87 120 156 194 237 290 344
#     4  10  22  40  62  88 117 155 200 249 303 360
#
# _framework density 19.704858999999999
#
# number of rings (size 3 to 8) (size 9 to 14) (size 15 to 20)
#    0.000    2.000    1.250    1.500    1.750    5.000 
#    0.000    1.250    0.000    0.000    0.000    0.000 
#    0.000    0.000    0.000    0.000    0.000    0.000 
#
# Total GULP energy -178503.094987 kJ/mol
# GULP energy per Si atom -5578.221718 kJ/mol
# Density = 1.966001 g / cm^3
# Si number density = 19.704859 Si / 1000 Ang^3
#
#
#
# Elastic Constant Matrix: (Units=GPa)
#
#
# Indices 1 2 3 4 5 6 
#
# 1 169.2528 4.9685 77.8059 0.0000 12.1666 0.0000
# 2 4.9685 10.4010 3.3707 0.0000 1.7640 0.0000
# 3 77.8059 3.3707 125.1374 0.0000 6.3774 0.0000
# 4 0.0000 0.0000 0.0000 21.2034 0.0000 -2.1241
# 5 12.1666 1.7640 6.3774 0.0000 35.4738 0.0000
# 6 0.0000 0.0000 0.0000 -2.1241 0.0000 32.0548
#
#
#
# Elastic Compliance Matrix: (Units=1/GPa)
#
#
# Indices 1 2 3 4 5 6 
#
# 1 0.008449 -0.002064 -0.005102 0.000000 -0.001878 0.000000
# 2 -0.002064 0.098179 -0.001159 0.000000 -0.003966 0.000000
# 3 -0.005102 -0.001159 0.011205 0.000000 -0.000207 0.000000
# 4 0.000000 0.000000 0.000000 0.047478 0.000000 0.003146
# 5 -0.001878 -0.003966 -0.000207 0.000000 0.029068 0.000000
# 6 0.000000 0.000000 0.000000 0.003146 0.000000 0.031405
#
#
# Mechanical properties :
#
#
# Convention : Reuss Voigt Hill
#
# Bulk Modulus (GPa) = 9.88308 53.00905 31.44607
# Shear Modulus (GPa) = 18.10522 32.32279 25.21401
#
# Velocity S-wave (km/s) = 3.03449 4.05451 3.58101
# Velocity P-wave (km/s) = 4.15980 6.99133 5.75251
#
# Compressibility (1/GPa) = 0.10118300
#
# Stress axis : x y z
#
# Youngs Moduli (GPa) = 118.35115 10.18547 89.24293
#
# Poissons Ratio (x) = 0.02103 0.45534
# Poissons Ratio (y) = 0.24431 0.10343
# Poissons Ratio (z) = 0.60386 0.01180
#
# Static dielectric constant tensor:
#      x y z
#    x 1.713570 0.000000 -0.011160 
#    y 0.000000 1.698060 0.000000 
#    z -0.011160 0.000000 1.702400 
# 
# From -- ./inp_files/70028.got.cif
#   From: 2010.05.17/outbox.cif.g08.bks.cpg/sg11_36_cif.got.tgz:70028.got - 2010.06.03 12:22:45.
