data_PCOD9162593
_publ_section_title
;
Structure prediction by ZEFSAII (Michael W. Deem and Ramdas Pophale) SiO2 
 PCOD9162593
Probable space group: P 21/M
;
_chemical_formula_sum "Si O2"
_cell_formula_units_Z 30
_cell_length_a 14.731774
_cell_length_b 14.393192
_cell_length_c 15.108297
_cell_angle_alpha 90.000000
_cell_angle_beta 28.799683
_cell_angle_gamma 90.000000
_cell_volume 1543.292853
_symmetry_space_group_name_H-M "P 21/M"
_symmetry_group_IT_number 11
_symmetry_cell_setting 'monoclinic'
loop_
_space_group_symop_operation_xyz
x,y,z
-x,1/2+y,-z
-x,-y,-z
x,1/2-y,z
loop_
_atom_site_type_symbol
_atom_site_label
_atom_site_fract_x
_atom_site_fract_y
_atom_site_fract_z
Si Si1 0.616727 0.148248 0.906083
Si Si2 0.210129 0.360609 0.861797
Si Si3 0.551599 0.861561 0.501078
Si Si4 0.165458 0.858841 0.924680
Si Si5 0.192641 0.432335 0.560489
Si Si6 0.431277 0.491561 0.186950
Si Si7 0.043601 0.750000 0.290083
Si Si8 0.820502 0.511370 0.943469
O O1 0.554085 0.250000 0.926127
O O2 0.802026 0.170625 0.805534
O O3 0.657679 0.074789 0.793800
O O4 0.459903 0.099408 0.101452
O O5 0.209253 0.250000 0.875799
O O6 0.390398 0.387024 0.648182
O O7 0.193209 0.411844 0.968486
O O8 0.030327 0.384292 0.953988
O O9 0.589505 0.750000 0.477493
O O10 0.335152 0.875594 0.711785
O O11 0.679083 0.915837 0.462523
O O12 0.159382 0.750000 0.952935
O O13 0.200439 0.915209 0.983684
O O14 0.318570 0.466993 0.371322
O O15 0.101215 0.332781 0.616236
O O16 0.023894 0.504139 0.724923
O O17 0.644406 0.521443 0.029375
#
# Coordination Sequence:
#
# PCOD9162593 Si02
#       8
#     4   4   4   4   4   4   2   4
#     4   9  22  47  65  90 127 158 197 252 316 367
#     4  10  23  40  57  81 124 172 211 253 298 352
#     4  10  20  35  57  88 117 159 202 247 305 356
#     4  10  21  35  56  83 121 156 199 254 303 352
#     4  12  23  36  62  98 123 152 203 251 309 367
#     4  11  24  42  65  95 125 159 203 255 309 377
#     4  10  22  40  68  94 120 156 198 254 312 372
#     4  12  23  38  59  91 122 163 208 253 299 365
#
# _framework density 19.438955
#
# number of rings (size 3 to 8) (size 9 to 14) (size 15 to 20)
#    0.400    1.067    4.667    0.400    1.867    3.200 
#    0.000    0.667    0.000    0.000    0.000    0.000 
#    0.000    0.000    0.000    0.000    0.000    0.000 
#
# Total GULP energy -167053.074871 kJ/mol
# GULP energy per Si atom -5568.435829 kJ/mol
# Density = 1.939471 g / cm^3
# Si number density = 19.438955 Si / 1000 Ang^3
#
#
#
# Elastic Constant Matrix: (Units=GPa)
#
#
# Indices 1 2 3 4 5 6 
#
# 1 23.7926 10.3729 -1.1147 0.0000 6.7215 0.0000
# 2 10.3729 55.0833 3.1444 0.0000 12.9699 0.0000
# 3 -1.1147 3.1444 86.9275 0.0000 16.6889 0.0000
# 4 0.0000 0.0000 0.0000 -1.9581 0.0000 -37.4700
# 5 6.7215 12.9699 16.6889 0.0000 26.7241 0.0000
# 6 0.0000 0.0000 0.0000 -37.4700 0.0000 -108.8597
#
#
#
# Elastic Compliance Matrix: (Units=1/GPa)
#
#
# Indices 1 2 3 4 5 6 
#
# 1 0.048104 -0.006716 0.002905 0.000000 -0.010654 0.000000
# 2 -0.006716 0.021570 0.000931 0.000000 -0.009361 0.000000
# 3 0.002905 0.000931 0.013333 0.000000 -0.009509 0.000000
# 4 0.000000 0.000000 0.000000 0.091413 0.000000 -0.031465
# 5 -0.010654 -0.009361 -0.009509 0.000000 0.050580 0.000000
# 6 0.000000 0.000000 0.000000 -0.031465 0.000000 0.001644
#
#
# Mechanical properties :
#
#
# Convention : Reuss Voigt Hill
#
# Bulk Modulus (GPa) = 12.94558 21.17873 17.06215
# Shear Modulus (GPa) = 19.36835 -6.59202 6.38817
#
# Velocity S-wave (km/s) = 3.15995 -1.84350 1.81477
# Velocity P-wave (km/s) = 4.47077 2.52731 3.63147
#
# Compressibility (1/GPa) = 0.07724647
#
# Stress axis : x y z
#
# Youngs Moduli (GPa) = 20.78843 46.36082 75.00215
#
# Poissons Ratio (x) = 0.31135 -0.21789
# Poissons Ratio (y) = 0.13961 -0.06981
# Poissons Ratio (z) = -0.06039 -0.04315
#
# Static dielectric constant tensor:
#      x y z
#    x 1.664450 0.000000 0.005710 
#    y 0.000000 1.707670 0.000000 
#    z 0.005710 0.000000 1.691110 
# 
# From -- ./inp_files/52476.got.cif
#   From: 2010.05.17/outbox.cif.g08.bks.cpg/sg11_27_cif.got.tgz:52476.got - 2010.06.03 12:22:45.
