data_PCOD9162588
_publ_section_title
;
Structure prediction by ZEFSAII (Michael W. Deem and Ramdas Pophale) SiO2 
 PCOD9162588
Probable space group: P 21/M
;
_chemical_formula_sum "Si O2"
_cell_formula_units_Z 28
_cell_length_a 15.457860
_cell_length_b 9.022221
_cell_length_c 20.981992
_cell_angle_alpha 90.000000
_cell_angle_beta 27.707111
_cell_angle_gamma 90.000000
_cell_volume 1360.559695
_symmetry_space_group_name_H-M "P 21/M"
_symmetry_group_IT_number 11
_symmetry_cell_setting 'monoclinic'
loop_
_space_group_symop_operation_xyz
x,y,z
-x,1/2+y,-z
-x,-y,-z
x,1/2-y,z
loop_
_atom_site_type_symbol
_atom_site_label
_atom_site_fract_x
_atom_site_fract_y
_atom_site_fract_z
Si Si1 0.222435 0.080355 0.895550
Si Si2 0.829869 0.575408 0.575338
Si Si3 0.125713 0.420470 0.824813
Si Si4 0.103599 0.929861 0.602220
Si Si5 0.517361 0.919429 0.154709
Si Si6 0.318225 0.073667 0.086546
Si Si7 0.315680 0.924915 0.591802
O O1 0.145421 0.250000 0.949119
O O2 0.268133 0.058126 0.791304
O O3 0.385370 0.073708 0.840110
O O4 0.071737 0.960432 0.015483
O O5 0.853597 0.750000 0.554866
O O6 0.649226 0.534244 0.734378
O O7 0.000000 0.500000 0.500000
O O8 0.822345 0.502480 0.510484
O O9 0.136038 0.250000 0.797069
O O10 0.161424 0.531449 0.744462
O O11 0.106828 0.750000 0.594938
O O12 0.886910 0.974758 0.756164
O O13 0.234482 0.972444 0.576481
O O14 0.447454 0.750000 0.191288
O O15 0.658596 0.949304 0.004748
O O16 0.328591 0.250000 0.091522
O O17 0.500000 0.000000 0.000000
O O18 0.346298 0.750000 0.569114
O O19 0.500000 0.000000 0.500000
#
# Coordination Sequence:
#
# PCOD9162588 Si02
#       7
#     4   4   4   4   4   4   4
#     4   9  19  36  59  85 116 157 200 249 308 365
#     4  12  26  43  64  93 127 165 210 259 316 378
#     4  10  20  35  57  87 121 157 202 252 305 361
#     4  10  23  44  67  91 126 171 213 258 317 381
#     4  10  21  39  63  89 120 159 206 254 311 373
#     4  10  21  38  63  92 120 156 203 254 313 378
#     4  11  24  41  62  87 123 167 213 261 314 376
#
# _framework density 20.579764999999998
#
# number of rings (size 3 to 8) (size 9 to 14) (size 15 to 20)
#    0.000    1.714    0.000    3.857    2.000    8.000 
#    0.000    1.429    0.000    0.000    0.000    0.000 
#    0.000    0.000    0.000    0.000    0.000    0.000 
#
# Total GULP energy -156375.112730 kJ/mol
# GULP energy per Si atom -5584.825455 kJ/mol
# Density = 2.053292 g / cm^3
# Si number density = 20.579765 Si / 1000 Ang^3
#
#
#
# Elastic Constant Matrix: (Units=GPa)
#
#
# Indices 1 2 3 4 5 6 
#
# 1 79.5837 27.4767 -3.3268 0.0000 1.9246 0.0000
# 2 27.4767 38.6703 15.4562 0.0000 -3.4267 0.0000
# 3 -3.3268 15.4562 54.1858 0.0000 0.8057 0.0000
# 4 0.0000 0.0000 0.0000 34.5797 0.0000 -0.7173
# 5 1.9246 -3.4267 0.8057 0.0000 30.0558 0.0000
# 6 0.0000 0.0000 0.0000 -0.7173 0.0000 27.2892
#
#
#
# Elastic Compliance Matrix: (Units=1/GPa)
#
#
# Indices 1 2 3 4 5 6 
#
# 1 0.018198 -0.015427 0.005563 0.000000 -0.003073 0.000000
# 2 -0.015427 0.042648 -0.013205 0.000000 0.006204 0.000000
# 3 0.005563 -0.013205 0.022600 0.000000 -0.002468 0.000000
# 4 0.000000 0.000000 0.000000 0.028934 0.000000 0.000761
# 5 -0.003073 0.006204 -0.002468 0.000000 0.034242 0.000000
# 6 0.000000 0.000000 0.000000 0.000761 0.000000 0.036664
#
#
# Mechanical properties :
#
#
# Convention : Reuss Voigt Hill
#
# Bulk Modulus (GPa) = 26.80180 27.96132 27.38156
# Shear Modulus (GPa) = 20.67314 27.24052 23.95683
#
# Velocity S-wave (km/s) = 3.17288 3.64215 3.41559
# Velocity P-wave (km/s) = 5.14534 5.59494 5.37484
#
# Compressibility (1/GPa) = 0.03731092
#
# Stress axis : x y z
#
# Youngs Moduli (GPa) = 54.95001 23.44757 44.24817
#
# Poissons Ratio (x) = 0.36172 -0.24617
# Poissons Ratio (y) = 0.84769 0.58428
# Poissons Ratio (z) = -0.30570 0.30961
#
# Static dielectric constant tensor:
#      x y z
#    x 1.769200 0.000000 -0.011350 
#    y 0.000000 1.697640 0.000000 
#    z -0.011350 0.000000 1.769370 
# 
# From -- ./inp_files/65388.got.cif
#   From: 2010.05.17/outbox.cif.g08.bks.cpg/sg11_33_cif.got.tgz:65388.got - 2010.06.03 12:22:45.
