data_PCOD9162058
_publ_section_title
;
Structure prediction by ZEFSAII (Michael W. Deem and Ramdas Pophale) SiO2 
 PCOD9162058
Probable space group: P 21/M
;
_chemical_formula_sum "Si O2"
_cell_formula_units_Z 32
_cell_length_a 19.758456
_cell_length_b 9.175581
_cell_length_c 11.331967
_cell_angle_alpha 90.000000
_cell_angle_beta 57.032549
_cell_angle_gamma 90.000000
_cell_volume 1723.627448
_symmetry_space_group_name_H-M "P 21/M"
_symmetry_group_IT_number 11
_symmetry_cell_setting 'monoclinic'
loop_
_space_group_symop_operation_xyz
x,y,z
-x,1/2+y,-z
-x,-y,-z
x,1/2-y,z
loop_
_atom_site_type_symbol
_atom_site_label
_atom_site_fract_x
_atom_site_fract_y
_atom_site_fract_z
Si Si1 0.616795 0.922497 0.317680
Si Si2 0.167888 0.419814 0.618611
Si Si3 0.766363 0.423276 0.073417
Si Si4 0.238783 0.575440 0.195343
Si Si5 0.469158 0.423410 0.351172
Si Si6 0.917030 0.921276 0.548890
Si Si7 0.086358 0.576564 0.913478
Si Si8 0.326841 0.425133 0.318111
O O1 0.620869 0.750000 0.298919
O O2 0.582959 0.952473 0.480886
O O3 0.552112 0.991259 0.288749
O O4 0.703173 0.992721 0.214314
O O5 0.171557 0.250000 0.653099
O O6 0.105881 0.430548 0.567792
O O7 0.136830 0.518902 0.753535
O O8 0.255067 0.458516 0.480223
O O9 0.755129 0.250000 0.100566
O O10 0.749165 0.457942 0.953610
O O11 0.857630 0.456945 0.026210
O O12 0.234355 0.750000 0.213557
O O13 0.155457 0.501276 0.314858
O O14 0.305944 0.508827 0.218320
O O15 0.485421 0.250000 0.332203
O O16 0.412477 0.461680 0.294910
O O17 0.919628 0.750000 0.577067
O O18 0.000000 0.000000 0.500000
O O19 0.075451 0.750000 0.916888
O O20 0.000000 0.500000 0.000000
O O21 0.322596 0.250000 0.303006
#
# Coordination Sequence:
#
# PCOD9162058 Si02
#       8
#     4   4   4   4   4   4   4   4
#     4  10  20  34  57  88 114 145 187 226 270 329
#     4   9  19  36  55  78 110 140 174 224 276 324
#     4  10  23  41  57  76 112 152 183 225 282 332
#     4  10  21  37  56  79 108 146 188 229 279 332
#     4   9  18  34  57  85 119 148 178 225 281 330
#     4  10  21  36  56  80 107 139 180 230 279 327
#     4  11  24  39  56  80 108 143 185 227 276 333
#     4   9  18  35  58  83 111 146 183 226 278 326
#
# _framework density 18.565497000000001
#
# number of rings (size 3 to 8) (size 9 to 14) (size 15 to 20)
#    0.000    2.250    0.000    3.000    1.750    6.500 
#    0.000    0.625    0.000    0.000    0.000    0.000 
#    0.000    0.000    0.000    0.000    0.000    0.000 
#
# Total GULP energy -178668.232510 kJ/mol
# GULP energy per Si atom -5583.382266 kJ/mol
# Density = 1.852324 g / cm^3
# Si number density = 18.565497 Si / 1000 Ang^3
#
#
#
# Elastic Constant Matrix: (Units=GPa)
#
#
# Indices 1 2 3 4 5 6 
#
# 1 105.1503 41.2146 19.3382 0.0000 -11.7566 0.0000
# 2 41.2146 46.6990 28.6597 0.0000 1.3234 0.0000
# 3 19.3382 28.6597 36.5064 0.0000 2.8513 0.0000
# 4 0.0000 0.0000 0.0000 30.2047 0.0000 -2.0938
# 5 -11.7566 1.3234 2.8513 0.0000 17.7538 0.0000
# 6 0.0000 0.0000 0.0000 -2.0938 0.0000 33.6313
#
#
#
# Elastic Compliance Matrix: (Units=1/GPa)
#
#
# Indices 1 2 3 4 5 6 
#
# 1 0.017159 -0.018004 0.004104 0.000000 0.012046 0.000000
# 2 -0.018004 0.060295 -0.036980 0.000000 -0.010477 0.000000
# 3 0.004104 -0.036980 0.054506 0.000000 -0.003280 0.000000
# 4 0.000000 0.000000 0.000000 0.033251 0.000000 0.002070
# 5 0.012046 -0.010477 -0.003280 0.000000 0.065611 0.000000
# 6 0.000000 0.000000 0.000000 0.002070 0.000000 0.029863
#
#
# Mechanical properties :
#
#
# Convention : Reuss Voigt Hill
#
# Bulk Modulus (GPa) = 33.11212 40.75340 36.93276
# Shear Modulus (GPa) = 13.42247 22.92751 18.17499
#
# Velocity S-wave (km/s) = 2.69174 3.51800 3.13224
# Velocity P-wave (km/s) = 5.24735 6.20488 5.74610
#
# Compressibility (1/GPa) = 0.03020043
#
# Stress axis : x y z
#
# Youngs Moduli (GPa) = 58.27856 16.58526 18.34662
#
# Poissons Ratio (x) = 0.29859 -0.07529
# Poissons Ratio (y) = 1.04922 0.67845
# Poissons Ratio (z) = -0.23915 0.61332
#
# Static dielectric constant tensor:
#      x y z
#    x 1.654020 0.000000 0.011770 
#    y 0.000000 1.616010 0.000000 
#    z 0.011770 0.000000 1.615930 
# 
# From -- ./inp_files/42803.got.cif
#   From: 2010.05.17/outbox.cif.g08.bks.cpg/sg11_22_cif.got.tgz:42803.got - 2010.06.03 12:22:45.
