data_PCOD9162610
_publ_section_title
;
Structure prediction by ZEFSAII (Michael W. Deem and Ramdas Pophale) SiO2 
 PCOD9162610
Probable space group: P 21/M
;
_chemical_formula_sum "Si O2"
_cell_formula_units_Z 32
_cell_length_a 16.307374
_cell_length_b 16.907304
_cell_length_c 10.929256
_cell_angle_alpha 90.000000
_cell_angle_beta 31.768636
_cell_angle_gamma 90.000000
_cell_volume 1586.497950
_symmetry_space_group_name_H-M "P 21/M"
_symmetry_group_IT_number 11
_symmetry_cell_setting 'monoclinic'
loop_
_space_group_symop_operation_xyz
x,y,z
-x,1/2+y,-z
-x,-y,-z
x,1/2-y,z
loop_
_atom_site_type_symbol
_atom_site_label
_atom_site_fract_x
_atom_site_fract_y
_atom_site_fract_z
Si Si1 0.406310 0.339670 0.307704
Si Si2 0.026493 0.656822 0.366194
Si Si3 0.185038 0.950130 0.730113
Si Si4 0.680276 0.615144 0.858114
Si Si5 0.514603 0.160968 0.661580
Si Si6 0.690085 0.454007 0.966874
Si Si7 0.923078 0.900871 0.231788
Si Si8 0.659657 0.541412 0.256748
O O1 0.458596 0.250000 0.261301
O O2 0.376818 0.355654 0.201126
O O3 0.237872 0.353938 0.581648
O O4 0.535174 0.402465 0.184609
O O5 0.059627 0.750000 0.331365
O O6 0.861594 0.638313 0.639172
O O7 0.000270 0.631499 0.257836
O O8 0.166779 0.604177 0.239669
O O9 0.337440 0.897706 0.516164
O O10 0.128283 0.006205 0.691998
O O11 0.224770 0.016476 0.783204
O O12 0.049167 0.898315 0.963471
O O13 0.667027 0.520550 0.892955
O O14 0.578246 0.654062 0.093743
O O15 0.564678 0.250000 0.573649
O O16 0.396046 0.129056 0.707647
O O17 0.718165 0.502489 0.056374
O O18 0.500000 0.500000 0.500000
#
# Coordination Sequence:
#
# PCOD9162610 Si02
#       8
#     4   4   4   4   4   4   4   4
#     4  11  22  37  58  88 119 148 190 248 297 333
#     4  11  22  38  59  90 119 145 191 248 299 336
#     4  10  20  37  58  82 114 152 200 229 284 347
#     4  10  21  38  59  80 117 154 193 232 289 353
#     4  10  20  35  58  84 112 151 193 237 288 341
#     4  11  21  37  59  88 112 154 198 231 287 359
#     4  10  20  37  59  81 112 154 185 235 288 345
#     4   9  18  35  53  81 113 147 184 233 276 340
#
# _framework density 20.170211999999999
#
# number of rings (size 3 to 8) (size 9 to 14) (size 15 to 20)
#    0.000    1.750    1.250    5.625    0.000    2.000 
#    0.000    4.375    0.000    0.750    0.000    0.000 
#    0.000    0.000    0.000    0.000    0.000    0.000 
#
# Total GULP energy -178614.244955 kJ/mol
# GULP energy per Si atom -5581.695155 kJ/mol
# Density = 2.012430 g / cm^3
# Si number density = 20.170212 Si / 1000 Ang^3
#
#
#
# Elastic Constant Matrix: (Units=GPa)
#
#
# Indices 1 2 3 4 5 6 
#
# 1 23.6243 6.9273 0.3170 0.0000 -2.7117 0.0000
# 2 6.9273 120.2409 10.5236 0.0000 0.2132 0.0000
# 3 0.3170 10.5236 75.6935 0.0000 -2.0092 0.0000
# 4 0.0000 0.0000 0.0000 20.2439 0.0000 -0.0265
# 5 -2.7117 0.2132 -2.0092 0.0000 27.0740 0.0000
# 6 0.0000 0.0000 0.0000 -0.0265 0.0000 14.8553
#
#
#
# Elastic Compliance Matrix: (Units=1/GPa)
#
#
# Indices 1 2 3 4 5 6 
#
# 1 0.043577 -0.002544 0.000288 0.000000 0.004406 0.000000
# 2 -0.002544 0.008568 -0.001191 0.000000 -0.000411 0.000000
# 3 0.000288 -0.001191 0.013403 0.000000 0.001033 0.000000
# 4 0.000000 0.000000 0.000000 0.049398 0.000000 0.000088
# 5 0.004406 -0.000411 0.001033 0.000000 0.037457 0.000000
# 6 0.000000 0.000000 0.000000 0.000088 0.000000 0.067316
#
#
# Mechanical properties :
#
#
# Convention : Reuss Voigt Hill
#
# Bulk Modulus (GPa) = 17.04905 28.34383 22.69644
# Shear Modulus (GPa) = 20.31161 25.88735 23.09948
#
# Velocity S-wave (km/s) = 3.17679 3.58641 3.38779
# Velocity P-wave (km/s) = 4.68262 5.58861 5.15555
#
# Compressibility (1/GPa) = 0.05865430
#
# Stress axis : x y z
#
# Youngs Moduli (GPa) = 22.94788 116.71084 74.60996
#
# Poissons Ratio (x) = 0.29686 -0.02149
# Poissons Ratio (y) = 0.05837 0.08890
# Poissons Ratio (z) = -0.00661 0.13906
#
# Static dielectric constant tensor:
#      x y z
#    x 1.755850 0.000000 -0.001260 
#    y 0.000000 1.722920 0.000000 
#    z -0.001260 0.000000 1.711680 
# 
# From -- ./inp_files/41637.got.cif
#   From: 2010.05.17/outbox.cif.g08.bks.cpg/sg11_21_cif.got.tgz:41637.got - 2010.06.03 12:22:45.
