data_PCOD9162159
_publ_section_title
;
Structure prediction by ZEFSAII (Michael W. Deem and Ramdas Pophale) SiO2 
 PCOD9162159
Probable space group: P 21/M
;
_chemical_formula_sum "Si O2"
_cell_formula_units_Z 24
_cell_length_a 21.804740
_cell_length_b 7.621463
_cell_length_c 10.917897
_cell_angle_alpha 90.000000
_cell_angle_beta 146.210486
_cell_angle_gamma 90.000000
_cell_volume 1009.055688
_symmetry_space_group_name_H-M "P 21/M"
_symmetry_group_IT_number 11
_symmetry_cell_setting 'monoclinic'
loop_
_space_group_symop_operation_xyz
x,y,z
-x,1/2+y,-z
-x,-y,-z
x,1/2-y,z
loop_
_atom_site_type_symbol
_atom_site_label
_atom_site_fract_x
_atom_site_fract_y
_atom_site_fract_z
Si Si1 0.375731 0.945009 0.771708
Si Si2 0.346689 0.454208 0.986385
Si Si3 0.771434 0.965867 0.960521
Si Si4 0.562351 0.958291 0.476206
Si Si5 0.973319 0.951928 0.159334
Si Si6 0.836364 0.033564 0.691631
O O1 0.382507 0.750000 0.735800
O O2 0.287724 0.033513 0.536062
O O3 0.324214 0.950534 0.822339
O O4 0.500000 0.000000 0.000000
O O5 0.321592 0.250000 0.927095
O O6 0.278383 0.519174 0.990984
O O7 0.477376 0.468807 0.235721
O O8 0.769783 0.750000 0.956484
O O9 0.685319 0.023727 0.711103
O O10 0.894581 0.027771 0.134112
O O11 0.566517 0.750000 0.464410
O O12 0.500000 0.000000 0.500000
O O13 0.994307 0.750000 0.227270
O O14 0.087961 0.024407 0.298516
O O15 0.894658 0.961275 0.908816
O O16 0.840540 0.250000 0.703735
#
# Coordination Sequence:
#
# PCOD9162159 Si02
#       6
#     4   4   4   4   4   4
#     4  11  24  40  56  77 108 146 185 224 272 328
#     4  10  20  35  52  76 109 143 181 224 270 324
#     4   8  16  30  52  80 106 137 176 216 265 321
#     4   9  16  28  46  73 107 142 178 216 261 313
#     4   9  17  34  60  83 107 140 176 219 271 324
#     4   9  20  37  55  80 110 139 178 227 271 316
#
# _framework density 23.784611000000002
#
# number of rings (size 3 to 8) (size 9 to 14) (size 15 to 20)
#    0.000    2.667    0.000    2.500    2.333    1.333 
#    0.000    5.000    0.000    0.000    0.000    0.000 
#    0.000    0.000    0.000    0.000    0.000    0.000 
#
# Total GULP energy -133889.120163 kJ/mol
# GULP energy per Si atom -5578.713340 kJ/mol
# Density = 2.373048 g / cm^3
# Si number density = 23.784611 Si / 1000 Ang^3
#
#
#
# Elastic Constant Matrix: (Units=GPa)
#
#
# Indices 1 2 3 4 5 6 
#
# 1 92.6679 -0.9693 5.8230 0.0000 12.5247 0.0000
# 2 -0.9693 58.2789 -5.9492 0.0000 5.7467 0.0000
# 3 5.8230 -5.9492 74.4155 0.0000 11.3535 0.0000
# 4 0.0000 0.0000 0.0000 12.5865 0.0000 -3.2757
# 5 12.5247 5.7467 11.3535 0.0000 38.9992 0.0000
# 6 0.0000 0.0000 0.0000 -3.2757 0.0000 18.4186
#
#
#
# Elastic Compliance Matrix: (Units=1/GPa)
#
#
# Indices 1 2 3 4 5 6 
#
# 1 0.011304 0.000515 -0.000291 0.000000 -0.003622 0.000000
# 2 0.000515 0.017687 0.001880 0.000000 -0.003319 0.000000
# 3 -0.000291 0.001880 0.014273 0.000000 -0.004339 0.000000
# 4 0.000000 0.000000 0.000000 0.083306 0.000000 0.014816
# 5 -0.003622 -0.003319 -0.004339 0.000000 0.028557 0.000000
# 6 0.000000 0.000000 0.000000 0.014816 0.000000 0.056928
#
#
# Mechanical properties :
#
#
# Convention : Reuss Voigt Hill
#
# Bulk Modulus (GPa) = 21.06437 24.79680 22.93059
# Shear Modulus (GPa) = 22.35433 29.09804 25.72619
#
# Velocity S-wave (km/s) = 3.06905 3.50150 3.29238
# Velocity P-wave (km/s) = 4.62972 5.17644 4.91070
#
# Compressibility (1/GPa) = 0.04747352
#
# Stress axis : x y z
#
# Youngs Moduli (GPa) = 88.46119 56.53981 70.06196
#
# Poissons Ratio (x) = -0.02914 0.02037
# Poissons Ratio (y) = -0.04560 -0.13172
# Poissons Ratio (z) = 0.02572 -0.10630
#
# Static dielectric constant tensor:
#      x y z
#    x 1.954240 0.000000 0.055760 
#    y 0.000000 1.870700 0.000000 
#    z 0.055760 0.000000 1.944920 
# 
# From -- ./inp_files/43870.got.cif
#   From: 2010.05.17/outbox.cif.g08.bks.cpg/sg11_22_cif.got.tgz:43870.got - 2010.06.03 12:22:45.
