data_PCOD9162131
_publ_section_title
;
Structure prediction by ZEFSAII (Michael W. Deem and Ramdas Pophale) SiO2 
 PCOD9162131
Probable space group: P 21/M
;
_chemical_formula_sum "Si O2"
_cell_formula_units_Z 24
_cell_length_a 10.188104
_cell_length_b 18.602192
_cell_length_c 5.073165
_cell_angle_alpha 90.000000
_cell_angle_beta 90.951804
_cell_angle_gamma 90.000000
_cell_volume 961.338981
_symmetry_space_group_name_H-M "P 21/M"
_symmetry_group_IT_number 11
_symmetry_cell_setting 'monoclinic'
loop_
_space_group_symop_operation_xyz
x,y,z
-x,1/2+y,-z
-x,-y,-z
x,1/2-y,z
loop_
_atom_site_type_symbol
_atom_site_label
_atom_site_fract_x
_atom_site_fract_y
_atom_site_fract_z
Si Si1 0.178145 0.985604 0.149595
Si Si2 0.006062 0.750000 0.643128
Si Si3 0.989638 0.101745 0.238023
Si Si4 0.445906 0.336448 0.406036
Si Si5 0.279687 0.875225 0.462438
Si Si6 0.394720 0.435799 0.921461
Si Si7 0.180470 0.750000 0.142114
O O1 0.252723 0.024546 0.912760
O O2 0.091735 0.040786 0.310050
O O3 0.293418 0.951771 0.326582
O O4 0.075692 0.925963 0.036504
O O5 0.936663 0.677460 0.731925
O O6 0.054954 0.750000 0.341922
O O7 0.133585 0.750000 0.842925
O O8 0.860789 0.115204 0.406278
O O9 0.418716 0.250000 0.431046
O O10 0.602562 0.347380 0.360604
O O11 0.383165 0.378357 0.159800
O O12 0.421626 0.386043 0.665911
O O13 0.264413 0.818123 0.227755
O O14 0.500000 0.500000 0.000000
#
# Coordination Sequence:
#
# PCOD9162131 Si02
#       7
#     4   2   4   4   4   4   2
#     4  11  23  41  68  95 139 178 222 283 343 411
#     4  10  20  40  58  90 132 166 216 266 331 405
#     4  10  23  40  65 100 134 174 224 280 347 411
#     4  12  27  47  73 101 141 186 238 293 347 414
#     4  11  21  39  68  99 130 171 226 286 343 395
#     4  12  26  47  72 105 139 187 237 291 349 417
#     4  10  20  34  62  94 124 164 210 282 327 383
#
# _framework density 24.965181000000001
#
# number of rings (size 3 to 8) (size 9 to 14) (size 15 to 20)
#    0.000    1.000    4.167    2.500    2.333    0.000 
#    3.000    0.000    0.000    0.000    0.000    0.000 
#    0.000    0.000    0.000    0.000    0.000    0.000 
#
# Total GULP energy -133963.912613 kJ/mol
# GULP energy per Si atom -5581.829692 kJ/mol
# Density = 2.490836 g / cm^3
# Si number density = 24.965181 Si / 1000 Ang^3
#
#
#
# Elastic Constant Matrix: (Units=GPa)
#
#
# Indices 1 2 3 4 5 6 
#
# 1 43.4298 24.7019 9.7702 0.0000 -15.6927 0.0000
# 2 24.7019 178.7360 50.1552 0.0000 -17.4232 0.0000
# 3 9.7702 50.1552 111.2919 0.0000 -10.7918 0.0000
# 4 0.0000 0.0000 0.0000 39.9554 0.0000 -4.1839
# 5 -15.6927 -17.4232 -10.7918 0.0000 27.5840 0.0000
# 6 0.0000 0.0000 0.0000 -4.1839 0.0000 19.4311
#
#
#
# Elastic Compliance Matrix: (Units=1/GPa)
#
#
# Indices 1 2 3 4 5 6 
#
# 1 0.030123 -0.002672 0.000060 0.000000 0.015473 0.000000
# 2 -0.002672 0.006895 -0.002700 0.000000 0.001779 0.000000
# 3 0.000060 -0.002700 0.010431 0.000000 0.002409 0.000000
# 4 0.000000 0.000000 0.000000 0.025605 0.000000 0.005513
# 5 0.015473 0.001779 0.002409 0.000000 0.047122 0.000000
# 6 0.000000 0.000000 0.000000 0.005513 0.000000 0.052651
#
#
# Mechanical properties :
#
#
# Convention : Reuss Voigt Hill
#
# Bulk Modulus (GPa) = 27.15582 55.85692 41.50637
# Shear Modulus (GPa) = 25.54600 33.98280 29.76440
#
# Velocity S-wave (km/s) = 3.20232 3.69346 3.45662
# Velocity P-wave (km/s) = 4.95724 6.37270 5.70901
#
# Compressibility (1/GPa) = 0.03682452
#
# Stress axis : x y z
#
# Youngs Moduli (GPa) = 33.19760 145.02765 95.87073
#
# Poissons Ratio (x) = 0.38745 -0.00574
# Poissons Ratio (y) = 0.08869 0.25889
# Poissons Ratio (z) = -0.00199 0.39163
#
# Static dielectric constant tensor:
#      x y z
#    x 1.987920 0.000000 -0.003160 
#    y 0.000000 2.144880 0.000000 
#    z -0.003160 0.000000 2.031070 
# 
# From -- ./inp_files/4644.got.cif
#   From: 2010.05.17/outbox.cif.g08.bks.cpg/sg11_3_cif.got.tgz:4644.got - 2010.06.03 12:22:45.
