data_PCOD9162665
_publ_section_title
;
Structure prediction by ZEFSAII (Michael W. Deem and Ramdas Pophale) SiO2 
 PCOD9162665
Probable space group: P 21/M
;
_chemical_formula_sum "Si O2"
_cell_formula_units_Z 24
_cell_length_a 15.220341
_cell_length_b 12.031456
_cell_length_c 14.907154
_cell_angle_alpha 90.000000
_cell_angle_beta 27.418797
_cell_angle_gamma 90.000000
_cell_volume 1257.067152
_symmetry_space_group_name_H-M "P 21/M"
_symmetry_group_IT_number 11
_symmetry_cell_setting 'monoclinic'
loop_
_space_group_symop_operation_xyz
x,y,z
-x,1/2+y,-z
-x,-y,-z
x,1/2-y,z
loop_
_atom_site_type_symbol
_atom_site_label
_atom_site_fract_x
_atom_site_fract_y
_atom_site_fract_z
Si Si1 0.044330 0.624258 0.224360
Si Si2 0.460870 0.123055 0.929141
Si Si3 0.185850 0.954601 0.282382
Si Si4 0.668374 0.965474 0.141184
Si Si5 0.890772 0.622376 0.099039
Si Si6 0.652136 0.877459 0.498356
O O1 0.064997 0.750000 0.172017
O O2 0.115732 0.617223 0.261370
O O3 0.821714 0.595528 0.415098
O O4 0.170743 0.543574 0.049379
O O5 0.406410 0.250000 0.988074
O O6 0.671949 0.104645 0.777326
O O7 0.440968 0.088257 0.843700
O O8 0.314080 0.050661 0.120777
O O9 0.000000 0.000000 0.500000
O O10 0.771139 0.882215 0.115624
O O11 0.522017 0.040534 0.329897
O O12 0.981306 0.750000 0.021649
O O13 0.752187 0.616012 0.310795
O O14 0.000000 0.500000 0.000000
O O15 0.590702 0.750000 0.569284
#
# Coordination Sequence:
#
# PCOD9162665 Si02
#       6
#     4   4   4   4   4   4
#     4  10  20  35  58  87 118 155 200 248 295 353
#     4  10  22  38  57  85 119 153 196 246 300 359
#     4  10  21  38  59  83 116 156 198 244 299 359
#     4  11  21  38  61  84 122 157 197 244 306 355
#     4  11  23  41  64  90 124 160 204 252 305 367
#     4  10  21  37  60  90 119 156 203 251 298 358
#
# _framework density 19.092058999999999
#
# number of rings (size 3 to 8) (size 9 to 14) (size 15 to 20)
#    0.000    1.667    1.667    3.000    0.000    2.000 
#    0.000    5.833    0.000    0.000    0.000    0.000 
#    0.000    0.000    0.000    0.000    0.000    0.000 
#
# Total GULP energy -133835.456862 kJ/mol
# GULP energy per Si atom -5576.477369 kJ/mol
# Density = 1.904860 g / cm^3
# Si number density = 19.092059 Si / 1000 Ang^3
#
#
#
# Elastic Constant Matrix: (Units=GPa)
#
#
# Indices 1 2 3 4 5 6 
#
# 1 107.1936 24.0467 16.5791 0.0000 5.1152 0.0000
# 2 24.0467 103.6633 19.3646 0.0000 -3.0933 0.0000
# 3 16.5791 19.3646 45.2093 0.0000 -1.4154 0.0000
# 4 0.0000 0.0000 0.0000 14.0719 0.0000 -6.1783
# 5 5.1152 -3.0933 -1.4154 0.0000 16.8301 0.0000
# 6 0.0000 0.0000 0.0000 -6.1783 0.0000 25.3284
#
#
#
# Elastic Compliance Matrix: (Units=1/GPa)
#
#
# Indices 1 2 3 4 5 6 
#
# 1 0.010428 -0.001952 -0.003107 0.000000 -0.003789 0.000000
# 2 -0.001952 0.010892 -0.003878 0.000000 0.002269 0.000000
# 3 -0.003107 -0.003878 0.024993 0.000000 0.002333 0.000000
# 4 0.000000 0.000000 0.000000 0.079587 0.000000 0.019413
# 5 -0.003789 0.002269 0.002333 0.000000 0.061182 0.000000
# 6 0.000000 0.000000 0.000000 0.019413 0.000000 0.044217
#
#
# Mechanical properties :
#
#
# Convention : Reuss Voigt Hill
#
# Bulk Modulus (GPa) = 35.16340 41.78300 38.47320
# Shear Modulus (GPa) = 19.33095 24.31780 21.82438
#
# Velocity S-wave (km/s) = 3.18545 3.57278 3.38466
# Velocity P-wave (km/s) = 5.65573 6.24117 5.95565
#
# Compressibility (1/GPa) = 0.02843866
#
# Stress axis : x y z
#
# Youngs Moduli (GPa) = 95.89482 91.81433 40.01122
#
# Poissons Ratio (x) = 0.17919 0.12431
# Poissons Ratio (y) = 0.18716 0.15518
# Poissons Ratio (z) = 0.29793 0.35610
#
# Static dielectric constant tensor:
#      x y z
#    x 1.709220 0.000000 -0.021410 
#    y 0.000000 1.670640 0.000000 
#    z -0.021410 0.000000 1.617430 
# 
# From -- ./inp_files/52200.got.cif
#   From: 2010.05.17/outbox.cif.g08.bks.cpg/sg11_27_cif.got.tgz:52200.got - 2010.06.03 12:22:45.
