data_PCOD9162513
_publ_section_title
;
Structure prediction by ZEFSAII (Michael W. Deem and Ramdas Pophale) SiO2 
 PCOD9162513
Probable space group: P 21/M
;
_chemical_formula_sum "Si O2"
_cell_formula_units_Z 24
_cell_length_a 19.001931
_cell_length_b 7.498818
_cell_length_c 6.671696
_cell_angle_alpha 90.000000
_cell_angle_beta 111.093296
_cell_angle_gamma 90.000000
_cell_volume 886.964868
_symmetry_space_group_name_H-M "P 21/M"
_symmetry_group_IT_number 11
_symmetry_cell_setting 'monoclinic'
loop_
_space_group_symop_operation_xyz
x,y,z
-x,1/2+y,-z
-x,-y,-z
x,1/2-y,z
loop_
_atom_site_type_symbol
_atom_site_label
_atom_site_fract_x
_atom_site_fract_y
_atom_site_fract_z
Si Si1 0.178328 0.961204 0.041983
Si Si2 0.660983 0.031681 0.682720
Si Si3 0.980286 0.035977 0.214312
Si Si4 0.860232 0.535132 0.531242
Si Si5 0.555243 0.057573 0.880491
Si Si6 0.301379 0.040515 0.738120
O O1 0.180496 0.750000 0.008018
O O2 0.263495 0.032170 0.122367
O O3 0.158203 0.987178 0.256597
O O4 0.105118 0.037168 0.850257
O O5 0.660227 0.250000 0.684928
O O6 0.672814 0.976754 0.466924
O O7 0.583820 0.964444 0.706339
O O8 0.978167 0.250000 0.233546
O O9 0.054027 0.966340 0.409066
O O10 0.000000 0.000000 0.000000
O O11 0.860907 0.750000 0.519687
O O12 0.785222 0.472697 0.338008
O O13 0.526280 0.250000 0.790406
O O14 0.636284 0.062770 0.074081
O O15 0.500000 0.000000 0.000000
O O16 0.304157 0.250000 0.788887
#
# Coordination Sequence:
#
# PCOD9162513 Si02
#       6
#     4   4   4   4   4   4
#     4   8  13  23  42  68  97 131 171 211 251 295
#     4   9  19  36  57  81 108 140 178 219 264 313
#     4   8  12  19  35  62  96 131 167 207 246 288
#     4   8  14  24  40  67 101 135 170 206 248 297
#     4  11  24  41  60  81 106 136 173 219 269 323
#     4  10  20  35  57  83 111 143 177 215 261 314
#
# _framework density 27.058567
#
# number of rings (size 3 to 8) (size 9 to 14) (size 15 to 20)
#    0.000    3.000    0.000    1.000    0.000    2.667 
#    0.000    0.000    0.000    1.000    0.000    0.000 
#    0.000    0.000    0.000    0.000    0.000    1.667 
#
# Total GULP energy -134103.878748 kJ/mol
# GULP energy per Si atom -5587.661615 kJ/mol
# Density = 2.699698 g / cm^3
# Si number density = 27.058567 Si / 1000 Ang^3
#
#
#
# Elastic Constant Matrix: (Units=GPa)
#
#
# Indices 1 2 3 4 5 6 
#
# 1 216.0552 16.5716 -9.1709 0.0000 -8.7095 0.0000
# 2 16.5716 128.3133 9.3229 0.0000 -8.3030 0.0000
# 3 -9.1709 9.3229 86.1668 0.0000 10.5256 0.0000
# 4 0.0000 0.0000 0.0000 28.6358 0.0000 -11.9392
# 5 -8.7095 -8.3030 10.5256 0.0000 38.4258 0.0000
# 6 0.0000 0.0000 0.0000 -11.9392 0.0000 23.0859
#
#
#
# Elastic Compliance Matrix: (Units=1/GPa)
#
#
# Indices 1 2 3 4 5 6 
#
# 1 0.004727 -0.000592 0.000467 0.000000 0.000815 0.000000
# 2 -0.000592 0.008080 -0.001173 0.000000 0.001933 0.000000
# 3 0.000467 -0.001173 0.012209 0.000000 -0.003492 0.000000
# 4 0.000000 0.000000 0.000000 0.044521 0.000000 0.023025
# 5 0.000815 0.001933 -0.003492 0.000000 0.027583 0.000000
# 6 0.000000 0.000000 0.000000 0.023025 0.000000 0.055224
#
#
# Mechanical properties :
#
#
# Convention : Reuss Voigt Hill
#
# Bulk Modulus (GPa) = 44.60247 51.55361 48.07804
# Shear Modulus (GPa) = 30.78589 45.61694 38.20142
#
# Velocity S-wave (km/s) = 3.37671 4.11038 3.76148
# Velocity P-wave (km/s) = 5.63226 6.45143 6.05571
#
# Compressibility (1/GPa) = 0.02242028
#
# Stress axis : x y z
#
# Youngs Moduli (GPa) = 211.57134 123.75949 81.90918
#
# Poissons Ratio (x) = 0.07322 -0.03829
# Poissons Ratio (y) = 0.12517 0.09611
# Poissons Ratio (z) = -0.09890 0.14522
#
# Static dielectric constant tensor:
#      x y z
#    x 2.217880 0.000000 -0.077130 
#    y 0.000000 1.990710 0.000000 
#    z -0.077130 0.000000 2.228740 
# 
# From -- ./inp_files/25606.got.cif
#   From: 2010.05.17/outbox.cif.g08.bks.cpg/sg11_13_cif.got.tgz:25606.got - 2010.06.03 12:22:45.
