data_PCOD9162564
_publ_section_title
;
Structure prediction by ZEFSAII (Michael W. Deem and Ramdas Pophale) SiO2 
 PCOD9162564
Probable space group: P 21/M
;
_chemical_formula_sum "Si O2"
_cell_formula_units_Z 20
_cell_length_a 5.223677
_cell_length_b 9.057523
_cell_length_c 22.045476
_cell_angle_alpha 90.000000
_cell_angle_beta 120.896843
_cell_angle_gamma 90.000000
_cell_volume 895.034347
_symmetry_space_group_name_H-M "P 21/M"
_symmetry_group_IT_number 11
_symmetry_cell_setting 'monoclinic'
loop_
_space_group_symop_operation_xyz
x,y,z
-x,1/2+y,-z
-x,-y,-z
x,1/2-y,z
loop_
_atom_site_type_symbol
_atom_site_label
_atom_site_fract_x
_atom_site_fract_y
_atom_site_fract_z
Si Si1 0.696578 0.905609 0.111921
Si Si2 0.372893 0.074422 0.760824
Si Si3 0.719470 0.929654 0.693356
Si Si4 0.125871 0.596250 0.962217
Si Si5 0.668205 0.568817 0.462170
O O1 0.868522 0.750000 0.138972
O O2 0.543216 0.932695 0.157432
O O3 0.882587 0.036967 0.106646
O O4 0.460271 0.885511 0.029113
O O5 0.348190 0.250000 0.742482
O O6 0.590683 0.992175 0.741130
O O7 0.050121 0.994110 0.721157
O O8 0.715067 0.750000 0.690436
O O9 0.507464 0.004280 0.617069
O O10 0.959893 0.750000 0.943965
O O11 0.000000 0.500000 0.000000
O O12 0.500000 0.500000 0.500000
O O13 0.671773 0.750000 0.463760
O O14 0.000000 0.500000 0.500000
#
# Coordination Sequence:
#
# PCOD9162564 Si02
#       5
#     4   4   4   4   4
#     4   9  21  39  58  82 115 159 209 260 319 384
#     4  11  24  44  68  94 130 178 224 270 329 396
#     4  12  26  45  67 100 138 174 219 272 325 387
#     4  10  20  35  57  85 116 153 202 262 320 382
#     4  12  25  45  72 103 137 177 220 268 324 383
#
# _framework density 22.345511999999999
#
# number of rings (size 3 to 8) (size 9 to 14) (size 15 to 20)
#    0.000    1.200    0.000    6.000    2.800    2.400 
#    0.000    0.000    0.000    0.000    0.000    0.000 
#    0.000    0.000    0.000    0.000    0.000    0.000 
#
# Total GULP energy -111584.792515 kJ/mol
# GULP energy per Si atom -5579.239626 kJ/mol
# Density = 2.229465 g / cm^3
# Si number density = 22.345512 Si / 1000 Ang^3
#
#
#
# Elastic Constant Matrix: (Units=GPa)
#
#
# Indices 1 2 3 4 5 6 
#
# 1 105.3936 62.6910 34.4302 0.0000 -4.0592 0.0000
# 2 62.6910 219.1434 42.3988 0.0000 -22.8573 0.0000
# 3 34.4302 42.3988 123.0681 0.0000 -12.7350 0.0000
# 4 0.0000 0.0000 0.0000 30.2287 0.0000 -10.3341
# 5 -4.0592 -22.8573 -12.7350 0.0000 42.7705 0.0000
# 6 0.0000 0.0000 0.0000 -10.3341 0.0000 39.1221
#
#
#
# Elastic Compliance Matrix: (Units=1/GPa)
#
#
# Indices 1 2 3 4 5 6 
#
# 1 0.012091 -0.003117 -0.002437 0.000000 -0.001244 0.000000
# 2 -0.003117 0.005898 -0.000892 0.000000 0.002590 0.000000
# 3 -0.002437 -0.000892 0.009329 0.000000 0.002070 0.000000
# 4 0.000000 0.000000 0.000000 0.036365 0.000000 0.009606
# 5 -0.001244 0.002590 0.002070 0.000000 0.025263 0.000000
# 6 0.000000 0.000000 0.000000 0.009606 0.000000 0.028098
#
#
# Mechanical properties :
#
#
# Convention : Reuss Voigt Hill
#
# Bulk Modulus (GPa) = 69.32471 80.73834 75.03153
# Shear Modulus (GPa) = 37.10730 42.96327 40.03528
#
# Velocity S-wave (km/s) = 4.07949 4.38959 4.23738
# Velocity P-wave (km/s) = 7.29938 7.86776 7.58889
#
# Compressibility (1/GPa) = 0.01442487
#
# Stress axis : x y z
#
# Youngs Moduli (GPa) = 82.70846 169.55965 107.19386
#
# Poissons Ratio (x) = 0.52852 0.26128
# Poissons Ratio (y) = 0.25780 0.09559
# Poissons Ratio (z) = 0.20160 0.15120
#
# Static dielectric constant tensor:
#      x y z
#    x 1.843990 0.000000 0.077660 
#    y 0.000000 1.887360 0.000000 
#    z 0.077660 0.000000 1.840530 
# 
# From -- ./inp_files/8508.got.cif
#   From: 2010.05.17/outbox.cif.g08.bks.cpg/sg11_5_cif.got.tgz:8508.got - 2010.06.03 12:22:45.
