data_PCOD9162400
_publ_section_title
;
Structure prediction by ZEFSAII (Michael W. Deem and Ramdas Pophale) SiO2 
 PCOD9162400
Probable space group: P 21/M
;
_chemical_formula_sum "Si O2"
_cell_formula_units_Z 32
_cell_length_a 12.741681
_cell_length_b 8.430260
_cell_length_c 15.350536
_cell_angle_alpha 90.000000
_cell_angle_beta 91.739439
_cell_angle_gamma 90.000000
_cell_volume 1648.128516
_symmetry_space_group_name_H-M "P 21/M"
_symmetry_group_IT_number 11
_symmetry_cell_setting 'monoclinic'
loop_
_space_group_symop_operation_xyz
x,y,z
-x,1/2+y,-z
-x,-y,-z
x,1/2-y,z
loop_
_atom_site_type_symbol
_atom_site_label
_atom_site_fract_x
_atom_site_fract_y
_atom_site_fract_z
Si Si1 0.532434 0.437776 0.095977
Si Si2 0.377837 0.056071 0.244956
Si Si3 0.399924 0.060310 0.443919
Si Si4 0.809735 0.943000 0.876744
Si Si5 0.827518 0.060716 0.513637
Si Si6 0.987825 0.058816 0.367491
Si Si7 0.040979 0.941923 0.834277
Si Si8 0.752120 0.938495 0.067628
O O1 0.518045 0.250000 0.093298
O O2 0.461376 0.497770 0.174135
O O3 0.653808 0.480590 0.111316
O O4 0.500000 0.500000 0.000000
O O5 0.379642 0.250000 0.246676
O O6 0.400564 0.001720 0.343364
O O7 0.263789 0.007945 0.205261
O O8 0.404361 0.250000 0.442356
O O9 0.500000 0.000000 0.500000
O O10 0.288252 0.010048 0.481732
O O11 0.811013 0.750000 0.876608
O O12 0.929795 0.994319 0.871742
O O13 0.759690 0.992732 0.967118
O O14 0.818496 0.250000 0.510589
O O15 0.894613 0.008075 0.430504
O O16 0.902506 0.010961 0.595630
O O17 0.996728 0.250000 0.372916
O O18 0.962774 0.017184 0.267884
O O19 0.048898 0.750000 0.842034
O O20 0.139068 0.019284 0.884050
O O21 0.735371 0.750000 0.067184
#
# Coordination Sequence:
#
# PCOD9162400 Si02
#       8
#     4   4   4   4   4   4   4   4
#     4  11  21  38  62  85 111 145 190 236 281 338
#     4   9  19  37  62  85 108 148 193 231 282 345
#     4  11  23  40  61  84 115 153 193 239 290 347
#     4   9  17  33  57  81 108 143 187 232 274 329
#     4  10  20  36  59  86 115 145 187 240 290 341
#     4   9  19  36  59  84 112 151 193 232 282 346
#     4  10  20  35  56  81 111 149 195 231 272 338
#     4  11  22  36  54  80 117 151 185 233 286 332
#
# _framework density 19.415962
#
# number of rings (size 3 to 8) (size 9 to 14) (size 15 to 20)
#    0.000    2.000    1.250    2.625    0.000    4.000 
#    0.000    8.125    0.000    0.000    0.000    0.000 
#    0.000    0.000    0.000    0.000    0.000    0.000 
#
# Total GULP energy -178712.440551 kJ/mol
# GULP energy per Si atom -5584.763767 kJ/mol
# Density = 1.937177 g / cm^3
# Si number density = 19.415962 Si / 1000 Ang^3
#
#
#
# Elastic Constant Matrix: (Units=GPa)
#
#
# Indices 1 2 3 4 5 6 
#
# 1 142.3511 11.9589 24.7586 0.0000 2.1748 0.0000
# 2 11.9589 19.3292 8.3687 0.0000 -0.3973 0.0000
# 3 24.7586 8.3687 22.7471 0.0000 4.2932 0.0000
# 4 0.0000 0.0000 0.0000 21.8355 0.0000 3.8873
# 5 2.1748 -0.3973 4.2932 0.0000 27.9782 0.0000
# 6 0.0000 0.0000 0.0000 3.8873 0.0000 33.0046
#
#
#
# Elastic Compliance Matrix: (Units=1/GPa)
#
#
# Indices 1 2 3 4 5 6 
#
# 1 0.008716 -0.001444 -0.009087 0.000000 0.000696 0.000000
# 2 -0.001444 0.062326 -0.022189 0.000000 0.004402 0.000000
# 3 -0.009087 -0.022189 0.063789 0.000000 -0.009397 0.000000
# 4 0.000000 0.000000 0.000000 0.046778 0.000000 -0.005509
# 5 0.000696 0.004402 -0.009397 0.000000 0.037192 0.000000
# 6 0.000000 0.000000 0.000000 -0.005509 0.000000 0.030948
#
#
# Mechanical properties :
#
#
# Convention : Reuss Voigt Hill
#
# Bulk Modulus (GPa) = 14.41103 30.51108 22.46105
# Shear Modulus (GPa) = 14.77896 25.85309 20.31603
#
# Velocity S-wave (km/s) = 2.76193 3.65298 3.23825
# Velocity P-wave (km/s) = 4.19636 5.79145 5.05719
#
# Compressibility (1/GPa) = 0.06939130
#
# Stress axis : x y z
#
# Youngs Moduli (GPa) = 114.73133 16.04473 15.67666
#
# Poissons Ratio (x) = 0.02317 0.14245
# Poissons Ratio (y) = 0.16567 0.34785
# Poissons Ratio (z) = 1.04256 0.35601
#
# Static dielectric constant tensor:
#      x y z
#    x 1.664010 0.000000 -0.016110 
#    y 0.000000 1.678070 0.000000 
#    z -0.016110 0.000000 1.677270 
# 
# From -- ./inp_files/49334.got.cif
#   From: 2010.05.17/outbox.cif.g08.bks.cpg/sg11_25_cif.got.tgz:49334.got - 2010.06.03 12:22:45.
