data_PCOD9162947
_publ_section_title
;
Structure prediction by ZEFSAII (Michael W. Deem and Ramdas Pophale) SiO2 
 PCOD9162947
Probable space group: P 21/M
;
_chemical_formula_sum "Si O2"
_cell_formula_units_Z 32
_cell_length_a 15.715602
_cell_length_b 8.266454
_cell_length_c 23.866045
_cell_angle_alpha 90.000000
_cell_angle_beta 148.624225
_cell_angle_gamma 90.000000
_cell_volume 1614.267554
_symmetry_space_group_name_H-M "P 21/M"
_symmetry_group_IT_number 11
_symmetry_cell_setting 'monoclinic'
loop_
_space_group_symop_operation_xyz
x,y,z
-x,1/2+y,-z
-x,-y,-z
x,1/2-y,z
loop_
_atom_site_type_symbol
_atom_site_label
_atom_site_fract_x
_atom_site_fract_y
_atom_site_fract_z
Si Si1 0.047237 0.554127 0.253963
Si Si2 0.425775 0.942690 0.615912
Si Si3 0.934495 0.555993 0.608614
Si Si4 0.139647 0.555164 0.621181
Si Si5 0.926378 0.428657 0.903668
Si Si6 0.218737 0.067212 0.979293
Si Si7 0.496359 0.948661 0.779859
Si Si8 0.321332 0.945902 0.321872
O O1 0.043213 0.750000 0.246838
O O2 0.048136 0.505567 0.318610
O O3 0.215243 0.501536 0.316212
O O4 0.882333 0.492581 0.129577
O O5 0.436738 0.750000 0.621215
O O6 0.508981 0.000230 0.721499
O O7 0.236887 0.993057 0.512146
O O8 0.499914 0.004590 0.598316
O O9 0.929592 0.750000 0.606311
O O10 0.080574 0.502711 0.649577
O O11 0.144119 0.750000 0.623052
O O12 0.318366 0.501248 0.702141
O O13 0.000000 0.500000 0.500000
O O14 0.865454 0.250000 0.883232
O O15 0.783708 0.514731 0.789706
O O16 0.000000 0.500000 0.000000
O O17 0.073285 0.417622 0.942427
O O18 0.271357 0.250000 0.992074
O O19 0.366979 0.993503 0.098773
O O20 0.507368 0.750000 0.785330
O O21 0.317264 0.750000 0.320696
#
# Coordination Sequence:
#
# PCOD9162947 Si02
#       8
#     4   4   4   4   4   4   4   4
#     4   9  19  37  58  76 102 145 188 219 254 311
#     4  11  21  33  55  83 108 139 181 224 266 322
#     4  11  23  37  55  78 108 143 176 222 275 316
#     4  10  20  36  57  81 109 140 172 214 269 323
#     4   9  16  27  45  70 102 138 175 215 261 312
#     4   8  15  30  52  76 102 136 176 216 257 306
#     4   9  17  31  54  83 110 135 172 219 265 318
#     4   9  19  34  50  73 107 143 178 221 270 313
#
# _framework density 19.823232999999998
#
# number of rings (size 3 to 8) (size 9 to 14) (size 15 to 20)
#    0.000    2.500    1.250    3.000    0.000    3.000 
#    0.000    2.500    0.000    2.250    0.000    0.000 
#    0.000    0.000    0.000    0.000    0.000    0.000 
#
# Total GULP energy -178180.494494 kJ/mol
# GULP energy per Si atom -5568.140453 kJ/mol
# Density = 1.977811 g / cm^3
# Si number density = 19.823233 Si / 1000 Ang^3
#
#
#
# Elastic Constant Matrix: (Units=GPa)
#
#
# Indices 1 2 3 4 5 6 
#
# 1 134.0403 12.8450 38.5366 0.0000 -5.3465 0.0000
# 2 12.8450 11.5832 2.4748 0.0000 -3.3757 0.0000
# 3 38.5366 2.4748 66.7738 0.0000 7.1577 0.0000
# 4 0.0000 0.0000 0.0000 11.2844 0.0000 1.2532
# 5 -5.3465 -3.3757 7.1577 0.0000 29.4582 0.0000
# 6 0.0000 0.0000 0.0000 1.2532 0.0000 16.8730
#
#
#
# Elastic Compliance Matrix: (Units=1/GPa)
#
#
# Indices 1 2 3 4 5 6 
#
# 1 0.010080 -0.009334 -0.005701 0.000000 0.002145 0.000000
# 2 -0.009334 0.099311 0.000686 0.000000 0.009520 0.000000
# 3 -0.005701 0.000686 0.018834 0.000000 -0.005532 0.000000
# 4 0.000000 0.000000 0.000000 0.089355 0.000000 -0.006637
# 5 0.002145 0.009520 -0.005532 0.000000 0.036771 0.000000
# 6 0.000000 0.000000 0.000000 -0.006637 0.000000 0.059759
#
#
# Mechanical properties :
#
#
# Convention : Reuss Voigt Hill
#
# Bulk Modulus (GPa) = 10.04773 35.56782 22.80777
# Shear Modulus (GPa) = 13.29848 22.09253 17.69550
#
# Velocity S-wave (km/s) = 2.59289 3.34200 2.99099
# Velocity P-wave (km/s) = 3.74750 5.73353 4.84341
#
# Compressibility (1/GPa) = 0.09952500
#
# Stress axis : x y z
#
# Youngs Moduli (GPa) = 99.21050 10.06939 53.09614
#
# Poissons Ratio (x) = 0.09399 0.30271
# Poissons Ratio (y) = 0.92607 -0.03642
# Poissons Ratio (z) = 0.56561 -0.00691
#
# Static dielectric constant tensor:
#      x y z
#    x 1.588650 0.000000 0.068730 
#    y 0.000000 1.709260 0.000000 
#    z 0.068730 0.000000 1.717210 
# 
# From -- ./inp_files/69139.got.cif
#   From: 2010.05.17/outbox.cif.g08.bks.cpg/sg11_35_cif.got.tgz:69139.got - 2010.06.03 12:22:45.
