data_PCOD9162072
_publ_section_title
;
Structure prediction by ZEFSAII (Michael W. Deem and Ramdas Pophale) SiO2 
 PCOD9162072
Probable space group: P 21/M
;
_chemical_formula_sum "Si O2"
_cell_formula_units_Z 28
_cell_length_a 15.732186
_cell_length_b 7.979632
_cell_length_c 21.487097
_cell_angle_alpha 90.000000
_cell_angle_beta 27.115360
_cell_angle_gamma 90.000000
_cell_volume 1229.442773
_symmetry_space_group_name_H-M "P 21/M"
_symmetry_group_IT_number 11
_symmetry_cell_setting 'monoclinic'
loop_
_space_group_symop_operation_xyz
x,y,z
-x,1/2+y,-z
-x,-y,-z
x,1/2-y,z
loop_
_atom_site_type_symbol
_atom_site_label
_atom_site_fract_x
_atom_site_fract_y
_atom_site_fract_z
Si Si1 0.806820 0.047285 0.091409
Si Si2 0.303454 0.554119 0.601205
Si Si3 0.075026 0.558017 0.119081
Si Si4 0.190417 0.451748 0.411670
Si Si5 0.650146 0.944614 0.813569
Si Si6 0.741301 0.947051 0.880627
Si Si7 0.391395 0.454017 0.404717
O O1 0.802265 0.250000 0.092580
O O2 0.608125 0.994088 0.250531
O O3 0.827163 0.988110 0.006296
O O4 0.000000 0.000000 0.000000
O O5 0.500000 0.500000 0.500000
O O6 0.269960 0.750000 0.633483
O O7 0.146468 0.454255 0.741451
O O8 0.313869 0.516445 0.520919
O O9 0.136055 0.750000 0.086383
O O10 0.112646 0.469706 0.160181
O O11 0.189879 0.250000 0.418669
O O12 0.336756 0.514359 0.263940
O O13 0.258312 0.513420 0.434590
O O14 0.000000 0.500000 0.500000
O O15 0.699497 0.750000 0.774224
O O16 0.778786 0.012808 0.786185
O O17 0.443107 0.963411 0.973927
O O18 0.700022 0.750000 0.901655
O O19 0.390888 0.250000 0.406774
#
# Coordination Sequence:
#
# PCOD9162072 Si02
#       7
#     4   4   4   4   4   4   4
#     4  10  22  40  65  93 123 158 203 255 314 379
#     4  12  26  44  65  92 126 164 209 260 315 377
#     4  11  23  40  63  91 124 160 201 250 310 371
#     4  10  22  39  60  86 121 165 213 260 309 367
#     4   9  19  37  57  81 119 159 198 248 303 354
#     4  10  20  34  57  89 119 153 199 248 298 357
#     4  10  22  42  65  92 127 170 212 257 318 382
#
# _framework density 22.774546000000001
#
# number of rings (size 3 to 8) (size 9 to 14) (size 15 to 20)
#    0.000    1.714    0.000    3.857    2.000    8.000 
#    0.000    1.429    0.000    0.000    0.000    0.000 
#    0.000    0.000    0.000    0.000    0.000    0.000 
#
# Total GULP energy -156258.643824 kJ/mol
# GULP energy per Si atom -5580.665851 kJ/mol
# Density = 2.272271 g / cm^3
# Si number density = 22.774546 Si / 1000 Ang^3
#
#
#
# Elastic Constant Matrix: (Units=GPa)
#
#
# Indices 1 2 3 4 5 6 
#
# 1 100.8095 9.7623 4.5516 0.0000 10.5284 0.0000
# 2 9.7623 36.9528 -6.7011 0.0000 8.6523 0.0000
# 3 4.5516 -6.7011 66.6118 0.0000 7.6917 0.0000
# 4 0.0000 0.0000 0.0000 21.0533 0.0000 -6.5073
# 5 10.5284 8.6523 7.6917 0.0000 38.4333 0.0000
# 6 0.0000 0.0000 0.0000 -6.5073 0.0000 32.8131
#
#
#
# Elastic Compliance Matrix: (Units=1/GPa)
#
#
# Indices 1 2 3 4 5 6 
#
# 1 0.010408 -0.002366 -0.000698 0.000000 -0.002179 0.000000
# 2 -0.002366 0.030026 0.003980 0.000000 -0.006908 0.000000
# 3 -0.000698 0.003980 0.015909 0.000000 -0.003889 0.000000
# 4 0.000000 0.000000 0.000000 0.050600 0.000000 0.010035
# 5 -0.002179 -0.006908 -0.003889 0.000000 0.028949 0.000000
# 6 0.000000 0.000000 0.000000 0.010035 0.000000 0.032466
#
#
# Mechanical properties :
#
#
# Convention : Reuss Voigt Hill
#
# Bulk Modulus (GPa) = 17.18926 24.39996 20.79461
# Shear Modulus (GPa) = 26.89368 31.57738 29.23553
#
# Velocity S-wave (km/s) = 3.44010 3.72764 3.58675
# Velocity P-wave (km/s) = 4.83146 5.40962 5.12870
#
# Compressibility (1/GPa) = 0.05817586
#
# Stress axis : x y z
#
# Youngs Moduli (GPa) = 96.08116 33.30478 62.85576
#
# Poissons Ratio (x) = 0.07880 0.04385
# Poissons Ratio (y) = 0.22732 -0.25016
# Poissons Ratio (z) = 0.06703 -0.13255
#
# Static dielectric constant tensor:
#      x y z
#    x 1.927070 0.000000 -0.020070 
#    y 0.000000 1.777590 0.000000 
#    z -0.020070 0.000000 1.886430 
# 
# From -- ./inp_files/65348.got.cif
#   From: 2010.05.17/outbox.cif.g08.bks.cpg/sg11_33_cif.got.tgz:65348.got - 2010.06.03 12:22:45.
