data_PCOD9162834
_publ_section_title
;
Structure prediction by ZEFSAII (Michael W. Deem and Ramdas Pophale) SiO2 
 PCOD9162834
Probable space group: P 21/M
;
_chemical_formula_sum "Si O2"
_cell_formula_units_Z 32
_cell_length_a 17.082573
_cell_length_b 20.635953
_cell_length_c 10.358068
_cell_angle_alpha 90.000000
_cell_angle_beta 26.248256
_cell_angle_gamma 90.000000
_cell_volume 1614.862688
_symmetry_space_group_name_H-M "P 21/M"
_symmetry_group_IT_number 11
_symmetry_cell_setting 'monoclinic'
loop_
_space_group_symop_operation_xyz
x,y,z
-x,1/2+y,-z
-x,-y,-z
x,1/2-y,z
loop_
_atom_site_type_symbol
_atom_site_label
_atom_site_fract_x
_atom_site_fract_y
_atom_site_fract_z
Si Si1 0.309726 0.135326 0.856168
Si Si2 0.582175 0.674580 0.766160
Si Si3 0.820652 0.500386 0.844205
Si Si4 0.113880 0.324877 0.889862
Si Si5 0.554273 0.679560 0.089611
Si Si6 0.223281 0.583198 0.596696
Si Si7 0.357548 0.945057 0.669438
Si Si8 0.638883 0.046775 0.864224
O O1 0.208827 0.167410 0.887837
O O2 0.321163 0.174259 0.971873
O O3 0.515495 0.117919 0.518908
O O4 0.213017 0.068649 0.037448
O O5 0.522951 0.750000 0.831037
O O6 0.735424 0.659419 0.438338
O O7 0.653996 0.672176 0.806715
O O8 0.433714 0.618263 0.988779
O O9 0.682191 0.487737 0.934442
O O10 0.000000 0.500000 0.500000
O O11 0.789759 0.447252 0.001369
O O12 0.058959 0.250000 0.952908
O O13 0.948599 0.373140 0.125379
O O14 0.466794 0.750000 0.217732
O O15 0.399843 0.627020 0.323572
O O16 0.268485 0.543192 0.660790
O O17 0.212150 0.552228 0.469402
O O18 0.500000 0.000000 0.500000
O O19 0.500000 0.000000 0.000000
#
# Coordination Sequence:
#
# PCOD9162834 Si02
#       8
#     4   4   4   4   4   4   4   4
#     4  10  20  36  55  79 109 147 188 230 283 344
#     4   9  20  37  59  85 117 156 199 243 293 356
#     4  11  22  36  53  79 113 143 182 235 291 340
#     4  11  22  37  57  86 119 152 193 244 297 352
#     4   9  17  34  57  78 103 143 187 225 271 337
#     4  10  21  35  56  84 113 144 185 239 294 337
#     4   9  19  37  55  75 108 148 187 229 284 351
#     4  11  21  38  61  86 114 153 199 243 290 355
#
# _framework density 19.815926000000001
#
# number of rings (size 3 to 8) (size 9 to 14) (size 15 to 20)
#    0.000    2.000    0.000    5.250    0.000    3.500 
#    0.000    3.750    0.000    0.750    0.000    7.000 
#    0.000    0.000    0.000    0.000    0.000    0.000 
#
# Total GULP energy -178283.072613 kJ/mol
# GULP energy per Si atom -5571.346019 kJ/mol
# Density = 1.977082 g / cm^3
# Si number density = 19.815926 Si / 1000 Ang^3
#
#
#
# Elastic Constant Matrix: (Units=GPa)
#
#
# Indices 1 2 3 4 5 6 
#
# 1 91.0161 -0.6780 17.9191 0.0000 22.1959 0.0000
# 2 -0.6780 31.8237 5.4734 0.0000 1.7739 0.0000
# 3 17.9191 5.4734 82.0897 0.0000 19.0475 0.0000
# 4 0.0000 0.0000 0.0000 25.0335 0.0000 0.6126
# 5 22.1959 1.7739 19.0475 0.0000 26.2464 0.0000
# 6 0.0000 0.0000 0.0000 0.6126 0.0000 24.9492
#
#
#
# Elastic Compliance Matrix: (Units=1/GPa)
#
#
# Indices 1 2 3 4 5 6 
#
# 1 0.013883 0.001011 -0.000430 0.000000 -0.011496 0.000000
# 2 0.001011 0.031873 -0.001981 0.000000 -0.001571 0.000000
# 3 -0.000430 -0.001981 0.014781 0.000000 -0.010229 0.000000
# 4 0.000000 0.000000 0.000000 0.039970 0.000000 -0.000981
# 5 -0.011496 -0.001571 -0.010229 0.000000 0.055352 0.000000
# 6 0.000000 0.000000 0.000000 -0.000981 0.000000 0.040106
#
#
# Mechanical properties :
#
#
# Convention : Reuss Voigt Hill
#
# Bulk Modulus (GPa) = 17.32038 27.81761 22.56899
# Shear Modulus (GPa) = 22.93445 27.39350 25.16397
#
# Velocity S-wave (km/s) = 3.40571 3.72210 3.56741
# Velocity P-wave (km/s) = 4.92187 5.70443 5.32753
#
# Compressibility (1/GPa) = 0.05773546
#
# Stress axis : x y z
#
# Youngs Moduli (GPa) = 72.03091 31.37453 67.65277
#
# Poissons Ratio (x) = -0.03171 0.02911
# Poissons Ratio (y) = -0.07280 0.13404
# Poissons Ratio (z) = 0.03099 0.06216
#
# Static dielectric constant tensor:
#      x y z
#    x 1.741510 0.000000 0.013600 
#    y 0.000000 1.981070 0.000000 
#    z 0.013600 0.000000 1.727140 
# 
# From -- ./inp_files/23347.got.cif
#   From: 2010.05.17/outbox.cif.g08.bks.cpg/sg11_12_cif.got.tgz:23347.got - 2010.06.03 12:22:45.
