data_PCOD9162956
_publ_section_title
;
Structure prediction by ZEFSAII (Michael W. Deem and Ramdas Pophale) SiO2 
 PCOD9162956
Probable space group: P 21/M
;
_chemical_formula_sum "Si O2"
_cell_formula_units_Z 28
_cell_length_a 22.824420
_cell_length_b 7.672156
_cell_length_c 15.039717
_cell_angle_alpha 90.000000
_cell_angle_beta 29.777955
_cell_angle_gamma 90.000000
_cell_volume 1307.972382
_symmetry_space_group_name_H-M "P 21/M"
_symmetry_group_IT_number 11
_symmetry_cell_setting 'monoclinic'
loop_
_space_group_symop_operation_xyz
x,y,z
-x,1/2+y,-z
-x,-y,-z
x,1/2-y,z
loop_
_atom_site_type_symbol
_atom_site_label
_atom_site_fract_x
_atom_site_fract_y
_atom_site_fract_z
Si Si1 0.773834 0.951260 0.011171
Si Si2 0.883996 0.962291 0.043604
Si Si3 0.996397 0.541842 0.399824
Si Si4 0.380951 0.449310 0.302875
Si Si5 0.732185 0.536079 0.724809
Si Si6 0.849666 0.454329 0.292134
Si Si7 0.625333 0.546649 0.050126
O O1 0.741229 0.750000 0.071668
O O2 0.894979 0.957776 0.794993
O O3 0.804398 0.027409 0.067203
O O4 0.675308 0.030671 0.075786
O O5 0.885484 0.750000 0.041931
O O6 0.843645 0.021773 0.193781
O O7 0.020260 0.019130 0.851533
O O8 0.006261 0.750000 0.376310
O O9 0.000000 0.500000 0.500000
O O10 0.868294 0.485146 0.532677
O O11 0.418658 0.250000 0.241576
O O12 0.351785 0.525054 0.244109
O O13 0.258447 0.455295 0.517109
O O14 0.486330 0.537153 0.217506
O O15 0.729393 0.750000 0.727134
O O16 0.687634 0.474643 0.879485
O O17 0.841941 0.250000 0.323619
O O18 0.660317 0.750000 0.006332
#
# Coordination Sequence:
#
# PCOD9162956 Si02
#       7
#     4   4   4   4   4   4   4
#     4  10  20  36  57  81 112 146 178 219 273 324
#     4   9  19  36  60  87 111 138 175 219 269 327
#     4  11  20  33  53  79 111 144 179 219 267 319
#     4  11  22  36  55  79 107 142 187 229 266 314
#     4   9  19  35  54  77 108 145 181 223 272 316
#     4  10  20  36  58  84 112 140 174 220 274 323
#     4  10  20  37  55  74 109 148 182 221 269 321
#
# _framework density 21.407181000000001
#
# number of rings (size 3 to 8) (size 9 to 14) (size 15 to 20)
#    0.000    2.000    1.429    2.571    0.000    1.714 
#    0.000    3.571    0.000    0.000    0.000    0.000 
#    0.000    0.000    0.000    0.000    0.000    0.000 
#
# Total GULP energy -156424.875728 kJ/mol
# GULP energy per Si atom -5586.602705 kJ/mol
# Density = 2.135846 g / cm^3
# Si number density = 21.407181 Si / 1000 Ang^3
#
#
#
# Elastic Constant Matrix: (Units=GPa)
#
#
# Indices 1 2 3 4 5 6 
#
# 1 179.3889 4.9053 23.3872 0.0000 -22.4148 0.0000
# 2 4.9053 45.6762 -3.2230 0.0000 -5.6388 0.0000
# 3 23.3872 -3.2230 29.0380 0.0000 -12.7938 0.0000
# 4 0.0000 0.0000 0.0000 19.4358 0.0000 1.8269
# 5 -22.4148 -5.6388 -12.7938 0.0000 23.5533 0.0000
# 6 0.0000 0.0000 0.0000 1.8269 0.0000 5.4459
#
#
#
# Elastic Compliance Matrix: (Units=1/GPa)
#
#
# Indices 1 2 3 4 5 6 
#
# 1 0.006571 -0.000422 -0.003455 0.000000 0.004275 0.000000
# 2 -0.000422 0.023536 0.006912 0.000000 0.008988 0.000000
# 3 -0.003455 0.006912 0.048993 0.000000 0.024979 0.000000
# 4 0.000000 0.000000 0.000000 0.053127 0.000000 -0.017822
# 5 0.004275 0.008988 0.024979 0.000000 0.062245 0.000000
# 6 0.000000 0.000000 0.000000 -0.017822 0.000000 0.189602
#
#
# Mechanical properties :
#
#
# Convention : Reuss Voigt Hill
#
# Bulk Modulus (GPa) = 11.74130 33.80467 22.77299
# Shear Modulus (GPa) = 12.30335 24.95591 18.62963
#
# Velocity S-wave (km/s) = 2.39995 3.41805 2.95320
# Velocity P-wave (km/s) = 3.62993 5.60383 4.72119
#
# Compressibility (1/GPa) = 0.08516942
#
# Stress axis : x y z
#
# Youngs Moduli (GPa) = 152.19143 42.48847 20.41107
#
# Poissons Ratio (x) = 0.01792 0.07052
# Poissons Ratio (y) = 0.06417 -0.14108
# Poissons Ratio (z) = 0.52585 -0.29367
#
# Static dielectric constant tensor:
#      x y z
#    x 1.808650 0.000000 -0.014030 
#    y 0.000000 1.802580 0.000000 
#    z -0.014030 0.000000 1.724390 
# 
# From -- ./inp_files/37424.got.cif
#   From: 2010.05.17/outbox.cif.g08.bks.cpg/sg11_19_cif.got.tgz:37424.got - 2010.06.03 12:22:45.
