data_PCOD9162163
_publ_section_title
;
Structure prediction by ZEFSAII (Michael W. Deem and Ramdas Pophale) SiO2 
 PCOD9162163
Probable space group: P 21/M
;
_chemical_formula_sum "Si O2"
_cell_formula_units_Z 32
_cell_length_a 12.862266
_cell_length_b 10.898774
_cell_length_c 11.939818
_cell_angle_alpha 90.000000
_cell_angle_beta 77.573436
_cell_angle_gamma 90.000000
_cell_volume 1634.546886
_symmetry_space_group_name_H-M "P 21/M"
_symmetry_group_IT_number 11
_symmetry_cell_setting 'monoclinic'
loop_
_space_group_symop_operation_xyz
x,y,z
-x,1/2+y,-z
-x,-y,-z
x,1/2-y,z
loop_
_atom_site_type_symbol
_atom_site_label
_atom_site_fract_x
_atom_site_fract_y
_atom_site_fract_z
Si Si1 0.715529 0.897095 0.688422
Si Si2 0.137076 0.108082 0.532467
Si Si3 0.771872 0.033017 0.895231
Si Si4 0.668466 0.612811 0.335635
Si Si5 0.003309 0.894736 0.243176
Si Si6 0.442493 0.616773 0.959028
Si Si7 0.522777 0.107952 0.315235
Si Si8 0.162803 0.107846 0.898995
O O1 0.722557 0.750000 0.691067
O O2 0.813764 0.946785 0.591744
O O3 0.602551 0.923307 0.656232
O O4 0.719875 0.948219 0.811976
O O5 0.109125 0.250000 0.512367
O O6 0.238475 0.108750 0.593291
O O7 0.041740 0.052749 0.628868
O O8 0.677397 0.114781 0.966367
O O9 0.873451 0.093638 0.812465
O O10 0.817320 0.960005 0.990590
O O11 0.618967 0.750000 0.353951
O O12 0.589453 0.497962 0.360862
O O13 0.731965 0.603790 0.203149
O O14 0.975807 0.750000 0.254435
O O15 0.932318 0.944703 0.156397
O O16 0.492273 0.750000 0.975912
O O17 0.500000 0.500000 0.000000
O O18 0.444928 0.605928 0.824044
O O19 0.537765 0.250000 0.350517
O O20 0.139019 0.250000 0.928887
#
# Coordination Sequence:
#
# PCOD9162163 Si02
#       8
#     4   4   4   4   4   4   4   4
#     4  10  21  35  52  76 106 143 183 224 271 325
#     4   8  17  36  57  76 103 138 181 227 272 320
#     4  12  20  32  54  80 107 140 176 220 272 326
#     4   9  17  33  58  82 105 143 187 225 263 318
#     4   9  19  35  53  75 103 135 178 227 273 320
#     4  11  23  37  53  79 116 152 181 216 269 329
#     4  10  20  35  52  80 114 145 177 223 278 322
#     4   9  18  32  52  79 106 135 174 221 270 327
#
# _framework density 19.577290999999999
#
# number of rings (size 3 to 8) (size 9 to 14) (size 15 to 20)
#    0.000    2.250    2.500    2.625    0.000    2.000 
#    0.000    0.000    0.000    4.500    0.000    0.000 
#    0.000    0.000    0.000    0.000    0.000    0.000 
#
# Total GULP energy -178362.851112 kJ/mol
# GULP energy per Si atom -5573.839097 kJ/mol
# Density = 1.953273 g / cm^3
# Si number density = 19.577291 Si / 1000 Ang^3
#
#
#
# Elastic Constant Matrix: (Units=GPa)
#
#
# Indices 1 2 3 4 5 6 
#
# 1 69.3795 30.7006 7.2997 0.0000 -22.2480 0.0000
# 2 30.7006 60.0557 1.1747 0.0000 -5.8748 0.0000
# 3 7.2997 1.1747 87.3015 0.0000 -24.4453 0.0000
# 4 0.0000 0.0000 0.0000 10.7838 0.0000 -5.0669
# 5 -22.2480 -5.8748 -24.4453 0.0000 24.1256 0.0000
# 6 0.0000 0.0000 0.0000 -5.0669 0.0000 24.8404
#
#
#
# Elastic Compliance Matrix: (Units=1/GPa)
#
#
# Indices 1 2 3 4 5 6 
#
# 1 0.028439 -0.011773 0.006033 0.000000 0.029472 0.000000
# 2 -0.011773 0.022038 -0.001186 0.000000 -0.006692 0.000000
# 3 0.006033 -0.001186 0.017372 0.000000 0.022877 0.000000
# 4 0.000000 0.000000 0.000000 0.102561 0.000000 0.020920
# 5 0.029472 -0.006692 0.022877 0.000000 0.090179 0.000000
# 6 0.000000 0.000000 0.000000 0.020920 0.000000 0.044524
#
#
# Mechanical properties :
#
#
# Convention : Reuss Voigt Hill
#
# Bulk Modulus (GPa) = 18.51958 32.78739 25.65349
# Shear Modulus (GPa) = 14.83834 23.78740 19.31287
#
# Velocity S-wave (km/s) = 2.75605 3.48954 3.14426
# Velocity P-wave (km/s) = 4.42809 5.74629 5.12971
#
# Compressibility (1/GPa) = 0.05399691
#
# Stress axis : x y z
#
# Youngs Moduli (GPa) = 35.16264 45.37575 57.56454
#
# Poissons Ratio (x) = 0.53422 -0.34729
# Poissons Ratio (y) = 0.41398 0.06827
# Poissons Ratio (z) = -0.21214 0.05382
#
# Static dielectric constant tensor:
#      x y z
#    x 1.691730 0.000000 -0.027750 
#    y 0.000000 1.676360 0.000000 
#    z -0.027750 0.000000 1.719780 
# 
# From -- ./inp_files/35056.got.cif
#   From: 2010.05.17/outbox.cif.g08.bks.cpg/sg11_18_cif.got.tgz:35056.got - 2010.06.03 12:22:45.
