data_PCOD9162355
_publ_section_title
;
Structure prediction by ZEFSAII (Michael W. Deem and Ramdas Pophale) SiO2 
 PCOD9162355
Probable space group: P 21/M
;
_chemical_formula_sum "Si O2"
_cell_formula_units_Z 28
_cell_length_a 8.594791
_cell_length_b 26.775963
_cell_length_c 8.998496
_cell_angle_alpha 90.000000
_cell_angle_beta 38.826023
_cell_angle_gamma 90.000000
_cell_volume 1298.340476
_symmetry_space_group_name_H-M "P 21/M"
_symmetry_group_IT_number 11
_symmetry_cell_setting 'monoclinic'
loop_
_space_group_symop_operation_xyz
x,y,z
-x,1/2+y,-z
-x,-y,-z
x,1/2-y,z
loop_
_atom_site_type_symbol
_atom_site_label
_atom_site_fract_x
_atom_site_fract_y
_atom_site_fract_z
Si Si1 0.788658 0.858690 0.057710
Si Si2 0.507658 0.883358 0.517210
Si Si3 0.839776 0.750000 0.029474
Si Si4 0.394063 0.691528 0.850098
Si Si5 0.052042 0.888978 0.251616
Si Si6 0.766529 0.250000 0.538494
Si Si7 0.868598 0.052282 0.077086
Si Si8 0.902406 0.839623 0.630544
O O1 0.526618 0.872429 0.328773
O O2 0.860352 0.805461 0.080863
O O3 0.809152 0.850645 0.866795
O O4 0.963448 0.904623 0.971051
O O5 0.390438 0.837078 0.694195
O O6 0.782433 0.885200 0.378543
O O7 0.386092 0.935977 0.649241
O O8 0.534751 0.750000 0.225480
O O9 0.064567 0.750000 0.740197
O O10 0.337014 0.750000 0.881647
O O11 0.668510 0.684081 0.716508
O O12 0.210728 0.659615 0.089644
O O13 0.000710 0.887237 0.464761
O O14 0.170213 0.933996 0.068304
O O15 0.877765 0.299372 0.530260
O O16 0.000000 0.000000 0.000000
#
# Coordination Sequence:
#
# PCOD9162355 Si02
#       8
#     4   4   2   4   4   2   4   4
#     4  10  23  38  60  94 123 170 203 271 322 394
#     4   9  21  40  57  87 117 157 212 259 317 375
#     4  10  24  38  57  94 142 171 215 252 333 399
#     4  10  20  35  55  84 124 170 204 247 305 378
#     4   9  21  36  58  88 120 158 210 262 315 384
#     4  10  22  36  57  90 132 191 205 254 319 403
#     4  10  22  45  68  86 116 166 221 274 337 388
#     4  10  21  35  58  89 131 166 215 251 319 388
#
# _framework density 21.565992000000001
#
# number of rings (size 3 to 8) (size 9 to 14) (size 15 to 20)
#    0.000    2.286    0.714    0.000   10.000    2.857 
#   10.286    0.714    0.000    8.571    0.000    0.000 
#    0.000    0.000    0.000    0.000    0.000    0.000 
#
# Total GULP energy -155973.283012 kJ/mol
# GULP energy per Si atom -5570.474393 kJ/mol
# Density = 2.151691 g / cm^3
# Si number density = 21.565992 Si / 1000 Ang^3
#
#
#
# Elastic Constant Matrix: (Units=GPa)
#
#
# Indices 1 2 3 4 5 6 
#
# 1 56.6194 12.4152 23.1717 0.0000 -0.8008 0.0000
# 2 12.4152 65.2007 -3.9045 0.0000 4.7270 0.0000
# 3 23.1717 -3.9045 99.4419 0.0000 16.3487 0.0000
# 4 0.0000 0.0000 0.0000 13.9696 0.0000 -1.6128
# 5 -0.8008 4.7270 16.3487 0.0000 44.1337 0.0000
# 6 0.0000 0.0000 0.0000 -1.6128 0.0000 21.1137
#
#
#
# Elastic Compliance Matrix: (Units=1/GPa)
#
#
# Indices 1 2 3 4 5 6 
#
# 1 0.020966 -0.004536 -0.005544 0.000000 0.002920 0.000000
# 2 -0.004536 0.016521 0.002140 0.000000 -0.002645 0.000000
# 3 -0.005544 0.002140 0.012231 0.000000 -0.004861 0.000000
# 4 0.000000 0.000000 0.000000 0.072221 0.000000 0.005517
# 5 0.002920 -0.002645 -0.004861 0.000000 0.024795 0.000000
# 6 0.000000 0.000000 0.000000 0.005517 0.000000 0.047784
#
#
# Mechanical properties :
#
#
# Convention : Reuss Voigt Hill
#
# Bulk Modulus (GPa) = 29.55087 31.62520 30.58803
# Shear Modulus (GPa) = 22.55532 28.48204 25.51868
#
# Velocity S-wave (km/s) = 3.23751 3.63808 3.44362
# Velocity P-wave (km/s) = 5.26380 5.68715 5.47956
#
# Compressibility (1/GPa) = 0.03383996
#
# Stress axis : x y z
#
# Youngs Moduli (GPa) = 47.69518 60.52939 81.75908
#
# Poissons Ratio (x) = 0.27456 0.45325
# Poissons Ratio (y) = 0.21635 -0.17500
# Poissons Ratio (z) = 0.26441 -0.12956
#
# Static dielectric constant tensor:
#      x y z
#    x 1.840750 0.000000 -0.006120 
#    y 0.000000 1.761160 0.000000 
#    z -0.006120 0.000000 1.972940 
# 
# From -- ./inp_files/15277.got.cif
#   From: 2010.05.17/outbox.cif.g08.bks.cpg/sg11_8_cif.got.tgz:15277.got - 2010.06.03 12:22:45.
