data_PCOD9162651
_publ_section_title
;
Structure prediction by ZEFSAII (Michael W. Deem and Ramdas Pophale) SiO2 
 PCOD9162651
Probable space group: P 21/M
;
_chemical_formula_sum "Si O2"
_cell_formula_units_Z 28
_cell_length_a 14.948309
_cell_length_b 8.498175
_cell_length_c 13.005915
_cell_angle_alpha 90.000000
_cell_angle_beta 121.700438
_cell_angle_gamma 90.000000
_cell_volume 1405.690629
_symmetry_space_group_name_H-M "P 21/M"
_symmetry_group_IT_number 11
_symmetry_cell_setting 'monoclinic'
loop_
_space_group_symop_operation_xyz
x,y,z
-x,1/2+y,-z
-x,-y,-z
x,1/2-y,z
loop_
_atom_site_type_symbol
_atom_site_label
_atom_site_fract_x
_atom_site_fract_y
_atom_site_fract_z
Si Si1 0.309872 0.440042 0.645445
Si Si2 0.999541 0.939922 0.817313
Si Si3 0.223366 0.059673 0.232446
Si Si4 0.618110 0.940617 0.084492
Si Si5 0.769561 0.939573 0.991799
Si Si6 0.603585 0.436614 0.507061
Si Si7 0.073174 0.439799 0.453538
O O1 0.311439 0.250000 0.644438
O O2 0.338890 0.491320 0.777983
O O3 0.386342 0.500875 0.602898
O O4 0.192393 0.493317 0.544747
O O5 0.007467 0.750000 0.825240
O O6 0.898588 0.985992 0.824685
O O7 0.970602 0.989234 0.683583
O O8 0.110609 0.010331 0.916134
O O9 0.228156 0.250000 0.241877
O O10 0.296182 0.993834 0.366367
O O11 0.260704 0.008758 0.141795
O O12 0.618349 0.750000 0.083093
O O13 0.693051 0.996149 0.036524
O O14 0.500000 0.000000 0.000000
O O15 0.765672 0.750000 0.990007
O O16 0.500000 0.500000 0.500000
O O17 0.600948 0.250000 0.503731
O O18 0.074072 0.250000 0.454907
O O19 0.000000 0.500000 0.500000
#
# Coordination Sequence:
#
# PCOD9162651 Si02
#       7
#     4   4   4   4   4   4   4
#     4  10  21  42  64  86 124 164 202 251 308 361
#     4  10  20  36  59  88 124 162 198 247 304 357
#     4  10  21  41  64  90 127 163 200 248 306 364
#     4  10  23  41  62  89 121 160 205 256 306 358
#     4  10  22  39  62  90 123 163 204 249 300 363
#     4  12  26  42  65  94 123 158 205 256 309 371
#     4  10  20  35  58  86 122 161 202 251 301 358
#
# _framework density 19.919035999999998
#
# number of rings (size 3 to 8) (size 9 to 14) (size 15 to 20)
#    0.000    1.714    1.429    2.571    2.000    4.571 
#    0.000    0.000    0.000    0.000    0.000    0.000 
#    0.000    0.000    0.000    0.000    0.000    0.000 
#
# Total GULP energy -156487.874371 kJ/mol
# GULP energy per Si atom -5588.852656 kJ/mol
# Density = 1.987370 g / cm^3
# Si number density = 19.919036 Si / 1000 Ang^3
#
#
#
# Elastic Constant Matrix: (Units=GPa)
#
#
# Indices 1 2 3 4 5 6 
#
# 1 128.6680 14.1020 32.3782 0.0000 -28.5240 0.0000
# 2 14.1020 7.2665 14.9337 0.0000 -8.7132 0.0000
# 3 32.3782 14.9337 97.5156 0.0000 -29.0009 0.0000
# 4 0.0000 0.0000 0.0000 26.3498 0.0000 5.5082
# 5 -28.5240 -8.7132 -29.0009 0.0000 41.7294 0.0000
# 6 0.0000 0.0000 0.0000 5.5082 0.0000 32.4464
#
#
#
# Elastic Compliance Matrix: (Units=1/GPa)
#
#
# Indices 1 2 3 4 5 6 
#
# 1 0.010311 -0.015613 0.000118 0.000000 0.003871 0.000000
# 2 -0.015613 0.249461 -0.026095 0.000000 0.023280 0.000000
# 3 0.000118 -0.026095 0.015902 0.000000 0.005684 0.000000
# 4 0.000000 0.000000 0.000000 0.039347 0.000000 -0.006680
# 5 0.003871 0.023280 0.005684 0.000000 0.035420 0.000000
# 6 0.000000 0.000000 0.000000 -0.006680 0.000000 0.031954
#
#
# Mechanical properties :
#
#
# Convention : Reuss Voigt Hill
#
# Bulk Modulus (GPa) = 5.19498 39.58643 22.39070
# Shear Modulus (GPa) = 9.43858 31.57422 20.50640
#
# Velocity S-wave (km/s) = 2.17916 3.98569 3.21204
# Velocity P-wave (km/s) = 2.99088 6.41075 5.00216
#
# Compressibility (1/GPa) = 0.19249361
#
# Stress axis : x y z
#
# Youngs Moduli (GPa) = 96.97994 4.00865 62.88503
#
# Poissons Ratio (x) = 0.06259 -0.00745
# Poissons Ratio (y) = 1.51418 1.64100
# Poissons Ratio (z) = -0.01149 0.10461
#
# Static dielectric constant tensor:
#      x y z
#    x 1.683920 0.000000 -0.019200 
#    y 0.000000 1.680670 0.000000 
#    z -0.019200 0.000000 1.689470 
# 
# From -- ./inp_files/38441.got.cif
#   From: 2010.05.17/outbox.cif.g08.bks.cpg/sg11_20_cif.got.tgz:38441.got - 2010.06.03 12:22:45.
