data_PCOD9162952
_publ_section_title
;
Structure prediction by ZEFSAII (Michael W. Deem and Ramdas Pophale) SiO2 
 PCOD9162952
Probable space group: P 21/M
;
_chemical_formula_sum "Si O2"
_cell_formula_units_Z 22
_cell_length_a 10.366529
_cell_length_b 9.227659
_cell_length_c 9.290521
_cell_angle_alpha 90.000000
_cell_angle_beta 87.406227
_cell_angle_gamma 90.000000
_cell_volume 887.809541
_symmetry_space_group_name_H-M "P 21/M"
_symmetry_group_IT_number 11
_symmetry_cell_setting 'monoclinic'
loop_
_space_group_symop_operation_xyz
x,y,z
-x,1/2+y,-z
-x,-y,-z
x,1/2-y,z
loop_
_atom_site_type_symbol
_atom_site_label
_atom_site_fract_x
_atom_site_fract_y
_atom_site_fract_z
Si Si1 0.826344 0.914094 0.535517
Si Si2 0.444948 0.750000 0.501278
Si Si3 0.556388 0.970053 0.695364
Si Si4 0.060644 0.917237 0.211611
Si Si5 0.336871 0.580943 0.034752
Si Si6 0.810475 0.075699 0.234212
O O1 0.879299 0.750000 0.527382
O O2 0.687868 0.903398 0.621297
O O3 0.907217 0.024837 0.629312
O O4 0.804457 0.984213 0.381224
O O5 0.447270 0.873753 0.628771
O O6 0.449408 0.626064 0.376095
O O7 0.574525 0.983878 0.865478
O O8 0.016772 0.750000 0.212373
O O9 0.196937 0.921607 0.123090
O O10 0.949736 0.025134 0.163330
O O11 0.378262 0.750000 0.029840
O O12 0.297128 0.533199 0.877152
O O13 0.812672 0.250000 0.256496
#
# Coordination Sequence:
#
# PCOD9162952 Si02
#       6
#     4   2   4   4   4   4
#     4  11  22  37  55  82 115 146 187 228 270 323
#     4  10  20  36  66  88 106 130 188 228 284 332
#     4  10  20  38  62  90 105 142 176 236 274 333
#     4  10  20  36  57  81 110 151 193 230 262 314
#     4   9  19  36  57  82 115 145 185 226 272 322
#     4  11  22  35  54  80 116 157 183 221 271 323
#
# _framework density 24.780089
#
# number of rings (size 3 to 8) (size 9 to 14) (size 15 to 20)
#    0.000    1.818    1.818    2.727    2.545    0.000 
#    3.273    0.000    0.000    6.545    0.000    0.000 
#    0.000    0.000    0.000    0.000    0.000    0.000 
#
# Total GULP energy -122637.635588 kJ/mol
# GULP energy per Si atom -5574.437981 kJ/mol
# Density = 2.472369 g / cm^3
# Si number density = 24.780089 Si / 1000 Ang^3
#
#
#
# Elastic Constant Matrix: (Units=GPa)
#
#
# Indices 1 2 3 4 5 6 
#
# 1 66.5012 16.2622 -3.4914 0.0000 9.5883 0.0000
# 2 16.2622 171.9765 34.1612 0.0000 22.3128 0.0000
# 3 -3.4914 34.1612 175.7174 0.0000 21.6889 0.0000
# 4 0.0000 0.0000 0.0000 -1.4127 0.0000 -25.8148
# 5 9.5883 22.3128 21.6889 0.0000 38.1930 0.0000
# 6 0.0000 0.0000 0.0000 -25.8148 0.0000 -1.8649
#
#
#
# Elastic Compliance Matrix: (Units=1/GPa)
#
#
# Indices 1 2 3 4 5 6 
#
# 1 0.015947 -0.001209 0.001031 0.000000 -0.003883 0.000000
# 2 -0.001209 0.006497 -0.000921 0.000000 -0.002969 0.000000
# 3 0.001031 -0.000921 0.006297 0.000000 -0.003297 0.000000
# 4 0.000000 0.000000 0.000000 0.002810 0.000000 -0.038891
# 5 -0.003883 -0.002969 -0.003297 0.000000 0.030765 0.000000
# 6 0.000000 0.000000 0.000000 -0.038891 0.000000 0.002128
#
#
# Mechanical properties :
#
#
# Convention : Reuss Voigt Hill
#
# Bulk Modulus (GPa) = 37.67255 56.45101 47.06178
# Shear Modulus (GPa) = 66.23458 31.46729 48.85094
#
# Velocity S-wave (km/s) = 5.17561 3.56738 4.44484
# Velocity P-wave (km/s) = 7.13805 6.30861 6.73611
#
# Compressibility (1/GPa) = 0.02654453
#
# Stress axis : x y z
#
# Youngs Moduli (GPa) = 62.70803 153.91232 158.79578
#
# Poissons Ratio (x) = 0.18608 -0.16374
# Poissons Ratio (y) = 0.07582 0.14619
# Poissons Ratio (z) = -0.06466 0.14170
#
# Static dielectric constant tensor:
#      x y z
#    x 2.174180 0.000000 -0.067300 
#    y 0.000000 1.868550 0.000000 
#    z -0.067300 0.000000 1.962550 
# 
# From -- ./inp_files/20189.got.cif
#   From: 2010.05.17/outbox.cif.g08.bks.cpg/sg11_11_cif.got.tgz:20189.got - 2010.06.03 12:22:45.
