data_PCOD9162461
_publ_section_title
;
Structure prediction by ZEFSAII (Michael W. Deem and Ramdas Pophale) SiO2 
 PCOD9162461
Probable space group: P 21/M
;
_chemical_formula_sum "Si O2"
_cell_formula_units_Z 32
_cell_length_a 20.745990
_cell_length_b 8.864178
_cell_length_c 23.407689
_cell_angle_alpha 90.000000
_cell_angle_beta 20.765397
_cell_angle_gamma 90.000000
_cell_volume 1526.157154
_symmetry_space_group_name_H-M "P 21/M"
_symmetry_group_IT_number 11
_symmetry_cell_setting 'monoclinic'
loop_
_space_group_symop_operation_xyz
x,y,z
-x,1/2+y,-z
-x,-y,-z
x,1/2-y,z
loop_
_atom_site_type_symbol
_atom_site_label
_atom_site_fract_x
_atom_site_fract_y
_atom_site_fract_z
Si Si1 0.333661 0.569501 0.602931
Si Si2 0.622175 0.416011 0.854030
Si Si3 0.023207 0.568195 0.043989
Si Si4 0.659623 0.934237 0.142510
Si Si5 0.851248 0.931329 0.579494
Si Si6 0.704202 0.430559 0.497821
Si Si7 0.080329 0.582262 0.295120
Si Si8 0.875692 0.930323 0.850481
O O1 0.500000 0.500000 0.500000
O O2 0.319238 0.750000 0.624235
O O3 0.363413 0.544648 0.510884
O O4 0.147405 0.491263 0.777444
O O5 0.555915 0.250000 0.894123
O O6 0.667241 0.506204 0.759444
O O7 0.798558 0.400914 0.748759
O O8 0.500000 0.500000 0.000000
O O9 0.026081 0.750000 0.039859
O O10 0.204978 0.502657 0.922386
O O11 0.000000 0.500000 0.000000
O O12 0.665672 0.750000 0.140612
O O13 0.453305 0.983755 0.328331
O O14 0.747353 0.981174 0.008771
O O15 0.852502 0.750000 0.580387
O O16 0.897289 0.981364 0.476562
O O17 0.000000 0.000000 0.500000
O O18 0.718689 0.250000 0.494664
O O19 0.913210 0.487462 0.324584
O O20 0.049497 0.750000 0.297085
O O21 0.181427 0.482635 0.165001
O O22 0.881107 0.750000 0.849833
#
# Coordination Sequence:
#
# PCOD9162461 Si02
#       8
#     4   4   4   4   4   4   4   4
#     4  11  21  37  59  87 121 154 196 246 302 362
#     4  10  20  35  56  84 118 153 191 238 292 345
#     4  12  24  38  58  86 118 154 197 247 305 366
#     4  10  20  39  63  85 116 152 193 247 301 353
#     4   9  17  32  54  78 108 144 185 229 281 335
#     4   9  19  37  60  84 113 149 190 241 295 348
#     4   9  20  37  56  81 115 152 187 234 291 342
#     4  10  20  37  60  85 116 158 200 239 289 353
#
# _framework density 20.967696
#
# number of rings (size 3 to 8) (size 9 to 14) (size 15 to 20)
#    0.000    2.000    1.250    3.750    0.000    4.500 
#    2.250    1.250    0.000    0.000    0.000    0.000 
#    0.000    0.000    0.000    0.000    0.000    0.000 
#
# Total GULP energy -178349.429898 kJ/mol
# GULP energy per Si atom -5573.419684 kJ/mol
# Density = 2.091997 g / cm^3
# Si number density = 20.967696 Si / 1000 Ang^3
#
#
#
# Elastic Constant Matrix: (Units=GPa)
#
#
# Indices 1 2 3 4 5 6 
#
# 1 34.9235 10.7711 21.4888 0.0000 16.6605 0.0000
# 2 10.7711 66.0656 39.9771 0.0000 16.0765 0.0000
# 3 21.4888 39.9771 164.3299 0.0000 33.6090 0.0000
# 4 0.0000 0.0000 0.0000 26.8755 0.0000 3.4550
# 5 16.6605 16.0765 33.6090 0.0000 36.9144 0.0000
# 6 0.0000 0.0000 0.0000 3.4550 0.0000 26.0074
#
#
#
# Elastic Compliance Matrix: (Units=1/GPa)
#
#
# Indices 1 2 3 4 5 6 
#
# 1 0.037028 -0.001582 -0.001450 0.000000 -0.014703 0.000000
# 2 -0.001582 0.018496 -0.003430 0.000000 -0.004219 0.000000
# 3 -0.001450 -0.003430 0.008196 0.000000 -0.005314 0.000000
# 4 0.000000 0.000000 0.000000 0.037855 0.000000 -0.005029
# 5 -0.014703 -0.004219 -0.005314 0.000000 0.040401 0.000000
# 6 0.000000 0.000000 0.000000 -0.005029 0.000000 0.039119
#
#
# Mechanical properties :
#
#
# Convention : Reuss Voigt Hill
#
# Bulk Modulus (GPa) = 19.68623 45.53257 32.60940
# Shear Modulus (GPa) = 23.70209 30.83157 27.26683
#
# Velocity S-wave (km/s) = 3.36580 3.83878 3.61005
# Velocity P-wave (km/s) = 4.95117 6.43514 5.74130
#
# Compressibility (1/GPa) = 0.05079692
#
# Stress axis : x y z
#
# Youngs Moduli (GPa) = 27.00646 54.06440 122.00729
#
# Poissons Ratio (x) = 0.08551 0.17694
# Poissons Ratio (y) = 0.04271 0.41850
# Poissons Ratio (z) = 0.03917 0.18545
#
# Static dielectric constant tensor:
#      x y z
#    x 1.815430 0.000000 -0.065850 
#    y 0.000000 1.721210 0.000000 
#    z -0.065850 0.000000 1.918350 
# 
# From -- ./inp_files/69954.got.cif
#   From: 2010.05.17/outbox.cif.g08.bks.cpg/sg11_35_cif.got.tgz:69954.got - 2010.06.03 12:22:45.
