data_PCOD9162324
_publ_section_title
;
Structure prediction by ZEFSAII (Michael W. Deem and Ramdas Pophale) SiO2 
 PCOD9162324
Probable space group: P 21/M
;
_chemical_formula_sum "Si O2"
_cell_formula_units_Z 32
_cell_length_a 10.669418
_cell_length_b 7.837007
_cell_length_c 22.076157
_cell_angle_alpha 90.000000
_cell_angle_beta 50.397444
_cell_angle_gamma 90.000000
_cell_volume 1422.258433
_symmetry_space_group_name_H-M "P 21/M"
_symmetry_group_IT_number 11
_symmetry_cell_setting 'monoclinic'
loop_
_space_group_symop_operation_xyz
x,y,z
-x,1/2+y,-z
-x,-y,-z
x,1/2-y,z
loop_
_atom_site_type_symbol
_atom_site_label
_atom_site_fract_x
_atom_site_fract_y
_atom_site_fract_z
Si Si1 0.460054 0.045058 0.443723
Si Si2 0.810697 0.544286 0.560945
Si Si3 0.310765 0.455677 0.271227
Si Si4 0.231427 0.957871 0.728723
Si Si5 0.231942 0.547325 0.060751
Si Si6 0.635189 0.546290 0.099560
Si Si7 0.102447 0.050010 0.892716
Si Si8 0.892863 0.951569 0.776771
O O1 0.457165 0.250000 0.441816
O O2 0.292474 0.981831 0.465279
O O3 0.609001 0.987529 0.355756
O O4 0.500000 0.000000 0.500000
O O5 0.800365 0.750000 0.564622
O O6 0.727054 0.482425 0.649365
O O7 0.000000 0.500000 0.500000
O O8 0.299003 0.250000 0.277040
O O9 0.484089 0.494783 0.187631
O O10 0.178778 0.522836 0.263250
O O11 0.228793 0.750000 0.733297
O O12 0.067995 0.018001 0.744507
O O13 0.222914 0.029576 0.798741
O O14 0.217238 0.750000 0.071732
O O15 0.230709 0.476560 0.128951
O O16 0.066217 0.474406 0.080351
O O17 0.369586 0.509622 0.968964
O O18 0.643447 0.750000 0.097470
O O19 0.800934 0.475534 0.080010
O O20 0.073687 0.250000 0.913123
O O21 0.914049 0.750000 0.761445
#
# Coordination Sequence:
#
# PCOD9162324 Si02
#       8
#     4   4   4   4   4   4   4   4
#     4  10  22  38  59  91 123 154 197 244 298 359
#     4  10  23  42  64  92 124 159 200 247 299 363
#     4  10  22  40  61  83 111 150 195 239 290 350
#     4   9  18  34  58  83 110 144 189 241 290 345
#     4  10  20  35  55  81 113 149 189 236 289 342
#     4  11  22  35  54  81 114 150 191 238 287 346
#     4   9  19  34  53  80 111 145 186 233 288 344
#     4   9  19  36  58  83 110 147 193 240 290 344
#
# _framework density 22.499428000000002
#
# number of rings (size 3 to 8) (size 9 to 14) (size 15 to 20)
#    0.000    2.250    0.000    1.875    1.750    5.000 
#    0.000    0.000    0.000    0.000    0.000    0.000 
#    0.000    0.000    0.000    0.000    0.000    0.000 
#
# Total GULP energy -178729.351259 kJ/mol
# GULP energy per Si atom -5585.292227 kJ/mol
# Density = 2.244822 g / cm^3
# Si number density = 22.499428 Si / 1000 Ang^3
#
#
#
# Elastic Constant Matrix: (Units=GPa)
#
#
# Indices 1 2 3 4 5 6 
#
# 1 122.7463 5.7547 45.5259 0.0000 12.9966 0.0000
# 2 5.7547 30.1082 -4.1594 0.0000 1.2498 0.0000
# 3 45.5259 -4.1594 118.6451 0.0000 7.4172 0.0000
# 4 0.0000 0.0000 0.0000 27.6500 0.0000 -2.7918
# 5 12.9966 1.2498 7.4172 0.0000 35.3774 0.0000
# 6 0.0000 0.0000 0.0000 -2.7918 0.0000 17.0761
#
#
#
# Elastic Compliance Matrix: (Units=1/GPa)
#
#
# Indices 1 2 3 4 5 6 
#
# 1 0.009928 -0.002295 -0.003716 0.000000 -0.002787 0.000000
# 2 -0.002295 0.033979 0.002122 0.000000 -0.000802 0.000000
# 3 -0.003716 0.002122 0.009979 0.000000 -0.000802 0.000000
# 4 0.000000 0.000000 0.000000 0.036773 0.000000 0.006012
# 5 -0.002787 -0.000802 -0.000802 0.000000 0.029487 0.000000
# 6 0.000000 0.000000 0.000000 0.006012 0.000000 0.059544
#
#
# Mechanical properties :
#
#
# Convention : Reuss Voigt Hill
#
# Bulk Modulus (GPa) = 21.68838 40.63801 31.16319
# Shear Modulus (GPa) = 24.65039 30.97926 27.81483
#
# Velocity S-wave (km/s) = 3.31358 3.71467 3.51984
# Velocity P-wave (km/s) = 4.92952 6.04147 5.51360
#
# Compressibility (1/GPa) = 0.04610764
#
# Stress axis : x y z
#
# Youngs Moduli (GPa) = 100.72836 29.43023 100.21270
#
# Poissons Ratio (x) = 0.06755 0.37235
# Poissons Ratio (y) = 0.23119 -0.21265
# Poissons Ratio (z) = 0.37427 -0.06245
#
# Static dielectric constant tensor:
#      x y z
#    x 1.888040 0.000000 -0.002590 
#    y 0.000000 1.820550 0.000000 
#    z -0.002590 0.000000 1.827830 
# 
# From -- ./inp_files/64403.got.cif
#   From: 2010.05.17/outbox.cif.g08.bks.cpg/sg11_33_cif.got.tgz:64403.got - 2010.06.03 12:22:45.
