data_PCOD9162555
_publ_section_title
;
Structure prediction by ZEFSAII (Michael W. Deem and Ramdas Pophale) SiO2 
 PCOD9162555
Probable space group: P 21/M
;
_chemical_formula_sum "Si O2"
_cell_formula_units_Z 28
_cell_length_a 15.916172
_cell_length_b 8.985224
_cell_length_c 21.306377
_cell_angle_alpha 90.000000
_cell_angle_beta 151.262968
_cell_angle_gamma 90.000000
_cell_volume 1464.983919
_symmetry_space_group_name_H-M "P 21/M"
_symmetry_group_IT_number 11
_symmetry_cell_setting 'monoclinic'
loop_
_space_group_symop_operation_xyz
x,y,z
-x,1/2+y,-z
-x,-y,-z
x,1/2-y,z
loop_
_atom_site_type_symbol
_atom_site_label
_atom_site_fract_x
_atom_site_fract_y
_atom_site_fract_z
Si Si1 0.427924 0.921367 0.549923
Si Si2 0.059716 0.072890 0.604253
Si Si3 0.255374 0.921347 0.304190
Si Si4 0.264674 0.424358 0.558459
Si Si5 0.913442 0.925388 0.004825
Si Si6 0.450853 0.429905 0.901289
Si Si7 0.415160 0.928316 0.143545
O O1 0.425570 0.750000 0.569720
O O2 0.298631 0.937188 0.405765
O O3 0.618516 0.966893 0.649948
O O4 0.371210 0.032385 0.566715
O O5 0.060291 0.250000 0.597297
O O6 0.252384 0.027740 0.752729
O O7 0.000000 0.000000 0.500000
O O8 0.910381 0.020358 0.554110
O O9 0.302572 0.750000 0.317995
O O10 0.057118 0.943924 0.153999
O O11 0.222173 0.250000 0.532958
O O12 0.394982 0.458197 0.701544
O O13 0.889104 0.750000 0.976736
O O14 0.733807 0.995654 0.912099
O O15 0.000000 0.000000 0.000000
O O16 0.457673 0.250000 0.910268
O O17 0.573042 0.473710 0.921914
O O18 0.500000 0.500000 0.000000
O O19 0.388835 0.750000 0.129115
#
# Coordination Sequence:
#
# PCOD9162555 Si02
#       7
#     4   4   4   4   4   4   4
#     4  10  20  35  57  85 113 147 195 244 292 353
#     4  11  22  40  64  90 121 155 198 248 299 356
#     4   9  20  38  55  76 115 155 189 238 298 352
#     4  11  22  38  60  87 119 154 196 244 301 356
#     4  11  23  38  58  85 116 155 198 241 295 356
#     4  10  23  43  64  91 126 164 204 253 310 366
#     4  10  22  41  60  83 120 158 196 248 301 356
#
# _framework density 19.112836999999999
#
# number of rings (size 3 to 8) (size 9 to 14) (size 15 to 20)
#    0.000    1.714    1.429    2.571    0.000    9.143 
#    0.000    4.286    0.000    0.000    0.000    0.000 
#    0.000    0.000    0.000    0.000    0.000    0.000 
#
# Total GULP energy -156372.260182 kJ/mol
# GULP energy per Si atom -5584.723578 kJ/mol
# Density = 1.906934 g / cm^3
# Si number density = 19.112837 Si / 1000 Ang^3
#
#
#
# Elastic Constant Matrix: (Units=GPa)
#
#
# Indices 1 2 3 4 5 6 
#
# 1 100.1291 34.8032 39.2409 0.0000 3.2921 0.0000
# 2 34.8032 48.7658 46.1869 0.0000 1.7632 0.0000
# 3 39.2409 46.1869 94.1274 0.0000 4.9830 0.0000
# 4 0.0000 0.0000 0.0000 27.9568 0.0000 2.1820
# 5 3.2921 1.7632 4.9830 0.0000 13.0301 0.0000
# 6 0.0000 0.0000 0.0000 2.1820 0.0000 36.4005
#
#
#
# Elastic Compliance Matrix: (Units=1/GPa)
#
#
# Indices 1 2 3 4 5 6 
#
# 1 0.013459 -0.008061 -0.001565 0.000000 -0.001711 0.000000
# 2 -0.008061 0.043193 -0.017996 0.000000 0.003074 0.000000
# 3 -0.001565 -0.017996 0.020369 0.000000 -0.004959 0.000000
# 4 0.000000 0.000000 0.000000 0.035938 0.000000 -0.002154
# 5 -0.001711 0.003074 -0.004959 0.000000 0.078658 0.000000
# 6 0.000000 0.000000 0.000000 -0.002154 0.000000 0.027601
#
#
# Mechanical properties :
#
#
# Convention : Reuss Voigt Hill
#
# Bulk Modulus (GPa) = 45.92152 53.72050 49.82101
# Shear Modulus (GPa) = 17.74814 23.66357 20.70586
#
# Velocity S-wave (km/s) = 3.05060 3.52248 3.29500
# Velocity P-wave (km/s) = 6.04044 6.68669 6.37176
#
# Compressibility (1/GPa) = 0.02177628
#
# Stress axis : x y z
#
# Youngs Moduli (GPa) = 74.30236 23.15216 49.09416
#
# Poissons Ratio (x) = 0.18664 0.07681
# Poissons Ratio (y) = 0.59898 0.88350
# Poissons Ratio (z) = 0.11625 0.41664
#
# Static dielectric constant tensor:
#      x y z
#    x 1.680790 0.000000 -0.004300 
#    y 0.000000 1.646040 0.000000 
#    z -0.004300 0.000000 1.659300 
# 
# From -- ./inp_files/54486.got.cif
#   From: 2010.05.17/outbox.cif.g08.bks.cpg/sg11_28_cif.got.tgz:54486.got - 2010.06.03 12:22:45.
