data_PCOD9162843
_publ_section_title
;
Structure prediction by ZEFSAII (Michael W. Deem and Ramdas Pophale) SiO2 
 PCOD9162843
Probable space group: P 21/M
;
_chemical_formula_sum "Si O2"
_cell_formula_units_Z 28
_cell_length_a 7.409489
_cell_length_b 15.468607
_cell_length_c 15.072984
_cell_angle_alpha 90.000000
_cell_angle_beta 134.780602
_cell_angle_gamma 90.000000
_cell_volume 1226.253782
_symmetry_space_group_name_H-M "P 21/M"
_symmetry_group_IT_number 11
_symmetry_cell_setting 'monoclinic'
loop_
_space_group_symop_operation_xyz
x,y,z
-x,1/2+y,-z
-x,-y,-z
x,1/2-y,z
loop_
_atom_site_type_symbol
_atom_site_label
_atom_site_fract_x
_atom_site_fract_y
_atom_site_fract_z
Si Si1 0.145585 0.445185 0.449803
Si Si2 0.542676 0.650537 0.974179
Si Si3 0.218051 0.095911 0.661977
Si Si4 0.064016 0.655357 0.265958
Si Si5 0.808388 0.921922 0.909601
Si Si6 0.312260 0.652159 0.071325
Si Si7 0.666238 0.529186 0.665090
O O1 0.177459 0.382080 0.544556
O O2 0.368632 0.516629 0.543521
O O3 0.202701 0.417097 0.369299
O O4 0.884244 0.497751 0.364384
O O5 0.475331 0.750000 0.928033
O O6 0.354843 0.616392 0.986155
O O7 0.816459 0.650691 0.117758
O O8 0.585283 0.593462 0.902318
O O9 0.507401 0.104535 0.795700
O O10 0.047924 0.148109 0.673197
O O11 0.187018 0.750000 0.295224
O O12 0.223753 0.569149 0.302187
O O13 0.716725 0.931670 0.778014
O O14 0.016561 0.846155 0.990164
O O15 0.000000 0.000000 0.000000
O O16 0.411770 0.750000 0.103135
#
# Coordination Sequence:
#
# PCOD9162843 Si02
#       7
#     4   4   4   4   4   4   4
#     4   9  19  36  55  81 118 150 191 247 295 352
#     4   9  19  37  56  81 119 159 197 247 306 362
#     4   9  17  34  59  83 110 147 194 248 299 342
#     4   9  17  33  55  81 114 150 197 249 296 350
#     4  12  22  35  57  96 126 154 200 248 312 374
#     4  10  22  40  64  91 120 158 205 256 307 365
#     4  10  20  36  55  86 124 156 196 245 307 357
#
# _framework density 22.833772
#
# number of rings (size 3 to 8) (size 9 to 14) (size 15 to 20)
#    0.000    2.286    1.429    2.571    0.000    0.571 
#    7.714    0.714    0.000   20.571    0.000    0.000 
#    0.000    0.000    0.000    0.000    0.000    0.000 
#
# Total GULP energy -156346.140081 kJ/mol
# GULP energy per Si atom -5583.790717 kJ/mol
# Density = 2.278180 g / cm^3
# Si number density = 22.833772 Si / 1000 Ang^3
#
#
#
# Elastic Constant Matrix: (Units=GPa)
#
#
# Indices 1 2 3 4 5 6 
#
# 1 82.4767 7.3961 23.6322 0.0000 -30.6528 0.0000
# 2 7.3961 48.5436 16.0927 0.0000 -8.3156 0.0000
# 3 23.6322 16.0927 103.0414 0.0000 -29.8314 0.0000
# 4 0.0000 0.0000 0.0000 4.3687 0.0000 -1.0645
# 5 -30.6528 -8.3156 -29.8314 0.0000 56.0962 0.0000
# 6 0.0000 0.0000 0.0000 -1.0645 0.0000 23.8975
#
#
#
# Elastic Compliance Matrix: (Units=1/GPa)
#
#
# Indices 1 2 3 4 5 6 
#
# 1 0.015377 -0.000629 -0.001209 0.000000 0.007666 0.000000
# 2 -0.000629 0.021884 -0.002877 0.000000 0.001371 0.000000
# 3 -0.001209 -0.002877 0.011958 0.000000 0.005272 0.000000
# 4 0.000000 0.000000 0.000000 0.231414 0.000000 0.010308
# 5 0.007666 0.001371 0.005272 0.000000 0.025022 0.000000
# 6 0.000000 0.000000 0.000000 0.010308 0.000000 0.042305
#
#
# Mechanical properties :
#
#
# Convention : Reuss Voigt Hill
#
# Bulk Modulus (GPa) = 25.13224 36.47819 30.80522
# Shear Modulus (GPa) = 13.48974 29.33517 21.41245
#
# Velocity S-wave (km/s) = 2.43323 3.58820 3.06560
# Velocity P-wave (km/s) = 4.35025 5.75996 5.10401
#
# Compressibility (1/GPa) = 0.03978953
#
# Stress axis : x y z
#
# Youngs Moduli (GPa) = 65.03395 45.69475 83.62832
#
# Poissons Ratio (x) = 0.02873 0.10110
# Poissons Ratio (y) = 0.04089 0.24058
# Poissons Ratio (z) = 0.07862 0.13146
#
# Static dielectric constant tensor:
#      x y z
#    x 1.942000 0.000000 -0.049380 
#    y 0.000000 1.957150 0.000000 
#    z -0.049380 0.000000 1.858820 
# 
# From -- ./inp_files/47680.got.cif
#   From: 2010.05.17/outbox.cif.g08.bks.cpg/sg11_24_cif.got.tgz:47680.got - 2010.06.03 12:22:45.
