data_PCOD9162413
_publ_section_title
;
Structure prediction by ZEFSAII (Michael W. Deem and Ramdas Pophale) SiO2 
 PCOD9162413
Probable space group: P 21/M
;
_chemical_formula_sum "Si O2"
_cell_formula_units_Z 32
_cell_length_a 25.967131
_cell_length_b 8.828941
_cell_length_c 20.847524
_cell_angle_alpha 90.000000
_cell_angle_beta 22.595670
_cell_angle_gamma 90.000000
_cell_volume 1836.425477
_symmetry_space_group_name_H-M "P 21/M"
_symmetry_group_IT_number 11
_symmetry_cell_setting 'monoclinic'
loop_
_space_group_symop_operation_xyz
x,y,z
-x,1/2+y,-z
-x,-y,-z
x,1/2-y,z
loop_
_atom_site_type_symbol
_atom_site_label
_atom_site_fract_x
_atom_site_fract_y
_atom_site_fract_z
Si Si1 0.624652 0.067899 0.144856
Si Si2 0.330993 0.432207 0.535166
Si Si3 0.876076 0.431578 0.327928
Si Si4 0.404306 0.431757 0.958227
Si Si5 0.289857 0.568280 0.356641
Si Si6 0.647267 0.568637 0.843438
Si Si7 0.830047 0.067479 0.019720
Si Si8 0.356858 0.931688 0.644486
O O1 0.625409 0.250000 0.141621
O O2 0.477473 0.021725 0.339608
O O3 0.645393 0.004485 0.050022
O O4 0.736537 0.020417 0.067453
O O5 0.326387 0.250000 0.543204
O O6 0.218262 0.494292 0.617284
O O7 0.316053 0.499875 0.623185
O O8 0.869141 0.250000 0.330087
O O9 0.815164 0.473272 0.467614
O O10 0.026756 0.489014 0.147619
O O11 0.401771 0.250000 0.954774
O O12 0.560593 0.475761 0.790657
O O13 0.323838 0.472634 0.115760
O O14 0.291107 0.750000 0.347506
O O15 0.265366 0.494492 0.315464
O O16 0.640550 0.750000 0.847423
O O17 0.500000 0.500000 0.000000
O O18 0.846724 0.250000 0.997846
O O19 0.749907 0.032193 0.177113
O O20 0.368124 0.750000 0.627324
O O21 0.500000 0.000000 0.500000
#
# Coordination Sequence:
#
# PCOD9162413 Si02
#       8
#     4   4   4   4   4   4   4   4
#     4  10  20  35  56  82 111 144 186 229 275 330
#     4  11  22  38  60  87 114 147 189 233 281 336
#     4  11  23  39  58  85 115 149 190 232 282 337
#     4   9  17  30  49  78 112 141 177 230 277 321
#     4   9  18  32  50  76 111 144 181 228 275 330
#     4   9  17  28  45  74 110 145 182 224 274 327
#     4  10  23  42  58  81 114 147 186 231 278 339
#     4  11  22  39  62  86 115 148 186 235 284 335
#
# _framework density 17.425155
#
# number of rings (size 3 to 8) (size 9 to 14) (size 15 to 20)
#    0.000    2.000    2.500    2.250    0.000    6.000 
#    0.000    0.000    0.000    0.750    0.000    0.000 
#    0.000    0.000    0.000    0.000    0.000    0.000 
#
# Total GULP energy -178565.083382 kJ/mol
# GULP energy per Si atom -5580.158856 kJ/mol
# Density = 1.738549 g / cm^3
# Si number density = 17.425155 Si / 1000 Ang^3
#
#
#
# Elastic Constant Matrix: (Units=GPa)
#
#
# Indices 1 2 3 4 5 6 
#
# 1 168.0312 55.1155 91.7956 0.0000 27.1606 0.0000
# 2 55.1155 41.6909 50.1194 0.0000 10.9307 0.0000
# 3 91.7956 50.1194 120.7061 0.0000 12.3231 0.0000
# 4 0.0000 0.0000 0.0000 23.1095 0.0000 6.3874
# 5 27.1606 10.9307 12.3231 0.0000 34.4031 0.0000
# 6 0.0000 0.0000 0.0000 6.3874 0.0000 33.1648
#
#
#
# Elastic Compliance Matrix: (Units=1/GPa)
#
#
# Indices 1 2 3 4 5 6 
#
# 1 0.012662 -0.008849 -0.005420 0.000000 -0.005244 0.000000
# 2 -0.008849 0.056535 -0.016217 0.000000 -0.005167 0.000000
# 3 -0.005420 -0.016217 0.018867 0.000000 0.002673 0.000000
# 4 0.000000 0.000000 0.000000 0.045705 0.000000 -0.008803
# 5 -0.005244 -0.005167 0.002673 0.000000 0.033891 0.000000
# 6 0.000000 0.000000 0.000000 -0.008803 0.000000 0.031848
#
#
# Mechanical properties :
#
#
# Convention : Reuss Voigt Hill
#
# Bulk Modulus (GPa) = 36.91106 80.49881 58.70493
# Shear Modulus (GPa) = 18.55200 27.02865 22.79033
#
# Velocity S-wave (km/s) = 3.26646 3.94271 3.62041
# Velocity P-wave (km/s) = 5.95441 8.18681 7.15817
#
# Compressibility (1/GPa) = 0.02709215
#
# Stress axis : x y z
#
# Youngs Moduli (GPa) = 78.97402 17.68802 53.00237
#
# Poissons Ratio (x) = 0.15653 0.28727
# Poissons Ratio (y) = 0.69887 0.85955
# Poissons Ratio (z) = 0.42803 0.28685
#
# Static dielectric constant tensor:
#      x y z
#    x 1.587020 0.000000 0.021550 
#    y 0.000000 1.583670 0.000000 
#    z 0.021550 0.000000 1.587170 
# 
# From -- ./inp_files/66928.got.cif
#   From: 2010.05.17/outbox.cif.g08.bks.cpg/sg11_34_cif.got.tgz:66928.got - 2010.06.03 12:22:45.
