data_PCOD9162326
_publ_section_title
;
Structure prediction by ZEFSAII (Michael W. Deem and Ramdas Pophale) SiO2 
 PCOD9162326
Probable space group: P 21/M
;
_chemical_formula_sum "Si O2"
_cell_formula_units_Z 28
_cell_length_a 14.691101
_cell_length_b 19.279813
_cell_length_c 5.337585
_cell_angle_alpha 90.000000
_cell_angle_beta 104.518615
_cell_angle_gamma 90.000000
_cell_volume 1463.548241
_symmetry_space_group_name_H-M "P 21/M"
_symmetry_group_IT_number 11
_symmetry_cell_setting 'monoclinic'
loop_
_space_group_symop_operation_xyz
x,y,z
-x,1/2+y,-z
-x,-y,-z
x,1/2-y,z
loop_
_atom_site_type_symbol
_atom_site_label
_atom_site_fract_x
_atom_site_fract_y
_atom_site_fract_z
Si Si1 0.955473 0.448083 0.269491
Si Si2 0.686113 0.326165 0.130517
Si Si3 0.799726 0.141496 0.703119
Si Si4 0.392624 0.977120 0.946220
Si Si5 0.993966 0.329887 0.649794
Si Si6 0.718638 0.508997 0.623140
Si Si7 0.125242 0.430171 0.004897
O O1 0.947837 0.374383 0.394124
O O2 0.000000 0.500000 0.500000
O O3 0.033270 0.438982 0.111632
O O4 0.866764 0.494713 0.128606
O O5 0.640268 0.250000 0.080139
O O6 0.748803 0.326472 0.425606
O O7 0.620312 0.394041 0.099244
O O8 0.748671 0.337411 0.924317
O O9 0.908597 0.163123 0.789651
O O10 0.785386 0.059178 0.648133
O O11 0.334498 0.013124 0.678446
O O12 0.500000 0.000000 0.000000
O O13 0.351810 0.995540 0.192815
O O14 0.010290 0.250000 0.603145
O O15 0.090435 0.368456 0.800600
O O16 0.784665 0.572946 0.754862
#
# Coordination Sequence:
#
# PCOD9162326 Si02
#       7
#     4   4   4   4   4   4   4
#     4   9  19  33  52  74 108 142 203 237 266 322
#     4  10  20  35  55  81 115 148 181 226 286 361
#     4  10  21  34  52  83 116 152 189 225 284 342
#     4  10  22  38  60  88 114 139 184 240 303 352
#     4  11  23  34  51  79 120 159 195 244 281 329
#     4  10  21  36  62  83 112 148 187 244 286 346
#     4  10  21  35  54  78 107 153 200 234 275 336
#
# _framework density 19.131587
#
# number of rings (size 3 to 8) (size 9 to 14) (size 15 to 20)
#    0.000    2.000    0.000    4.286   12.000    0.571 
#    0.000    0.000    0.000    1.714    0.000    0.000 
#    0.000    0.000    0.000    0.000    0.000    0.000 
#
# Total GULP energy -156094.002123 kJ/mol
# GULP energy per Si atom -5574.785790 kJ/mol
# Density = 1.908804 g / cm^3
# Si number density = 19.131587 Si / 1000 Ang^3
#
#
#
# Elastic Constant Matrix: (Units=GPa)
#
#
# Indices 1 2 3 4 5 6 
#
# 1 53.2678 43.2551 14.9079 0.0000 5.9335 0.0000
# 2 43.2551 108.9612 35.5871 0.0000 7.0375 0.0000
# 3 14.9079 35.5871 103.7436 0.0000 -1.2773 0.0000
# 4 0.0000 0.0000 0.0000 7.6254 0.0000 6.7507
# 5 5.9335 7.0375 -1.2773 0.0000 28.9024 0.0000
# 6 0.0000 0.0000 0.0000 6.7507 0.0000 11.0078
#
#
#
# Elastic Compliance Matrix: (Units=1/GPa)
#
#
# Indices 1 2 3 4 5 6 
#
# 1 0.027984 -0.010789 -0.000359 0.000000 -0.003134 0.000000
# 2 -0.010789 0.014706 -0.003513 0.000000 -0.001521 0.000000
# 3 -0.000359 -0.003513 0.010913 0.000000 0.001411 0.000000
# 4 0.000000 0.000000 0.000000 0.286915 0.000000 -0.175956
# 5 -0.003134 -0.001521 0.001411 0.000000 0.035675 0.000000
# 6 0.000000 0.000000 0.000000 -0.175956 0.000000 0.198753
#
#
# Mechanical properties :
#
#
# Convention : Reuss Voigt Hill
#
# Bulk Modulus (GPa) = 41.18445 50.38586 45.78515
# Shear Modulus (GPa) = 8.16510 20.98862 14.57686
#
# Velocity S-wave (km/s) = 2.06812 3.31579 2.76330
# Velocity P-wave (km/s) = 5.22269 6.40726 5.84506
#
# Compressibility (1/GPa) = 0.02428101
#
# Stress axis : x y z
#
# Youngs Moduli (GPa) = 35.73490 67.99800 91.63262
#
# Poissons Ratio (x) = 0.73366 0.03288
# Poissons Ratio (y) = 0.38556 0.32191
# Poissons Ratio (z) = 0.01282 0.23888
#
# Static dielectric constant tensor:
#      x y z
#    x 1.682000 0.000000 -0.012660 
#    y 0.000000 1.711500 0.000000 
#    z -0.012660 0.000000 1.784360 
# 
# From -- ./inp_files/6701.got.cif
#   From: 2010.05.17/outbox.cif.g08.bks.cpg/sg11_4_cif.got.tgz:6701.got - 2010.06.03 12:22:45.
