data_PCOD9162162
_publ_section_title
;
Structure prediction by ZEFSAII (Michael W. Deem and Ramdas Pophale) SiO2 
 PCOD9162162
Probable space group: P 21/M
;
_chemical_formula_sum "Si O2"
_cell_formula_units_Z 32
_cell_length_a 25.940210
_cell_length_b 10.770645
_cell_length_c 11.170378
_cell_angle_alpha 90.000000
_cell_angle_beta 29.576687
_cell_angle_gamma 90.000000
_cell_volume 1540.450315
_symmetry_space_group_name_H-M "P 21/M"
_symmetry_group_IT_number 11
_symmetry_cell_setting 'monoclinic'
loop_
_space_group_symop_operation_xyz
x,y,z
-x,1/2+y,-z
-x,-y,-z
x,1/2-y,z
loop_
_atom_site_type_symbol
_atom_site_label
_atom_site_fract_x
_atom_site_fract_y
_atom_site_fract_z
Si Si1 0.361117 0.106264 0.172330
Si Si2 0.149845 0.107554 0.004645
Si Si3 0.077675 0.606820 0.509178
Si Si4 0.368882 0.109344 0.699589
Si Si5 0.065040 0.616984 0.822551
Si Si6 0.441243 0.608418 0.387133
Si Si7 0.743113 0.047543 0.412793
Si Si8 0.238747 0.107609 0.180578
O O1 0.372219 0.250000 0.183772
O O2 0.270510 0.096460 0.255170
O O3 0.330645 0.030239 0.349861
O O4 0.466991 0.070571 0.889774
O O5 0.130967 0.250000 0.009423
O O6 0.250997 0.104435 0.884024
O O7 0.181344 0.034590 0.822945
O O8 0.040813 0.066724 0.282747
O O9 0.098297 0.750000 0.426813
O O10 0.079102 0.608561 0.651562
O O11 0.160367 0.502484 0.305262
O O12 0.409565 0.250000 0.593401
O O13 0.427506 0.996380 0.516902
O O14 0.344826 0.095053 0.888479
O O15 0.012606 0.750000 0.956405
O O16 0.177034 0.617489 0.661961
O O17 0.000000 0.500000 0.000000
O O18 0.460837 0.750000 0.390906
O O19 0.334489 0.611741 0.524547
O O20 0.200345 0.250000 0.237269
#
# Coordination Sequence:
#
# PCOD9162162 Si02
#       8
#     4   4   4   4   4   4   4   4
#     4  10  21  36  57  84 113 147 183 227 281 336
#     4   9  18  33  54  79 110 146 182 219 264 326
#     4  10  20  35  52  80 113 147 184 224 272 324
#     4   9  20  39  60  81 108 144 188 229 275 330
#     4  11  22  34  52  81 114 147 183 222 268 325
#     4  10  22  39  58  83 112 142 184 233 282 329
#     4  11  19  35  56  81 112 148 182 224 273 323
#     4  10  21  38  58  82 110 145 187 231 273 328
#
# _framework density 20.773146000000001
#
# number of rings (size 3 to 8) (size 9 to 14) (size 15 to 20)
#    0.000    2.000    2.500    1.125    0.000    3.000 
#    0.000    2.500    0.000    0.000    0.000    0.000 
#    0.000    0.000    0.000    0.000    0.000    0.000 
#
# Total GULP energy -178543.649341 kJ/mol
# GULP energy per Si atom -5579.489042 kJ/mol
# Density = 2.072587 g / cm^3
# Si number density = 20.773146 Si / 1000 Ang^3
#
#
#
# Elastic Constant Matrix: (Units=GPa)
#
#
# Indices 1 2 3 4 5 6 
#
# 1 51.8623 8.4296 0.1541 0.0000 0.1146 0.0000
# 2 8.4296 136.4177 81.3463 0.0000 6.7245 0.0000
# 3 0.1541 81.3463 85.5491 0.0000 -6.4372 0.0000
# 4 0.0000 0.0000 0.0000 35.6963 0.0000 -8.4998
# 5 0.1146 6.7245 -6.4372 0.0000 35.6220 0.0000
# 6 0.0000 0.0000 0.0000 -8.4998 0.0000 -20.1781
#
#
#
# Elastic Compliance Matrix: (Units=1/GPa)
#
#
# Indices 1 2 3 4 5 6 
#
# 1 0.019757 -0.002993 0.002887 0.000000 0.001023 0.000000
# 2 -0.002993 0.018845 -0.018432 0.000000 -0.006879 0.000000
# 3 0.002887 -0.018432 0.029878 0.000000 0.008869 0.000000
# 4 0.000000 0.000000 0.000000 0.025460 0.000000 -0.010725
# 5 0.001023 -0.006879 0.008869 0.000000 0.030971 0.000000
# 6 0.000000 0.000000 0.000000 -0.010725 0.000000 -0.045041
#
#
# Mechanical properties :
#
#
# Convention : Reuss Voigt Hill
#
# Bulk Modulus (GPa) = 31.84136 50.40990 41.12563
# Shear Modulus (GPa) = 39.24225 22.48796 30.86511
#
# Velocity S-wave (km/s) = 4.35108 3.29378 3.85881
# Velocity P-wave (km/s) = 6.37212 6.22775 6.30035
#
# Compressibility (1/GPa) = 0.03140569
#
# Stress axis : x y z
#
# Youngs Moduli (GPa) = 50.61373 53.06355 33.46991
#
# Poissons Ratio (x) = 0.15883 -0.09664
# Poissons Ratio (y) = 0.15149 0.61691
# Poissons Ratio (z) = -0.14615 0.97805
#
# Static dielectric constant tensor:
#      x y z
#    x 1.802370 0.000000 -0.027300 
#    y 0.000000 1.740560 0.000000 
#    z -0.027300 0.000000 1.722300 
# 
# From -- ./inp_files/45116.got.cif
#   From: 2010.05.17/outbox.cif.g08.bks.cpg/sg11_23_cif.got.tgz:45116.got - 2010.06.03 12:22:45.
