data_PCOD9162820
_publ_section_title
;
Structure prediction by ZEFSAII (Michael W. Deem and Ramdas Pophale) SiO2 
 PCOD9162820
Probable space group: P 21/M
;
_chemical_formula_sum "Si O2"
_cell_formula_units_Z 32
_cell_length_a 5.254358
_cell_length_b 17.666822
_cell_length_c 20.956148
_cell_angle_alpha 90.000000
_cell_angle_beta 129.572875
_cell_angle_gamma 90.000000
_cell_volume 1499.476506
_symmetry_space_group_name_H-M "P 21/M"
_symmetry_group_IT_number 11
_symmetry_cell_setting 'monoclinic'
loop_
_space_group_symop_operation_xyz
x,y,z
-x,1/2+y,-z
-x,-y,-z
x,1/2-y,z
loop_
_atom_site_type_symbol
_atom_site_label
_atom_site_fract_x
_atom_site_fract_y
_atom_site_fract_z
Si Si1 0.985634 0.162961 0.803447
Si Si2 0.491888 0.959282 0.810517
Si Si3 0.760211 0.890551 0.290200
Si Si4 0.481225 0.555596 0.601127
Si Si5 0.734473 0.671389 0.547717
Si Si6 0.508956 0.166035 0.288422
Si Si7 0.767559 0.512534 0.097346
Si Si8 0.785305 0.599611 0.436122
O O1 0.064470 0.250000 0.830706
O O2 0.054690 0.147268 0.739531
O O3 0.199032 0.100116 0.875202
O O4 0.606020 0.145565 0.760852
O O5 0.480773 0.876844 0.777121
O O6 0.292800 0.020296 0.734973
O O7 0.343558 0.966992 0.857179
O O8 0.872287 0.986276 0.868802
O O9 0.903944 0.882365 0.384110
O O10 0.626871 0.592657 0.561452
O O11 0.628863 0.604774 0.682646
O O12 0.489805 0.466289 0.612659
O O13 0.094023 0.571437 0.527705
O O14 0.577007 0.750000 0.548980
O O15 0.667584 0.667106 0.461839
O O16 0.116918 0.676058 0.627875
O O17 0.355032 0.250000 0.263559
O O18 0.500000 0.500000 0.000000
#
# Coordination Sequence:
#
# PCOD9162820 Si02
#       8
#     4   4   4   4   4   4   4   4
#     4  10  22  39  61  90 122 156 194 239 299 352
#     4  10  21  39  63  92 120 154 198 238 291 364
#     4  10  21  37  59  86 118 157 201 248 294 347
#     4  10  20  36  55  75 109 156 205 253 308 352
#     4  10  22  35  51  77 113 159 202 255 315 355
#     4  10  21  37  56  82 118 156 202 254 302 350
#     4  10  22  42  68  93 123 158 190 234 292 364
#     4  10  21  35  52  79 107 154 210 255 298 357
#
# _framework density 21.340779999999999
#
# number of rings (size 3 to 8) (size 9 to 14) (size 15 to 20)
#    0.000    2.000    1.250    1.500    3.500    2.500 
#    0.000    1.250    0.000    0.000    0.000    0.000 
#    0.000    0.000    0.000    0.000    0.000    0.000 
#
# Total GULP energy -178640.716542 kJ/mol
# GULP energy per Si atom -5582.522392 kJ/mol
# Density = 2.129221 g / cm^3
# Si number density = 21.340780 Si / 1000 Ang^3
#
#
#
# Elastic Constant Matrix: (Units=GPa)
#
#
# Indices 1 2 3 4 5 6 
#
# 1 80.8839 8.3248 14.2050 0.0000 -8.2339 0.0000
# 2 8.3248 108.3339 40.6376 0.0000 -4.3698 0.0000
# 3 14.2050 40.6376 81.5573 0.0000 -9.2214 0.0000
# 4 0.0000 0.0000 0.0000 -0.2598 0.0000 1.2605
# 5 -8.2339 -4.3698 -9.2214 0.0000 26.2192 0.0000
# 6 0.0000 0.0000 0.0000 1.2605 0.0000 7.5829
#
#
#
# Elastic Compliance Matrix: (Units=1/GPa)
#
#
# Indices 1 2 3 4 5 6 
#
# 1 0.013047 -0.000193 -0.001787 0.000000 0.003436 0.000000
# 2 -0.000193 0.011356 -0.005642 0.000000 -0.000152 0.000000
# 3 -0.001787 -0.005642 0.015844 0.000000 0.004071 0.000000
# 4 0.000000 0.000000 0.000000 -2.130725 0.000000 0.354204
# 5 0.003436 -0.000152 0.004071 0.000000 0.040626 0.000000
# 6 0.000000 0.000000 0.000000 0.354204 0.000000 0.072995
#
#
# Mechanical properties :
#
#
# Convention : Reuss Voigt Hill
#
# Bulk Modulus (GPa) = 39.99772 44.12329 42.06051
# Shear Modulus (GPa) = -2.55980 20.54897 8.99459
#
# Velocity S-wave (km/s) = -1.09640 3.10642 2.05521
# Velocity P-wave (km/s) = 4.14491 5.79543 5.03822
#
# Compressibility (1/GPa) = 0.02500143
#
# Stress axis : x y z
#
# Youngs Moduli (GPa) = 76.64566 88.06118 63.11519
#
# Poissons Ratio (x) = 0.01704 0.11282
# Poissons Ratio (y) = 0.01483 0.35608
# Poissons Ratio (z) = 0.13700 0.49682
#
# Static dielectric constant tensor:
#      x y z
#    x 1.835310 0.000000 -0.002060 
#    y 0.000000 1.834400 0.000000 
#    z -0.002060 0.000000 1.742790 
# 
# From -- ./inp_files/9154.got.cif
#   From: 2010.05.17/outbox.cif.g08.bks.cpg/sg11_5_cif.got.tgz:9154.got - 2010.06.03 12:22:45.
