data_PCOD9162243
_publ_section_title
;
Structure prediction by ZEFSAII (Michael W. Deem and Ramdas Pophale) SiO2 
 PCOD9162243
Probable space group: P 21/M
;
_chemical_formula_sum "Si O2"
_cell_formula_units_Z 32
_cell_length_a 12.338620
_cell_length_b 8.382585
_cell_length_c 29.855348
_cell_angle_alpha 90.000000
_cell_angle_beta 149.305533
_cell_angle_gamma 90.000000
_cell_volume 1576.261642
_symmetry_space_group_name_H-M "P 21/M"
_symmetry_group_IT_number 11
_symmetry_cell_setting 'monoclinic'
loop_
_space_group_symop_operation_xyz
x,y,z
-x,1/2+y,-z
-x,-y,-z
x,1/2-y,z
loop_
_atom_site_type_symbol
_atom_site_label
_atom_site_fract_x
_atom_site_fract_y
_atom_site_fract_z
Si Si1 0.414235 0.438184 0.331170
Si Si2 0.893757 0.940599 0.916284
Si Si3 0.106300 0.055136 0.661009
Si Si4 0.301757 0.055908 0.823116
Si Si5 0.382448 0.556661 0.503216
Si Si6 0.952759 0.561049 0.182366
Si Si7 0.457699 0.059777 0.719626
Si Si8 0.740537 0.442870 0.023320
O O1 0.451647 0.250000 0.342932
O O2 0.503761 0.498828 0.410529
O O3 0.514220 0.508817 0.321712
O O4 0.164016 0.472573 0.242280
O O5 0.884326 0.750000 0.914547
O O6 0.660482 0.003229 0.820908
O O7 0.055039 0.986461 0.933764
O O8 0.000000 0.000000 0.000000
O O9 0.101885 0.250000 0.659062
O O10 0.239855 0.002716 0.751848
O O11 0.238408 0.002690 0.664475
O O12 0.863198 0.004117 0.580550
O O13 0.306105 0.250000 0.824097
O O14 0.124047 0.009155 0.795989
O O15 0.530210 0.004685 0.922393
O O16 0.500000 0.500000 0.500000
O O17 0.386401 0.750000 0.503821
O O18 0.993191 0.750000 0.197164
O O19 0.769046 0.522026 0.081591
O O20 0.459009 0.250000 0.721830
O O21 0.734792 0.250000 0.026183
#
# Coordination Sequence:
#
# PCOD9162243 Si02
#       8
#     4   4   4   4   4   4   4   4
#     4  11  23  39  59  86 122 160 195 245 306 359
#     4  11  22  36  57  83 118 162 204 248 297 351
#     4   9  19  38  61  86 117 153 194 244 301 357
#     4   9  18  33  55  83 114 150 192 240 296 352
#     4  10  22  41  66  93 122 156 197 243 301 362
#     4  11  21  34  57  85 113 152 201 245 286 350
#     4  11  22  38  62  88 116 155 204 249 296 356
#     4  10  20  35  54  79 115 155 191 237 299 352
#
# _framework density 20.301197999999999
#
# number of rings (size 3 to 8) (size 9 to 14) (size 15 to 20)
#    0.000    1.750    1.250    3.375    0.000    5.000 
#    0.000    1.875    0.000    5.250    0.000    0.000 
#    0.000    0.000    0.000    0.000    0.000    0.000 
#
# Total GULP energy -178776.190057 kJ/mol
# GULP energy per Si atom -5586.755939 kJ/mol
# Density = 2.025499 g / cm^3
# Si number density = 20.301198 Si / 1000 Ang^3
#
#
#
# Elastic Constant Matrix: (Units=GPa)
#
#
# Indices 1 2 3 4 5 6 
#
# 1 154.7277 22.3732 72.8721 0.0000 6.0434 0.0000
# 2 22.3732 16.6388 4.2334 0.0000 -1.2310 0.0000
# 3 72.8721 4.2334 114.5828 0.0000 -6.5756 0.0000
# 4 0.0000 0.0000 0.0000 12.5307 0.0000 -4.2901
# 5 6.0434 -1.2310 -6.5756 0.0000 36.3041 0.0000
# 6 0.0000 0.0000 0.0000 -4.2901 0.0000 17.6315
#
#
#
# Elastic Compliance Matrix: (Units=1/GPa)
#
#
# Indices 1 2 3 4 5 6 
#
# 1 0.012307 -0.014930 -0.007500 0.000000 -0.003913 0.000000
# 2 -0.014930 0.078882 0.006949 0.000000 0.006419 0.000000
# 3 -0.007500 0.006949 0.013465 0.000000 0.003923 0.000000
# 4 0.000000 0.000000 0.000000 0.087056 0.000000 0.021182
# 5 -0.003913 0.006419 0.003923 0.000000 0.029125 0.000000
# 6 0.000000 0.000000 0.000000 0.021182 0.000000 0.061871
#
#
# Mechanical properties :
#
#
# Convention : Reuss Voigt Hill
#
# Bulk Modulus (GPa) = 13.56976 53.87852 33.72414
# Shear Modulus (GPa) = 14.78278 25.72463 20.25371
#
# Velocity S-wave (km/s) = 2.70140 3.56356 3.16200
# Velocity P-wave (km/s) = 4.05324 6.59766 5.47531
#
# Compressibility (1/GPa) = 0.07369327
#
# Stress axis : x y z
#
# Youngs Moduli (GPa) = 81.25610 12.67714 74.26427
#
# Poissons Ratio (x) = 0.18926 0.55697
# Poissons Ratio (y) = 1.21312 -0.51605
# Poissons Ratio (z) = 0.60941 -0.08809
#
# Static dielectric constant tensor:
#      x y z
#    x 1.722600 0.000000 -0.008210 
#    y 0.000000 1.704620 0.000000 
#    z -0.008210 0.000000 1.726460 
# 
# From -- ./inp_files/73151.got.cif
#   From: 2010.05.17/outbox.cif.g08.bks.cpg/sg11_37_cif.got.tgz:73151.got - 2010.06.03 12:22:45.
