data_PCOD9162837
_publ_section_title
;
Structure prediction by ZEFSAII (Michael W. Deem and Ramdas Pophale) SiO2 
 PCOD9162837
Probable space group: P 21/M
;
_chemical_formula_sum "Si O2"
_cell_formula_units_Z 20
_cell_length_a 7.594245
_cell_length_b 16.754926
_cell_length_c 7.024007
_cell_angle_alpha 90.000000
_cell_angle_beta 122.503408
_cell_angle_gamma 90.000000
_cell_volume 753.745596
_symmetry_space_group_name_H-M "P 21/M"
_symmetry_group_IT_number 11
_symmetry_cell_setting 'monoclinic'
loop_
_space_group_symop_operation_xyz
x,y,z
-x,1/2+y,-z
-x,-y,-z
x,1/2-y,z
loop_
_atom_site_type_symbol
_atom_site_label
_atom_site_fract_x
_atom_site_fract_y
_atom_site_fract_z
Si Si1 0.666884 0.159726 0.599128
Si Si2 0.139245 0.336647 0.709750
Si Si3 0.728354 0.888421 0.832265
Si Si4 0.744285 0.502137 0.159622
Si Si5 0.149765 0.839304 0.884212
O O1 0.587627 0.250000 0.522501
O O2 0.489492 0.104759 0.403870
O O3 0.703278 0.149038 0.845619
O O4 0.901634 0.158051 0.650468
O O5 0.168084 0.250000 0.630559
O O6 0.192643 0.425421 0.663975
O O7 0.288414 0.336523 0.983809
O O8 0.911030 0.849805 0.814215
O O9 0.809868 0.968965 0.984294
O O10 0.500000 0.500000 0.000000
O O11 0.810993 0.412284 0.232806
O O12 0.186675 0.750000 0.833675
#
# Coordination Sequence:
#
# PCOD9162837 Si02
#       5
#     4   4   4   4   4
#     4   9  16  30  56  85 101 130 179 222 268 312
#     4   8  17  32  53  77 105 136 172 217 260 307
#     4   9  18  33  58  78 105 131 178 221 263 308
#     4  10  22  37  52  79 111 146 181 208 263 325
#     4  10  20  36  55  80 108 136 175 229 267 306
#
# _framework density 26.534151999999999
#
# number of rings (size 3 to 8) (size 9 to 14) (size 15 to 20)
#    1.200    1.600    0.000    3.600    0.000    1.600 
#    0.000    1.000    0.000    0.000    0.000    0.000 
#    0.000    0.000    0.000    0.000    0.000    0.000 
#
# Total GULP energy -111614.281456 kJ/mol
# GULP energy per Si atom -5580.714073 kJ/mol
# Density = 2.647376 g / cm^3
# Si number density = 26.534152 Si / 1000 Ang^3
#
#
#
# Elastic Constant Matrix: (Units=GPa)
#
#
# Indices 1 2 3 4 5 6 
#
# 1 35.6998 34.3032 17.1995 0.0000 8.6941 0.0000
# 2 34.3032 198.5169 15.3442 0.0000 -11.8717 0.0000
# 3 17.1995 15.3442 179.6267 0.0000 -10.3740 0.0000
# 4 0.0000 0.0000 0.0000 -4.2455 0.0000 35.3185
# 5 8.6941 -11.8717 -10.3740 0.0000 29.3961 0.0000
# 6 0.0000 0.0000 0.0000 35.3185 0.0000 -4.8874
#
#
#
# Elastic Compliance Matrix: (Units=1/GPa)
#
#
# Indices 1 2 3 4 5 6 
#
# 1 0.041875 -0.007925 -0.004321 0.000000 -0.017110 0.000000
# 2 -0.007925 0.006681 0.000489 0.000000 0.005215 0.000000
# 3 -0.004321 0.000489 0.006150 0.000000 0.003646 0.000000
# 4 0.000000 0.000000 0.000000 0.003984 0.000000 0.028793
# 5 -0.017110 0.005215 0.003646 0.000000 0.042471 0.000000
# 6 0.000000 0.000000 0.000000 0.028793 0.000000 0.003461
#
#
# Mechanical properties :
#
#
# Convention : Reuss Voigt Hill
#
# Bulk Modulus (GPa) = 32.05924 60.83746 46.44835
# Shear Modulus (GPa) = 36.09249 27.18573 31.63911
#
# Velocity S-wave (km/s) = 3.69213 3.20434 3.45685
# Velocity P-wave (km/s) = 5.50311 6.05542 5.78586
#
# Compressibility (1/GPa) = 0.03119226
#
# Stress axis : x y z
#
# Youngs Moduli (GPa) = 23.88052 149.68203 162.61282
#
# Poissons Ratio (x) = 1.18626 0.70262
# Poissons Ratio (y) = 0.18926 -0.07957
# Poissons Ratio (z) = 0.10318 -0.07324
#
# Static dielectric constant tensor:
#      x y z
#    x 2.070560 0.000000 -0.043310 
#    y 0.000000 2.237790 0.000000 
#    z -0.043310 0.000000 2.016810 
# 
# From -- ./inp_files/18478.got.cif
#   From: 2010.05.17/outbox.cif.g08.bks.cpg/sg11_10_cif.got.tgz:18478.got - 2010.06.03 12:22:45.
