data_PCOD9162494
_publ_section_title
;
Structure prediction by ZEFSAII (Michael W. Deem and Ramdas Pophale) SiO2 
 PCOD9162494
Probable space group: P 21/M
;
_chemical_formula_sum "Si O2"
_cell_formula_units_Z 32
_cell_length_a 15.044255
_cell_length_b 7.642903
_cell_length_c 22.003590
_cell_angle_alpha 90.000000
_cell_angle_beta 34.698816
_cell_angle_gamma 90.000000
_cell_volume 1440.241031
_symmetry_space_group_name_H-M "P 21/M"
_symmetry_group_IT_number 11
_symmetry_cell_setting 'monoclinic'
loop_
_space_group_symop_operation_xyz
x,y,z
-x,1/2+y,-z
-x,-y,-z
x,1/2-y,z
loop_
_atom_site_type_symbol
_atom_site_label
_atom_site_fract_x
_atom_site_fract_y
_atom_site_fract_z
Si Si1 0.917012 0.543255 0.984011
Si Si2 0.414861 0.545923 0.881036
Si Si3 0.036287 0.962168 0.789925
Si Si4 0.258736 0.951240 0.346321
Si Si5 0.158345 0.962129 0.272111
Si Si6 0.653793 0.459955 0.451379
Si Si7 0.297060 0.950942 0.074268
Si Si8 0.195967 0.540678 0.514632
O O1 0.892367 0.750000 0.995191
O O2 0.028781 0.494328 0.865187
O O3 0.747681 0.464738 0.064094
O O4 0.000000 0.500000 0.000000
O O5 0.455107 0.750000 0.864321
O O6 0.554957 0.455328 0.766978
O O7 0.387805 0.471889 0.964924
O O8 0.022888 0.750000 0.790586
O O9 0.195029 0.022450 0.670451
O O10 0.882637 0.044685 0.847058
O O11 0.203111 0.750000 0.378093
O O12 0.194961 0.029431 0.319221
O O13 0.211527 0.031762 0.437504
O O14 0.171883 0.750000 0.263936
O O15 0.277726 0.028595 0.152791
O O16 0.977726 0.008233 0.362086
O O17 0.500000 0.500000 0.500000
O O18 0.663663 0.250000 0.448825
O O19 0.677901 0.524846 0.506985
O O20 0.349422 0.750000 0.051232
O O21 0.217147 0.750000 0.497658
#
# Coordination Sequence:
#
# PCOD9162494 Si02
#       8
#     4   4   4   4   4   4   4   4
#     4  10  20  35  57  82 108 142 184 230 280 335
#     4  10  21  37  55  79 112 148 188 232 279 330
#     4   9  18  34  54  76 104 139 180 224 271 325
#     4  10  22  38  55  81 117 152 185 229 281 335
#     4  10  20  35  58  85 112 145 187 231 280 335
#     4  10  21  36  54  79 107 138 179 225 274 326
#     4   9  18  33  55  81 108 140 181 228 274 325
#     4  10  21  38  58  80 111 147 187 231 277 335
#
# _framework density 22.218503999999999
#
# number of rings (size 3 to 8) (size 9 to 14) (size 15 to 20)
#    0.000    2.250    1.250    1.125    0.000    4.500 
#    0.000    2.500    0.000    0.000    0.000    0.000 
#    0.000    0.000    0.000    0.000    0.000    0.000 
#
# Total GULP energy -178616.741539 kJ/mol
# GULP energy per Si atom -5581.773173 kJ/mol
# Density = 2.216793 g / cm^3
# Si number density = 22.218504 Si / 1000 Ang^3
#
#
#
# Elastic Constant Matrix: (Units=GPa)
#
#
# Indices 1 2 3 4 5 6 
#
# 1 122.5193 3.1437 14.7970 0.0000 20.1015 0.0000
# 2 3.1437 44.5790 -1.9515 0.0000 7.7194 0.0000
# 3 14.7970 -1.9515 57.8698 0.0000 16.3190 0.0000
# 4 0.0000 0.0000 0.0000 12.9182 0.0000 -8.0384
# 5 20.1015 7.7194 16.3190 0.0000 39.6855 0.0000
# 6 0.0000 0.0000 0.0000 -8.0384 0.0000 10.1579
#
#
#
# Elastic Compliance Matrix: (Units=1/GPa)
#
#
# Indices 1 2 3 4 5 6 
#
# 1 0.008968 0.000024 -0.001143 0.000000 -0.004077 0.000000
# 2 0.000024 0.023494 0.002351 0.000000 -0.005549 0.000000
# 3 -0.001143 0.002351 0.019928 0.000000 -0.008073 0.000000
# 4 0.000000 0.000000 0.000000 0.152507 0.000000 0.120685
# 5 -0.004077 -0.005549 -0.008073 0.000000 0.031662 0.000000
# 6 0.000000 0.000000 0.000000 0.120685 0.000000 0.193948
#
#
# Mechanical properties :
#
#
# Convention : Reuss Voigt Hill
#
# Bulk Modulus (GPa) = 18.23001 28.54961 23.38981
# Shear Modulus (GPa) = 11.20250 26.48425 18.84337
#
# Velocity S-wave (km/s) = 2.24787 3.45627 2.91536
# Velocity P-wave (km/s) = 3.86780 5.36704 4.67787
#
# Compressibility (1/GPa) = 0.05485459
#
# Stress axis : x y z
#
# Youngs Moduli (GPa) = 111.50351 42.56378 50.18014
#
# Poissons Ratio (x) = -0.00100 0.05733
# Poissons Ratio (y) = -0.00263 -0.11797
# Poissons Ratio (z) = 0.12740 -0.10006
#
# Static dielectric constant tensor:
#      x y z
#    x 1.896760 0.000000 0.035170 
#    y 0.000000 1.840620 0.000000 
#    z 0.035170 0.000000 1.821340 
# 
# From -- ./inp_files/65209.got.cif
#   From: 2010.05.17/outbox.cif.g08.bks.cpg/sg11_33_cif.got.tgz:65209.got - 2010.06.03 12:22:45.
