data_PCOD9162409
_publ_section_title
;
Structure prediction by ZEFSAII (Michael W. Deem and Ramdas Pophale) SiO2 
 PCOD9162409
Probable space group: P 21/M
;
_chemical_formula_sum "Si O2"
_cell_formula_units_Z 32
_cell_length_a 25.910220
_cell_length_b 14.306201
_cell_length_c 9.491197
_cell_angle_alpha 90.000000
_cell_angle_beta 152.050279
_cell_angle_gamma 90.000000
_cell_volume 1648.952638
_symmetry_space_group_name_H-M "P 21/M"
_symmetry_group_IT_number 11
_symmetry_cell_setting 'monoclinic'
loop_
_space_group_symop_operation_xyz
x,y,z
-x,1/2+y,-z
-x,-y,-z
x,1/2-y,z
loop_
_atom_site_type_symbol
_atom_site_label
_atom_site_fract_x
_atom_site_fract_y
_atom_site_fract_z
Si Si1 0.875350 0.360370 0.658505
Si Si2 0.692669 0.861473 0.508866
Si Si3 0.122754 0.361676 0.268897
Si Si4 0.240124 0.025210 0.767654
Si Si5 0.279517 0.510566 0.188086
Si Si6 0.521030 0.514699 0.716323
Si Si7 0.221202 0.639844 0.277299
Si Si8 0.452101 0.861353 0.982153
O O1 0.855819 0.250000 0.587309
O O2 0.789386 0.424096 0.368657
O O3 0.860622 0.377101 0.790077
O O4 0.000532 0.385275 0.921692
O O5 0.703936 0.750000 0.553785
O O6 0.782003 0.892647 0.609707
O O7 0.714051 0.916399 0.704461
O O8 0.564016 0.880188 0.163343
O O9 0.127458 0.250000 0.292173
O O10 0.149151 0.407368 0.482270
O O11 0.244208 0.013539 0.944984
O O12 0.358696 0.061330 0.995824
O O13 0.403576 0.554741 0.483043
O O14 0.204364 0.580623 0.096359
O O15 0.500000 0.500000 0.500000
O O16 0.537027 0.421627 0.849543
O O17 0.221485 0.750000 0.247217
O O18 0.341384 0.614031 0.632032
O O19 0.447938 0.750000 0.002277
#
# Coordination Sequence:
#
# PCOD9162409 Si02
#       8
#     4   4   4   4   4   4   4   4
#     4  10  21  39  61  81 106 143 188 233 272 316
#     4   9  19  35  56  80 109 143 184 226 271 322
#     4  10  22  39  59  82 106 141 190 234 268 318
#     4  11  21  36  57  81 112 148 184 220 275 332
#     4  10  22  35  53  83 118 149 173 222 280 329
#     4   9  19  33  50  81 115 144 177 213 273 330
#     4  10  20  35  56  82 109 142 187 230 270 320
#     4   9  17  31  55  80 104 143 186 224 270 321
#
# _framework density 19.406258000000001
#
# number of rings (size 3 to 8) (size 9 to 14) (size 15 to 20)
#    0.000    2.250    1.250    1.125    1.750    2.000 
#    0.000    6.250    0.000    4.500    0.000    0.000 
#    0.000    0.000    0.000    0.000    0.000    0.000 
#
# Total GULP energy -178419.197930 kJ/mol
# GULP energy per Si atom -5575.599935 kJ/mol
# Density = 1.936209 g / cm^3
# Si number density = 19.406258 Si / 1000 Ang^3
#
#
#
# Elastic Constant Matrix: (Units=GPa)
#
#
# Indices 1 2 3 4 5 6 
#
# 1 99.1853 12.2485 28.0145 0.0000 -3.2363 0.0000
# 2 12.2485 23.5319 3.8441 0.0000 -1.5972 0.0000
# 3 28.0145 3.8441 55.6898 0.0000 3.1139 0.0000
# 4 0.0000 0.0000 0.0000 8.1926 0.0000 7.7953
# 5 -3.2363 -1.5972 3.1139 0.0000 31.0713 0.0000
# 6 0.0000 0.0000 0.0000 7.7953 0.0000 16.9228
#
#
#
# Elastic Compliance Matrix: (Units=1/GPa)
#
#
# Indices 1 2 3 4 5 6 
#
# 1 0.012500 -0.005415 -0.006005 0.000000 0.001625 0.000000
# 2 -0.005415 0.045523 -0.000521 0.000000 0.001828 0.000000
# 3 -0.006005 -0.000521 0.021169 0.000000 -0.002774 0.000000
# 4 0.000000 0.000000 0.000000 0.217309 0.000000 -0.100101
# 5 0.001625 0.001828 -0.002774 0.000000 0.032725 0.000000
# 6 0.000000 0.000000 0.000000 -0.100101 0.000000 0.105203
#
#
# Mechanical properties :
#
#
# Convention : Reuss Voigt Hill
#
# Bulk Modulus (GPa) = 18.07989 29.62460 23.85224
# Shear Modulus (GPa) = 10.48774 20.19067 15.33921
#
# Velocity S-wave (km/s) = 2.32724 3.22905 2.81450
# Velocity P-wave (km/s) = 4.06917 5.40380 4.78326
#
# Compressibility (1/GPa) = 0.05531008
#
# Stress axis : x y z
#
# Youngs Moduli (GPa) = 79.99980 21.96686 47.23999
#
# Poissons Ratio (x) = 0.11895 0.28368
# Poissons Ratio (y) = 0.43320 0.02459
# Poissons Ratio (z) = 0.48041 0.01144
#
# Static dielectric constant tensor:
#      x y z
#    x 1.695200 0.000000 0.050160 
#    y 0.000000 1.678410 0.000000 
#    z 0.050160 0.000000 1.673260 
# 
# From -- ./inp_files/27769.got.cif
#   From: 2010.05.17/outbox.cif.g08.bks.cpg/sg11_14_cif.got.tgz:27769.got - 2010.06.03 12:22:45.
