data_PCOD9162541
_publ_section_title
;
Structure prediction by ZEFSAII (Michael W. Deem and Ramdas Pophale) SiO2 
 PCOD9162541
Probable space group: P 21/M
;
_chemical_formula_sum "Si O2"
_cell_formula_units_Z 28
_cell_length_a 7.285393
_cell_length_b 17.135868
_cell_length_c 14.438328
_cell_angle_alpha 90.000000
_cell_angle_beta 133.380870
_cell_angle_gamma 90.000000
_cell_volume 1310.066455
_symmetry_space_group_name_H-M "P 21/M"
_symmetry_group_IT_number 11
_symmetry_cell_setting 'monoclinic'
loop_
_space_group_symop_operation_xyz
x,y,z
-x,1/2+y,-z
-x,-y,-z
x,1/2-y,z
loop_
_atom_site_type_symbol
_atom_site_label
_atom_site_fract_x
_atom_site_fract_y
_atom_site_fract_z
Si Si1 0.993946 0.343105 0.942614
Si Si2 0.446719 0.836504 0.908775
Si Si3 0.726671 0.964893 0.382899
Si Si4 0.026389 0.660321 0.397434
Si Si5 0.977632 0.588267 0.847068
Si Si6 0.557240 0.130483 0.302884
Si Si7 0.254058 0.925482 0.300884
O O1 0.997883 0.250000 0.966100
O O2 0.781795 0.365029 0.795671
O O3 0.261503 0.362750 0.984675
O O4 0.969293 0.396438 0.025492
O O5 0.429886 0.750000 0.944491
O O6 0.411396 0.831625 0.785737
O O7 0.225052 0.886089 0.877189
O O8 0.551790 0.945028 0.409896
O O9 0.781308 0.888532 0.342623
O O10 0.582250 0.037797 0.288061
O O11 0.000000 0.000000 0.500000
O O12 0.975720 0.750000 0.356664
O O13 0.226510 0.655996 0.551584
O O14 0.149571 0.613252 0.356206
O O15 0.719372 0.639892 0.747542
O O16 0.896978 0.502981 0.782835
#
# Coordination Sequence:
#
# PCOD9162541 Si02
#       7
#     4   4   4   4   4   4   4
#     4  10  22  39  57  85 121 152 194 247 295 351
#     4  10  20  35  57  84 114 150 193 246 300 347
#     4   9  21  40  60  82 114 156 199 238 282 340
#     4  11  23  37  57  88 123 157 193 239 298 359
#     4  10  21  38  63  86 111 155 202 245 295 347
#     4   9  20  38  58  84 115 149 198 249 290 346
#     4  11  23  39  61  87 120 158 197 242 295 353
#
# _framework density 21.372959999999999
#
# number of rings (size 3 to 8) (size 9 to 14) (size 15 to 20)
#    0.000    2.000    0.000    2.571    0.000   12.000 
#    0.000    0.000    0.000    0.000    0.000    0.000 
#    0.000    0.000    0.000    0.000    0.000    0.000 
#
# Total GULP energy -156186.068638 kJ/mol
# GULP energy per Si atom -5578.073880 kJ/mol
# Density = 2.132431 g / cm^3
# Si number density = 21.372960 Si / 1000 Ang^3
#
#
#
# Elastic Constant Matrix: (Units=GPa)
#
#
# Indices 1 2 3 4 5 6 
#
# 1 148.7578 66.3745 18.9907 0.0000 16.5288 0.0000
# 2 66.3745 93.1246 -3.3892 0.0000 9.0916 0.0000
# 3 18.9907 -3.3892 43.2339 0.0000 12.7466 0.0000
# 4 0.0000 0.0000 0.0000 17.6374 0.0000 -17.2047
# 5 16.5288 9.0916 12.7466 0.0000 12.2634 0.0000
# 6 0.0000 0.0000 0.0000 -17.2047 0.0000 -22.1282
#
#
#
# Elastic Compliance Matrix: (Units=1/GPa)
#
#
# Indices 1 2 3 4 5 6 
#
# 1 0.011222 -0.007616 -0.003939 0.000000 -0.005385 0.000000
# 2 -0.007616 0.017532 0.007967 0.000000 -0.011013 0.000000
# 3 -0.003939 0.007967 0.036999 0.000000 -0.039054 0.000000
# 4 0.000000 0.000000 0.000000 0.032243 0.000000 -0.025069
# 5 -0.005385 -0.011013 -0.039054 0.000000 0.137559 0.000000
# 6 0.000000 0.000000 0.000000 -0.025069 0.000000 -0.025700
#
#
# Mechanical properties :
#
#
# Convention : Reuss Voigt Hill
#
# Bulk Modulus (GPa) = 17.07172 49.89647 33.48409
# Shear Modulus (GPa) = 21.13666 15.09720 18.11693
#
# Velocity S-wave (km/s) = 3.14816 2.66064 2.91461
# Velocity P-wave (km/s) = 4.60645 5.73018 5.19877
#
# Compressibility (1/GPa) = 0.05857642
#
# Stress axis : x y z
#
# Youngs Moduli (GPa) = 89.11425 57.04000 27.02785
#
# Poissons Ratio (x) = 0.43440 0.10645
# Poissons Ratio (y) = 0.67867 -0.21532
# Poissons Ratio (z) = 0.35098 -0.45441
#
# Static dielectric constant tensor:
#      x y z
#    x 1.755660 0.000000 0.020350 
#    y 0.000000 1.827050 0.000000 
#    z 0.020350 0.000000 1.789280 
# 
# From -- ./inp_files/46090.got.cif
#   From: 2010.05.17/outbox.cif.g08.bks.cpg/sg11_24_cif.got.tgz:46090.got - 2010.06.03 12:22:45.
