data_PCOD9162180
_publ_section_title
;
Structure prediction by ZEFSAII (Michael W. Deem and Ramdas Pophale) SiO2 
 PCOD9162180
Probable space group: P 21/M
;
_chemical_formula_sum "Si O2"
_cell_formula_units_Z 20
_cell_length_a 27.191087
_cell_length_b 7.679979
_cell_length_c 9.454798
_cell_angle_alpha 90.000000
_cell_angle_beta 29.815130
_cell_angle_gamma 90.000000
_cell_volume 981.686183
_symmetry_space_group_name_H-M "P 21/M"
_symmetry_group_IT_number 11
_symmetry_cell_setting 'monoclinic'
loop_
_space_group_symop_operation_xyz
x,y,z
-x,1/2+y,-z
-x,-y,-z
x,1/2-y,z
loop_
_atom_site_type_symbol
_atom_site_label
_atom_site_fract_x
_atom_site_fract_y
_atom_site_fract_z
Si Si1 0.003940 0.956624 0.322961
Si Si2 0.402680 0.040623 0.832642
Si Si3 0.788538 0.536117 0.862022
Si Si4 0.402581 0.040194 0.153607
Si Si5 0.220414 0.455193 0.790964
O O1 0.007412 0.750000 0.297405
O O2 0.896997 0.019090 0.535410
O O3 0.000000 0.000000 0.500000
O O4 0.109288 0.025795 0.008611
O O5 0.394936 0.250000 0.857874
O O6 0.500000 0.000000 0.500000
O O7 0.303821 0.977599 0.000301
O O8 0.410183 0.974027 0.974242
O O9 0.789462 0.750000 0.861541
O O10 0.776967 0.476021 0.054180
O O11 0.394277 0.250000 0.165620
O O12 0.305837 0.972492 0.477567
O O13 0.500000 0.000000 0.000000
O O14 0.239622 0.250000 0.756903
#
# Coordination Sequence:
#
# PCOD9162180 Si02
#       5
#     4   4   4   4   4
#     4   9  16  28  48  73  98 129 165 202 243 291
#     4  10  20  35  53  74  99 131 168 207 251 301
#     4   8  15  29  49  69  95 129 162 196 241 290
#     4  10  21  35  53  75 101 133 169 208 255 304
#     4   9  17  31  49  71  99 132 165 203 247 292
#
# _framework density 20.373108999999999
#
# number of rings (size 3 to 8) (size 9 to 14) (size 15 to 20)
#    0.000    2.800    0.000    3.000    0.000    3.200 
#    0.000    8.000    0.000    0.000    0.000    0.000 
#    0.000    0.000    0.000    0.000    0.000    0.000 
#
# Total GULP energy -111512.427246 kJ/mol
# GULP energy per Si atom -5575.621362 kJ/mol
# Density = 2.032674 g / cm^3
# Si number density = 20.373109 Si / 1000 Ang^3
#
#
#
# Elastic Constant Matrix: (Units=GPa)
#
#
# Indices 1 2 3 4 5 6 
#
# 1 156.3171 0.0844 106.9566 0.0000 -22.2012 0.0000
# 2 0.0844 30.2462 -2.6224 0.0000 6.9919 0.0000
# 3 106.9566 -2.6224 204.1735 0.0000 -21.3353 0.0000
# 4 0.0000 0.0000 0.0000 23.4190 0.0000 -6.8110
# 5 -22.2012 6.9919 -21.3353 0.0000 34.5874 0.0000
# 6 0.0000 0.0000 0.0000 -6.8110 0.0000 15.7768
#
#
#
# Elastic Compliance Matrix: (Units=1/GPa)
#
#
# Indices 1 2 3 4 5 6 
#
# 1 0.010412 -0.001354 -0.005072 0.000000 0.003829 0.000000
# 2 -0.001354 0.034877 0.000352 0.000000 -0.007702 0.000000
# 3 -0.005072 0.000352 0.007708 0.000000 0.001428 0.000000
# 4 0.000000 0.000000 0.000000 0.048831 0.000000 0.021081
# 5 0.003829 -0.007702 0.001428 0.000000 0.033808 0.000000
# 6 0.000000 0.000000 0.000000 0.021081 0.000000 0.072485
#
#
# Mechanical properties :
#
#
# Convention : Reuss Voigt Hill
#
# Bulk Modulus (GPa) = 24.47933 66.61932 45.54933
# Shear Modulus (GPa) = 21.37807 33.84452 27.61129
#
# Velocity S-wave (km/s) = 3.24285 4.08025 3.68541
# Velocity P-wave (km/s) = 5.10519 7.41408 6.36520
#
# Compressibility (1/GPa) = 0.04085079
#
# Stress axis : x y z
#
# Youngs Moduli (GPa) = 96.04433 28.67241 129.72978
#
# Poissons Ratio (x) = 0.03882 0.65794
# Poissons Ratio (y) = 0.13002 -0.04571
# Poissons Ratio (z) = 0.48710 -0.01010
#
# Static dielectric constant tensor:
#      x y z
#    x 1.713820 0.000000 -0.009570 
#    y 0.000000 1.771010 0.000000 
#    z -0.009570 0.000000 1.732860 
# 
# From -- ./inp_files/16664.got.cif
#   From: 2010.05.17/outbox.cif.g08.bks.cpg/sg11_9_cif.got.tgz:16664.got - 2010.06.03 12:22:45.
