data_PCOD9162090
_publ_section_title
;
Structure prediction by ZEFSAII (Michael W. Deem and Ramdas Pophale) SiO2 
 PCOD9162090
Probable space group: P 21/M
;
_chemical_formula_sum "Si O2"
_cell_formula_units_Z 28
_cell_length_a 11.832841
_cell_length_b 7.697061
_cell_length_c 15.245198
_cell_angle_alpha 90.000000
_cell_angle_beta 66.636705
_cell_angle_gamma 90.000000
_cell_volume 1274.658654
_symmetry_space_group_name_H-M "P 21/M"
_symmetry_group_IT_number 11
_symmetry_cell_setting 'monoclinic'
loop_
_space_group_symop_operation_xyz
x,y,z
-x,1/2+y,-z
-x,-y,-z
x,1/2-y,z
loop_
_atom_site_type_symbol
_atom_site_label
_atom_site_fract_x
_atom_site_fract_y
_atom_site_fract_z
Si Si1 0.859443 0.959291 0.023914
Si Si2 0.200912 0.546696 0.452909
Si Si3 0.012143 0.955844 0.365231
Si Si4 0.454060 0.042065 0.112343
Si Si5 0.183513 0.459248 0.159597
Si Si6 0.472047 0.540056 0.408299
Si Si7 0.357966 0.048693 0.794956
O O1 0.844637 0.750000 0.026580
O O2 0.766227 0.029153 0.126228
O O3 0.824004 0.023627 0.937844
O O4 0.000000 0.000000 0.000000
O O5 0.215387 0.750000 0.427873
O O6 0.114747 0.471932 0.402180
O O7 0.336936 0.472602 0.422254
O O8 0.119173 0.530913 0.566092
O O9 0.001604 0.750000 0.381358
O O10 0.066042 0.989525 0.252985
O O11 0.458709 0.250000 0.122792
O O12 0.312261 0.981742 0.162820
O O13 0.542096 0.958815 0.157414
O O14 0.500000 0.000000 0.000000
O O15 0.188184 0.250000 0.155723
O O16 0.500000 0.500000 0.500000
O O17 0.469002 0.750000 0.400297
O O18 0.576871 0.471415 0.310441
O O19 0.330819 0.250000 0.782345
#
# Coordination Sequence:
#
# PCOD9162090 Si02
#       7
#     4   4   4   4   4   4   4
#     4  10  22  40  58  79 113 152 191 234 281 336
#     4   9  19  37  56  81 116 150 182 232 296 342
#     4  10  20  34  58  87 112 146 190 234 280 341
#     4  11  21  35  59  89 120 152 188 234 288 348
#     4  10  21  37  55  82 119 153 182 229 290 338
#     4  10  22  39  61  84 114 153 195 244 293 343
#     4  10  21  41  62  84 117 153 191 244 297 341
#
# _framework density 21.966664000000002
#
# number of rings (size 3 to 8) (size 9 to 14) (size 15 to 20)
#    0.000    2.000    1.429    1.714    0.000    6.286 
#    0.000    2.857    0.000    0.000    0.000    0.000 
#    0.000    0.000    0.000    0.000    0.000    0.000 
#
# Total GULP energy -156447.552819 kJ/mol
# GULP energy per Si atom -5587.412601 kJ/mol
# Density = 2.191667 g / cm^3
# Si number density = 21.966664 Si / 1000 Ang^3
#
#
#
# Elastic Constant Matrix: (Units=GPa)
#
#
# Indices 1 2 3 4 5 6 
#
# 1 92.2736 -3.5092 51.1601 0.0000 -26.3507 0.0000
# 2 -3.5092 42.8886 -7.3395 0.0000 -2.8191 0.0000
# 3 51.1601 -7.3395 176.0038 0.0000 -25.4969 0.0000
# 4 0.0000 0.0000 0.0000 19.1737 0.0000 1.9804
# 5 -26.3507 -2.8191 -25.4969 0.0000 29.2823 0.0000
# 6 0.0000 0.0000 0.0000 1.9804 0.0000 23.0047
#
#
#
# Elastic Compliance Matrix: (Units=1/GPa)
#
#
# Indices 1 2 3 4 5 6 
#
# 1 0.015884 0.001607 -0.002812 0.000000 0.012001 0.000000
# 2 0.001607 0.023976 0.001232 0.000000 0.004827 0.000000
# 3 -0.002812 0.001232 0.007096 0.000000 0.003767 0.000000
# 4 0.000000 0.000000 0.000000 0.052623 0.000000 -0.004530
# 5 0.012001 0.004827 0.003767 0.000000 0.048695 0.000000
# 6 0.000000 0.000000 0.000000 -0.004530 0.000000 0.043859
#
#
# Mechanical properties :
#
#
# Convention : Reuss Voigt Hill
#
# Bulk Modulus (GPa) = 21.27142 43.53209 32.40176
# Shear Modulus (GPa) = 24.06760 32.34912 28.20836
#
# Velocity S-wave (km/s) = 3.31364 3.84167 3.58738
# Velocity P-wave (km/s) = 4.93404 6.28795 5.65168
#
# Compressibility (1/GPa) = 0.04701143
#
# Stress axis : x y z
#
# Youngs Moduli (GPa) = 62.95469 41.70864 140.92265
#
# Poissons Ratio (x) = -0.06704 0.39623
# Poissons Ratio (y) = -0.10119 -0.17360
# Poissons Ratio (z) = 0.17701 -0.05138
#
# Static dielectric constant tensor:
#      x y z
#    x 1.784040 0.000000 -0.017580 
#    y 0.000000 1.806440 0.000000 
#    z -0.017580 0.000000 1.815150 
# 
# From -- ./inp_files/37666.got.cif
#   From: 2010.05.17/outbox.cif.g08.bks.cpg/sg11_19_cif.got.tgz:37666.got - 2010.06.03 12:22:45.
