data_PCOD9162274
_publ_section_title
;
Structure prediction by ZEFSAII (Michael W. Deem and Ramdas Pophale) SiO2 
 PCOD9162274
Probable space group: P 21/M
;
_chemical_formula_sum "Si O2"
_cell_formula_units_Z 24
_cell_length_a 13.506862
_cell_length_b 13.852355
_cell_length_c 7.056494
_cell_angle_alpha 90.000000
_cell_angle_beta 82.591864
_cell_angle_gamma 90.000000
_cell_volume 1309.262480
_symmetry_space_group_name_H-M "P 21/M"
_symmetry_group_IT_number 11
_symmetry_cell_setting 'monoclinic'
loop_
_space_group_symop_operation_xyz
x,y,z
-x,1/2+y,-z
-x,-y,-z
x,1/2-y,z
loop_
_atom_site_type_symbol
_atom_site_label
_atom_site_fract_x
_atom_site_fract_y
_atom_site_fract_z
Si Si1 0.227277 0.639161 0.503767
Si Si2 0.086994 0.365486 0.589990
Si Si3 0.557231 0.985926 0.180856
Si Si4 0.894112 0.487030 0.749094
Si Si5 0.535350 0.142564 0.501640
Si Si6 0.792571 0.511478 0.171370
O O1 0.192835 0.750000 0.507130
O O2 0.188674 0.578587 0.335474
O O3 0.347054 0.638109 0.478938
O O4 0.190727 0.582925 0.700473
O O5 0.076154 0.250000 0.584801
O O6 0.095031 0.416327 0.381400
O O7 0.180095 0.399435 0.697042
O O8 0.993463 0.421972 0.707554
O O9 0.525170 0.889737 0.299432
O O10 0.676884 0.988982 0.137839
O O11 0.520604 0.069931 0.332261
O O12 0.500000 0.000000 0.000000
O O13 0.861189 0.509306 0.969455
O O14 0.509242 0.250000 0.449551
#
# Coordination Sequence:
#
# PCOD9162274 Si02
#       6
#     4   4   4   4   4   4
#     4   9  18  33  55  82 108 136 175 222 268 313
#     4  10  22  38  55  78 109 143 178 219 271 327
#     4  10  20  35  55  78 107 144 182 221 265 316
#     4  10  20  37  58  80 106 140 180 222 267 321
#     4   9  19  35  53  77 109 140 174 220 268 315
#     4  10  21  36  54  80 110 139 178 224 269 317
#
# _framework density 18.330931
#
# number of rings (size 3 to 8) (size 9 to 14) (size 15 to 20)
#    0.000    2.333    0.000    2.000    0.000    4.667 
#    0.000    3.333    0.000    0.000    0.000    0.000 
#    0.000    0.000    0.000    0.000    0.000    0.000 
#
# Total GULP energy -133879.012083 kJ/mol
# GULP energy per Si atom -5578.292170 kJ/mol
# Density = 1.828921 g / cm^3
# Si number density = 18.330931 Si / 1000 Ang^3
#
#
#
# Elastic Constant Matrix: (Units=GPa)
#
#
# Indices 1 2 3 4 5 6 
#
# 1 13.1134 25.8221 19.2240 0.0000 7.8719 0.0000
# 2 25.8221 124.2136 38.1263 0.0000 0.3800 0.0000
# 3 19.2240 38.1263 82.7819 0.0000 -2.3947 0.0000
# 4 0.0000 0.0000 0.0000 8.8761 0.0000 -1.3927
# 5 7.8719 0.3800 -2.3947 0.0000 36.2320 0.0000
# 6 0.0000 0.0000 0.0000 -1.3927 0.0000 21.3896
#
#
#
# Elastic Compliance Matrix: (Units=1/GPa)
#
#
# Indices 1 2 3 4 5 6 
#
# 1 0.244337 -0.038103 -0.040794 0.000000 -0.055382 0.000000
# 2 -0.038103 0.015323 0.002030 0.000000 0.008252 0.000000
# 3 -0.040794 0.002030 0.020914 0.000000 0.010224 0.000000
# 4 0.000000 0.000000 0.000000 0.113824 0.000000 0.007411
# 5 -0.055382 0.008252 0.010224 0.000000 0.040222 0.000000
# 6 0.000000 0.000000 0.000000 0.007411 0.000000 0.047234
#
#
# Mechanical properties :
#
#
# Convention : Reuss Voigt Hill
#
# Bulk Modulus (GPa) = 7.88396 42.93929 25.41162
# Shear Modulus (GPa) = 7.37605 22.42864 14.90234
#
# Velocity S-wave (km/s) = 2.00812 3.50171 2.85434
# Velocity P-wave (km/s) = 3.11239 6.31068 4.97552
#
# Compressibility (1/GPa) = 0.12683986
#
# Stress axis : x y z
#
# Youngs Moduli (GPa) = 4.09271 65.25954 47.81424
#
# Poissons Ratio (x) = 2.48659 1.95054
# Poissons Ratio (y) = 0.15594 -0.09705
# Poissons Ratio (z) = 0.16696 -0.13246
#
# Static dielectric constant tensor:
#      x y z
#    x 1.669700 0.000000 0.007890 
#    y 0.000000 1.635680 0.000000 
#    z 0.007890 0.000000 1.600460 
# 
# From -- ./inp_files/6444.got.cif
#   From: 2010.05.17/outbox.cif.g08.bks.cpg/sg11_4_cif.got.tgz:6444.got - 2010.06.03 12:22:45.
