data_PCOD9162377
_publ_section_title
;
Structure prediction by ZEFSAII (Michael W. Deem and Ramdas Pophale) SiO2 
 PCOD9162377
Probable space group: P 21/M
;
_chemical_formula_sum "Si O2"
_cell_formula_units_Z 32
_cell_length_a 15.339055
_cell_length_b 7.812964
_cell_length_c 26.181753
_cell_angle_alpha 90.000000
_cell_angle_beta 30.624924
_cell_angle_gamma 90.000000
_cell_volume 1598.400314
_symmetry_space_group_name_H-M "P 21/M"
_symmetry_group_IT_number 11
_symmetry_cell_setting 'monoclinic'
loop_
_space_group_symop_operation_xyz
x,y,z
-x,1/2+y,-z
-x,-y,-z
x,1/2-y,z
loop_
_atom_site_type_symbol
_atom_site_label
_atom_site_fract_x
_atom_site_fract_y
_atom_site_fract_z
Si Si1 0.870143 0.546130 0.927664
Si Si2 0.325127 0.044347 0.615058
Si Si3 0.469683 0.540421 0.296802
Si Si4 0.181906 0.546252 0.266905
Si Si5 0.481860 0.039860 0.844764
Si Si6 0.960835 0.044651 0.766916
Si Si7 0.086231 0.545500 0.510887
Si Si8 0.245435 0.455833 0.768172
O O1 0.862287 0.750000 0.931269
O O2 0.883539 0.489716 0.861812
O O3 0.044163 0.497044 0.869511
O O4 0.698455 0.481390 0.041235
O O5 0.312333 0.250000 0.623703
O O6 0.156530 0.980168 0.670794
O O7 0.314155 0.980766 0.678724
O O8 0.500000 0.000000 0.500000
O O9 0.468465 0.750000 0.298057
O O10 0.491905 0.487321 0.226987
O O11 0.283509 0.484567 0.411143
O O12 0.629780 0.481566 0.250192
O O13 0.206318 0.750000 0.249228
O O14 0.357269 0.479024 0.202954
O O15 0.135811 0.476055 0.234137
O O16 0.028648 0.520567 0.384576
O O17 0.482229 0.250000 0.844804
O O18 0.967144 0.250000 0.758247
O O19 0.088928 0.750000 0.513338
O O20 0.000000 0.500000 0.500000
O O21 0.257332 0.250000 0.762585
#
# Coordination Sequence:
#
# PCOD9162377 Si02
#       8
#     4   4   4   4   4   4   4   4
#     4  10  20  35  56  80 107 139 180 231 273 317
#     4   9  18  31  47  71 101 134 173 214 260 313
#     4   9  18  34  56  79 107 146 181 212 265 331
#     4  10  20  37  58  80 110 147 182 221 270 325
#     4   9  18  34  56  80 107 142 180 219 276 329
#     4   9  20  37  55  76 107 145 180 218 273 327
#     4  11  21  35  57  82 112 148 182 221 268 319
#     4   9  19  36  55  75 104 142 181 218 266 327
#
# _framework density 20.020016999999999
#
# number of rings (size 3 to 8) (size 9 to 14) (size 15 to 20)
#    0.000    2.500    1.250    1.500    1.750    3.500 
#    0.000    2.500    0.000    0.000    0.000    0.000 
#    0.000    0.000    0.000    0.000    0.000    0.000 
#
# Total GULP energy -178558.181677 kJ/mol
# GULP energy per Si atom -5579.943177 kJ/mol
# Density = 1.997445 g / cm^3
# Si number density = 20.020017 Si / 1000 Ang^3
#
#
#
# Elastic Constant Matrix: (Units=GPa)
#
#
# Indices 1 2 3 4 5 6 
#
# 1 192.5276 9.6779 79.3510 0.0000 -30.2432 0.0000
# 2 9.6779 17.4125 -8.1013 0.0000 -2.6135 0.0000
# 3 79.3510 -8.1013 148.7840 0.0000 -36.8846 0.0000
# 4 0.0000 0.0000 0.0000 23.3256 0.0000 1.1977
# 5 -30.2432 -2.6135 -36.8846 0.0000 12.8154 0.0000
# 6 0.0000 0.0000 0.0000 1.1977 0.0000 4.9511
#
#
#
# Elastic Compliance Matrix: (Units=1/GPa)
#
#
# Indices 1 2 3 4 5 6 
#
# 1 0.008352 -0.000517 0.001318 0.000000 0.023399 0.000000
# 2 -0.000517 0.089693 0.032782 0.000000 0.111421 0.000000
# 3 0.001318 0.032782 0.035714 0.000000 0.112586 0.000000
# 4 0.000000 0.000000 0.000000 0.043411 0.000000 -0.010501
# 5 0.023399 0.111421 0.112586 0.000000 0.480012 0.000000
# 6 0.000000 0.000000 0.000000 -0.010501 0.000000 0.204515
#
#
# Mechanical properties :
#
#
# Convention : Reuss Voigt Hill
#
# Bulk Modulus (GPa) = 4.97700 57.84215 31.40958
# Shear Modulus (GPa) = 5.80379 26.73819 16.27099
#
# Velocity S-wave (km/s) = 1.70449 3.65851 2.85395
# Velocity P-wave (km/s) = 2.52292 6.84114 5.15588
#
# Compressibility (1/GPa) = 0.20092430
#
# Stress axis : x y z
#
# Youngs Moduli (GPa) = 119.72516 11.14919 28.00016
#
# Poissons Ratio (x) = 0.00577 -0.03690
# Poissons Ratio (y) = 0.06192 -0.91789
# Poissons Ratio (z) = -0.15780 -0.36549
#
# Static dielectric constant tensor:
#      x y z
#    x 1.719460 0.000000 -0.012180 
#    y 0.000000 1.727210 0.000000 
#    z -0.012180 0.000000 1.658470 
# 
# From -- ./inp_files/51639.got.cif
#   From: 2010.05.17/outbox.cif.g08.bks.cpg/sg11_26_cif.got.tgz:51639.got - 2010.06.03 12:22:45.
