data_PCOD9162605
_publ_section_title
;
Structure prediction by ZEFSAII (Michael W. Deem and Ramdas Pophale) SiO2 
 PCOD9162605
Probable space group: P 21/M
;
_chemical_formula_sum "Si O2"
_cell_formula_units_Z 32
_cell_length_a 21.422829
_cell_length_b 8.863444
_cell_length_c 27.270678
_cell_angle_alpha 90.000000
_cell_angle_beta 161.158517
_cell_angle_gamma 90.000000
_cell_volume 1672.291160
_symmetry_space_group_name_H-M "P 21/M"
_symmetry_group_IT_number 11
_symmetry_cell_setting 'monoclinic'
loop_
_space_group_symop_operation_xyz
x,y,z
-x,1/2+y,-z
-x,-y,-z
x,1/2-y,z
loop_
_atom_site_type_symbol
_atom_site_label
_atom_site_fract_x
_atom_site_fract_y
_atom_site_fract_z
Si Si1 0.378362 0.066918 0.533423
Si Si2 0.810530 0.569563 0.229398
Si Si3 0.196674 0.924160 0.130173
Si Si4 0.514518 0.431856 0.934213
Si Si5 0.083365 0.574226 0.936003
Si Si6 0.448457 0.933877 0.150275
Si Si7 0.695037 0.071019 0.622813
Si Si8 0.769624 0.567743 0.468037
O O1 0.373536 0.250000 0.525282
O O2 0.602465 0.014855 0.699880
O O3 0.289899 0.027813 0.520504
O O4 0.279067 0.991838 0.413079
O O5 0.822388 0.750000 0.235136
O O6 0.677547 0.529943 0.177612
O O7 0.022130 0.499461 0.389313
O O8 0.693922 0.505634 0.095988
O O9 0.186804 0.750000 0.137701
O O10 0.200182 0.930167 0.073821
O O11 0.000000 0.000000 0.000000
O O12 0.537425 0.250000 0.952863
O O13 0.504514 0.479017 0.870191
O O14 0.032720 0.750000 0.888987
O O15 0.886661 0.481794 0.793686
O O16 0.233516 0.518294 0.006746
O O17 0.445789 0.750000 0.150078
O O18 0.608082 0.982715 0.308635
O O19 0.677607 0.250000 0.610558
O O20 0.500000 0.000000 0.500000
O O21 0.778388 0.750000 0.472502
#
# Coordination Sequence:
#
# PCOD9162605 Si02
#       8
#     4   4   4   4   4   4   4   4
#     4  10  21  39  60  84 114 149 189 234 283 342
#     4  10  21  36  55  85 123 154 190 239 285 335
#     4  10  20  35  58  84 110 142 184 230 281 334
#     4   9  19  37  60  85 114 155 198 235 283 339
#     4  10  20  38  61  86 114 146 188 239 287 336
#     4   9  18  36  62  87 111 147 196 239 278 340
#     4  12  26  42  59  84 116 151 192 237 287 342
#     4  10  20  37  61  86 114 152 194 233 281 344
#
# _framework density 19.135422999999999
#
# number of rings (size 3 to 8) (size 9 to 14) (size 15 to 20)
#    0.000    2.000    1.250    2.250    1.750    4.500 
#    0.000    1.250    0.000    0.000    0.000    0.000 
#    0.000    0.000    0.000    0.000    0.000    0.000 
#
# Total GULP energy -178685.523805 kJ/mol
# GULP energy per Si atom -5583.922619 kJ/mol
# Density = 1.909187 g / cm^3
# Si number density = 19.135423 Si / 1000 Ang^3
#
#
#
# Elastic Constant Matrix: (Units=GPa)
#
#
# Indices 1 2 3 4 5 6 
#
# 1 83.9822 19.6615 15.4746 0.0000 3.4816 0.0000
# 2 19.6615 31.8805 18.0811 0.0000 2.9295 0.0000
# 3 15.4746 18.0811 80.6509 0.0000 15.4967 0.0000
# 4 0.0000 0.0000 0.0000 30.8059 0.0000 3.8346
# 5 3.4816 2.9295 15.4967 0.0000 26.8770 0.0000
# 6 0.0000 0.0000 0.0000 3.8346 0.0000 18.8212
#
#
#
# Elastic Compliance Matrix: (Units=1/GPa)
#
#
# Indices 1 2 3 4 5 6 
#
# 1 0.013974 -0.008141 -0.000763 0.000000 -0.000483 0.000000
# 2 -0.008141 0.040695 -0.007773 0.000000 0.001101 0.000000
# 3 -0.000763 -0.007773 0.015864 0.000000 -0.008201 0.000000
# 4 0.000000 0.000000 0.000000 0.033306 0.000000 -0.006786
# 5 -0.000483 0.001101 -0.008201 0.000000 0.041877 0.000000
# 6 0.000000 0.000000 0.000000 -0.006786 0.000000 0.054514
#
#
# Mechanical properties :
#
#
# Convention : Reuss Voigt Hill
#
# Bulk Modulus (GPa) = 26.89707 33.66087 30.27897
# Shear Modulus (GPa) = 20.32712 24.85394 22.59053
#
# Velocity S-wave (km/s) = 3.26280 3.60786 3.43966
# Velocity P-wave (km/s) = 5.31800 5.91478 5.62431
#
# Compressibility (1/GPa) = 0.03717877
#
# Stress axis : x y z
#
# Youngs Moduli (GPa) = 71.56253 24.57311 63.03618
#
# Poissons Ratio (x) = 0.20004 0.04812
# Poissons Ratio (y) = 0.58257 0.48997
# Poissons Ratio (z) = 0.05463 0.19100
#
# Static dielectric constant tensor:
#      x y z
#    x 1.681070 0.000000 0.000300 
#    y 0.000000 1.652270 0.000000 
#    z 0.000300 0.000000 1.645080 
# 
# From -- ./inp_files/72160.got.cif
#   From: 2010.05.17/outbox.cif.g08.bks.cpg/sg11_37_cif.got.tgz:72160.got - 2010.06.03 12:22:45.
