data_PCOD9162168
_publ_section_title
;
Structure prediction by ZEFSAII (Michael W. Deem and Ramdas Pophale) SiO2 
 PCOD9162168
Probable space group: P 21/M
;
_chemical_formula_sum "Si O2"
_cell_formula_units_Z 32
_cell_length_a 11.538417
_cell_length_b 9.006595
_cell_length_c 23.844501
_cell_angle_alpha 90.000000
_cell_angle_beta 125.546603
_cell_angle_gamma 90.000000
_cell_volume 2016.178375
_symmetry_space_group_name_H-M "P 21/M"
_symmetry_group_IT_number 11
_symmetry_cell_setting 'monoclinic'
loop_
_space_group_symop_operation_xyz
x,y,z
-x,1/2+y,-z
-x,-y,-z
x,1/2-y,z
loop_
_atom_site_type_symbol
_atom_site_label
_atom_site_fract_x
_atom_site_fract_y
_atom_site_fract_z
Si Si1 0.529635 0.573267 0.775784
Si Si2 0.928181 0.578288 0.350708
Si Si3 0.304768 0.428379 0.797230
Si Si4 0.663618 0.922267 0.364675
Si Si5 0.821440 0.073476 0.893914
Si Si6 0.122951 0.573431 0.959497
Si Si7 0.111097 0.427550 0.487661
Si Si8 0.649708 0.572397 0.058882
O O1 0.537219 0.750000 0.781056
O O2 0.425731 0.510836 0.795468
O O3 0.457632 0.521424 0.697153
O O4 0.683161 0.500464 0.828089
O O5 0.971799 0.750000 0.358771
O O6 0.850058 0.530070 0.271639
O O7 0.796959 0.571537 0.358484
O O8 0.057763 0.484882 0.412585
O O9 0.321107 0.250000 0.792348
O O10 0.319874 0.457480 0.867053
O O11 0.618007 0.750000 0.354192
O O12 0.733263 0.966770 0.443810
O O13 0.823284 0.250000 0.884381
O O14 0.819672 0.050147 0.960863
O O15 0.966808 0.999037 0.913409
O O16 0.115072 0.750000 0.947852
O O17 0.228420 0.497128 0.945548
O O18 0.098881 0.250000 0.487286
O O19 0.000000 0.500000 0.500000
O O20 0.643680 0.750000 0.049506
O O21 0.500000 0.500000 0.000000
#
# Coordination Sequence:
#
# PCOD9162168 Si02
#       8
#     4   4   4   4   4   4   4   4
#     4  11  20  28  44  69  93 119 155 195 229 264
#     4   8  14  25  39  54  77 112 150 185 220 260
#     4   9  19  33  45  61  90 126 158 187 225 276
#     4   8  15  26  37  53  83 119 149 179 221 272
#     4  10  20  35  53  69  91 122 150 182 229 279
#     4  10  21  36  53  73  93 115 150 192 229 269
#     4   9  15  22  34  53  78 110 146 182 220 263
#     4  11  22  35  51  70  94 124 156 189 228 272
#
# _framework density 15.871612000000001
#
# number of rings (size 3 to 8) (size 9 to 14) (size 15 to 20)
#    0.000    2.500    0.000    4.875    0.000   10.500 
#    0.000    0.000    0.000    0.000    0.000    0.000 
#    0.000    1.000    0.000    3.000    0.000    6.375 
#
# Total GULP energy -178327.355069 kJ/mol
# GULP energy per Si atom -5572.729846 kJ/mol
# Density = 1.583549 g / cm^3
# Si number density = 15.871612 Si / 1000 Ang^3
#
#
#
# Elastic Constant Matrix: (Units=GPa)
#
#
# Indices 1 2 3 4 5 6 
#
# 1 58.9263 41.8120 59.8429 0.0000 10.3366 0.0000
# 2 41.8120 84.6953 83.2253 0.0000 13.4172 0.0000
# 3 59.8429 83.2253 166.9488 0.0000 19.0911 0.0000
# 4 0.0000 0.0000 0.0000 30.0481 0.0000 4.2730
# 5 10.3366 13.4172 19.0911 0.0000 16.8551 0.0000
# 6 0.0000 0.0000 0.0000 4.2730 0.0000 20.9672
#
#
#
# Elastic Compliance Matrix: (Units=1/GPa)
#
#
# Indices 1 2 3 4 5 6 
#
# 1 0.029632 -0.007765 -0.006180 0.000000 -0.004991 0.000000
# 2 -0.007765 0.025749 -0.009481 0.000000 -0.004996 0.000000
# 3 -0.006180 -0.009481 0.013366 0.000000 -0.003802 0.000000
# 4 0.000000 0.000000 0.000000 0.034273 0.000000 -0.006985
# 5 -0.004991 -0.004996 -0.003802 0.000000 0.070674 0.000000
# 6 0.000000 0.000000 0.000000 -0.006985 0.000000 0.049117
#
#
# Mechanical properties :
#
#
# Convention : Reuss Voigt Hill
#
# Bulk Modulus (GPa) = 45.67428 75.59230 60.63329
# Shear Modulus (GPa) = 18.05313 21.95344 20.00329
#
# Velocity S-wave (km/s) = 3.37627 3.72316 3.55395
# Velocity P-wave (km/s) = 6.63617 8.13716 7.42469
#
# Compressibility (1/GPa) = 0.02189416
#
# Stress axis : x y z
#
# Youngs Moduli (GPa) = 33.74773 38.83716 74.81579
#
# Poissons Ratio (x) = 0.30158 0.46233
# Poissons Ratio (y) = 0.26206 0.70934
# Poissons Ratio (z) = 0.20855 0.36822
#
# Static dielectric constant tensor:
#      x y z
#    x 1.492850 0.000000 -0.005270 
#    y 0.000000 1.526560 0.000000 
#    z -0.005270 0.000000 1.580230 
# 
# From -- ./inp_files/68331.got.cif
#   From: 2010.05.17/outbox.cif.g08.bks.cpg/sg11_35_cif.got.tgz:68331.got - 2010.06.03 12:22:45.
