data_PCOD9162543
_publ_section_title
;
Structure prediction by ZEFSAII (Michael W. Deem and Ramdas Pophale) SiO2 
 PCOD9162543
Probable space group: P 21/M
;
_chemical_formula_sum "Si O2"
_cell_formula_units_Z 32
_cell_length_a 16.134782
_cell_length_b 10.881964
_cell_length_c 9.503865
_cell_angle_alpha 90.000000
_cell_angle_beta 89.295681
_cell_angle_gamma 90.000000
_cell_volume 1668.544645
_symmetry_space_group_name_H-M "P 21/M"
_symmetry_group_IT_number 11
_symmetry_cell_setting 'monoclinic'
loop_
_space_group_symop_operation_xyz
x,y,z
-x,1/2+y,-z
-x,-y,-z
x,1/2-y,z
loop_
_atom_site_type_symbol
_atom_site_label
_atom_site_fract_x
_atom_site_fract_y
_atom_site_fract_z
Si Si1 0.952026 0.379367 0.860057
Si Si2 0.375398 0.891740 0.219645
Si Si3 0.565009 0.608068 0.240385
Si Si4 0.615098 0.392109 0.442754
Si Si5 0.798763 0.113869 0.315988
Si Si6 0.058113 0.613951 0.464888
Si Si7 0.134699 0.059355 0.927020
Si Si8 0.686456 0.612664 0.972075
O O1 0.924443 0.250000 0.923679
O O2 0.924877 0.387712 0.700287
O O3 0.052255 0.379996 0.862538
O O4 0.909046 0.484473 0.947913
O O5 0.346165 0.750000 0.192759
O O6 0.472791 0.897764 0.178016
O O7 0.374955 0.910085 0.389402
O O8 0.329517 0.999908 0.135231
O O9 0.575971 0.750000 0.293283
O O10 0.569642 0.503697 0.361800
O O11 0.632681 0.588603 0.115602
O O12 0.582984 0.250000 0.423520
O O13 0.705791 0.397138 0.371247
O O14 0.810134 0.250000 0.255979
O O15 0.858962 0.101583 0.447631
O O16 0.826725 0.020197 0.198396
O O17 0.021787 0.750000 0.499536
O O18 0.000000 0.500000 0.500000
O O19 0.216317 0.120002 0.990705
O O20 0.661156 0.750000 0.920631
#
# Coordination Sequence:
#
# PCOD9162543 Si02
#       8
#     4   4   4   4   4   4   4   4
#     4  10  22  37  59  85 113 153 196 243 293 349
#     4  10  23  40  62  90 124 161 201 245 296 357
#     4  10  21  40  63  91 122 158 200 247 300 355
#     4  10  21  38  61  91 120 155 199 247 296 355
#     4  10  20  35  57  84 116 149 195 243 291 353
#     4  10  20  37  58  84 114 149 191 238 295 350
#     4  11  21  38  59  81 119 151 201 239 300 347
#     4  11  24  40  60  87 123 160 202 252 298 353
#
# _framework density 19.178388999999999
#
# number of rings (size 3 to 8) (size 9 to 14) (size 15 to 20)
#    0.000    1.750    2.500    1.500    1.750    2.500 
#    0.000    1.250    0.000    0.000    0.000    0.000 
#    0.000    0.000    0.000    0.000    0.000    0.000 
#
# Total GULP energy -178275.375348 kJ/mol
# GULP energy per Si atom -5571.105480 kJ/mol
# Density = 1.913474 g / cm^3
# Si number density = 19.178389 Si / 1000 Ang^3
#
#
#
# Elastic Constant Matrix: (Units=GPa)
#
#
# Indices 1 2 3 4 5 6 
#
# 1 60.5637 31.8096 22.5184 0.0000 -0.1992 0.0000
# 2 31.8096 136.8883 60.9390 0.0000 18.6234 0.0000
# 3 22.5184 60.9390 68.9341 0.0000 4.6267 0.0000
# 4 0.0000 0.0000 0.0000 31.6675 0.0000 5.5704
# 5 -0.1992 18.6234 4.6267 0.0000 24.5463 0.0000
# 6 0.0000 0.0000 0.0000 5.5704 0.0000 16.2263
#
#
#
# Elastic Compliance Matrix: (Units=1/GPa)
#
#
# Indices 1 2 3 4 5 6 
#
# 1 0.019671 -0.003423 -0.003631 0.000000 0.003441 0.000000
# 2 -0.003423 0.014054 -0.010724 0.000000 -0.008669 0.000000
# 3 -0.003631 -0.010724 0.024945 0.000000 0.003405 0.000000
# 4 0.000000 0.000000 0.000000 0.033608 0.000000 -0.011537
# 5 0.003441 -0.008669 0.003405 0.000000 0.046703 0.000000
# 6 0.000000 0.000000 0.000000 -0.011537 0.000000 0.065589
#
#
# Mechanical properties :
#
#
# Convention : Reuss Voigt Hill
#
# Bulk Modulus (GPa) = 43.26444 55.21332 49.23888
# Shear Modulus (GPa) = 20.17520 24.56261 22.36890
#
# Velocity S-wave (km/s) = 3.24694 3.58263 3.41891
# Velocity P-wave (km/s) = 6.05514 6.77979 6.42768
#
# Compressibility (1/GPa) = 0.02311367
#
# Stress axis : x y z
#
# Youngs Moduli (GPa) = 50.83736 71.15338 40.08896
#
# Poissons Ratio (x) = 0.24354 0.14556
# Poissons Ratio (y) = 0.17400 0.42992
# Poissons Ratio (z) = 0.18459 0.76306
#
# Static dielectric constant tensor:
#      x y z
#    x 1.663040 0.000000 0.012900 
#    y 0.000000 1.714750 0.000000 
#    z 0.012900 0.000000 1.633280 
# 
# From -- ./inp_files/21537.got.cif
#   From: 2010.05.17/outbox.cif.g08.bks.cpg/sg11_11_cif.got.tgz:21537.got - 2010.06.03 12:22:45.
