data_PCOD9162740
_publ_section_title
;
Structure prediction by ZEFSAII (Michael W. Deem and Ramdas Pophale) SiO2 
 PCOD9162740
Probable space group: P 21/M
;
_chemical_formula_sum "Si O2"
_cell_formula_units_Z 32
_cell_length_a 12.741032
_cell_length_b 17.641248
_cell_length_c 14.805828
_cell_angle_alpha 90.000000
_cell_angle_beta 151.632126
_cell_angle_gamma 90.000000
_cell_volume 1581.174849
_symmetry_space_group_name_H-M "P 21/M"
_symmetry_group_IT_number 11
_symmetry_cell_setting 'monoclinic'
loop_
_space_group_symop_operation_xyz
x,y,z
-x,1/2+y,-z
-x,-y,-z
x,1/2-y,z
loop_
_atom_site_type_symbol
_atom_site_label
_atom_site_fract_x
_atom_site_fract_y
_atom_site_fract_z
Si Si1 0.777712 0.546540 0.302825
Si Si2 0.782213 0.163416 0.749012
Si Si3 0.176710 0.336272 0.511375
Si Si4 0.709130 0.660702 0.885721
Si Si5 0.611741 0.576517 0.626230
Si Si6 0.661267 0.946038 0.004450
Si Si7 0.685849 0.165470 0.863492
Si Si8 0.977498 0.072690 0.199410
O O1 0.799724 0.625140 0.373672
O O2 0.733803 0.563537 0.163743
O O3 0.000000 0.500000 0.500000
O O4 0.560304 0.497829 0.166502
O O5 0.724111 0.250000 0.725492
O O6 0.588276 0.133833 0.541904
O O7 0.773264 0.124036 0.840192
O O8 0.027486 0.161549 0.899449
O O9 0.088171 0.250000 0.445042
O O10 0.424371 0.332075 0.659590
O O11 0.051797 0.394990 0.351883
O O12 0.647649 0.750000 0.819269
O O13 0.670085 0.599700 0.774157
O O14 0.612051 0.626853 0.904943
O O15 0.500000 0.500000 0.500000
O O16 0.827543 0.585501 0.725874
O O17 0.876089 0.989138 0.125721
O O18 0.780222 0.250000 0.943757
O O19 0.768888 0.121974 0.012264
#
# Coordination Sequence:
#
# PCOD9162740 Si02
#       8
#     4   4   4   4   4   4   4   4
#     4  11  24  47  70  94 126 165 217 285 340 397
#     4  10  21  39  60  89 132 178 215 257 312 375
#     4  11  23  39  66 101 132 166 212 270 338 393
#     4  11  26  46  66  93 136 181 223 270 323 389
#     4  12  26  36  62  99 135 179 221 264 311 390
#     4  11  26  43  69  95 124 171 222 275 339 396
#     4  10  20  35  59  92 132 167 204 259 319 380
#     4  12  22  38  64  98 134 169 216 266 323 393
#
# _framework density 20.238116999999999
#
# number of rings (size 3 to 8) (size 9 to 14) (size 15 to 20)
#    0.000    1.000    5.000    1.500    3.500    3.500 
#    0.000    0.625    0.000    0.000    0.000    0.000 
#    0.000    0.000    0.000    0.000    0.000    0.000 
#
# Total GULP energy -178195.277798 kJ/mol
# GULP energy per Si atom -5568.602431 kJ/mol
# Density = 2.019205 g / cm^3
# Si number density = 20.238117 Si / 1000 Ang^3
#
#
#
# Elastic Constant Matrix: (Units=GPa)
#
#
# Indices 1 2 3 4 5 6 
#
# 1 68.3938 31.3250 24.3705 0.0000 -16.0213 0.0000
# 2 31.3250 84.1757 19.6088 0.0000 -9.6901 0.0000
# 3 24.3705 19.6088 93.2957 0.0000 -12.1254 0.0000
# 4 0.0000 0.0000 0.0000 13.1327 0.0000 51.7412
# 5 -16.0213 -9.6901 -12.1254 0.0000 24.3125 0.0000
# 6 0.0000 0.0000 0.0000 51.7412 0.0000 -143.1189
#
#
#
# Elastic Compliance Matrix: (Units=1/GPa)
#
#
# Indices 1 2 3 4 5 6 
#
# 1 0.020641 -0.005880 -0.002879 0.000000 0.009822 0.000000
# 2 -0.005880 0.014527 -0.001356 0.000000 0.001239 0.000000
# 3 -0.002879 -0.001356 0.012232 0.000000 0.003662 0.000000
# 4 0.000000 0.000000 0.000000 0.031408 0.000000 0.011355
# 5 0.009822 0.001239 0.003662 0.000000 0.049924 0.000000
# 6 0.000000 0.000000 0.000000 0.011355 0.000000 -0.002882
#
#
# Mechanical properties :
#
#
# Convention : Reuss Voigt Hill
#
# Bulk Modulus (GPa) = 36.80738 44.05265 40.43001
# Shear Modulus (GPa) = 32.22947 -9.76402 11.23272
#
# Velocity S-wave (km/s) = 3.99496 -2.19887 2.35846
# Velocity P-wave (km/s) = 6.28540 3.92017 5.23803
#
# Compressibility (1/GPa) = 0.02716847
#
# Stress axis : x y z
#
# Youngs Moduli (GPa) = 48.44681 68.83930 81.75401
#
# Poissons Ratio (x) = 0.40477 0.23540
# Poissons Ratio (y) = 0.28486 0.11088
# Poissons Ratio (z) = 0.13950 0.09337
#
# Static dielectric constant tensor:
#      x y z
#    x 2.061000 0.000000 -0.329850 
#    y 0.000000 2.108910 0.000000 
#    z -0.329850 0.000000 2.065970 
# 
# From -- ./inp_files/50701.got.cif
#   From: 2010.05.17/outbox.cif.g08.bks.cpg/sg11_26_cif.got.tgz:50701.got - 2010.06.03 12:22:45.
