data_PCOD9162446
_publ_section_title
;
Structure prediction by ZEFSAII (Michael W. Deem and Ramdas Pophale) SiO2 
 PCOD9162446
Probable space group: P 21/M
;
_chemical_formula_sum "Si O2"
_cell_formula_units_Z 32
_cell_length_a 14.699706
_cell_length_b 8.313787
_cell_length_c 23.976489
_cell_angle_alpha 90.000000
_cell_angle_beta 149.644827
_cell_angle_gamma 90.000000
_cell_volume 1480.788251
_symmetry_space_group_name_H-M "P 21/M"
_symmetry_group_IT_number 11
_symmetry_cell_setting 'monoclinic'
loop_
_space_group_symop_operation_xyz
x,y,z
-x,1/2+y,-z
-x,-y,-z
x,1/2-y,z
loop_
_atom_site_type_symbol
_atom_site_label
_atom_site_fract_x
_atom_site_fract_y
_atom_site_fract_z
Si Si1 0.559571 0.445378 0.855783
Si Si2 0.582015 0.052309 0.657111
Si Si3 0.801087 0.056560 0.878280
Si Si4 0.819939 0.941026 0.555753
Si Si5 0.828318 0.934958 0.094295
Si Si6 0.681536 0.068141 0.121114
Si Si7 0.821992 0.933182 0.306114
Si Si8 0.787694 0.436650 0.664557
O O1 0.557682 0.250000 0.861328
O O2 0.655657 0.486654 0.848780
O O3 0.350849 0.501051 0.751107
O O4 0.692621 0.516235 0.973576
O O5 0.586113 0.250000 0.657593
O O6 0.723796 0.997369 0.778547
O O7 0.380049 0.004903 0.567083
O O8 0.630039 0.993845 0.620160
O O9 0.807842 0.250000 0.879525
O O10 0.000000 0.000000 0.000000
O O11 0.827386 0.750000 0.558934
O O12 0.833998 0.990486 0.628702
O O13 0.979031 0.996019 0.598349
O O14 0.784194 0.750000 0.087462
O O15 0.043122 0.937974 0.202339
O O16 0.804297 0.057662 0.132173
O O17 0.670445 0.250000 0.136811
O O18 0.746120 0.950143 0.203143
O O19 0.500000 0.000000 0.000000
O O20 0.844520 0.750000 0.335932
O O21 0.750340 0.250000 0.632663
#
# Coordination Sequence:
#
# PCOD9162446 Si02
#       8
#     4   4   4   4   4   4   4   4
#     4  10  22  37  58  84 115 153 196 242 293 347
#     4   9  20  39  61  84 114 151 193 240 298 354
#     4  10  21  42  67  91 116 148 189 240 295 353
#     4  11  22  36  57  84 114 154 197 242 290 348
#     4  11  21  32  53  83 118 156 192 236 290 343
#     4  12  22  33  51  78 115 157 197 237 285 343
#     4  11  22  37  54  79 117 158 196 241 291 343
#     4  10  20  35  56  83 116 154 191 235 292 355
#
# _framework density 21.610112999999998
#
# number of rings (size 3 to 8) (size 9 to 14) (size 15 to 20)
#    0.000    1.500    2.500    3.375    0.000    2.500 
#    0.000    3.125    0.000    0.000    0.000    0.000 
#    0.000    0.000    0.000    0.000    0.000    0.000 
#
# Total GULP energy -178381.955296 kJ/mol
# GULP energy per Si atom -5574.436103 kJ/mol
# Density = 2.156093 g / cm^3
# Si number density = 21.610113 Si / 1000 Ang^3
#
#
#
# Elastic Constant Matrix: (Units=GPa)
#
#
# Indices 1 2 3 4 5 6 
#
# 1 120.1709 20.6439 40.6559 0.0000 17.4260 0.0000
# 2 20.6439 31.6666 11.4204 0.0000 11.3231 0.0000
# 3 40.6559 11.4204 105.8714 0.0000 16.4643 0.0000
# 4 0.0000 0.0000 0.0000 20.9620 0.0000 4.9041
# 5 17.4260 11.3231 16.4643 0.0000 28.5467 0.0000
# 6 0.0000 0.0000 0.0000 4.9041 0.0000 16.0227
#
#
#
# Elastic Compliance Matrix: (Units=1/GPa)
#
#
# Indices 1 2 3 4 5 6 
#
# 1 0.010604 -0.004796 -0.003124 0.000000 -0.002769 0.000000
# 2 -0.004796 0.039306 -0.000471 0.000000 -0.012391 0.000000
# 3 -0.003124 -0.000471 0.011392 0.000000 -0.004476 0.000000
# 4 0.000000 0.000000 0.000000 0.051385 0.000000 -0.015727
# 5 -0.002769 -0.012391 -0.004476 0.000000 0.044217 0.000000
# 6 0.000000 0.000000 0.000000 -0.015727 0.000000 0.067225
#
#
# Mechanical properties :
#
#
# Convention : Reuss Voigt Hill
#
# Bulk Modulus (GPa) = 22.46203 44.79437 33.62820
# Shear Modulus (GPa) = 19.55019 25.43888 22.49453
#
# Velocity S-wave (km/s) = 3.01105 3.43472 3.22984
# Velocity P-wave (km/s) = 4.74398 6.04178 5.43178
#
# Compressibility (1/GPa) = 0.04451958
#
# Stress axis : x y z
#
# Youngs Moduli (GPa) = 94.30565 25.44115 87.78042
#
# Poissons Ratio (x) = 0.12202 0.27423
# Poissons Ratio (y) = 0.45230 0.04136
# Poissons Ratio (z) = 0.29462 0.01199
#
# Static dielectric constant tensor:
#      x y z
#    x 1.928250 0.000000 0.166530 
#    y 0.000000 1.782130 0.000000 
#    z 0.166530 0.000000 1.936460 
# 
# From -- ./inp_files/69170.got.cif
#   From: 2010.05.17/outbox.cif.g08.bks.cpg/sg11_35_cif.got.tgz:69170.got - 2010.06.03 12:22:45.
