data_PCOD9162926
_publ_section_title
;
Structure prediction by ZEFSAII (Michael W. Deem and Ramdas Pophale) SiO2 
 PCOD9162926
Probable space group: P 21/M
;
_chemical_formula_sum "Si O2"
_cell_formula_units_Z 32
_cell_length_a 12.570163
_cell_length_b 21.554779
_cell_length_c 5.532949
_cell_angle_alpha 90.000000
_cell_angle_beta 91.149183
_cell_angle_gamma 90.000000
_cell_volume 1498.834876
_symmetry_space_group_name_H-M "P 21/M"
_symmetry_group_IT_number 11
_symmetry_cell_setting 'monoclinic'
loop_
_space_group_symop_operation_xyz
x,y,z
-x,1/2+y,-z
-x,-y,-z
x,1/2-y,z
loop_
_atom_site_type_symbol
_atom_site_label
_atom_site_fract_x
_atom_site_fract_y
_atom_site_fract_z
Si Si1 0.438526 0.079817 0.382634
Si Si2 0.064795 0.458383 0.188992
Si Si3 0.353374 0.518550 0.731252
Si Si4 0.380658 0.822608 0.875269
Si Si5 0.271064 0.400461 0.012809
Si Si6 0.733059 0.324307 0.642433
Si Si7 0.862503 0.431314 0.470004
Si Si8 0.575458 0.678844 0.216300
O O1 0.542936 0.062171 0.225065
O O2 0.466962 0.126912 0.600429
O O3 0.390410 0.015816 0.487650
O O4 0.334742 0.110362 0.260566
O O5 0.125638 0.507678 0.362159
O O6 0.973763 0.424341 0.337473
O O7 0.149421 0.415420 0.056927
O O8 0.000000 0.500000 0.000000
O O9 0.329422 0.462742 0.913608
O O10 0.240634 0.552477 0.697993
O O11 0.354944 0.750000 0.890672
O O12 0.317886 0.848241 0.107737
O O13 0.503496 0.824872 0.969605
O O14 0.340565 0.835152 0.600347
O O15 0.305839 0.344161 0.842778
O O16 0.752590 0.250000 0.653879
O O17 0.834142 0.368164 0.604954
O O18 0.567585 0.750000 0.303686
#
# Coordination Sequence:
#
# PCOD9162926 Si02
#       8
#     4   4   4   4   4   4   4   4
#     4  10  21  37  58  88 130 161 196 260 316 394
#     4  11  24  43  63  90 118 167 219 272 325 388
#     4  10  20  36  56  95 122 155 201 255 326 381
#     4   9  20  38  60  92 134 174 214 256 317 403
#     4  11  22  39  63  88 125 160 216 270 319 388
#     4  10  22  40  65  99 134 171 218 270 331 399
#     4  11  23  38  66  90 126 166 212 266 333 392
#     4  10  23  38  58  90 129 176 214 256 317 393
#
# _framework density 21.349914999999999
#
# number of rings (size 3 to 8) (size 9 to 14) (size 15 to 20)
#    0.000    1.750    2.500    1.125    5.250    0.500 
#    0.000    0.625    0.000    2.250    0.000    0.000 
#    0.000    0.000    0.000    0.000    0.000    0.000 
#
# Total GULP energy -178340.555470 kJ/mol
# GULP energy per Si atom -5573.142358 kJ/mol
# Density = 2.130132 g / cm^3
# Si number density = 21.349915 Si / 1000 Ang^3
#
#
#
# Elastic Constant Matrix: (Units=GPa)
#
#
# Indices 1 2 3 4 5 6 
#
# 1 130.4460 36.7393 33.7737 0.0000 -29.4374 0.0000
# 2 36.7393 71.0551 3.5334 0.0000 -13.3918 0.0000
# 3 33.7737 3.5334 61.8803 0.0000 -8.1631 0.0000
# 4 0.0000 0.0000 0.0000 24.1340 0.0000 -2.0329
# 5 -29.4374 -13.3918 -8.1631 0.0000 34.3915 0.0000
# 6 0.0000 0.0000 0.0000 -2.0329 0.0000 32.0534
#
#
#
# Elastic Compliance Matrix: (Units=1/GPa)
#
#
# Indices 1 2 3 4 5 6 
#
# 1 0.011948 -0.004558 -0.005312 0.000000 0.007191 0.000000
# 2 -0.004558 0.016928 0.001937 0.000000 0.003150 0.000000
# 3 -0.005312 0.001937 0.019045 0.000000 0.000728 0.000000
# 4 0.000000 0.000000 0.000000 0.041658 0.000000 0.002642
# 5 0.007191 0.003150 0.000728 0.000000 0.036631 0.000000
# 6 0.000000 0.000000 0.000000 0.002642 0.000000 0.031365
#
#
# Mechanical properties :
#
#
# Convention : Reuss Voigt Hill
#
# Bulk Modulus (GPa) = 31.19806 45.71936 38.45871
# Shear Modulus (GPa) = 27.15517 30.73813 28.94665
#
# Velocity S-wave (km/s) = 3.57025 3.79849 3.68614
# Velocity P-wave (km/s) = 5.62495 6.37957 6.01411
#
# Compressibility (1/GPa) = 0.03205328
#
# Stress axis : x y z
#
# Youngs Moduli (GPa) = 83.69628 59.07456 52.50735
#
# Poissons Ratio (x) = 0.26928 0.27893
# Poissons Ratio (y) = 0.38151 -0.10169
# Poissons Ratio (z) = 0.44461 -0.11441
#
# Static dielectric constant tensor:
#      x y z
#    x 1.790550 0.000000 0.000640 
#    y 0.000000 1.857760 0.000000 
#    z 0.000640 0.000000 1.918930 
# 
# From -- ./inp_files/5373.got.cif
#   From: 2010.05.17/outbox.cif.g08.bks.cpg/sg11_3_cif.got.tgz:5373.got - 2010.06.03 12:22:45.
