data_PCOD9162148
_publ_section_title
;
Structure prediction by ZEFSAII (Michael W. Deem and Ramdas Pophale) SiO2 
 PCOD9162148
Probable space group: P 21/M
;
_chemical_formula_sum "Si O2"
_cell_formula_units_Z 32
_cell_length_a 12.871606
_cell_length_b 7.800056
_cell_length_c 20.039153
_cell_angle_alpha 90.000000
_cell_angle_beta 63.406029
_cell_angle_gamma 90.000000
_cell_volume 1799.057895
_symmetry_space_group_name_H-M "P 21/M"
_symmetry_group_IT_number 11
_symmetry_cell_setting 'monoclinic'
loop_
_space_group_symop_operation_xyz
x,y,z
-x,1/2+y,-z
-x,-y,-z
x,1/2-y,z
loop_
_atom_site_type_symbol
_atom_site_label
_atom_site_fract_x
_atom_site_fract_y
_atom_site_fract_z
Si Si1 0.899124 0.550548 0.672748
Si Si2 0.492852 0.959808 0.314231
Si Si3 0.841882 0.551560 0.413999
Si Si4 0.523109 0.957220 0.157220
Si Si5 0.272719 0.456037 0.166201
Si Si6 0.603460 0.956617 0.419360
Si Si7 0.230249 0.949111 0.421145
Si Si8 0.374459 0.456386 0.004611
O O1 0.867244 0.750000 0.674857
O O2 0.831166 0.480608 0.757023
O O3 0.852380 0.463393 0.619024
O O4 0.036943 0.535622 0.638181
O O5 0.493249 0.750000 0.313314
O O6 0.535709 0.018564 0.229374
O O7 0.568213 0.016881 0.355745
O O8 0.358922 0.012429 0.364512
O O9 0.854057 0.750000 0.391475
O O10 0.726781 0.479184 0.411355
O O11 0.819549 0.541190 0.499722
O O12 0.529214 0.750000 0.156405
O O13 0.393908 0.003567 0.168728
O O14 0.614462 0.019523 0.074757
O O15 0.262564 0.250000 0.164576
O O16 0.284541 0.521469 0.086507
O O17 0.610406 0.750000 0.415497
O O18 0.500000 0.000000 0.500000
O O19 0.241415 0.750000 0.436891
O O20 0.363037 0.250000 0.005050
O O21 0.500000 0.500000 0.000000
#
# Coordination Sequence:
#
# PCOD9162148 Si02
#       8
#     4   4   4   4   4   4   4   4
#     4  11  22  34  48  67  96 128 160 193 229 274
#     4   9  17  29  48  72  94 119 149 187 230 273
#     4  11  23  36  50  68  91 121 161 199 233 275
#     4   9  15  26  45  68  93 120 149 181 223 276
#     4   9  17  28  42  64  94 124 151 183 222 266
#     4  10  20  35  52  69  90 117 153 196 237 276
#     4  11  20  33  52  70  95 124 155 192 232 278
#     4   8  14  24  40  63  91 120 148 178 217 268
#
# _framework density 17.787088000000001
#
# number of rings (size 3 to 8) (size 9 to 14) (size 15 to 20)
#    0.000    2.250    2.500    1.500    0.000    1.000 
#    0.000    0.625    0.000    0.000    0.000    0.875 
#    0.000    0.000    0.000    0.000    0.000    0.000 
#
# Total GULP energy -178405.479021 kJ/mol
# GULP energy per Si atom -5575.171219 kJ/mol
# Density = 1.774660 g / cm^3
# Si number density = 17.787088 Si / 1000 Ang^3
#
#
#
# Elastic Constant Matrix: (Units=GPa)
#
#
# Indices 1 2 3 4 5 6 
#
# 1 91.3076 -3.5766 70.9978 0.0000 -2.2788 0.0000
# 2 -3.5766 24.3257 -2.8776 0.0000 0.0436 0.0000
# 3 70.9978 -2.8776 167.0224 0.0000 21.0443 0.0000
# 4 0.0000 0.0000 0.0000 3.3721 0.0000 -3.7861
# 5 -2.2788 0.0436 21.0443 0.0000 14.7471 0.0000
# 6 0.0000 0.0000 0.0000 -3.7861 0.0000 9.6485
#
#
#
# Elastic Compliance Matrix: (Units=1/GPa)
#
#
# Indices 1 2 3 4 5 6 
#
# 1 0.019782 0.001611 -0.010687 0.000000 0.018303 0.000000
# 2 0.001611 0.041347 0.000014 0.000000 0.000107 0.000000
# 3 -0.010687 0.000014 0.013092 0.000000 -0.020334 0.000000
# 4 0.000000 0.000000 0.000000 0.530119 0.000000 0.208020
# 5 0.018303 0.000107 -0.020334 0.000000 0.099655 0.000000
# 6 0.000000 0.000000 0.000000 0.208020 0.000000 0.185271
#
#
# Mechanical properties :
#
#
# Convention : Reuss Voigt Hill
#
# Bulk Modulus (GPa) = 17.82601 45.74920 31.78761
# Shear Modulus (GPa) = 5.39905 20.09435 12.74670
#
# Velocity S-wave (km/s) = 1.74412 3.36477 2.67989
# Velocity P-wave (km/s) = 3.75494 6.39311 5.24268
#
# Compressibility (1/GPa) = 0.05609780
#
# Stress axis : x y z
#
# Youngs Moduli (GPa) = 50.55127 24.18549 76.38000
#
# Poissons Ratio (x) = -0.03897 0.81629
# Poissons Ratio (y) = -0.08146 -0.00106
# Poissons Ratio (z) = 0.54025 -0.00034
#
# Static dielectric constant tensor:
#      x y z
#    x 1.574140 0.000000 0.012840 
#    y 0.000000 1.622330 0.000000 
#    z 0.012840 0.000000 1.652590 
# 
# From -- ./inp_files/42486.got.cif
#   From: 2010.05.17/outbox.cif.g08.bks.cpg/sg11_22_cif.got.tgz:42486.got - 2010.06.03 12:22:45.
