data_PCOD9162660
_publ_section_title
;
Structure prediction by ZEFSAII (Michael W. Deem and Ramdas Pophale) SiO2 
 PCOD9162660
Probable space group: P 21/M
;
_chemical_formula_sum "Si O2"
_cell_formula_units_Z 32
_cell_length_a 16.416148
_cell_length_b 8.660206
_cell_length_c 10.856075
_cell_angle_alpha 90.000000
_cell_angle_beta 85.294798
_cell_angle_gamma 90.000000
_cell_volume 1538.176768
_symmetry_space_group_name_H-M "P 21/M"
_symmetry_group_IT_number 11
_symmetry_cell_setting 'monoclinic'
loop_
_space_group_symop_operation_xyz
x,y,z
-x,1/2+y,-z
-x,-y,-z
x,1/2-y,z
loop_
_atom_site_type_symbol
_atom_site_label
_atom_site_fract_x
_atom_site_fract_y
_atom_site_fract_z
Si Si1 0.272366 0.069282 0.655918
Si Si2 0.969080 0.065559 0.185280
Si Si3 0.458373 0.432646 0.128840
Si Si4 0.117953 0.935116 0.285493
Si Si5 0.878818 0.066001 0.445323
Si Si6 0.820015 0.929907 0.071196
Si Si7 0.461916 0.435776 0.631190
Si Si8 0.280143 0.569249 0.137534
O O1 0.268991 0.250000 0.621736
O O2 0.231774 0.055584 0.795782
O O3 0.366172 0.020039 0.646785
O O4 0.214836 0.975093 0.571524
O O5 0.962424 0.250000 0.174488
O O6 0.929790 0.011231 0.321207
O O7 0.911402 0.987116 0.091411
O O8 0.062348 0.015097 0.189637
O O9 0.471118 0.250000 0.128483
O O10 0.495253 0.502926 0.250006
O O11 0.362255 0.471989 0.135467
O O12 0.500000 0.500000 0.000000
O O13 0.104790 0.750000 0.278829
O O14 0.096186 0.995178 0.424384
O O15 0.213824 0.962560 0.251982
O O16 0.887852 0.250000 0.448838
O O17 0.821329 0.750000 0.034802
O O18 0.771444 0.029507 0.978027
O O19 0.500000 0.500000 0.500000
O O20 0.467418 0.250000 0.630282
O O21 0.301837 0.750000 0.136775
#
# Coordination Sequence:
#
# PCOD9162660 Si02
#       8
#     4   4   4   4   4   4   4   4
#     4   9  20  37  59  86 115 151 197 247 300 361
#     4  10  20  35  58  87 117 154 202 252 302 364
#     4  12  26  46  71  98 129 171 219 270 326 393
#     4  10  22  38  56  83 120 159 197 245 305 366
#     4   9  19  35  57  85 117 155 198 244 299 362
#     4  10  20  38  62  86 116 156 203 255 306 364
#     4  11  24  42  64  96 134 171 214 268 327 390
#     4  11  24  41  62  90 123 159 202 255 309 372
#
# _framework density 20.803850000000001
#
# number of rings (size 3 to 8) (size 9 to 14) (size 15 to 20)
#    0.000    1.750    0.000    3.750    1.750    5.000 
#    0.000    0.000    0.000    0.000    0.000    0.000 
#    0.000    0.000    0.000    0.000    0.000    0.000 
#
# Total GULP energy -178867.801173 kJ/mol
# GULP energy per Si atom -5589.618787 kJ/mol
# Density = 2.075650 g / cm^3
# Si number density = 20.803850 Si / 1000 Ang^3
#
#
#
# Elastic Constant Matrix: (Units=GPa)
#
#
# Indices 1 2 3 4 5 6 
#
# 1 99.6807 19.2306 26.7851 0.0000 11.7189 0.0000
# 2 19.2306 39.0514 24.7119 0.0000 -8.3889 0.0000
# 3 26.7851 24.7119 108.6306 0.0000 11.7949 0.0000
# 4 0.0000 0.0000 0.0000 26.5986 0.0000 5.9918
# 5 11.7189 -8.3889 11.7949 0.0000 25.2844 0.0000
# 6 0.0000 0.0000 0.0000 5.9918 0.0000 37.7928
#
#
#
# Elastic Compliance Matrix: (Units=1/GPa)
#
#
# Indices 1 2 3 4 5 6 
#
# 1 0.012595 -0.007650 -0.000480 0.000000 -0.008152 0.000000
# 2 -0.007650 0.039953 -0.009508 0.000000 0.021237 0.000000
# 3 -0.000480 -0.009508 0.012435 0.000000 -0.008733 0.000000
# 4 0.000000 0.000000 0.000000 0.038988 0.000000 -0.006181
# 5 -0.008152 0.021237 -0.008733 0.000000 0.054448 0.000000
# 6 0.000000 0.000000 0.000000 -0.006181 0.000000 0.027440
#
#
# Mechanical properties :
#
#
# Convention : Reuss Voigt Hill
#
# Bulk Modulus (GPa) = 33.66222 43.20199 38.43211
# Shear Modulus (GPa) = 21.64137 29.71084 25.67610
#
# Velocity S-wave (km/s) = 3.22880 3.78318 3.51693
# Velocity P-wave (km/s) = 5.48781 6.31622 5.91653
#
# Compressibility (1/GPa) = 0.02970689
#
# Stress axis : x y z
#
# Youngs Moduli (GPa) = 79.39536 25.02928 80.41684
#
# Poissons Ratio (x) = 0.19146 0.03863
# Poissons Ratio (y) = 0.60733 0.76464
# Poissons Ratio (z) = 0.03814 0.23799
#
# Static dielectric constant tensor:
#      x y z
#    x 1.736630 0.000000 -0.040630 
#    y 0.000000 1.694140 0.000000 
#    z -0.040630 0.000000 1.770590 
# 
# From -- ./inp_files/38097.got.cif
#   From: 2010.05.17/outbox.cif.g08.bks.cpg/sg11_20_cif.got.tgz:38097.got - 2010.06.03 12:22:45.
