data_PCOD9162464
_publ_section_title
;
Structure prediction by ZEFSAII (Michael W. Deem and Ramdas Pophale) SiO2 
 PCOD9162464
Probable space group: P 21/M
;
_chemical_formula_sum "Si O2"
_cell_formula_units_Z 28
_cell_length_a 9.203422
_cell_length_b 8.649443
_cell_length_c 29.699126
_cell_angle_alpha 90.000000
_cell_angle_beta 141.042936
_cell_angle_gamma 90.000000
_cell_volume 1486.451506
_symmetry_space_group_name_H-M "P 21/M"
_symmetry_group_IT_number 11
_symmetry_cell_setting 'monoclinic'
loop_
_space_group_symop_operation_xyz
x,y,z
-x,1/2+y,-z
-x,-y,-z
x,1/2-y,z
loop_
_atom_site_type_symbol
_atom_site_label
_atom_site_fract_x
_atom_site_fract_y
_atom_site_fract_z
Si Si1 0.709507 0.564309 0.653127
Si Si2 0.944836 0.435477 0.345558
Si Si3 0.582755 0.563698 0.067842
Si Si4 0.562014 0.064125 0.794104
Si Si5 0.112643 0.564020 0.210226
Si Si6 0.742590 0.934721 0.932031
Si Si7 0.324542 0.935902 0.495545
O O1 0.715581 0.750000 0.657657
O O2 0.778314 0.494912 0.717218
O O3 0.454509 0.520908 0.573173
O O4 0.896686 0.520378 0.659636
O O5 0.928372 0.250000 0.342425
O O6 0.695232 0.510172 0.280103
O O7 0.080015 0.493290 0.422568
O O8 0.574413 0.750000 0.065436
O O9 0.418075 0.499954 0.067079
O O10 0.846893 0.513988 0.140907
O O11 0.500000 0.500000 0.000000
O O12 0.568904 0.250000 0.799949
O O13 0.736239 0.015499 0.796317
O O14 0.640893 0.989950 0.859927
O O15 0.113627 0.750000 0.211409
O O16 0.747301 0.750000 0.935265
O O17 0.000000 0.000000 0.000000
O O18 0.314159 0.750000 0.490318
O O19 0.500000 0.000000 0.500000
#
# Coordination Sequence:
#
# PCOD9162464 Si02
#       7
#     4   4   4   4   4   4   4
#     4   9  19  34  55  82 112 144 187 236 285 341
#     4  10  20  35  56  85 114 148 193 239 288 347
#     4  11  23  41  64  91 121 156 195 240 290 345
#     4  11  23  40  59  84 117 153 193 240 289 344
#     4  10  23  39  57  82 114 150 191 234 284 343
#     4  12  25  42  64  91 120 154 195 240 290 349
#     4   9  17  31  52  81 113 147 187 237 289 343
#
# _framework density 18.836807
#
# number of rings (size 3 to 8) (size 9 to 14) (size 15 to 20)
#    0.000    1.714    0.000    5.571    0.000    9.143 
#    0.000    0.714    0.000    0.000    0.000    0.000 
#    0.000    0.000    0.000    0.000    0.000    0.000 
#
# Total GULP energy -156430.209298 kJ/mol
# GULP energy per Si atom -5586.793189 kJ/mol
# Density = 1.879393 g / cm^3
# Si number density = 18.836807 Si / 1000 Ang^3
#
#
#
# Elastic Constant Matrix: (Units=GPa)
#
#
# Indices 1 2 3 4 5 6 
#
# 1 140.4335 46.6066 100.9045 0.0000 -2.2513 0.0000
# 2 46.6066 73.1707 53.1715 0.0000 0.6896 0.0000
# 3 100.9045 53.1715 208.0467 0.0000 -0.9172 0.0000
# 4 0.0000 0.0000 0.0000 40.5754 0.0000 -3.1960
# 5 -2.2513 0.6896 -0.9172 0.0000 33.2226 0.0000
# 6 0.0000 0.0000 0.0000 -3.1960 0.0000 28.8281
#
#
#
# Elastic Compliance Matrix: (Units=1/GPa)
#
#
# Indices 1 2 3 4 5 6 
#
# 1 0.011893 -0.004167 -0.004700 0.000000 0.000763 0.000000
# 2 -0.004167 0.018251 -0.002647 0.000000 -0.000734 0.000000
# 3 -0.004700 -0.002647 0.007762 0.000000 -0.000049 0.000000
# 4 0.000000 0.000000 0.000000 0.024863 0.000000 0.002756
# 5 0.000763 -0.000734 -0.000049 0.000000 0.030166 0.000000
# 6 0.000000 0.000000 0.000000 0.002756 0.000000 0.034994
#
#
# Mechanical properties :
#
#
# Convention : Reuss Voigt Hill
#
# Bulk Modulus (GPa) = 67.20855 91.44622 79.32739
# Shear Modulus (GPa) = 32.06868 35.25646 33.66257
#
# Velocity S-wave (km/s) = 4.13055 4.33098 4.23195
# Velocity P-wave (km/s) = 7.64888 8.58265 8.12918
#
# Compressibility (1/GPa) = 0.01487906
#
# Stress axis : x y z
#
# Youngs Moduli (GPa) = 84.08349 54.79097 128.82878
#
# Poissons Ratio (x) = 0.22833 0.60547
# Poissons Ratio (y) = 0.35040 0.34096
# Poissons Ratio (z) = 0.39517 0.14501
#
# Static dielectric constant tensor:
#      x y z
#    x 1.639930 0.000000 -0.051730 
#    y 0.000000 1.634320 0.000000 
#    z -0.051730 0.000000 1.732350 
# 
# From -- ./inp_files/70782.got.cif
#   From: 2010.05.17/outbox.cif.g08.bks.cpg/sg11_36_cif.got.tgz:70782.got - 2010.06.03 12:22:45.
