data_PCOD9162289
_publ_section_title
;
Structure prediction by ZEFSAII (Michael W. Deem and Ramdas Pophale) SiO2 
 PCOD9162289
Probable space group: P 21/M
;
_chemical_formula_sum "Si O2"
_cell_formula_units_Z 32
_cell_length_a 20.057184
_cell_length_b 8.787005
_cell_length_c 14.454935
_cell_angle_alpha 90.000000
_cell_angle_beta 133.998854
_cell_angle_gamma 90.000000
_cell_volume 1832.607475
_symmetry_space_group_name_H-M "P 21/M"
_symmetry_group_IT_number 11
_symmetry_cell_setting 'monoclinic'
loop_
_space_group_symop_operation_xyz
x,y,z
-x,1/2+y,-z
-x,-y,-z
x,1/2-y,z
loop_
_atom_site_type_symbol
_atom_site_label
_atom_site_fract_x
_atom_site_fract_y
_atom_site_fract_z
Si Si1 0.761861 0.565941 0.118196
Si Si2 0.601657 0.431658 0.608991
Si Si3 0.751093 0.566753 0.398657
Si Si4 0.601421 0.932044 0.104901
Si Si5 0.897480 0.067938 0.396912
Si Si6 0.242556 0.567333 0.390883
Si Si7 0.258224 0.067395 0.114417
Si Si8 0.101406 0.432327 0.112204
O O1 0.773136 0.750000 0.135031
O O2 0.668094 0.525543 0.083405
O O3 0.845444 0.488204 0.253953
O O4 0.754803 0.521989 0.004413
O O5 0.500000 0.500000 0.500000
O O6 0.595886 0.250000 0.607045
O O7 0.668589 0.473398 0.587194
O O8 0.654475 0.492109 0.750736
O O9 0.758581 0.750000 0.405549
O O10 0.658318 0.523939 0.251966
O O11 0.836002 0.497466 0.422052
O O12 0.749568 0.503652 0.500388
O O13 0.593725 0.750000 0.097386
O O14 0.500000 0.000000 0.000000
O O15 0.899743 0.250000 0.402898
O O16 0.000000 0.000000 0.500000
O O17 0.236893 0.750000 0.390975
O O18 0.153319 0.503034 0.250735
O O19 0.270602 0.250000 0.128910
O O20 0.167777 0.030779 0.088733
O O21 0.096997 0.250000 0.116961
O O22 0.000000 0.500000 0.000000
#
# Coordination Sequence:
#
# PCOD9162289 Si02
#       8
#     4   4   4   4   4   4   4   4
#     4   9  19  37  56  77 106 140 179 224 269 316
#     4  10  21  36  55  79 110 144 182 225 269 320
#     4  10  21  38  57  80 109 142 180 225 273 321
#     4   9  19  34  53  76 105 137 171 214 264 316
#     4  11  22  37  57  81 110 144 181 223 268 321
#     4  10  21  37  56  80 108 142 182 225 272 324
#     4   9  19  36  57  78 104 139 179 222 269 315
#     4  10  20  35  55  79 108 142 178 222 270 321
#
# _framework density 17.461459000000001
#
# number of rings (size 3 to 8) (size 9 to 14) (size 15 to 20)
#    0.000    2.250    0.000    3.375    0.000    7.000 
#    0.000    7.500    0.000    0.000    0.000    0.000 
#    0.000    0.000    0.000    0.000    0.000    0.000 
#
# Total GULP energy -178640.340455 kJ/mol
# GULP energy per Si atom -5582.510639 kJ/mol
# Density = 1.742172 g / cm^3
# Si number density = 17.461459 Si / 1000 Ang^3
#
#
#
# Elastic Constant Matrix: (Units=GPa)
#
#
# Indices 1 2 3 4 5 6 
#
# 1 105.9788 54.3945 128.8528 0.0000 -4.4130 0.0000
# 2 54.3945 65.5023 71.8404 0.0000 0.9973 0.0000
# 3 128.8528 71.8404 190.2087 0.0000 3.0811 0.0000
# 4 0.0000 0.0000 0.0000 38.1640 0.0000 3.2325
# 5 -4.4130 0.9973 3.0811 0.0000 44.8569 0.0000
# 6 0.0000 0.0000 0.0000 3.2325 0.0000 28.9579
#
#
#
# Elastic Compliance Matrix: (Units=1/GPa)
#
#
# Indices 1 2 3 4 5 6 
#
# 1 0.059174 -0.008797 -0.036902 0.000000 0.008552 0.000000
# 2 -0.008797 0.027371 -0.004360 0.000000 -0.001174 0.000000
# 3 -0.036902 -0.004360 0.031995 0.000000 -0.005731 0.000000
# 4 0.000000 0.000000 0.000000 0.026453 0.000000 -0.002953
# 5 0.008552 -0.001174 -0.005731 0.000000 0.023554 0.000000
# 6 0.000000 0.000000 0.000000 -0.002953 0.000000 0.034862
#
#
# Mechanical properties :
#
#
# Convention : Reuss Voigt Hill
#
# Bulk Modulus (GPa) = 54.27916 96.87390 75.57653
# Shear Modulus (GPa) = 16.14637 29.50257 22.82447
#
# Velocity S-wave (km/s) = 3.04416 4.11491 3.61935
# Velocity P-wave (km/s) = 6.59610 8.84171 7.80014
#
# Compressibility (1/GPa) = 0.01842328
#
# Stress axis : x y z
#
# Youngs Moduli (GPa) = 16.89942 36.53505 31.25459
#
# Poissons Ratio (x) = 0.32138 1.15336
# Poissons Ratio (y) = 0.14866 0.13626
# Poissons Ratio (z) = 0.62362 0.15928
#
# Static dielectric constant tensor:
#      x y z
#    x 1.579860 0.000000 -0.006040 
#    y 0.000000 1.588240 0.000000 
#    z -0.006040 0.000000 1.563550 
# 
# From -- ./inp_files/54304.got.cif
#   From: 2010.05.17/outbox.cif.g08.bks.cpg/sg11_28_cif.got.tgz:54304.got - 2010.06.03 12:22:45.
