data_PCOD9162781
_publ_section_title
;
Structure prediction by ZEFSAII (Michael W. Deem and Ramdas Pophale) SiO2 
 PCOD9162781
Probable space group: P 21/M
;
_chemical_formula_sum "Si O2"
_cell_formula_units_Z 32
_cell_length_a 5.893481
_cell_length_b 17.866037
_cell_length_c 14.126230
_cell_angle_alpha 90.000000
_cell_angle_beta 90.226393
_cell_angle_gamma 90.000000
_cell_volume 1487.383638
_symmetry_space_group_name_H-M "P 21/M"
_symmetry_group_IT_number 11
_symmetry_cell_setting 'monoclinic'
loop_
_space_group_symop_operation_xyz
x,y,z
-x,1/2+y,-z
-x,-y,-z
x,1/2-y,z
loop_
_atom_site_type_symbol
_atom_site_label
_atom_site_fract_x
_atom_site_fract_y
_atom_site_fract_z
Si Si1 0.033945 0.933328 0.313311
Si Si2 0.012956 0.666568 0.648771
Si Si3 0.697563 0.339100 0.836277
Si Si4 0.747751 0.043174 0.006474
Si Si5 0.259337 0.560240 0.776499
Si Si6 0.358944 0.333615 0.676240
Si Si7 0.623377 0.335435 0.492154
Si Si8 0.366199 0.451936 0.366388
O O1 0.819206 0.894108 0.360089
O O2 0.132681 0.871925 0.242269
O O3 0.933361 0.999716 0.248094
O O4 0.208316 0.975851 0.382756
O O5 0.953672 0.750000 0.671244
O O6 0.205239 0.635405 0.718739
O O7 0.118942 0.661715 0.543831
O O8 0.801692 0.614365 0.660506
O O9 0.728700 0.250000 0.853072
O O10 0.454554 0.348353 0.781731
O O11 0.731024 0.391498 0.927624
O O12 0.737355 0.073533 0.113239
O O13 0.500000 0.000000 0.000000
O O14 0.000000 0.000000 0.000000
O O15 0.483567 0.528862 0.725395
O O16 0.260333 0.250000 0.674068
O O17 0.565330 0.333522 0.602044
O O18 0.545711 0.250000 0.458188
O O19 0.510623 0.410338 0.447444
#
# Coordination Sequence:
#
# PCOD9162781 Si02
#       8
#     4   4   4   4   4   4   4   4
#     4  11  20  38  61  89 125 168 214 267 331 403
#     4   9  19  36  60  88 124 165 214 273 333 398
#     4  11  25  44  67  97 132 174 224 279 336 409
#     4  12  25  45  75 103 134 181 227 279 343 415
#     4  10  22  39  63  91 126 165 210 268 340 402
#     4  10  22  39  60  88 127 173 217 273 337 401
#     4   9  19  37  58  87 127 170 222 276 336 401
#     4  10  20  35  61  92 123 169 217 270 332 403
#
# _framework density 21.514288000000001
#
# number of rings (size 3 to 8) (size 9 to 14) (size 15 to 20)
#    0.000    1.750    1.250    3.000    1.750    2.500 
#    0.000   11.250    0.000    0.000    0.000    0.000 
#    0.000    0.000    0.000    0.000    0.000    0.000 
#
# Total GULP energy -178376.960919 kJ/mol
# GULP energy per Si atom -5574.280029 kJ/mol
# Density = 2.146532 g / cm^3
# Si number density = 21.514288 Si / 1000 Ang^3
#
#
#
# Elastic Constant Matrix: (Units=GPa)
#
#
# Indices 1 2 3 4 5 6 
#
# 1 82.3325 50.5363 31.3078 0.0000 1.9460 0.0000
# 2 50.5363 153.8409 41.6525 0.0000 7.9539 0.0000
# 3 31.3078 41.6525 120.1279 0.0000 4.9082 0.0000
# 4 0.0000 0.0000 0.0000 27.5115 0.0000 -4.3970
# 5 1.9460 7.9539 4.9082 0.0000 14.4088 0.0000
# 6 0.0000 0.0000 0.0000 -4.3970 0.0000 39.9049
#
#
#
# Elastic Compliance Matrix: (Units=1/GPa)
#
#
# Indices 1 2 3 4 5 6 
#
# 1 0.015926 -0.004591 -0.002611 0.000000 0.001273 0.000000
# 2 -0.004591 0.008641 -0.001653 0.000000 -0.003587 0.000000
# 3 -0.002611 -0.001653 0.009661 0.000000 -0.002026 0.000000
# 4 0.000000 0.000000 0.000000 0.037000 0.000000 0.004077
# 5 0.001273 -0.003587 -0.002026 0.000000 0.071900 0.000000
# 6 0.000000 0.000000 0.000000 0.004077 0.000000 0.025509
#
#
# Mechanical properties :
#
#
# Convention : Reuss Voigt Hill
#
# Bulk Modulus (GPa) = 60.53693 67.03272 63.78482
# Shear Modulus (GPa) = 26.06146 31.88532 28.97339
#
# Velocity S-wave (km/s) = 3.48423 3.85392 3.67373
# Velocity P-wave (km/s) = 6.66225 7.14343 6.90703
#
# Compressibility (1/GPa) = 0.01651884
#
# Stress axis : x y z
#
# Youngs Moduli (GPa) = 62.78866 115.72313 103.50935
#
# Poissons Ratio (x) = 0.53124 0.27027
# Poissons Ratio (y) = 0.28824 0.17113
# Poissons Ratio (z) = 0.16394 0.19132
#
# Static dielectric constant tensor:
#      x y z
#    x 1.890940 0.000000 0.029640 
#    y 0.000000 1.811540 0.000000 
#    z 0.029640 0.000000 1.752590 
# 
# From -- ./inp_files/46051.got.cif
#   From: 2010.05.17/outbox.cif.g08.bks.cpg/sg11_24_cif.got.tgz:46051.got - 2010.06.03 12:22:45.
