data_PCOD9162822
_publ_section_title
;
Structure prediction by ZEFSAII (Michael W. Deem and Ramdas Pophale) SiO2 
 PCOD9162822
Probable space group: P 21/M
;
_chemical_formula_sum "Si O2"
_cell_formula_units_Z 24
_cell_length_a 14.082374
_cell_length_b 9.384172
_cell_length_c 10.102036
_cell_angle_alpha 90.000000
_cell_angle_beta 100.884236
_cell_angle_gamma 90.000000
_cell_volume 1310.982716
_symmetry_space_group_name_H-M "P 21/M"
_symmetry_group_IT_number 11
_symmetry_cell_setting 'monoclinic'
loop_
_space_group_symop_operation_xyz
x,y,z
-x,1/2+y,-z
-x,-y,-z
x,1/2-y,z
loop_
_atom_site_type_symbol
_atom_site_label
_atom_site_fract_x
_atom_site_fract_y
_atom_site_fract_z
Si Si1 0.265950 0.580101 0.239638
Si Si2 0.785462 0.579889 0.035230
Si Si3 0.916898 0.580020 0.307177
Si Si4 0.421848 0.420802 0.888232
Si Si5 0.135671 0.580148 0.448649
Si Si6 0.512147 0.419762 0.641076
O O1 0.252039 0.750000 0.221115
O O2 0.217380 0.537684 0.365708
O O3 0.380187 0.551455 0.275201
O O4 0.218356 0.500453 0.104266
O O5 0.789971 0.750000 0.014139
O O6 0.872994 0.537400 0.154735
O O7 0.685376 0.549485 0.086922
O O8 0.902615 0.750000 0.316918
O O9 0.862710 0.501789 0.412718
O O10 0.030680 0.550846 0.355195
O O11 0.438181 0.250000 0.901282
O O12 0.438776 0.461431 0.739267
O O13 0.500000 0.500000 0.000000
O O14 0.142099 0.750000 0.473501
O O15 0.500000 0.500000 0.500000
O O16 0.503813 0.250000 0.616253
#
# Coordination Sequence:
#
# PCOD9162822 Si02
#       6
#     4   4   4   4   4   4
#     4  10  21  37  54  77 108 139 173 216 260 307
#     4  10  21  35  54  80 106 137 176 215 258 308
#     4   9  19  36  56  79 106 136 173 216 260 309
#     4  10  20  36  55  76 105 139 174 213 256 306
#     4   9  19  36  56  78 106 138 173 214 260 310
#     4  10  22  37  53  77 107 138 174 215 259 306
#
# _framework density 18.306877
#
# number of rings (size 3 to 8) (size 9 to 14) (size 15 to 20)
#    0.000    2.333    1.667    0.000    2.333    3.333 
#    0.000    0.000    0.000    0.000    0.000    0.000 
#    0.000    0.000    0.000    0.000    0.000    0.000 
#
# Total GULP energy -133941.162489 kJ/mol
# GULP energy per Si atom -5580.881770 kJ/mol
# Density = 1.826521 g / cm^3
# Si number density = 18.306877 Si / 1000 Ang^3
#
#
#
# Elastic Constant Matrix: (Units=GPa)
#
#
# Indices 1 2 3 4 5 6 
#
# 1 7.8373 1.0483 -17.5999 0.0000 -11.0095 0.0000
# 2 1.0483 4.0075 14.4861 0.0000 3.8906 0.0000
# 3 -17.5999 14.4861 67.8294 0.0000 4.7251 0.0000
# 4 0.0000 0.0000 0.0000 41.2149 0.0000 -1.3739
# 5 -11.0095 3.8906 4.7251 0.0000 32.6823 0.0000
# 6 0.0000 0.0000 0.0000 -1.3739 0.0000 19.0164
#
#
#
# Elastic Compliance Matrix: (Units=1/GPa)
#
#
# Indices 1 2 3 4 5 6 
#
# 1 -0.020511 0.177233 -0.041642 0.000000 -0.021987 0.000000
# 2 0.177233 -0.009741 0.044274 0.000000 0.054462 0.000000
# 3 -0.041642 0.044274 -0.004216 0.000000 -0.018689 0.000000
# 4 0.000000 0.000000 0.000000 0.024322 0.000000 0.001757
# 5 -0.021987 0.054462 -0.018689 0.000000 0.019410 0.000000
# 6 0.000000 0.000000 0.000000 0.001757 0.000000 0.052713
#
#
# Mechanical properties :
#
#
# Convention : Reuss Voigt Hill
#
# Bulk Modulus (GPa) = 3.07443 8.39368 5.73406
# Shear Modulus (GPa) = -26.40837 24.03204 -1.18817
#
# Velocity S-wave (km/s) = -3.80220 3.62710 -0.80650
# Velocity P-wave (km/s) = 4.19435 4.70490 1.50723
#
# Compressibility (1/GPa) = 0.32526311
#
# Stress axis : x y z
#
# Youngs Moduli (GPa) = -48.75411 -102.65448 -237.21855
#
# Poissons Ratio (x) = 18.19379 -9.87814
# Poissons Ratio (y) = 8.64085 10.50257
# Poissons Ratio (z) = -2.03020 4.54491
#
# Static dielectric constant tensor:
#      x y z
#    x 1.635230 0.000000 -0.001420 
#    y 0.000000 1.607680 0.000000 
#    z -0.001420 0.000000 1.600940 
# 
# From -- ./inp_files/20426.got.cif
#   From: 2010.05.17/outbox.cif.g08.bks.cpg/sg11_11_cif.got.tgz:20426.got - 2010.06.03 12:22:45.
