data_PCOD9162143
_publ_section_title
;
Structure prediction by ZEFSAII (Michael W. Deem and Ramdas Pophale) SiO2 
 PCOD9162143
Probable space group: P 21/M
;
_chemical_formula_sum "Si O2"
_cell_formula_units_Z 18
_cell_length_a 21.494930
_cell_length_b 5.751465
_cell_length_c 10.354977
_cell_angle_alpha 90.000000
_cell_angle_beta 146.631022
_cell_angle_gamma 90.000000
_cell_volume 704.123698
_symmetry_space_group_name_H-M "P 21/M"
_symmetry_group_IT_number 11
_symmetry_cell_setting 'monoclinic'
loop_
_space_group_symop_operation_xyz
x,y,z
-x,1/2+y,-z
-x,-y,-z
x,1/2-y,z
loop_
_atom_site_type_symbol
_atom_site_label
_atom_site_fract_x
_atom_site_fract_y
_atom_site_fract_z
Si Si1 0.485943 0.250000 0.144535
Si Si2 0.293037 0.250000 0.976861
Si Si3 0.757373 0.750000 0.643718
Si Si4 0.141026 0.250000 0.464649
Si Si5 0.951525 0.000987 0.268732
Si Si6 0.681505 0.250000 0.883286
Si Si7 0.484301 0.750000 0.165066
Si Si8 0.274624 0.750000 0.330373
O O1 0.427102 0.250000 0.184416
O O2 0.449510 0.508459 0.035730
O O3 0.621127 0.250000 0.386519
O O4 0.263044 0.498263 0.986626
O O5 0.237010 0.250000 0.739219
O O6 0.807342 0.750000 0.586418
O O7 0.619850 0.750000 0.412173
O O8 0.788597 0.496377 0.757334
O O9 0.058939 0.465320 0.359085
O O10 0.900612 0.750000 0.158167
O O11 0.890679 0.250000 0.146433
O O12 0.000000 0.000000 0.500000
O O13 0.574298 0.250000 0.795866
O O14 0.662535 0.250000 0.698501
#
# Coordination Sequence:
#
# PCOD9162143 Si02
#       8
#     2   2   2   2   4   2   2   2
#     4   8  16  30  44  65  87 120 170 204 242 281
#     4  10  21  31  49  75  97 132 161 202 266 293
#     4  10  21  31  49  75  97 132 161 202 266 293
#     4  10  22  32  52  74 118 126 150 198 254 312
#     4   8  16  30  50  72  97 131 159 189 228 294
#     4  10  20  35  51  68  94 132 182 220 239 275
#     4   8  16  30  44  65  87 120 170 204 242 281
#     4  10  20  35  51  68  94 132 182 220 239 275
#
# _framework density 25.563690000000001
#
# number of rings (size 3 to 8) (size 9 to 14) (size 15 to 20)
#    0.667    2.222    0.000    0.667    3.111    8.000 
#    0.000   10.000    0.000    0.000    0.000    0.000 
#    0.000   17.778    0.000    0.000    0.000    0.000 
#
# Total GULP energy -100354.667706 kJ/mol
# GULP energy per Si atom -5575.259317 kJ/mol
# Density = 2.550551 g / cm^3
# Si number density = 25.563690 Si / 1000 Ang^3
#
#
#
# Elastic Constant Matrix: (Units=GPa)
#
#
# Indices 1 2 3 4 5 6 
#
# 1 144.4586 71.9210 54.2041 0.0000 -47.6791 0.0000
# 2 71.9210 342.5942 60.6477 0.0000 -20.4016 0.0000
# 3 54.2041 60.6477 53.2836 0.0000 -11.9663 0.0000
# 4 0.0000 0.0000 0.0000 13.1095 0.0000 39.7602
# 5 -47.6791 -20.4016 -11.9663 0.0000 45.6219 0.0000
# 6 0.0000 0.0000 0.0000 39.7602 0.0000 -9.6996
#
#
#
# Elastic Compliance Matrix: (Units=1/GPa)
#
#
# Indices 1 2 3 4 5 6 
#
# 1 0.016701 -0.000283 -0.013576 0.000000 0.013767 0.000000
# 2 -0.000283 0.003675 -0.003817 0.000000 0.000346 0.000000
# 3 -0.013576 -0.003817 0.035440 0.000000 -0.006599 0.000000
# 4 0.000000 0.000000 0.000000 0.005679 0.000000 0.023278
# 5 0.013767 0.000346 -0.006599 0.000000 0.034731 0.000000
# 6 0.000000 0.000000 0.000000 0.023278 0.000000 -0.007675
#
#
# Mechanical properties :
#
#
# Convention : Reuss Voigt Hill
#
# Bulk Modulus (GPa) = 48.86474 101.54244 75.20359
# Shear Modulus (GPa) = 38.24911 33.37726 35.81319
#
# Velocity S-wave (km/s) = 3.87231 3.61730 3.74697
# Velocity P-wave (km/s) = 6.25695 7.56664 6.94275
#
# Compressibility (1/GPa) = 0.02046465
#
# Stress axis : x y z
#
# Youngs Moduli (GPa) = 59.87712 272.13783 28.21678
#
# Poissons Ratio (x) = 0.07702 0.38306
# Poissons Ratio (y) = 0.01695 0.10770
# Poissons Ratio (z) = 0.81287 1.03869
#
# Static dielectric constant tensor:
#      x y z
#    x 2.059450 0.000000 0.049270 
#    y 0.000000 2.065470 0.000000 
#    z 0.049270 0.000000 2.010100 
# 
# From -- ./inp_files/23546.got.cif
#   From: 2010.05.17/outbox.cif.g08.bks.cpg/sg11_12_cif.got.tgz:23546.got - 2010.06.03 12:22:45.
